data_PCOD8251599
_publ_section_title
;
Structure prediction by ZEFSAII (Michael W. Deem and Ramdas Pophale) SiO2 
 PCOD8251599
Probable space group: P N M A
;
_chemical_formula_sum "Si O2"
_cell_formula_units_Z 64
_cell_length_a 35.211033
_cell_length_b 11.101998
_cell_length_c 8.477276
_cell_angle_alpha 90.000000
_cell_angle_beta 90.000000
_cell_angle_gamma 90.000000
_cell_volume 3313.875850
_symmetry_space_group_name_H-M "P N M A"
_symmetry_group_IT_number 62
_symmetry_cell_setting 'orthorhombic'
loop_
_space_group_symop_operation_xyz
x,y,z
1/2-x,-y,1/2+z
1/2+x,1/2-y,1/2-z
-x,1/2+y,-z
-x,-y,-z
1/2+x,y,1/2-z
1/2-x,1/2+y,1/2+z
x,1/2-y,z
loop_
_atom_site_type_symbol
_atom_site_label
_atom_site_fract_x
_atom_site_fract_y
_atom_site_fract_z
Si Si1 0.364011 0.382095 0.718160
Si Si2 0.416815 0.543620 0.513913
Si Si3 0.040565 0.384048 0.311531
Si Si4 0.595747 0.961839 0.979385
Si Si5 0.783068 0.610254 0.089159
Si Si6 0.361740 0.617450 0.258578
Si Si7 0.040463 0.614799 0.778114
Si Si8 0.779400 0.387530 0.856491
O O1 0.370722 0.250000 0.647412
O O2 0.383114 0.472284 0.597789
O O3 0.382500 0.383514 0.891657
O O4 0.319440 0.410800 0.730233
O O5 0.438502 0.622691 0.642512
O O6 0.397033 0.624048 0.380317
O O7 0.447418 0.456399 0.433564
O O8 0.036817 0.250000 0.379428
O O9 0.064113 0.456328 0.439256
O O10 0.998572 0.442043 0.291326
O O11 0.573754 0.881015 0.852244
O O12 0.628354 0.037060 0.891757
O O13 0.784477 0.750000 0.018862
O O14 0.823983 0.570489 0.155941
O O15 0.753012 0.607736 0.227641
O O16 0.771725 0.501703 0.970990
O O17 0.354185 0.750000 0.191516
O O18 0.031638 0.750000 0.833518
O O19 0.778970 0.250000 0.933477
#
# Coordination Sequence:
#
# PCOD8251599 Si02
#       8
#     8   8   8   8   8   8   8   8
#     4  10  20  36  55  79 109 143 182 228 273 324
#     4  10  19  34  55  78 102 140 180 228 271 332
#     4  10  20  34  52  76 106 139 178 224 274 328
#     4  10  21  34  53  78 106 144 180 224 271 330
#     4  10  22  40  61  86 118 150 187 229 276 331
#     4  10  20  36  55  79 109 143 182 228 273 324
#     4  10  20  34  52  76 106 139 178 224 274 328
#     4  10  22  40  61  86 118 150 187 229 276 331
#
# _framework density 19.312733000000001
#
# number of rings (size 3 to 8) (size 9 to 14) (size 15 to 20)
#    0.000    2.000    1.250    2.250    1.750    0.500 
#    0.000    1.250    0.000   12.000    0.000    0.000 
#    0.000    0.000    0.000    0.000    0.000    0.000 
#
# Total GULP energy -793242.815812 kJ/mol
# GULP energy per Si atom -12394.418997 kJ/mol
# Density = 1.926878 g / cm^3
# Si number density = 19.312733 Si / 1000 Ang^3
#
#
#
# Elastic Constant Matrix: (Units=GPa)
#
#
# Indices 1 2 3 4 5 6 
#
# 1 83.1016 25.5900 13.1528 0.0000 0.0000 0.0000
# 2 25.5900 88.3990 21.6973 0.0000 0.0000 0.0000
# 3 13.1528 21.6973 51.7913 0.0000 0.0000 0.0000
# 4 0.0000 0.0000 0.0000 26.9935 0.0000 0.0000
# 5 0.0000 0.0000 0.0000 0.0000 30.8736 0.0000
# 6 0.0000 0.0000 0.0000 0.0000 0.0000 23.3354
#
#
#
# Elastic Compliance Matrix: (Units=1/GPa)
#
#
# Indices 1 2 3 4 5 6 
#
# 1 0.013391 -0.003390 -0.001980 0.000000 0.000000 0.000000
# 2 -0.003390 0.013467 -0.004781 0.000000 0.000000 0.000000
# 3 -0.001980 -0.004781 0.021814 0.000000 0.000000 0.000000
# 4 0.000000 0.000000 0.000000 0.037046 0.000000 0.000000
# 5 0.000000 0.000000 0.000000 0.000000 0.032390 0.000000
# 6 0.000000 0.000000 0.000000 0.000000 0.000000 0.042853
#
#
# Mechanical properties :
#
#
# Convention : Reuss Voigt Hill
#
# Bulk Modulus (GPa) = 35.24981 38.24133 36.74557
# Shear Modulus (GPa) = 26.21625 27.09728 26.65676
#
# Velocity S-wave (km/s) = 3.68837 3.74983 3.71923
# Velocity P-wave (km/s) = 6.03577 6.21228 6.12466
#
# Compressibility (1/GPa) = 0.02836895
#
# Stress axis : x y z
#
# Youngs Moduli (GPa) = 74.67753 74.25411 45.84195
#
# Poissons Ratio (x) = 0.25175 0.09078
# Poissons Ratio (y) = 0.25318 0.21917
# Poissons Ratio (z) = 0.14789 0.35500
#
# Static dielectric constant tensor:
#      x y z
#    x 3.658950 0.000000 0.000000 
#    y 0.000000 3.559440 0.000000 
#    z 0.000000 0.000000 3.353110 
# 
# 
# High freq. dielectric constant tensor:
#      x y z
#    x 1.768230 0.000000 0.000000 
#    y 0.000000 1.751700 0.000000 
#    z 0.000000 0.000000 1.737130 
# 
# From -- ./inp_files/10497.got.cif
#   From: 2010.03.12/outbox.cif.g09.slc.cpg/sg62_6_cif.got.tgz:10497.got - 2010.04.10 19:12:36.
