data_PCOD8251582
_publ_section_title
;
Structure prediction by ZEFSAII (Michael W. Deem and Ramdas Pophale) SiO2 
 PCOD8251582
Probable space group: P N M A
;
_chemical_formula_sum "Si O2"
_cell_formula_units_Z 64
_cell_length_a 27.610078
_cell_length_b 8.755237
_cell_length_c 13.201040
_cell_angle_alpha 90.000000
_cell_angle_beta 90.000000
_cell_angle_gamma 90.000000
_cell_volume 3191.124052
_symmetry_space_group_name_H-M "P N M A"
_symmetry_group_IT_number 62
_symmetry_cell_setting 'orthorhombic'
loop_
_space_group_symop_operation_xyz
x,y,z
1/2-x,-y,1/2+z
1/2+x,1/2-y,1/2-z
-x,1/2+y,-z
-x,-y,-z
1/2+x,y,1/2-z
1/2-x,1/2+y,1/2+z
x,1/2-y,z
loop_
_atom_site_type_symbol
_atom_site_label
_atom_site_fract_x
_atom_site_fract_y
_atom_site_fract_z
Si Si1 0.558343 0.572888 0.282558
Si Si2 0.373853 0.929894 0.885263
Si Si3 0.591332 0.568811 0.504918
Si Si4 0.229319 0.582094 0.368605
Si Si5 0.198449 0.927404 0.003951
Si Si6 0.552985 0.427367 0.708265
Si Si7 0.377635 0.569320 0.115154
Si Si8 0.272219 0.917269 0.153427
O O1 0.573059 0.750000 0.271954
O O2 0.587036 0.478302 0.198020
O O3 0.569470 0.515374 0.396930
O O4 0.502186 0.545007 0.259660
O O5 0.364848 0.750000 0.877874
O O6 0.324283 0.016343 0.860516
O O7 0.391986 0.974364 0.999344
O O8 0.589694 0.750000 0.513751
O O9 0.645719 0.498274 0.511043
O O10 0.561768 0.505125 0.599920
O O11 0.227634 0.750000 0.422621
O O12 0.265344 0.456564 0.412688
O O13 0.255305 0.609246 0.264460
O O14 0.188510 0.750000 0.022118
O O15 0.227854 0.004156 0.097690
O O16 0.564337 0.250000 0.693207
O O17 0.585299 0.498118 0.800433
O O18 0.377713 0.750000 0.129410
O O19 0.324137 0.499189 0.139657
O O20 0.278692 0.750000 0.100462
#
# Coordination Sequence:
#
# PCOD8251582 Si02
#       8
#     8   8   8   8   8   8   8   8
#     4  10  22  40  60  85 117 153 194 249 307 351
#     4  11  22  38  60  83 115 157 197 238 287 353
#     4  10  21  37  58  85 121 156 190 240 304 360
#     4  11  21  34  56  84 113 148 188 234 284 336
#     4  10  19  34  54  77 108 150 187 219 271 344
#     4  10  21  38  62  87 113 150 201 252 298 355
#     4   9  18  35  58  83 113 153 194 235 290 347
#     4   9  17  32  54  76 108 151 185 217 275 343
#
# _framework density 20.055629
#
# number of rings (size 3 to 8) (size 9 to 14) (size 15 to 20)
#    0.000    2.000    1.250    2.625    0.000    5.000 
#    0.000    3.750    0.000    0.000    0.000    0.000 
#    0.000    0.000    0.000    0.000    0.000    0.000 
#
# Total GULP energy -792920.482351 kJ/mol
# GULP energy per Si atom -12389.382537 kJ/mol
# Density = 2.000998 g / cm^3
# Si number density = 20.055629 Si / 1000 Ang^3
#
#
#
# Elastic Constant Matrix: (Units=GPa)
#
#
# Indices 1 2 3 4 5 6 
#
# 1 108.4046 29.2352 47.3661 0.0000 0.0000 0.0000
# 2 29.2352 40.7714 31.5140 0.0000 0.0000 0.0000
# 3 47.3661 31.5140 133.7728 0.0000 0.0000 0.0000
# 4 0.0000 0.0000 0.0000 21.7093 0.0000 0.0000
# 5 0.0000 0.0000 0.0000 0.0000 33.8093 0.0000
# 6 0.0000 0.0000 0.0000 0.0000 0.0000 21.9455
#
#
#
# Elastic Compliance Matrix: (Units=1/GPa)
#
#
# Indices 1 2 3 4 5 6 
#
# 1 0.012220 -0.006624 -0.002766 0.000000 0.000000 0.000000
# 2 -0.006624 0.033578 -0.005565 0.000000 0.000000 0.000000
# 3 -0.002766 -0.005565 0.009766 0.000000 0.000000 0.000000
# 4 0.000000 0.000000 0.000000 0.046063 0.000000 0.000000
# 5 0.000000 0.000000 0.000000 0.000000 0.029578 0.000000
# 6 0.000000 0.000000 0.000000 0.000000 0.000000 0.045567
#
#
# Mechanical properties :
#
#
# Convention : Reuss Voigt Hill
#
# Bulk Modulus (GPa) = 38.98129 55.46440 47.22284
# Shear Modulus (GPa) = 23.23057 27.14838 25.18947
#
# Velocity S-wave (km/s) = 3.40708 3.68319 3.54783
# Velocity P-wave (km/s) = 5.91239 6.76781 6.35451
#
# Compressibility (1/GPa) = 0.02565333
#
# Stress axis : x y z
#
# Youngs Moduli (GPa) = 81.83433 29.78130 102.39816
#
# Poissons Ratio (x) = 0.19727 0.28326
# Poissons Ratio (y) = 0.54208 0.56983
# Poissons Ratio (z) = 0.22638 0.16573
#
# Static dielectric constant tensor:
#      x y z
#    x 3.883920 0.000000 0.000000 
#    y 0.000000 1.568180 0.000000 
#    z 0.000000 0.000000 3.734590 
# 
# 
# High freq. dielectric constant tensor:
#      x y z
#    x 1.795760 0.000000 0.000000 
#    y 0.000000 1.747830 0.000000 
#    z 0.000000 0.000000 1.792170 
# 
# From -- ./inp_files/15909.got.cif
#   From: 2010.03.12/outbox.cif.g09.slc.cpg/sg62_8_cif.got.tgz:15909.got - 2010.04.10 19:12:36.
