data_PCOD8251641
_publ_section_title
;
Structure prediction by ZEFSAII (Michael W. Deem and Ramdas Pophale) SiO2 
 PCOD8251641
Probable space group: P N M A
;
_chemical_formula_sum "Si O2"
_cell_formula_units_Z 40
_cell_length_a 13.468881
_cell_length_b 13.307393
_cell_length_c 13.505485
_cell_angle_alpha 90.000000
_cell_angle_beta 90.000000
_cell_angle_gamma 90.000000
_cell_volume 2420.664960
_symmetry_space_group_name_H-M "P N M A"
_symmetry_group_IT_number 62
_symmetry_cell_setting 'orthorhombic'
loop_
_space_group_symop_operation_xyz
x,y,z
1/2-x,-y,1/2+z
1/2+x,1/2-y,1/2-z
-x,1/2+y,-z
-x,-y,-z
1/2+x,y,1/2-z
1/2-x,1/2+y,1/2+z
x,1/2-y,z
loop_
_atom_site_type_symbol
_atom_site_label
_atom_site_fract_x
_atom_site_fract_y
_atom_site_fract_z
Si Si1 0.355290 0.999152 0.738513
Si Si2 0.785887 0.864230 0.390492
Si Si3 0.976735 0.634615 0.268016
Si Si4 0.470103 0.022363 0.388711
Si Si5 0.267680 0.366293 0.387947
O O1 0.280980 0.059099 0.668833
O O2 0.420124 0.080788 0.801227
O O3 0.432101 0.935686 0.669115
O O4 0.296319 0.925225 0.808194
O O5 0.749335 0.750000 0.371019
O O6 0.899609 0.877402 0.357547
O O7 0.779139 0.890671 0.505810
O O8 0.996854 0.750000 0.241880
O O9 0.936051 0.580862 0.167159
O O10 0.382719 0.103170 0.384343
O O11 0.500000 0.000000 0.500000
O O12 0.260631 0.250000 0.360979
#
# Coordination Sequence:
#
# PCOD8251641 Si02
#       5
#     8   8   8   8   8
#     4  10  19  34  56  81 107 144 184 229 270 329
#     4  10  19  34  58  80 107 147 184 221 280 334
#     4   9  19  34  55  82 106 136 183 232 271 321
#     4  10  20  34  57  84 108 141 186 229 276 325
#     4  11  22  37  55  80 115 153 182 224 280 331
#
# _framework density 16.524386
#
# number of rings (size 3 to 8) (size 9 to 14) (size 15 to 20)
#    1.200    0.800    4.000    0.600    0.000    2.400 
#    0.000    0.000    0.000    2.400    0.000    0.000 
#    0.000    0.000    0.000    0.000    0.000    0.000 
#
# Total GULP energy -495685.005769 kJ/mol
# GULP energy per Si atom -12392.125144 kJ/mol
# Density = 1.648678 g / cm^3
# Si number density = 16.524386 Si / 1000 Ang^3
#
#
#
# Elastic Constant Matrix: (Units=GPa)
#
#
# Indices 1 2 3 4 5 6 
#
# 1 72.2767 34.1352 68.5047 0.0000 0.0000 0.0000
# 2 34.1352 85.9011 70.8503 0.0000 0.0000 0.0000
# 3 68.5047 70.8503 122.3551 0.0000 0.0000 0.0000
# 4 0.0000 0.0000 0.0000 28.3748 0.0000 0.0000
# 5 0.0000 0.0000 0.0000 0.0000 35.3155 0.0000
# 6 0.0000 0.0000 0.0000 0.0000 0.0000 20.1984
#
#
#
# Elastic Compliance Matrix: (Units=1/GPa)
#
#
# Indices 1 2 3 4 5 6 
#
# 1 0.030084 0.003709 -0.018992 0.000000 0.000000 0.000000
# 2 0.003709 0.022741 -0.015245 0.000000 0.000000 0.000000
# 3 -0.018992 -0.015245 0.027634 0.000000 0.000000 0.000000
# 4 0.000000 0.000000 0.000000 0.035243 0.000000 0.000000
# 5 0.000000 0.000000 0.000000 0.000000 0.028316 0.000000
# 6 0.000000 0.000000 0.000000 0.000000 0.000000 0.049509
#
#
# Mechanical properties :
#
#
# Convention : Reuss Voigt Hill
#
# Bulk Modulus (GPa) = 51.53479 69.72369 60.62924
# Shear Modulus (GPa) = 19.15336 23.91392 21.53364
#
# Velocity S-wave (km/s) = 3.40824 3.80832 3.61382
# Velocity P-wave (km/s) = 6.83688 7.85008 7.36094
#
# Compressibility (1/GPa) = 0.01940437
#
# Stress axis : x y z
#
# Youngs Moduli (GPa) = 33.23986 43.97248 36.18745
#
# Poissons Ratio (x) = -0.16310 0.68726
# Poissons Ratio (y) = -0.12329 0.55169
# Poissons Ratio (z) = 0.63128 0.67037
#
# Static dielectric constant tensor:
#      x y z
#    x 3.245660 0.000000 0.000000 
#    y 0.000000 3.289160 0.000000 
#    z 0.000000 0.000000 2.819440 
# 
# 
# High freq. dielectric constant tensor:
#      x y z
#    x 1.645770 0.000000 0.000000 
#    y 0.000000 1.626720 0.000000 
#    z 0.000000 0.000000 1.630670 
# 
# From -- ./inp_files/18738.got.cif
#   From: 2010.03.12/outbox.cif.g09.slc.cpg/sg62_10_cif.got.tgz:18738.got - 2010.04.10 19:12:36.
