data_PCOD8251955
_publ_section_title
;
Structure prediction by ZEFSAII (Michael W. Deem and Ramdas Pophale) SiO2 
 PCOD8251955
Probable space group: P N M A
;
_chemical_formula_sum "Si O2"
_cell_formula_units_Z 64
_cell_length_a 19.171683
_cell_length_b 18.303075
_cell_length_c 9.760605
_cell_angle_alpha 90.000000
_cell_angle_beta 90.000000
_cell_angle_gamma 90.000000
_cell_volume 3425.003633
_symmetry_space_group_name_H-M "P N M A"
_symmetry_group_IT_number 62
_symmetry_cell_setting 'orthorhombic'
loop_
_space_group_symop_operation_xyz
x,y,z
1/2-x,-y,1/2+z
1/2+x,1/2-y,1/2-z
-x,1/2+y,-z
-x,-y,-z
1/2+x,y,1/2-z
1/2-x,1/2+y,1/2+z
x,1/2-y,z
loop_
_atom_site_type_symbol
_atom_site_label
_atom_site_fract_x
_atom_site_fract_y
_atom_site_fract_z
Si Si1 0.744741 0.834931 0.883099
Si Si2 0.387932 0.427448 0.053869
Si Si3 0.380276 0.593618 0.110812
Si Si4 0.348956 0.833673 0.380393
Si Si5 0.494241 0.333835 0.527861
Si Si6 0.968127 0.416406 0.713343
Si Si7 0.641817 0.334923 0.167504
Si Si8 0.492069 0.919126 0.734813
O O1 0.726930 0.750000 0.890066
O O2 0.672668 0.877124 0.888953
O O3 0.785626 0.854128 0.743170
O O4 0.791473 0.858982 0.011640
O O5 0.364056 0.510400 0.074298
O O6 0.457370 0.407828 0.136787
O O7 0.403648 0.414833 0.892650
O O8 0.339623 0.614834 0.248845
O O9 0.462730 0.606693 0.129902
O O10 0.350958 0.645301 0.991475
O O11 0.339189 0.750000 0.334758
O O12 0.423694 0.844475 0.450061
O O13 0.474384 0.250000 0.497062
O O14 0.453024 0.359338 0.664388
O O15 0.472058 0.384642 0.400116
O O16 0.978249 0.495021 0.784663
O O17 0.623957 0.250000 0.186980
O O18 0.580223 0.379612 0.236989
#
# Coordination Sequence:
#
# PCOD8251955 Si02
#       8
#     8   8   8   8   8   8   8   8
#     4  10  23  39  54  79 116 153 189 235 291 347
#     4  11  22  38  57  85 120 153 188 234 295 351
#     4  10  19  36  58  86 113 140 194 242 280 339
#     4   9  18  35  55  78 108 144 186 235 282 334
#     4  10  20  34  57  86 111 146 199 237 277 341
#     4  10  20  37  57  85 121 150 184 244 294 338
#     4  11  20  35  60  86 113 150 195 242 284 337
#     4  11  19  37  60  87 117 153 191 241 291 343
#
# _framework density 18.686111
#
# number of rings (size 3 to 8) (size 9 to 14) (size 15 to 20)
#    0.000    1.750    3.750    1.875    0.000    3.000 
#    0.000    1.250    0.000    0.000    0.000    0.000 
#    0.000    0.000    0.000    0.000    0.000    0.000 
#
# Total GULP energy -793753.338881 kJ/mol
# GULP energy per Si atom -12402.395920 kJ/mol
# Density = 1.864358 g / cm^3
# Si number density = 18.686111 Si / 1000 Ang^3
#
#
#
# Elastic Constant Matrix: (Units=GPa)
#
#
# Indices 1 2 3 4 5 6 
#
# 1 33.0608 23.7596 9.8640 0.0000 0.0000 0.0000
# 2 23.7596 65.3788 37.5549 0.0000 0.0000 0.0000
# 3 9.8640 37.5549 101.1203 0.0000 0.0000 0.0000
# 4 0.0000 0.0000 0.0000 37.6658 0.0000 0.0000
# 5 0.0000 0.0000 0.0000 0.0000 25.3645 0.0000
# 6 0.0000 0.0000 0.0000 0.0000 0.0000 23.0708
#
#
#
# Elastic Compliance Matrix: (Units=1/GPa)
#
#
# Indices 1 2 3 4 5 6 
#
# 1 0.041244 -0.016115 0.001962 0.000000 0.000000 0.000000
# 2 -0.016115 0.025740 -0.007988 0.000000 0.000000 0.000000
# 3 0.001962 -0.007988 0.012664 0.000000 0.000000 0.000000
# 4 0.000000 0.000000 0.000000 0.026549 0.000000 0.000000
# 5 0.000000 0.000000 0.000000 0.000000 0.039425 0.000000
# 6 0.000000 0.000000 0.000000 0.000000 0.000000 0.043345
#
#
# Mechanical properties :
#
#
# Convention : Reuss Voigt Hill
#
# Bulk Modulus (GPa) = 28.27589 37.99077 33.13333
# Shear Modulus (GPa) = 20.40494 25.77897 23.09195
#
# Velocity S-wave (km/s) = 3.30810 3.71830 3.51918
# Velocity P-wave (km/s) = 5.45493 6.22973 5.85516
#
# Compressibility (1/GPa) = 0.03536582
#
# Stress axis : x y z
#
# Youngs Moduli (GPa) = 24.24621 38.84949 78.96174
#
# Poissons Ratio (x) = 0.62608 -0.15492
# Poissons Ratio (y) = 0.39074 0.63072
# Poissons Ratio (z) = -0.04757 0.31032
#
# Static dielectric constant tensor:
#      x y z
#    x 3.104030 0.000000 0.000000 
#    y 0.000000 3.490800 0.000000 
#    z 0.000000 0.000000 3.685030 
# 
# 
# High freq. dielectric constant tensor:
#      x y z
#    x 1.690540 0.000000 0.000000 
#    y 0.000000 1.729530 0.000000 
#    z 0.000000 0.000000 1.740620 
# 
# From -- ./inp_files/8132.got.cif
#   From: 2010.03.12/outbox.cif.g09.slc.cpg/sg62_5_cif.got.tgz:8132.got - 2010.04.10 19:12:36.
