data_PCOD8251063
_publ_section_title
;
Structure prediction by ZEFSAII (Michael W. Deem and Ramdas Pophale) SiO2 
 PCOD8251063
Probable space group: P N M A
;
_chemical_formula_sum "Si O2"
_cell_formula_units_Z 56
_cell_length_a 19.831584
_cell_length_b 9.235143
_cell_length_c 16.727737
_cell_angle_alpha 90.000000
_cell_angle_beta 90.000000
_cell_angle_gamma 90.000000
_cell_volume 3063.643449
_symmetry_space_group_name_H-M "P N M A"
_symmetry_group_IT_number 62
_symmetry_cell_setting 'orthorhombic'
loop_
_space_group_symop_operation_xyz
x,y,z
1/2-x,-y,1/2+z
1/2+x,1/2-y,1/2-z
-x,1/2+y,-z
-x,-y,-z
1/2+x,y,1/2-z
1/2-x,1/2+y,1/2+z
x,1/2-y,z
loop_
_atom_site_type_symbol
_atom_site_label
_atom_site_fract_x
_atom_site_fract_y
_atom_site_fract_z
Si Si1 0.694281 0.417626 0.416362
Si Si2 0.127220 0.583066 0.349079
Si Si3 0.981014 0.579087 0.756608
Si Si4 0.125924 0.578989 0.692161
Si Si5 0.755668 0.416339 0.768656
Si Si6 0.666519 0.919809 0.981556
Si Si7 0.955981 0.582819 0.936326
O O1 0.702125 0.250000 0.389956
O O2 0.698271 0.513812 0.337286
O O3 0.754280 0.463051 0.476499
O O4 0.622397 0.443644 0.458211
O O5 0.103662 0.750000 0.348711
O O6 0.202140 0.569539 0.312655
O O7 0.132349 0.514669 0.438732
O O8 0.072991 0.492363 0.301001
O O9 0.970653 0.750000 0.750639
O O10 0.055052 0.530895 0.728615
O O11 0.970730 0.524424 0.847156
O O12 0.138046 0.750000 0.699292
O O13 0.184863 0.499624 0.741415
O O14 0.128696 0.528716 0.599120
O O15 0.740721 0.250000 0.790262
O O16 0.660287 0.750000 0.991365
O O17 0.975843 0.750000 0.941778
O O18 0.000000 0.500000 0.000000
#
# Coordination Sequence:
#
# PCOD8251063 Si02
#       7
#     8   8   8   8   8   8   8
#     4   9  17  34  56  73  99 141 178 215 267 323
#     4  10  20  33  52  79 108 139 177 221 267 319
#     4  10  21  37  55  79 108 142 184 222 265 323
#     4   9  19  36  56  75 105 145 179 218 266 319
#     4  10  19  31  52  79 104 134 176 226 268 313
#     4   8  16  32  53  76 101 136 180 216 259 317
#     4  10  21  35  54  79 107 141 179 220 268 323
#
# _framework density 18.278888999999999
#
# number of rings (size 3 to 8) (size 9 to 14) (size 15 to 20)
#    0.000    2.571    1.429    1.286    0.000    4.000 
#    0.000    4.286    0.000    0.000    0.000    0.000 
#    0.000    0.000    0.000    0.000    0.000    0.000 
#
# Total GULP energy -694264.634964 kJ/mol
# GULP energy per Si atom -12397.582767 kJ/mol
# Density = 1.823729 g / cm^3
# Si number density = 18.278889 Si / 1000 Ang^3
#
#
#
# Elastic Constant Matrix: (Units=GPa)
#
#
# Indices 1 2 3 4 5 6 
#
# 1 128.2765 37.3179 59.7372 0.0000 0.0000 0.0000
# 2 37.3179 45.6294 26.6373 0.0000 0.0000 0.0000
# 3 59.7372 26.6373 88.5538 0.0000 0.0000 0.0000
# 4 0.0000 0.0000 0.0000 21.1444 0.0000 0.0000
# 5 0.0000 0.0000 0.0000 0.0000 29.8604 0.0000
# 6 0.0000 0.0000 0.0000 0.0000 0.0000 29.5077
#
#
#
# Elastic Compliance Matrix: (Units=1/GPa)
#
#
# Indices 1 2 3 4 5 6 
#
# 1 0.012816 -0.006592 -0.006663 0.000000 0.000000 0.000000
# 2 -0.006592 0.029975 -0.004569 0.000000 0.000000 0.000000
# 3 -0.006663 -0.004569 0.017162 0.000000 0.000000 0.000000
# 4 0.000000 0.000000 0.000000 0.047294 0.000000 0.000000
# 5 0.000000 0.000000 0.000000 0.000000 0.033489 0.000000
# 6 0.000000 0.000000 0.000000 0.000000 0.000000 0.033889
#
#
# Mechanical properties :
#
#
# Convention : Reuss Voigt Hill
#
# Bulk Modulus (GPa) = 41.14584 56.64940 48.89762
# Shear Modulus (GPa) = 22.89639 25.35364 24.12502
#
# Velocity S-wave (km/s) = 3.54307 3.72835 3.63689
# Velocity P-wave (km/s) = 6.26871 7.04223 6.66670
#
# Compressibility (1/GPa) = 0.02430379
#
# Stress axis : x y z
#
# Youngs Moduli (GPa) = 78.02627 33.36146 58.26945
#
# Poissons Ratio (x) = 0.21993 0.38823
# Poissons Ratio (y) = 0.51437 0.26626
# Poissons Ratio (z) = 0.51986 0.15245
#
# Static dielectric constant tensor:
#      x y z
#    x 3.507280 0.000000 0.000000 
#    y 0.000000 3.204560 0.000000 
#    z 0.000000 0.000000 3.502490 
# 
# 
# High freq. dielectric constant tensor:
#      x y z
#    x 1.715630 0.000000 0.000000 
#    y 0.000000 1.689080 0.000000 
#    z 0.000000 0.000000 1.704170 
# 
# From -- ./inp_files/20214.got.cif
#   From: 2010.03.12/outbox.cif.g09.slc.cpg/sg62_11_cif.got.tgz:20214.got - 2010.04.10 19:12:36.
