data_PCOD8251804
_publ_section_title
;
Structure prediction by ZEFSAII (Michael W. Deem and Ramdas Pophale) SiO2 
 PCOD8251804
Probable space group: P N M A
;
_chemical_formula_sum "Si O2"
_cell_formula_units_Z 64
_cell_length_a 24.626176
_cell_length_b 8.375727
_cell_length_c 15.189950
_cell_angle_alpha 90.000000
_cell_angle_beta 90.000000
_cell_angle_gamma 90.000000
_cell_volume 3133.111400
_symmetry_space_group_name_H-M "P N M A"
_symmetry_group_IT_number 62
_symmetry_cell_setting 'orthorhombic'
loop_
_space_group_symop_operation_xyz
x,y,z
1/2-x,-y,1/2+z
1/2+x,1/2-y,1/2-z
-x,1/2+y,-z
-x,-y,-z
1/2+x,y,1/2-z
1/2-x,1/2+y,1/2+z
x,1/2-y,z
loop_
_atom_site_type_symbol
_atom_site_label
_atom_site_fract_x
_atom_site_fract_y
_atom_site_fract_z
Si Si1 0.449547 0.933303 0.165873
Si Si2 0.242124 0.067129 0.266626
Si Si3 0.774429 0.933571 0.533595
Si Si4 0.612046 0.564782 0.997146
Si Si5 0.434137 0.935293 0.825416
Si Si6 0.140477 0.439385 0.169208
Si Si7 0.158131 0.064762 0.977905
Si Si8 0.361146 0.063168 0.293426
O O1 0.467437 0.750000 0.169152
O O2 0.501718 0.042229 0.183127
O O3 0.406658 0.966356 0.242640
O O4 0.425532 0.969349 0.070246
O O5 0.251580 0.250000 0.242608
O O6 0.215261 0.050005 0.362512
O O7 0.199045 0.986858 0.199646
O O8 0.302454 0.990337 0.263723
O O9 0.765751 0.750000 0.506314
O O10 0.826441 0.005158 0.484148
O O11 0.721881 0.034358 0.506570
O O12 0.609318 0.750000 0.973189
O O13 0.589998 0.537101 0.094843
O O14 0.420575 0.750000 0.842484
O O15 0.407193 0.997568 0.734223
O O16 0.146017 0.250000 0.176139
O O17 0.127919 0.488758 0.068476
O O18 0.148484 0.250000 0.957167
O O19 0.133232 0.961400 0.898593
O O20 0.366992 0.250000 0.272611
#
# Coordination Sequence:
#
# PCOD8251804 Si02
#       8
#     8   8   8   8   8   8   8   8
#     4  12  26  43  62  87 119 157 205 256 305 361
#     4   8  15  31  56  84 116 154 192 237 294 351
#     4  10  19  35  57  85 122 163 202 245 298 355
#     4  12  24  39  60  90 123 160 201 246 304 367
#     4  11  22  42  66  89 120 159 204 249 302 363
#     4   9  18  34  60  90 120 158 198 244 299 357
#     4  10  20  35  59  91 125 161 202 249 305 364
#     4  10  21  39  62  87 121 161 203 251 307 361
#
# _framework density 20.426978999999999
#
# number of rings (size 3 to 8) (size 9 to 14) (size 15 to 20)
#    0.000    1.750    1.250    4.875    1.750    0.000 
#    0.000    3.125    0.000    0.000    0.000    0.000 
#    0.000    0.000    0.000    0.000    0.000    0.000 
#
# Total GULP energy -793601.031079 kJ/mol
# GULP energy per Si atom -12400.016111 kJ/mol
# Density = 2.038049 g / cm^3
# Si number density = 20.426979 Si / 1000 Ang^3
#
#
#
# Elastic Constant Matrix: (Units=GPa)
#
#
# Indices 1 2 3 4 5 6 
#
# 1 78.9014 -3.1263 40.8200 0.0000 0.0000 0.0000
# 2 -3.1263 51.3935 10.6133 0.0000 0.0000 0.0000
# 3 40.8200 10.6133 98.3226 0.0000 0.0000 0.0000
# 4 0.0000 0.0000 0.0000 24.3808 0.0000 0.0000
# 5 0.0000 0.0000 0.0000 0.0000 28.7401 0.0000
# 6 0.0000 0.0000 0.0000 0.0000 0.0000 27.2275
#
#
#
# Elastic Compliance Matrix: (Units=1/GPa)
#
#
# Indices 1 2 3 4 5 6 
#
# 1 0.016441 0.002465 -0.007092 0.000000 0.000000 0.000000
# 2 0.002465 0.020271 -0.003211 0.000000 0.000000 0.000000
# 3 -0.007092 -0.003211 0.013461 0.000000 0.000000 0.000000
# 4 0.000000 0.000000 0.000000 0.041016 0.000000 0.000000
# 5 0.000000 0.000000 0.000000 0.000000 0.034795 0.000000
# 6 0.000000 0.000000 0.000000 0.000000 0.000000 0.036728
#
#
# Mechanical properties :
#
#
# Convention : Reuss Voigt Hill
#
# Bulk Modulus (GPa) = 28.98873 36.13683 32.56278
# Shear Modulus (GPa) = 26.33157 28.09037 27.21097
#
# Velocity S-wave (km/s) = 3.59424 3.71234 3.65377
# Velocity P-wave (km/s) = 5.60776 6.00870 5.81169
#
# Compressibility (1/GPa) = 0.03449617
#
# Stress axis : x y z
#
# Youngs Moduli (GPa) = 60.82524 49.33205 74.28649
#
# Poissons Ratio (x) = -0.12158 0.52681
# Poissons Ratio (y) = -0.14991 0.23856
# Poissons Ratio (z) = 0.43135 0.15842
#
# Static dielectric constant tensor:
#      x y z
#    x 3.706090 0.000000 0.000000 
#    y 0.000000 3.457030 0.000000 
#    z 0.000000 0.000000 3.787230 
# 
# 
# High freq. dielectric constant tensor:
#      x y z
#    x 1.791500 0.000000 0.000000 
#    y 0.000000 1.781240 0.000000 
#    z 0.000000 0.000000 1.801290 
# 
# From -- ./inp_files/20761.got.cif
#   From: 2010.03.12/outbox.cif.g09.slc.cpg/sg62_11_cif.got.tgz:20761.got - 2010.04.10 19:12:36.
