data_PCOD8251714
_publ_section_title
;
Structure prediction by ZEFSAII (Michael W. Deem and Ramdas Pophale) SiO2 
 PCOD8251714
Probable space group: P N M A
;
_chemical_formula_sum "Si O2"
_cell_formula_units_Z 40
_cell_length_a 19.539318
_cell_length_b 9.208566
_cell_length_c 10.711546
_cell_angle_alpha 90.000000
_cell_angle_beta 90.000000
_cell_angle_gamma 90.000000
_cell_volume 1927.318825
_symmetry_space_group_name_H-M "P N M A"
_symmetry_group_IT_number 62
_symmetry_cell_setting 'orthorhombic'
loop_
_space_group_symop_operation_xyz
x,y,z
1/2-x,-y,1/2+z
1/2+x,1/2-y,1/2-z
-x,1/2+y,-z
-x,-y,-z
1/2+x,y,1/2-z
1/2-x,1/2+y,1/2+z
x,1/2-y,z
loop_
_atom_site_type_symbol
_atom_site_label
_atom_site_fract_x
_atom_site_fract_y
_atom_site_fract_z
Si Si1 0.286499 0.922357 0.646651
Si Si2 0.101392 0.908567 0.011836
Si Si3 0.454163 0.422050 0.901067
Si Si4 0.297306 0.420935 0.896473
Si Si5 0.969279 0.907516 0.162148
O O1 0.294126 0.750000 0.663098
O O2 0.237028 0.960370 0.529580
O O3 0.358915 0.995758 0.613691
O O4 0.262403 0.992140 0.779588
O O5 0.136770 0.750000 0.994906
O O6 0.023343 0.884606 0.051502
O O7 0.095421 0.992995 0.879222
O O8 0.458127 0.250000 0.916540
O O9 0.375711 0.472714 0.908170
O O10 0.488205 0.477604 0.773900
O O11 0.500000 0.500000 0.000000
O O12 0.291379 0.250000 0.867444
O O13 0.938234 0.750000 0.198592
#
# Coordination Sequence:
#
# PCOD8251714 Si02
#       5
#     8   8   8   8   8
#     4  11  23  39  64  93 123 160 208 255 302 368
#     4  10  19  34  58  85 117 152 189 241 297 349
#     4  10  21  39  60  84 118 156 194 244 303 360
#     4  10  23  44  63  86 124 163 202 253 307 360
#     4   9  18  34  56  83 115 151 193 238 288 350
#
# _framework density 20.75422
#
# number of rings (size 3 to 8) (size 9 to 14) (size 15 to 20)
#    0.000    2.000    2.000    1.200    0.000    5.600 
#    0.000    4.000    0.000    0.000    0.000    0.000 
#    0.000    0.000    0.000    0.000    0.000    0.000 
#
# Total GULP energy -495626.414723 kJ/mol
# GULP energy per Si atom -12390.660368 kJ/mol
# Density = 2.070698 g / cm^3
# Si number density = 20.754220 Si / 1000 Ang^3
#
#
#
# Elastic Constant Matrix: (Units=GPa)
#
#
# Indices 1 2 3 4 5 6 
#
# 1 39.9873 32.1492 47.1831 0.0000 0.0000 0.0000
# 2 32.1492 93.1259 59.5288 0.0000 0.0000 0.0000
# 3 47.1831 59.5288 135.3336 0.0000 0.0000 0.0000
# 4 0.0000 0.0000 0.0000 34.6887 0.0000 0.0000
# 5 0.0000 0.0000 0.0000 0.0000 38.2147 0.0000
# 6 0.0000 0.0000 0.0000 0.0000 0.0000 26.7238
#
#
#
# Elastic Compliance Matrix: (Units=1/GPa)
#
#
# Indices 1 2 3 4 5 6 
#
# 1 0.046302 -0.007882 -0.012676 0.000000 0.000000 0.000000
# 2 -0.007882 0.016280 -0.004413 0.000000 0.000000 0.000000
# 3 -0.012676 -0.004413 0.013750 0.000000 0.000000 0.000000
# 4 0.000000 0.000000 0.000000 0.028828 0.000000 0.000000
# 5 0.000000 0.000000 0.000000 0.000000 0.026168 0.000000
# 6 0.000000 0.000000 0.000000 0.000000 0.000000 0.037420
#
#
# Mechanical properties :
#
#
# Convention : Reuss Voigt Hill
#
# Bulk Modulus (GPa) = 37.89303 60.68544 49.28923
# Shear Modulus (GPa) = 21.97947 28.56449 25.27198
#
# Velocity S-wave (km/s) = 3.25781 3.71391 3.49331
# Velocity P-wave (km/s) = 5.69638 6.90611 6.33021
#
# Compressibility (1/GPa) = 0.02639008
#
# Stress axis : x y z
#
# Youngs Moduli (GPa) = 21.59754 61.42460 72.72867
#
# Poissons Ratio (x) = 0.48412 0.92190
# Poissons Ratio (y) = 0.17022 0.32097
# Poissons Ratio (z) = 0.27377 0.27108
#
# Static dielectric constant tensor:
#      x y z
#    x 3.577360 0.000000 0.000000 
#    y 0.000000 3.882520 0.000000 
#    z 0.000000 0.000000 3.893850 
# 
# 
# High freq. dielectric constant tensor:
#      x y z
#    x 1.793000 0.000000 0.000000 
#    y 0.000000 1.813970 0.000000 
#    z 0.000000 0.000000 1.813450 
# 
# From -- ./inp_files/14632.got.cif
#   From: 2010.03.12/outbox.cif.g09.slc.cpg/sg62_8_cif.got.tgz:14632.got - 2010.04.10 19:12:36.
