data_PCOD8251070
_publ_section_title
;
Structure prediction by ZEFSAII (Michael W. Deem and Ramdas Pophale) SiO2 
 PCOD8251070
Probable space group: P N M A
;
_chemical_formula_sum "Si O2"
_cell_formula_units_Z 56
_cell_length_a 16.967184
_cell_length_b 9.265074
_cell_length_c 18.656352
_cell_angle_alpha 90.000000
_cell_angle_beta 90.000000
_cell_angle_gamma 90.000000
_cell_volume 2932.819864
_symmetry_space_group_name_H-M "P N M A"
_symmetry_group_IT_number 62
_symmetry_cell_setting 'orthorhombic'
loop_
_space_group_symop_operation_xyz
x,y,z
1/2-x,-y,1/2+z
1/2+x,1/2-y,1/2-z
-x,1/2+y,-z
-x,-y,-z
1/2+x,y,1/2-z
1/2-x,1/2+y,1/2+z
x,1/2-y,z
loop_
_atom_site_type_symbol
_atom_site_label
_atom_site_fract_x
_atom_site_fract_y
_atom_site_fract_z
Si Si1 0.451515 0.584870 0.099050
Si Si2 0.482754 0.578640 0.574671
Si Si3 0.694262 0.418596 0.386957
Si Si4 0.616019 0.414650 0.646720
Si Si5 0.686423 0.080678 0.797335
Si Si6 0.245028 0.913786 0.460223
Si Si7 0.902627 0.914923 0.564162
O O1 0.473077 0.750000 0.115461
O O2 0.385488 0.526833 0.153113
O O3 0.530152 0.491526 0.111285
O O4 0.419956 0.564621 0.019278
O O5 0.500000 0.500000 0.500000
O O6 0.491806 0.750000 0.563461
O O7 0.396519 0.537115 0.603505
O O8 0.542692 0.521379 0.635293
O O9 0.701677 0.250000 0.371783
O O10 0.732716 0.502253 0.320055
O O11 0.742371 0.463252 0.458105
O O12 0.585514 0.250000 0.655676
O O13 0.665526 0.462193 0.716243
O O14 0.671162 0.428029 0.577739
O O15 0.700640 0.250000 0.806686
O O16 0.213767 0.750000 0.456764
O O17 0.181704 0.013556 0.420225
O O18 0.899044 0.750000 0.588144
#
# Coordination Sequence:
#
# PCOD8251070 Si02
#       7
#     8   8   8   8   8   8   8
#     4   9  18  33  52  77 108 142 182 228 282 336
#     4  11  22  39  63  91 120 153 197 248 298 353
#     4  10  21  37  60  87 117 152 191 237 294 352
#     4  10  22  41  61  85 117 153 195 242 296 351
#     4  10  21  39  61  84 114 153 197 243 291 354
#     4  10  19  35  57  81 113 148 184 235 288 338
#     4  10  19  31  52  82 108 137 186 234 275 334
#
# _framework density 19.094252999999998
#
# number of rings (size 3 to 8) (size 9 to 14) (size 15 to 20)
#    0.000    2.000    2.857    0.857    0.000    3.429 
#    2.571    0.000    0.000    0.000    0.000    0.000 
#    0.000    0.000    0.000    0.000    0.000    0.000 
#
# Total GULP energy -694555.302895 kJ/mol
# GULP energy per Si atom -12402.773266 kJ/mol
# Density = 1.905079 g / cm^3
# Si number density = 19.094253 Si / 1000 Ang^3
#
#
#
# Elastic Constant Matrix: (Units=GPa)
#
#
# Indices 1 2 3 4 5 6 
#
# 1 127.5311 67.6352 34.9723 0.0000 0.0000 0.0000
# 2 67.6352 87.4224 33.7632 0.0000 0.0000 0.0000
# 3 34.9723 33.7632 74.1798 0.0000 0.0000 0.0000
# 4 0.0000 0.0000 0.0000 25.1068 0.0000 0.0000
# 5 0.0000 0.0000 0.0000 0.0000 27.0014 0.0000
# 6 0.0000 0.0000 0.0000 0.0000 0.0000 39.1268
#
#
#
# Elastic Compliance Matrix: (Units=1/GPa)
#
#
# Indices 1 2 3 4 5 6 
#
# 1 0.013528 -0.009709 -0.001958 0.000000 0.000000 0.000000
# 2 -0.009709 0.020847 -0.004911 0.000000 0.000000 0.000000
# 3 -0.001958 -0.004911 0.016639 0.000000 0.000000 0.000000
# 4 0.000000 0.000000 0.000000 0.039830 0.000000 0.000000
# 5 0.000000 0.000000 0.000000 0.000000 0.037035 0.000000
# 6 0.000000 0.000000 0.000000 0.000000 0.000000 0.025558
#
#
# Mechanical properties :
#
#
# Convention : Reuss Voigt Hill
#
# Bulk Modulus (GPa) = 56.00253 62.43052 59.21652
# Shear Modulus (GPa) = 25.96768 28.43117 27.19943
#
# Velocity S-wave (km/s) = 3.69178 3.86293 3.77833
# Velocity P-wave (km/s) = 6.89678 7.25695 7.07915
#
# Compressibility (1/GPa) = 0.01785634
#
# Stress axis : x y z
#
# Youngs Moduli (GPa) = 73.92301 47.96796 60.09847
#
# Poissons Ratio (x) = 0.46574 0.11769
# Poissons Ratio (y) = 0.71775 0.29515
# Poissons Ratio (z) = 0.14477 0.23558
#
# Static dielectric constant tensor:
#      x y z
#    x 3.513520 0.000000 0.000000 
#    y 0.000000 3.466930 0.000000 
#    z 0.000000 0.000000 3.314890 
# 
# 
# High freq. dielectric constant tensor:
#      x y z
#    x 1.749520 0.000000 0.000000 
#    y 0.000000 1.738700 0.000000 
#    z 0.000000 0.000000 1.723740 
# 
# From -- ./inp_files/27583.got.cif
#   From: 2010.03.12/outbox.cif.g09.slc.cpg/sg62_14_cif.got.tgz:27583.got - 2010.04.10 19:12:36.
