data_PCOD8251760
_publ_section_title
;
Structure prediction by ZEFSAII (Michael W. Deem and Ramdas Pophale) SiO2 
 PCOD8251760
Probable space group: P N M A
;
_chemical_formula_sum "Si O2"
_cell_formula_units_Z 56
_cell_length_a 11.159483
_cell_length_b 15.796455
_cell_length_c 16.749207
_cell_angle_alpha 90.000000
_cell_angle_beta 90.000000
_cell_angle_gamma 90.000000
_cell_volume 2952.554750
_symmetry_space_group_name_H-M "P N M A"
_symmetry_group_IT_number 62
_symmetry_cell_setting 'orthorhombic'
loop_
_space_group_symop_operation_xyz
x,y,z
1/2-x,-y,1/2+z
1/2+x,1/2-y,1/2-z
-x,1/2+y,-z
-x,-y,-z
1/2+x,y,1/2-z
1/2-x,1/2+y,1/2+z
x,1/2-y,z
loop_
_atom_site_type_symbol
_atom_site_label
_atom_site_fract_x
_atom_site_fract_y
_atom_site_fract_z
Si Si1 0.919952 0.348251 0.331014
Si Si2 0.548116 0.911328 0.230316
Si Si3 0.932120 0.980078 0.579900
Si Si4 0.322665 0.528498 0.434145
Si Si5 0.324920 0.846243 0.578051
Si Si6 0.013017 0.569954 0.825798
Si Si7 0.300634 0.845187 0.290106
O O1 0.950610 0.250000 0.321065
O O2 0.804078 0.363855 0.384558
O O3 0.028981 0.392800 0.377750
O O4 0.901274 0.390669 0.243327
O O5 0.420641 0.862131 0.237709
O O6 0.669720 0.858488 0.252297
O O7 0.549048 0.940721 0.138766
O O8 0.557114 0.990018 0.290255
O O9 0.794677 0.971768 0.553624
O O10 0.000000 0.000000 0.500000
O O11 0.355373 0.582770 0.512175
O O12 0.420861 0.460321 0.406557
O O13 0.302815 0.594674 0.364721
O O14 0.332797 0.750000 0.544444
O O15 0.420197 0.857234 0.649146
O O16 0.306762 0.750000 0.320689
#
# Coordination Sequence:
#
# PCOD8251760 Si02
#       7
#     8   8   8   8   8   8   8
#     4  10  22  37  57  87 117 149 194 242 288 339
#     4   9  21  32  56  80 108 148 193 238 283 348
#     4  10  19  36  58  79 112 147 190 234 284 336
#     4  10  21  37  58  84 110 153 189 235 283 352
#     4  11  22  37  59  85 115 150 190 240 291 344
#     4  10  22  37  58  82 115 152 194 232 291 347
#     4  10  19  35  53  80 112 146 190 242 290 336
#
# _framework density 18.966625000000001
#
# number of rings (size 3 to 8) (size 9 to 14) (size 15 to 20)
#    0.000    2.000    1.429    1.714   10.000    0.000 
#    0.000    1.429    0.000    0.000    0.000    0.000 
#    0.000    0.000    0.000    0.000    0.000    0.000 
#
# Total GULP energy -693979.902264 kJ/mol
# GULP energy per Si atom -12392.498255 kJ/mol
# Density = 1.892346 g / cm^3
# Si number density = 18.966625 Si / 1000 Ang^3
#
#
#
# Elastic Constant Matrix: (Units=GPa)
#
#
# Indices 1 2 3 4 5 6 
#
# 1 109.6020 33.6851 23.1818 0.0000 0.0000 0.0000
# 2 33.6851 86.5126 13.6554 0.0000 0.0000 0.0000
# 3 23.1818 13.6554 66.4090 0.0000 0.0000 0.0000
# 4 0.0000 0.0000 0.0000 11.0459 0.0000 0.0000
# 5 0.0000 0.0000 0.0000 0.0000 27.0434 0.0000
# 6 0.0000 0.0000 0.0000 0.0000 0.0000 23.5812
#
#
#
# Elastic Compliance Matrix: (Units=1/GPa)
#
#
# Indices 1 2 3 4 5 6 
#
# 1 0.010927 -0.003775 -0.003038 0.000000 0.000000 0.000000
# 2 -0.003775 0.013251 -0.001407 0.000000 0.000000 0.000000
# 3 -0.003038 -0.001407 0.016408 0.000000 0.000000 0.000000
# 4 0.000000 0.000000 0.000000 0.090531 0.000000 0.000000
# 5 0.000000 0.000000 0.000000 0.000000 0.036978 0.000000
# 6 0.000000 0.000000 0.000000 0.000000 0.000000 0.042407
#
#
# Mechanical properties :
#
#
# Convention : Reuss Voigt Hill
#
# Bulk Modulus (GPa) = 41.41521 44.84090 43.12806
# Shear Modulus (GPa) = 21.27754 25.13419 23.20586
#
# Velocity S-wave (km/s) = 3.35302 3.64425 3.50167
# Velocity P-wave (km/s) = 6.07236 6.43434 6.25597
#
# Compressibility (1/GPa) = 0.02414572
#
# Stress axis : x y z
#
# Youngs Moduli (GPa) = 91.51906 75.46636 60.94581
#
# Poissons Ratio (x) = 0.28488 0.18515
# Poissons Ratio (y) = 0.34548 0.08575
# Poissons Ratio (z) = 0.27804 0.10618
#
# Static dielectric constant tensor:
#      x y z
#    x 4.011460 0.000000 0.000000 
#    y 0.000000 3.562190 0.000000 
#    z 0.000000 0.000000 3.480640 
# 
# 
# High freq. dielectric constant tensor:
#      x y z
#    x 1.744600 0.000000 0.000000 
#    y 0.000000 1.731980 0.000000 
#    z 0.000000 0.000000 1.731160 
# 
# From -- ./inp_files/18119.got.cif
#   From: 2010.03.12/outbox.cif.g09.slc.cpg/sg62_10_cif.got.tgz:18119.got - 2010.04.10 19:12:36.
