data_PCOD8251452
_publ_section_title
;
Structure prediction by ZEFSAII (Michael W. Deem and Ramdas Pophale) SiO2 
 PCOD8251452
Probable space group: P N M A
;
_chemical_formula_sum "Si O2"
_cell_formula_units_Z 64
_cell_length_a 9.088463
_cell_length_b 14.592048
_cell_length_c 23.700390
_cell_angle_alpha 90.000000
_cell_angle_beta 90.000000
_cell_angle_gamma 90.000000
_cell_volume 3143.128855
_symmetry_space_group_name_H-M "P N M A"
_symmetry_group_IT_number 62
_symmetry_cell_setting 'orthorhombic'
loop_
_space_group_symop_operation_xyz
x,y,z
1/2-x,-y,1/2+z
1/2+x,1/2-y,1/2-z
-x,1/2+y,-z
-x,-y,-z
1/2+x,y,1/2-z
1/2-x,1/2+y,1/2+z
x,1/2-y,z
loop_
_atom_site_type_symbol
_atom_site_label
_atom_site_fract_x
_atom_site_fract_y
_atom_site_fract_z
Si Si1 0.456155 0.641714 0.819909
Si Si2 0.705921 0.642446 0.995149
Si Si3 0.602295 0.357874 0.050128
Si Si4 0.035025 0.515516 0.179778
Si Si5 0.401396 0.089731 0.486588
Si Si6 0.403764 0.853342 0.604929
Si Si7 0.433175 0.850476 0.416311
Si Si8 0.285097 0.043378 0.244033
O O1 0.469247 0.750000 0.814449
O O2 0.430424 0.613275 0.885313
O O3 0.613046 0.600136 0.799831
O O4 0.319717 0.608556 0.781749
O O5 0.740488 0.750000 0.994346
O O6 0.785493 0.606689 0.053106
O O7 0.534684 0.620382 0.991359
O O8 0.782416 0.603954 0.938081
O O9 0.642637 0.250000 0.047162
O O10 0.725988 0.422825 0.020744
O O11 0.079295 0.412246 0.161077
O O12 0.183663 0.536452 0.214999
O O13 0.002611 0.583195 0.129406
O O14 0.889406 0.516416 0.216514
O O15 0.441437 0.138079 0.427426
O O16 0.439477 0.160096 0.536643
O O17 0.500000 0.000000 0.500000
O O18 0.368023 0.750000 0.623880
O O19 0.401717 0.750000 0.389944
#
# Coordination Sequence:
#
# PCOD8251452 Si02
#       8
#     8   8   8   8   8   8   8   8
#     4  10  20  35  57  85 122 166 199 235 293 351
#     4   8  17  33  55  86 119 149 191 240 285 346
#     4  10  19  33  54  86 124 157 192 238 292 350
#     4  11  22  40  60  82 114 152 199 246 305 350
#     4  11  20  34  56  87 121 152 190 229 277 355
#     4  10  19  34  57  83 117 159 192 226 282 357
#     4  10  21  40  63  83 111 154 199 243 293 356
#     4  10  23  37  55  83 117 149 202 261 286 344
#
# _framework density 20.361875999999999
#
# number of rings (size 3 to 8) (size 9 to 14) (size 15 to 20)
#    0.000    2.000    1.250    3.750    0.000    5.000 
#    0.000    5.625    0.000    0.000    0.000    0.000 
#    0.000    0.000    0.000    0.000    0.000    0.000 
#
# Total GULP energy -792852.461789 kJ/mol
# GULP energy per Si atom -12388.319715 kJ/mol
# Density = 2.031553 g / cm^3
# Si number density = 20.361876 Si / 1000 Ang^3
#
#
#
# Elastic Constant Matrix: (Units=GPa)
#
#
# Indices 1 2 3 4 5 6 
#
# 1 172.0640 34.5655 53.7046 0.0000 0.0000 0.0000
# 2 34.5655 54.8783 26.2035 0.0000 0.0000 0.0000
# 3 53.7046 26.2035 74.0198 0.0000 0.0000 0.0000
# 4 0.0000 0.0000 0.0000 17.4087 0.0000 0.0000
# 5 0.0000 0.0000 0.0000 0.0000 26.0647 0.0000
# 6 0.0000 0.0000 0.0000 0.0000 0.0000 24.0299
#
#
#
# Elastic Compliance Matrix: (Units=1/GPa)
#
#
# Indices 1 2 3 4 5 6 
#
# 1 0.007825 -0.002669 -0.004733 0.000000 0.000000 0.000000
# 2 -0.002669 0.022839 -0.006149 0.000000 0.000000 0.000000
# 3 -0.004733 -0.006149 0.019120 0.000000 0.000000 0.000000
# 4 0.000000 0.000000 0.000000 0.057443 0.000000 0.000000
# 5 0.000000 0.000000 0.000000 0.000000 0.038366 0.000000
# 6 0.000000 0.000000 0.000000 0.000000 0.000000 0.041615
#
#
# Mechanical properties :
#
#
# Convention : Reuss Voigt Hill
#
# Bulk Modulus (GPa) = 44.08415 58.87881 51.48148
# Shear Modulus (GPa) = 22.53570 25.93321 24.23446
#
# Velocity S-wave (km/s) = 3.33041 3.57265 3.45365
# Velocity P-wave (km/s) = 6.04038 6.78214 6.42198
#
# Compressibility (1/GPa) = 0.02268389
#
# Stress axis : x y z
#
# Youngs Moduli (GPa) = 127.79404 43.78444 52.30033
#
# Poissons Ratio (x) = 0.11686 0.24752
# Poissons Ratio (y) = 0.34108 0.32158
# Poissons Ratio (z) = 0.60480 0.26922
#
# Static dielectric constant tensor:
#      x y z
#    x 3.919870 0.000000 0.000000 
#    y 0.000000 3.417430 0.000000 
#    z 0.000000 0.000000 3.705710 
# 
# 
# High freq. dielectric constant tensor:
#      x y z
#    x 1.808870 0.000000 0.000000 
#    y 0.000000 1.766730 0.000000 
#    z 0.000000 0.000000 1.789270 
# 
# From -- ./inp_files/28999.got.cif
#   From: 2010.03.12/outbox.cif.g09.slc.cpg/sg62_15_cif.got.tgz:28999.got - 2010.04.10 19:12:36.
