data_PCOD8251366
_publ_section_title
;
Structure prediction by ZEFSAII (Michael W. Deem and Ramdas Pophale) SiO2 
 PCOD8251366
Probable space group: P N M A
;
_chemical_formula_sum "Si O2"
_cell_formula_units_Z 56
_cell_length_a 18.777271
_cell_length_b 8.896216
_cell_length_c 18.496259
_cell_angle_alpha 90.000000
_cell_angle_beta 90.000000
_cell_angle_gamma 90.000000
_cell_volume 3089.738265
_symmetry_space_group_name_H-M "P N M A"
_symmetry_group_IT_number 62
_symmetry_cell_setting 'orthorhombic'
loop_
_space_group_symop_operation_xyz
x,y,z
1/2-x,-y,1/2+z
1/2+x,1/2-y,1/2-z
-x,1/2+y,-z
-x,-y,-z
1/2+x,y,1/2-z
1/2-x,1/2+y,1/2+z
x,1/2-y,z
loop_
_atom_site_type_symbol
_atom_site_label
_atom_site_fract_x
_atom_site_fract_y
_atom_site_fract_z
Si Si1 0.100037 0.073295 0.106786
Si Si2 0.365345 0.423189 0.455563
Si Si3 0.749944 0.421307 0.346640
Si Si4 0.281186 0.919478 0.010852
Si Si5 0.384517 0.926422 0.192469
Si Si6 0.959152 0.572485 0.162109
Si Si7 0.934182 0.921491 0.463310
O O1 0.095642 0.250000 0.087375
O O2 0.165795 0.041742 0.162235
O O3 0.030184 0.019992 0.147818
O O4 0.107637 0.977999 0.033568
O O5 0.389435 0.250000 0.445406
O O6 0.278790 0.437841 0.448701
O O7 0.398446 0.527946 0.394658
O O8 0.766228 0.250000 0.328987
O O9 0.766126 0.454625 0.430114
O O10 0.803346 0.515339 0.295865
O O11 0.274255 0.750000 0.044476
O O12 0.363447 0.940700 0.985621
O O13 0.378799 0.750000 0.189661
O O14 0.433428 0.978637 0.258643
O O15 0.417447 0.988095 0.116889
O O16 0.973421 0.750000 0.157126
O O17 0.956573 0.750000 0.455168
O O18 0.000000 0.000000 0.500000
#
# Coordination Sequence:
#
# PCOD8251366 Si02
#       7
#     8   8   8   8   8   8   8
#     4  10  20  34  52  77 105 133 169 212 252 299
#     4  10  19  33  53  75 101 136 173 212 255 301
#     4   9  17  30  52  76  95 120 161 207 246 289
#     4   8  16  31  50  71  98 129 160 195 243 300
#     4   9  20  37  53  70  99 136 171 205 251 309
#     4  11  22  35  51  73 103 139 173 209 252 302
#     4   9  17  32  53  76  98 125 164 208 252 300
#
# _framework density 18.124513
#
# number of rings (size 3 to 8) (size 9 to 14) (size 15 to 20)
#    0.000    2.571    0.000    3.000    0.000    5.714 
#    0.000    1.429    0.000    6.857    0.000    0.000 
#    0.000    0.000    0.000    0.000    0.000    0.000 
#
# Total GULP energy -693911.141916 kJ/mol
# GULP energy per Si atom -12391.270391 kJ/mol
# Density = 1.808326 g / cm^3
# Si number density = 18.124513 Si / 1000 Ang^3
#
#
#
# Elastic Constant Matrix: (Units=GPa)
#
#
# Indices 1 2 3 4 5 6 
#
# 1 152.4535 36.3704 54.7352 0.0000 0.0000 0.0000
# 2 36.3704 38.1163 20.2964 0.0000 0.0000 0.0000
# 3 54.7352 20.2964 66.5942 0.0000 0.0000 0.0000
# 4 0.0000 0.0000 0.0000 23.6283 0.0000 0.0000
# 5 0.0000 0.0000 0.0000 0.0000 18.6964 0.0000
# 6 0.0000 0.0000 0.0000 0.0000 0.0000 33.0114
#
#
#
# Elastic Compliance Matrix: (Units=1/GPa)
#
#
# Indices 1 2 3 4 5 6 
#
# 1 0.010490 -0.006468 -0.006651 0.000000 0.000000 0.000000
# 2 -0.006468 0.035307 -0.005444 0.000000 0.000000 0.000000
# 3 -0.006651 -0.005444 0.022142 0.000000 0.000000 0.000000
# 4 0.000000 0.000000 0.000000 0.042322 0.000000 0.000000
# 5 0.000000 0.000000 0.000000 0.000000 0.053486 0.000000
# 6 0.000000 0.000000 0.000000 0.000000 0.000000 0.030293
#
#
# Mechanical properties :
#
#
# Convention : Reuss Voigt Hill
#
# Bulk Modulus (GPa) = 32.45460 53.32979 42.89219
# Shear Modulus (GPa) = 20.70930 24.78468 22.74699
#
# Velocity S-wave (km/s) = 3.38392 3.70194 3.54650
# Velocity P-wave (km/s) = 5.76309 6.91090 6.36293
#
# Compressibility (1/GPa) = 0.03081227
#
# Stress axis : x y z
#
# Youngs Moduli (GPa) = 95.32548 28.32333 45.16295
#
# Poissons Ratio (x) = 0.18321 0.30037
# Poissons Ratio (y) = 0.61660 0.24587
# Poissons Ratio (z) = 0.63400 0.15420
#
# Static dielectric constant tensor:
#      x y z
#    x 3.696910 0.000000 0.000000 
#    y 0.000000 3.394810 0.000000 
#    z 0.000000 0.000000 3.205490 
# 
# 
# High freq. dielectric constant tensor:
#      x y z
#    x 1.719930 0.000000 0.000000 
#    y 0.000000 1.707970 0.000000 
#    z 0.000000 0.000000 1.656890 
# 
# From -- ./inp_files/27559.got.cif
#   From: 2010.03.12/outbox.cif.g09.slc.cpg/sg62_14_cif.got.tgz:27559.got - 2010.04.10 19:12:36.
