data_PCOD8251460
_publ_section_title
;
Structure prediction by ZEFSAII (Michael W. Deem and Ramdas Pophale) SiO2 
 PCOD8251460
Probable space group: P N M A
;
_chemical_formula_sum "Si O2"
_cell_formula_units_Z 64
_cell_length_a 9.395095
_cell_length_b 13.650709
_cell_length_c 27.932010
_cell_angle_alpha 90.000000
_cell_angle_beta 90.000000
_cell_angle_gamma 90.000000
_cell_volume 3582.272123
_symmetry_space_group_name_H-M "P N M A"
_symmetry_group_IT_number 62
_symmetry_cell_setting 'orthorhombic'
loop_
_space_group_symop_operation_xyz
x,y,z
1/2-x,-y,1/2+z
1/2+x,1/2-y,1/2-z
-x,1/2+y,-z
-x,-y,-z
1/2+x,y,1/2-z
1/2-x,1/2+y,1/2+z
x,1/2-y,z
loop_
_atom_site_type_symbol
_atom_site_label
_atom_site_fract_x
_atom_site_fract_y
_atom_site_fract_z
Si Si1 0.407174 0.519040 0.593065
Si Si2 0.944594 0.865811 0.809293
Si Si3 0.854218 0.361058 0.431755
Si Si4 0.918037 0.139473 0.538611
Si Si5 0.256568 0.864671 0.777228
Si Si6 0.610199 0.134485 0.127650
Si Si7 0.760721 0.636139 0.449994
Si Si8 0.788348 0.464236 0.051035
O O1 0.432448 0.564063 0.645207
O O2 0.295694 0.585746 0.564121
O O3 0.333418 0.411014 0.593171
O O4 0.549062 0.511671 0.562350
O O5 0.937246 0.750000 0.823441
O O6 0.816838 0.898535 0.774050
O O7 0.090795 0.890730 0.781766
O O8 0.818770 0.250000 0.419060
O O9 0.938654 0.371731 0.481506
O O10 0.957776 0.406804 0.390809
O O11 0.866887 0.250000 0.551094
O O12 0.072607 0.118635 0.561512
O O13 0.802270 0.063801 0.558067
O O14 0.280396 0.750000 0.781186
O O15 0.346910 0.912391 0.821070
O O16 0.597024 0.250000 0.131435
O O17 0.734725 0.113533 0.089870
O O18 0.723674 0.750000 0.454411
O O19 0.719644 0.581499 0.498785
#
# Coordination Sequence:
#
# PCOD8251460 Si02
#       8
#     8   8   8   8   8   8   8   8
#     4  12  24  35  51  82 113 150 183 227 274 329
#     4  10  21  37  55  80 114 145 179 222 274 334
#     4  10  20  33  52  78 107 146 189 223 264 317
#     4  10  21  38  56  75 106 147 193 233 267 318
#     4   9  19  35  54  79 111 143 176 220 274 328
#     4  10  19  33  55  79 108 148 184 219 266 326
#     4  11  23  38  55  78 111 151 191 235 274 315
#     4  12  21  36  54  80 113 149 188 223 272 323
#
# _framework density 17.865756000000001
#
# number of rings (size 3 to 8) (size 9 to 14) (size 15 to 20)
#    0.000    1.500    3.750    2.250    1.750    2.000 
#    0.000    0.000    0.000    0.000    0.000    1.750 
#    0.000    0.000    0.000    0.000    0.000    0.000 
#
# Total GULP energy -793348.831976 kJ/mol
# GULP energy per Si atom -12396.075500 kJ/mol
# Density = 1.782509 g / cm^3
# Si number density = 17.865756 Si / 1000 Ang^3
#
#
#
# Elastic Constant Matrix: (Units=GPa)
#
#
# Indices 1 2 3 4 5 6 
#
# 1 122.1608 50.9729 33.9894 0.0000 0.0000 0.0000
# 2 50.9729 73.4426 34.1896 0.0000 0.0000 0.0000
# 3 33.9894 34.1896 68.1621 0.0000 0.0000 0.0000
# 4 0.0000 0.0000 0.0000 21.0726 0.0000 0.0000
# 5 0.0000 0.0000 0.0000 0.0000 30.9913 0.0000
# 6 0.0000 0.0000 0.0000 0.0000 0.0000 23.7659
#
#
#
# Elastic Compliance Matrix: (Units=1/GPa)
#
#
# Indices 1 2 3 4 5 6 
#
# 1 0.011797 -0.007109 -0.002317 0.000000 0.000000 0.000000
# 2 -0.007109 0.022048 -0.007514 0.000000 0.000000 0.000000
# 3 -0.002317 -0.007514 0.019595 0.000000 0.000000 0.000000
# 4 0.000000 0.000000 0.000000 0.047455 0.000000 0.000000
# 5 0.000000 0.000000 0.000000 0.000000 0.032267 0.000000
# 6 0.000000 0.000000 0.000000 0.000000 0.000000 0.042077
#
#
# Mechanical properties :
#
#
# Convention : Reuss Voigt Hill
#
# Bulk Modulus (GPa) = 51.12412 55.78550 53.45481
# Shear Modulus (GPa) = 23.18681 24.80685 23.99683
#
# Velocity S-wave (km/s) = 3.60646 3.73032 3.66891
# Velocity P-wave (km/s) = 6.78379 7.06019 6.92337
#
# Compressibility (1/GPa) = 0.01956024
#
# Stress axis : x y z
#
# Youngs Moduli (GPa) = 84.76815 45.35508 51.03288
#
# Poissons Ratio (x) = 0.32244 0.11823
# Poissons Ratio (y) = 0.60263 0.38347
# Poissons Ratio (z) = 0.19638 0.34081
#
# Static dielectric constant tensor:
#      x y z
#    x 3.528600 0.000000 0.000000 
#    y 0.000000 3.293980 0.000000 
#    z 0.000000 0.000000 3.445370 
# 
# 
# High freq. dielectric constant tensor:
#      x y z
#    x 1.709180 0.000000 0.000000 
#    y 0.000000 1.663140 0.000000 
#    z 0.000000 0.000000 1.670670 
# 
# From -- ./inp_files/28988.got.cif
#   From: 2010.03.12/outbox.cif.g09.slc.cpg/sg62_15_cif.got.tgz:28988.got - 2010.04.10 19:12:36.
