data_PCOD8251893
_publ_section_title
;
Structure prediction by ZEFSAII (Michael W. Deem and Ramdas Pophale) SiO2 
 PCOD8251893
Probable space group: P N M A
;
_chemical_formula_sum "Si O2"
_cell_formula_units_Z 40
_cell_length_a 8.664693
_cell_length_b 12.820764
_cell_length_c 17.431668
_cell_angle_alpha 90.000000
_cell_angle_beta 90.000000
_cell_angle_gamma 90.000000
_cell_volume 1936.448857
_symmetry_space_group_name_H-M "P N M A"
_symmetry_group_IT_number 62
_symmetry_cell_setting 'orthorhombic'
loop_
_space_group_symop_operation_xyz
x,y,z
1/2-x,-y,1/2+z
1/2+x,1/2-y,1/2-z
-x,1/2+y,-z
-x,-y,-z
1/2+x,y,1/2-z
1/2-x,1/2+y,1/2+z
x,1/2-y,z
loop_
_atom_site_type_symbol
_atom_site_label
_atom_site_fract_x
_atom_site_fract_y
_atom_site_fract_z
Si Si1 0.141639 0.025744 0.945187
Si Si2 0.697766 0.631341 0.925979
Si Si3 0.473307 0.998457 0.197783
Si Si4 0.274849 0.629863 0.304941
Si Si5 0.524236 0.864717 0.656191
O O1 0.160906 0.920366 0.893542
O O2 0.110575 0.114488 0.878934
O O3 0.287743 0.064553 0.994888
O O4 0.000000 0.000000 0.000000
O O5 0.636930 0.750000 0.941159
O O6 0.581321 0.567007 0.873661
O O7 0.866646 0.639563 0.890474
O O8 0.619794 0.931359 0.172150
O O9 0.343420 0.917215 0.226541
O O10 0.515600 0.077244 0.265532
O O11 0.238723 0.750000 0.289903
O O12 0.586822 0.750000 0.675537
#
# Coordination Sequence:
#
# PCOD8251893 Si02
#       5
#     8   8   8   8   8
#     4   9  20  38  60  87 120 157 203 244 299 372
#     4  10  19  35  60  86 120 159 199 254 307 355
#     4  11  21  38  59  91 123 157 211 254 302 369
#     4  11  23  40  62  86 123 166 205 254 308 362
#     4   9  18  35  58  86 118 158 203 250 304 358
#
# _framework density 20.656365999999998
#
# number of rings (size 3 to 8) (size 9 to 14) (size 15 to 20)
#    0.000    2.000    2.000    1.800    0.000    1.600 
#    0.000    3.000    0.000    0.000    0.000    0.000 
#    0.000    0.000    0.000    0.000    0.000    0.000 
#
# Total GULP energy -495540.831541 kJ/mol
# GULP energy per Si atom -12388.520789 kJ/mol
# Density = 2.060935 g / cm^3
# Si number density = 20.656366 Si / 1000 Ang^3
#
#
#
# Elastic Constant Matrix: (Units=GPa)
#
#
# Indices 1 2 3 4 5 6 
#
# 1 54.6709 37.0142 9.9107 0.0000 0.0000 0.0000
# 2 37.0142 166.5464 37.0280 0.0000 0.0000 0.0000
# 3 9.9107 37.0280 76.2544 0.0000 0.0000 0.0000
# 4 0.0000 0.0000 0.0000 25.1800 0.0000 0.0000
# 5 0.0000 0.0000 0.0000 0.0000 28.8801 0.0000
# 6 0.0000 0.0000 0.0000 0.0000 0.0000 29.2936
#
#
#
# Elastic Compliance Matrix: (Units=1/GPa)
#
#
# Indices 1 2 3 4 5 6 
#
# 1 0.021550 -0.004671 -0.000533 0.000000 0.000000 0.000000
# 2 -0.004671 0.007743 -0.003153 0.000000 0.000000 0.000000
# 3 -0.000533 -0.003153 0.014714 0.000000 0.000000 0.000000
# 4 0.000000 0.000000 0.000000 0.039714 0.000000 0.000000
# 5 0.000000 0.000000 0.000000 0.000000 0.034626 0.000000
# 6 0.000000 0.000000 0.000000 0.000000 0.000000 0.034137
#
#
# Mechanical properties :
#
#
# Convention : Reuss Voigt Hill
#
# Bulk Modulus (GPa) = 36.63731 51.70858 44.17294
# Shear Modulus (GPa) = 28.04314 30.90533 29.47423
#
# Velocity S-wave (km/s) = 3.68856 3.87223 3.78151
# Velocity P-wave (km/s) = 5.99297 6.71411 6.36377
#
# Compressibility (1/GPa) = 0.02729458
#
# Stress axis : x y z
#
# Youngs Moduli (GPa) = 46.40308 129.14142 67.96114
#
# Poissons Ratio (x) = 0.60322 0.03620
# Poissons Ratio (y) = 0.21675 0.21428
# Poissons Ratio (z) = 0.02472 0.40718
#
# Static dielectric constant tensor:
#      x y z
#    x 3.437160 0.000000 0.000000 
#    y 0.000000 4.111500 0.000000 
#    z 0.000000 0.000000 4.099390 
# 
# 
# High freq. dielectric constant tensor:
#      x y z
#    x 1.771720 0.000000 0.000000 
#    y 0.000000 1.816860 0.000000 
#    z 0.000000 0.000000 1.820830 
# 
# From -- ./inp_files/21891.got.cif
#   From: 2010.03.12/outbox.cif.g09.slc.cpg/sg62_11_cif.got.tgz:21891.got - 2010.04.10 19:12:36.
