data_PCOD8251357
_publ_section_title
;
Structure prediction by ZEFSAII (Michael W. Deem and Ramdas Pophale) SiO2 
 PCOD8251357
Probable space group: P N M A
;
_chemical_formula_sum "Si O2"
_cell_formula_units_Z 64
_cell_length_a 29.256107
_cell_length_b 9.157691
_cell_length_c 10.935778
_cell_angle_alpha 90.000000
_cell_angle_beta 90.000000
_cell_angle_gamma 90.000000
_cell_volume 2929.896011
_symmetry_space_group_name_H-M "P N M A"
_symmetry_group_IT_number 62
_symmetry_cell_setting 'orthorhombic'
loop_
_space_group_symop_operation_xyz
x,y,z
1/2-x,-y,1/2+z
1/2+x,1/2-y,1/2-z
-x,1/2+y,-z
-x,-y,-z
1/2+x,y,1/2-z
1/2-x,1/2+y,1/2+z
x,1/2-y,z
loop_
_atom_site_type_symbol
_atom_site_label
_atom_site_fract_x
_atom_site_fract_y
_atom_site_fract_z
Si Si1 0.123686 0.580599 0.650044
Si Si2 0.136049 0.916962 0.384381
Si Si3 0.975673 0.084953 0.393982
Si Si4 0.779968 0.576458 0.982716
Si Si5 0.953209 0.083639 0.978200
Si Si6 0.730173 0.920166 0.234066
Si Si7 0.563321 0.085267 0.249261
Si Si8 0.859499 0.418108 0.092293
O O1 0.116440 0.750000 0.679750
O O2 0.152290 0.554589 0.525304
O O3 0.072896 0.510788 0.637814
O O4 0.150777 0.520972 0.769330
O O5 0.119323 0.750000 0.372591
O O6 0.176711 0.948953 0.291145
O O7 0.093431 0.023572 0.362207
O O8 0.967920 0.250000 0.440028
O O9 0.009113 0.081505 0.277158
O O10 0.000000 0.000000 0.500000
O O11 0.778386 0.750000 0.967456
O O12 0.755474 0.526016 0.109613
O O13 0.831918 0.517796 0.995974
O O14 0.757237 0.508399 0.858684
O O15 0.967014 0.250000 0.955866
O O16 0.926766 0.019684 0.861864
O O17 0.914719 0.067579 0.082506
O O18 0.000000 0.000000 0.000000
O O19 0.740647 0.750000 0.256593
O O20 0.578995 0.250000 0.278104
O O21 0.844271 0.250000 0.070402
#
# Coordination Sequence:
#
# PCOD8251357 Si02
#       8
#     8   8   8   8   8   8   8   8
#     4   9  18  34  59  85 114 159 208 252 302 368
#     4  10  20  37  61  86 116 157 207 253 304 375
#     4  10  19  33  52  79 115 154 201 253 303 362
#     4  11  25  44  69 100 131 167 212 265 324 387
#     4  11  23  39  60  87 120 162 210 256 306 370
#     4  10  24  44  66  96 128 162 209 258 312 384
#     4  11  22  35  55  84 120 156 197 252 311 368
#     4  10  22  41  65  90 124 169 213 258 318 383
#
# _framework density 21.843776999999999
#
# number of rings (size 3 to 8) (size 9 to 14) (size 15 to 20)
#    0.000    1.750    1.250    2.625    1.750    8.000 
#    0.000    1.250    0.000    0.000    0.000    0.000 
#    0.000    0.000    0.000    0.000    0.000    0.000 
#
# Total GULP energy -793244.664224 kJ/mol
# GULP energy per Si atom -12394.447879 kJ/mol
# Density = 2.179406 g / cm^3
# Si number density = 21.843777 Si / 1000 Ang^3
#
#
#
# Elastic Constant Matrix: (Units=GPa)
#
#
# Indices 1 2 3 4 5 6 
#
# 1 53.2089 28.3680 23.5545 0.0000 0.0000 0.0000
# 2 28.3680 98.4033 52.9455 0.0000 0.0000 0.0000
# 3 23.5545 52.9455 142.8325 0.0000 0.0000 0.0000
# 4 0.0000 0.0000 0.0000 32.8603 0.0000 0.0000
# 5 0.0000 0.0000 0.0000 0.0000 34.9571 0.0000
# 6 0.0000 0.0000 0.0000 0.0000 0.0000 26.1155
#
#
#
# Elastic Compliance Matrix: (Units=1/GPa)
#
#
# Indices 1 2 3 4 5 6 
#
# 1 0.022507 -0.005610 -0.001632 0.000000 0.000000 0.000000
# 2 -0.005610 0.014093 -0.004299 0.000000 0.000000 0.000000
# 3 -0.001632 -0.004299 0.008864 0.000000 0.000000 0.000000
# 4 0.000000 0.000000 0.000000 0.030432 0.000000 0.000000
# 5 0.000000 0.000000 0.000000 0.000000 0.028606 0.000000
# 6 0.000000 0.000000 0.000000 0.000000 0.000000 0.038291
#
#
# Mechanical properties :
#
#
# Convention : Reuss Voigt Hill
#
# Bulk Modulus (GPa) = 44.67955 56.02008 50.34982
# Shear Modulus (GPa) = 28.84567 31.42502 30.13535
#
# Velocity S-wave (km/s) = 3.63787 3.79704 3.71831
# Velocity P-wave (km/s) = 6.17608 6.70259 6.44472
#
# Compressibility (1/GPa) = 0.02238160
#
# Stress axis : x y z
#
# Youngs Moduli (GPa) = 44.42970 70.95965 112.81870
#
# Poissons Ratio (x) = 0.39811 0.18412
# Poissons Ratio (y) = 0.24927 0.48497
# Poissons Ratio (z) = 0.07251 0.30503
#
# Static dielectric constant tensor:
#      x y z
#    x 3.881370 0.000000 0.000000 
#    y 0.000000 3.865000 0.000000 
#    z 0.000000 0.000000 4.187260 
# 
# 
# High freq. dielectric constant tensor:
#      x y z
#    x 1.855800 0.000000 0.000000 
#    y 0.000000 1.831860 0.000000 
#    z 0.000000 0.000000 1.874640 
# 
# From -- ./inp_files/15848.got.cif
#   From: 2010.03.12/outbox.cif.g09.slc.cpg/sg62_8_cif.got.tgz:15848.got - 2010.04.10 19:12:36.
