data_PCOD8251793
_publ_section_title
;
Structure prediction by ZEFSAII (Michael W. Deem and Ramdas Pophale) SiO2 
 PCOD8251793
Probable space group: P N M A
;
_chemical_formula_sum "Si O2"
_cell_formula_units_Z 64
_cell_length_a 17.965346
_cell_length_b 8.493612
_cell_length_c 20.772281
_cell_angle_alpha 90.000000
_cell_angle_beta 90.000000
_cell_angle_gamma 90.000000
_cell_volume 3169.656449
_symmetry_space_group_name_H-M "P N M A"
_symmetry_group_IT_number 62
_symmetry_cell_setting 'orthorhombic'
loop_
_space_group_symop_operation_xyz
x,y,z
1/2-x,-y,1/2+z
1/2+x,1/2-y,1/2-z
-x,1/2+y,-z
-x,-y,-z
1/2+x,y,1/2-z
1/2-x,1/2+y,1/2+z
x,1/2-y,z
loop_
_atom_site_type_symbol
_atom_site_label
_atom_site_fract_x
_atom_site_fract_y
_atom_site_fract_z
Si Si1 0.417494 0.435803 0.000389
Si Si2 0.333848 0.563461 0.626512
Si Si3 0.832200 0.435591 0.623410
Si Si4 0.914251 0.934111 0.745335
Si Si5 0.665870 0.062893 0.625775
Si Si6 0.417251 0.562804 0.500782
Si Si7 0.923600 0.934503 0.250179
Si Si8 0.336343 0.063620 0.130764
O O1 0.421074 0.250000 0.995406
O O2 0.375431 0.488320 0.064796
O O3 0.500000 0.500000 0.000000
O O4 0.373114 0.506732 0.939338
O O5 0.337115 0.750000 0.624043
O O6 0.376319 0.500427 0.689622
O O7 0.374763 0.495081 0.563407
O O8 0.248826 0.506579 0.627572
O O9 0.826323 0.250000 0.615837
O O10 0.878868 0.474852 0.686162
O O11 0.749267 0.507808 0.628247
O O12 0.899360 0.750000 0.736520
O O13 0.001483 0.965922 0.747114
O O14 0.668902 0.250000 0.624879
O O15 0.625175 0.998384 0.562140
O O16 0.621559 0.004101 0.688277
O O17 0.500000 0.500000 0.500000
O O18 0.418357 0.750000 0.501327
O O19 0.942331 0.750000 0.245828
O O20 0.874927 0.967812 0.312687
O O21 0.343052 0.250000 0.143136
#
# Coordination Sequence:
#
# PCOD8251793 Si02
#       8
#     8   8   8   8   8   8   8   8
#     4  10  21  35  55  79 105 136 174 216 262 312
#     4   9  19  35  57  81 107 139 179 221 266 316
#     4  10  20  37  58  80 105 139 179 222 268 317
#     4  11  22  36  54  80 110 142 177 218 264 316
#     4   9  19  35  57  81 107 139 179 221 266 316
#     4  10  19  35  57  81 109 144 181 220 264 316
#     4  11  22  36  54  80 110 142 177 218 264 316
#     4  10  20  37  58  80 105 139 179 222 268 317
#
# _framework density 20.191462999999999
#
# number of rings (size 3 to 8) (size 9 to 14) (size 15 to 20)
#    0.000    2.000    0.000    3.750    0.000    6.000 
#    0.000    3.750    0.000    1.500    0.000    0.000 
#    0.000    0.000    0.000    0.000    0.000    0.000 
#
# Total GULP energy -793808.076091 kJ/mol
# GULP energy per Si atom -12403.251189 kJ/mol
# Density = 2.014551 g / cm^3
# Si number density = 20.191463 Si / 1000 Ang^3
#
#
#
# Elastic Constant Matrix: (Units=GPa)
#
#
# Indices 1 2 3 4 5 6 
#
# 1 181.2748 3.8535 88.0707 0.0000 0.0000 0.0000
# 2 3.8535 11.6531 7.6692 0.0000 0.0000 0.0000
# 3 88.0707 7.6692 189.5237 0.0000 0.0000 0.0000
# 4 0.0000 0.0000 0.0000 20.9654 0.0000 0.0000
# 5 0.0000 0.0000 0.0000 0.0000 48.3277 0.0000
# 6 0.0000 0.0000 0.0000 0.0000 0.0000 23.1760
#
#
#
# Elastic Compliance Matrix: (Units=1/GPa)
#
#
# Indices 1 2 3 4 5 6 
#
# 1 0.007125 -0.000182 -0.003304 0.000000 0.000000 0.000000
# 2 -0.000182 0.088167 -0.003483 0.000000 0.000000 0.000000
# 3 -0.003304 -0.003483 0.006953 0.000000 0.000000 0.000000
# 4 0.000000 0.000000 0.000000 0.047698 0.000000 0.000000
# 5 0.000000 0.000000 0.000000 0.000000 0.020692 0.000000
# 6 0.000000 0.000000 0.000000 0.000000 0.000000 0.043148
#
#
# Mechanical properties :
#
#
# Convention : Reuss Voigt Hill
#
# Bulk Modulus (GPa) = 11.32416 64.62649 37.97533
# Shear Modulus (GPa) = 19.44347 37.35105 28.39726
#
# Velocity S-wave (km/s) = 3.10652 4.30565 3.75427
# Velocity P-wave (km/s) = 4.29975 7.53621 6.13524
#
# Compressibility (1/GPa) = 0.08830676
#
# Stress axis : x y z
#
# Youngs Moduli (GPa) = 140.34144 11.34217 143.83118
#
# Poissons Ratio (x) = 0.00206 0.47519
# Poissons Ratio (y) = 0.02554 0.50099
# Poissons Ratio (z) = 0.46366 0.03951
#
# Static dielectric constant tensor:
#      x y z
#    x 3.886920 0.000000 0.000000 
#    y 0.000000 3.270330 0.000000 
#    z 0.000000 0.000000 4.024450 
# 
# 
# High freq. dielectric constant tensor:
#      x y z
#    x 1.808320 0.000000 0.000000 
#    y 0.000000 1.752420 0.000000 
#    z 0.000000 0.000000 1.809740 
# 
# From -- ./inp_files/27741.got.cif
#   From: 2010.03.12/outbox.cif.g09.slc.cpg/sg62_14_cif.got.tgz:27741.got - 2010.04.10 19:12:36.
