data_PCOD8251930
_publ_section_title
;
Structure prediction by ZEFSAII (Michael W. Deem and Ramdas Pophale) SiO2 
 PCOD8251930
Probable space group: P N M A
;
_chemical_formula_sum "Si O2"
_cell_formula_units_Z 64
_cell_length_a 9.299446
_cell_length_b 27.787293
_cell_length_c 11.949730
_cell_angle_alpha 90.000000
_cell_angle_beta 90.000000
_cell_angle_gamma 90.000000
_cell_volume 3087.887078
_symmetry_space_group_name_H-M "P N M A"
_symmetry_group_IT_number 62
_symmetry_cell_setting 'orthorhombic'
loop_
_space_group_symop_operation_xyz
x,y,z
1/2-x,-y,1/2+z
1/2+x,1/2-y,1/2-z
-x,1/2+y,-z
-x,-y,-z
1/2+x,y,1/2-z
1/2-x,1/2+y,1/2+z
x,1/2-y,z
loop_
_atom_site_type_symbol
_atom_site_label
_atom_site_fract_x
_atom_site_fract_y
_atom_site_fract_z
Si Si1 0.234817 0.525822 0.476868
Si Si2 0.168863 0.409972 0.248110
Si Si3 0.569247 0.306531 0.643978
Si Si4 0.451575 0.966689 0.134505
Si Si5 0.420305 0.026647 0.328179
Si Si6 0.566417 0.125900 0.012821
Si Si7 0.238436 0.367061 0.031130
Si Si8 0.237657 0.306581 0.634767
O O1 0.139270 0.510872 0.582504
O O2 0.364456 0.487876 0.452352
O O3 0.294870 0.579138 0.490013
O O4 0.122072 0.523070 0.373679
O O5 0.322036 0.431877 0.276490
O O6 0.094259 0.392089 0.361641
O O7 0.196608 0.365115 0.163292
O O8 0.078697 0.450587 0.178722
O O9 0.587966 0.250000 0.628505
O O10 0.638524 0.330386 0.535192
O O11 0.402823 0.321587 0.652878
O O12 0.648584 0.323943 0.756680
O O13 0.415713 0.974224 0.265188
O O14 0.409023 0.916475 0.078068
O O15 0.404722 0.146257 0.008997
O O16 0.675296 0.167936 0.976348
O O17 0.221264 0.250000 0.615450
#
# Coordination Sequence:
#
# PCOD8251930 Si02
#       8
#     8   8   8   8   8   8   8   8
#     4  10  20  36  55  80 119 164 209 251 299 358
#     4  12  23  39  60  88 126 173 212 251 311 364
#     4  10  23  45  70  96 125 155 198 256 316 377
#     4  10  19  36  55  80 119 163 207 251 303 354
#     4  12  21  38  57  80 123 171 212 258 304 357
#     4  11  23  40  64  90 126 167 209 260 312 372
#     4  11  24  40  62  94 124 165 214 259 312 371
#     4  10  23  45  71  97 124 157 198 253 319 378
#
# _framework density 20.726144999999999
#
# number of rings (size 3 to 8) (size 9 to 14) (size 15 to 20)
#    0.000    1.250    5.000    1.500    3.500    2.000 
#    2.250    0.625    0.000    0.000    0.000    0.000 
#    0.000    0.000    0.000    0.000    0.000    0.000 
#
# Total GULP energy -793290.008606 kJ/mol
# GULP energy per Si atom -12395.156384 kJ/mol
# Density = 2.067897 g / cm^3
# Si number density = 20.726145 Si / 1000 Ang^3
#
#
#
# Elastic Constant Matrix: (Units=GPa)
#
#
# Indices 1 2 3 4 5 6 
#
# 1 106.7375 32.1640 25.6452 0.0000 0.0000 0.0000
# 2 32.1640 43.4529 18.4052 0.0000 0.0000 0.0000
# 3 25.6452 18.4052 55.2743 0.0000 0.0000 0.0000
# 4 0.0000 0.0000 0.0000 32.4582 0.0000 0.0000
# 5 0.0000 0.0000 0.0000 0.0000 31.1560 0.0000
# 6 0.0000 0.0000 0.0000 0.0000 0.0000 33.0043
#
#
#
# Elastic Compliance Matrix: (Units=1/GPa)
#
#
# Indices 1 2 3 4 5 6 
#
# 1 0.012518 -0.007923 -0.003170 0.000000 0.000000 0.000000
# 2 -0.007923 0.031807 -0.006915 0.000000 0.000000 0.000000
# 3 -0.003170 -0.006915 0.021865 0.000000 0.000000 0.000000
# 4 0.000000 0.000000 0.000000 0.030809 0.000000 0.000000
# 5 0.000000 0.000000 0.000000 0.000000 0.032097 0.000000
# 6 0.000000 0.000000 0.000000 0.000000 0.000000 0.030299
#
#
# Mechanical properties :
#
#
# Convention : Reuss Voigt Hill
#
# Bulk Modulus (GPa) = 33.14100 39.76595 36.45348
# Shear Modulus (GPa) = 24.33466 27.94037 26.13752
#
# Velocity S-wave (km/s) = 3.43024 3.67560 3.55503
# Velocity P-wave (km/s) = 5.63146 6.10257 5.87174
#
# Compressibility (1/GPa) = 0.03017410
#
# Stress axis : x y z
#
# Youngs Moduli (GPa) = 79.88564 31.43932 45.73583
#
# Poissons Ratio (x) = 0.24910 0.14496
# Poissons Ratio (y) = 0.63296 0.31627
# Poissons Ratio (z) = 0.25320 0.21740
#
# Static dielectric constant tensor:
#      x y z
#    x 3.933590 0.000000 0.000000 
#    y 0.000000 3.418970 0.000000 
#    z 0.000000 0.000000 3.787150 
# 
# 
# High freq. dielectric constant tensor:
#      x y z
#    x 1.830380 0.000000 0.000000 
#    y 0.000000 1.778850 0.000000 
#    z 0.000000 0.000000 1.812780 
# 
# From -- ./inp_files/11559.got.cif
#   From: 2010.03.12/outbox.cif.g09.slc.cpg/sg62_6_cif.got.tgz:11559.got - 2010.04.10 19:12:36.
