data_PCOD8251091
_publ_section_title
;
Structure prediction by ZEFSAII (Michael W. Deem and Ramdas Pophale) SiO2 
 PCOD8251091
Probable space group: P N M A
;
_chemical_formula_sum "Si O2"
_cell_formula_units_Z 32
_cell_length_a 5.184363
_cell_length_b 13.841517
_cell_length_c 21.013092
_cell_angle_alpha 90.000000
_cell_angle_beta 90.000000
_cell_angle_gamma 90.000000
_cell_volume 1507.887895
_symmetry_space_group_name_H-M "P N M A"
_symmetry_group_IT_number 62
_symmetry_cell_setting 'orthorhombic'
loop_
_space_group_symop_operation_xyz
x,y,z
1/2-x,-y,1/2+z
1/2+x,1/2-y,1/2-z
-x,1/2+y,-z
-x,-y,-z
1/2+x,y,1/2-z
1/2-x,1/2+y,1/2+z
x,1/2-y,z
loop_
_atom_site_type_symbol
_atom_site_label
_atom_site_fract_x
_atom_site_fract_y
_atom_site_fract_z
Si Si1 0.158337 0.640555 0.591871
Si Si2 0.115250 0.362233 0.282192
Si Si3 0.031881 0.637916 0.446589
Si Si4 0.975402 0.029724 0.928165
O O1 0.266290 0.750000 0.595760
O O2 0.928886 0.623301 0.642302
O O3 0.042525 0.616286 0.522512
O O4 0.396706 0.568831 0.609157
O O5 0.880162 0.410733 0.241868
O O6 0.128715 0.250000 0.263937
O O7 0.078019 0.750000 0.433062
O O8 0.253505 0.578528 0.407921
O O9 0.754917 0.607441 0.419825
O O10 0.000000 0.000000 0.000000
#
# Coordination Sequence:
#
# PCOD8251091 Si02
#       4
#     8   8   8   8
#     4   9  18  31  48  69  97 131 156 184 232 279
#     4   9  18  30  43  62  90 123 158 190 219 263
#     4  10  20  33  49  69  96 127 159 195 235 277
#     4  10  19  32  47  70  96 123 160 195 227 279
#
# _framework density 21.221734999999999
#
# number of rings (size 3 to 8) (size 9 to 14) (size 15 to 20)
#    0.000    2.500    0.000    3.750    0.000    7.000 
#    0.000   16.250    0.000    0.000    0.000    0.000 
#    0.000   20.000    0.000    0.000    0.000    0.000 
#
# Total GULP energy -396537.546673 kJ/mol
# GULP energy per Si atom -12391.798334 kJ/mol
# Density = 2.117343 g / cm^3
# Si number density = 21.221735 Si / 1000 Ang^3
#
#
#
# Elastic Constant Matrix: (Units=GPa)
#
#
# Indices 1 2 3 4 5 6 
#
# 1 105.9642 16.9744 1.8340 0.0000 0.0000 0.0000
# 2 16.9744 76.5054 11.6961 0.0000 0.0000 0.0000
# 3 1.8340 11.6961 29.9172 0.0000 0.0000 0.0000
# 4 0.0000 0.0000 0.0000 10.3367 0.0000 0.0000
# 5 0.0000 0.0000 0.0000 0.0000 20.9732 0.0000
# 6 0.0000 0.0000 0.0000 0.0000 0.0000 22.9880
#
#
#
# Elastic Compliance Matrix: (Units=1/GPa)
#
#
# Indices 1 2 3 4 5 6 
#
# 1 0.009787 -0.002212 0.000265 0.000000 0.000000 0.000000
# 2 -0.002212 0.014402 -0.005495 0.000000 0.000000 0.000000
# 3 0.000265 -0.005495 0.035558 0.000000 0.000000 0.000000
# 4 0.000000 0.000000 0.000000 0.096743 0.000000 0.000000
# 5 0.000000 0.000000 0.000000 0.000000 0.047680 0.000000
# 6 0.000000 0.000000 0.000000 0.000000 0.000000 0.043501
#
#
# Mechanical properties :
#
#
# Convention : Reuss Voigt Hill
#
# Bulk Modulus (GPa) = 22.29037 30.37732 26.33384
# Shear Modulus (GPa) = 18.01753 22.98508 20.50130
#
# Velocity S-wave (km/s) = 2.91694 3.29461 3.11151
# Velocity P-wave (km/s) = 4.67666 5.36823 5.03433
#
# Compressibility (1/GPa) = 0.04486242
#
# Stress axis : x y z
#
# Youngs Moduli (GPa) = 102.17750 69.43593 28.12341
#
# Poissons Ratio (x) = 0.15359 -0.00745
# Poissons Ratio (y) = 0.22601 0.15453
# Poissons Ratio (z) = -0.02705 0.38153
#
# Static dielectric constant tensor:
#      x y z
#    x 4.390230 0.000000 0.000000 
#    y 0.000000 4.366720 0.000000 
#    z 0.000000 0.000000 3.465370 
# 
# 
# High freq. dielectric constant tensor:
#      x y z
#    x 1.847150 0.000000 0.000000 
#    y 0.000000 1.811540 0.000000 
#    z 0.000000 0.000000 1.775840 
# 
# From -- ./inp_files/25164.got.cif
#   From: 2010.03.12/outbox.cif.g09.slc.cpg/sg62_13_cif.got.tgz:25164.got - 2010.04.10 19:12:36.
