data_PCOD8251108
_publ_section_title
;
Structure prediction by ZEFSAII (Michael W. Deem and Ramdas Pophale) SiO2 
 PCOD8251108
Probable space group: P N M A
;
_chemical_formula_sum "Si O2"
_cell_formula_units_Z 64
_cell_length_a 29.949618
_cell_length_b 9.020819
_cell_length_c 14.251302
_cell_angle_alpha 90.000000
_cell_angle_beta 90.000000
_cell_angle_gamma 90.000000
_cell_volume 3850.275446
_symmetry_space_group_name_H-M "P N M A"
_symmetry_group_IT_number 62
_symmetry_cell_setting 'orthorhombic'
loop_
_space_group_symop_operation_xyz
x,y,z
1/2-x,-y,1/2+z
1/2+x,1/2-y,1/2-z
-x,1/2+y,-z
-x,-y,-z
1/2+x,y,1/2-z
1/2-x,1/2+y,1/2+z
x,1/2-y,z
loop_
_atom_site_type_symbol
_atom_site_label
_atom_site_fract_x
_atom_site_fract_y
_atom_site_fract_z
Si Si1 0.130935 0.083251 0.666330
Si Si2 0.870954 0.421557 0.683558
Si Si3 0.715645 0.074339 0.722732
Si Si4 0.551614 0.578765 0.903950
Si Si5 0.770503 0.574536 0.010642
Si Si6 0.819143 0.917503 0.523332
Si Si7 0.801446 0.422027 0.838012
Si Si8 0.450692 0.578301 0.898031
O O1 0.120309 0.250000 0.700743
O O2 0.170531 0.011601 0.729018
O O3 0.144448 0.083649 0.557865
O O4 0.085805 0.985949 0.673647
O O5 0.878689 0.250000 0.660673
O O6 0.836462 0.485705 0.608798
O O7 0.848487 0.443652 0.784987
O O8 0.918408 0.505388 0.679702
O O9 0.715356 0.250000 0.731791
O O10 0.715054 0.023464 0.614595
O O11 0.760389 0.015888 0.774224
O O12 0.562239 0.750000 0.921656
O O13 0.501593 0.555688 0.864459
O O14 0.557589 0.495932 0.002014
O O15 0.764764 0.750000 0.004929
O O16 0.724844 0.493853 0.982298
O O17 0.805935 0.516996 0.933640
O O18 0.808868 0.750000 0.556708
O O19 0.793376 0.250000 0.862426
O O20 0.438116 0.750000 0.908212
#
# Coordination Sequence:
#
# PCOD8251108 Si02
#       8
#     8   8   8   8   8   8   8   8
#     4  10  19  32  50  69  95 135 170 200 243 293
#     4  11  21  33  51  72  98 135 171 206 245 292
#     4   9  18  34  50  67  97 133 165 200 244 290
#     4  10  20  32  48  71 101 131 162 203 247 295
#     4  11  21  34  51  72  98 132 173 210 243 287
#     4  11  20  30  48  72 101 135 168 204 247 289
#     4  10  20  36  51  69 101 134 165 204 251 293
#     4  10  20  33  48  70 101 133 162 200 249 298
#
# _framework density 16.622187
#
# number of rings (size 3 to 8) (size 9 to 14) (size 15 to 20)
#    0.000    1.750    3.750    1.875    0.000    3.000 
#    0.000    1.250    0.000    0.000    0.000    0.875 
#    0.000    0.000    0.000    0.000    0.000    0.000 
#
# Total GULP energy -793593.563349 kJ/mol
# GULP energy per Si atom -12399.899427 kJ/mol
# Density = 1.658435 g / cm^3
# Si number density = 16.622187 Si / 1000 Ang^3
#
#
#
# Elastic Constant Matrix: (Units=GPa)
#
#
# Indices 1 2 3 4 5 6 
#
# 1 99.6982 48.8822 30.4178 0.0000 0.0000 0.0000
# 2 48.8822 90.1129 27.8168 0.0000 0.0000 0.0000
# 3 30.4178 27.8168 68.1972 0.0000 0.0000 0.0000
# 4 0.0000 0.0000 0.0000 23.4099 0.0000 0.0000
# 5 0.0000 0.0000 0.0000 0.0000 22.2764 0.0000
# 6 0.0000 0.0000 0.0000 0.0000 0.0000 29.3886
#
#
#
# Elastic Compliance Matrix: (Units=1/GPa)
#
#
# Indices 1 2 3 4 5 6 
#
# 1 0.014442 -0.006688 -0.003714 0.000000 0.000000 0.000000
# 2 -0.006688 0.015793 -0.003459 0.000000 0.000000 0.000000
# 3 -0.003714 -0.003459 0.017731 0.000000 0.000000 0.000000
# 4 0.000000 0.000000 0.000000 0.042717 0.000000 0.000000
# 5 0.000000 0.000000 0.000000 0.000000 0.044891 0.000000
# 6 0.000000 0.000000 0.000000 0.000000 0.000000 0.034027
#
#
# Mechanical properties :
#
#
# Convention : Reuss Voigt Hill
#
# Bulk Modulus (GPa) = 49.39506 52.47133 50.93320
# Shear Modulus (GPa) = 24.50149 25.07441 24.78795
#
# Velocity S-wave (km/s) = 3.84347 3.88814 3.86587
# Velocity P-wave (km/s) = 7.03400 7.19670 7.11581
#
# Compressibility (1/GPa) = 0.02024494
#
# Stress axis : x y z
#
# Youngs Moduli (GPa) = 69.24015 63.32016 56.39980
#
# Poissons Ratio (x) = 0.42348 0.20946
# Poissons Ratio (y) = 0.46308 0.19507
# Poissons Ratio (z) = 0.25714 0.21900
#
# Static dielectric constant tensor:
#      x y z
#    x 3.251430 0.000000 0.000000 
#    y 0.000000 3.146750 0.000000 
#    z 0.000000 0.000000 2.932660 
# 
# 
# High freq. dielectric constant tensor:
#      x y z
#    x 1.635300 0.000000 0.000000 
#    y 0.000000 1.643080 0.000000 
#    z 0.000000 0.000000 1.607710 
# 
# From -- ./inp_files/21222.got.cif
#   From: 2010.03.12/outbox.cif.g09.slc.cpg/sg62_11_cif.got.tgz:21222.got - 2010.04.10 19:12:36.
