data_PCOD8251305
_publ_section_title
;
Structure prediction by ZEFSAII (Michael W. Deem and Ramdas Pophale) SiO2 
 PCOD8251305
Probable space group: P N M A
;
_chemical_formula_sum "Si O2"
_cell_formula_units_Z 64
_cell_length_a 21.856892
_cell_length_b 8.864364
_cell_length_c 16.597002
_cell_angle_alpha 90.000000
_cell_angle_beta 90.000000
_cell_angle_gamma 90.000000
_cell_volume 3215.626759
_symmetry_space_group_name_H-M "P N M A"
_symmetry_group_IT_number 62
_symmetry_cell_setting 'orthorhombic'
loop_
_space_group_symop_operation_xyz
x,y,z
1/2-x,-y,1/2+z
1/2+x,1/2-y,1/2-z
-x,1/2+y,-z
-x,-y,-z
1/2+x,y,1/2-z
1/2-x,1/2+y,1/2+z
x,1/2-y,z
loop_
_atom_site_type_symbol
_atom_site_label
_atom_site_fract_x
_atom_site_fract_y
_atom_site_fract_z
Si Si1 0.686664 0.572908 0.957063
Si Si2 0.372256 0.920115 0.185320
Si Si3 0.721337 0.079627 0.679319
Si Si4 0.623461 0.923008 0.572331
Si Si5 0.162017 0.073572 0.372910
Si Si6 0.600448 0.927252 0.266766
Si Si7 0.966765 0.572220 0.179692
Si Si8 0.813321 0.422572 0.910160
O O1 0.687844 0.750000 0.965538
O O2 0.635320 0.526085 0.892014
O O3 0.754379 0.520088 0.932429
O O4 0.664636 0.504501 0.040944
O O5 0.386077 0.750000 0.156444
O O6 0.307916 0.926318 0.232469
O O7 0.427047 0.978562 0.242339
O O8 0.743214 0.250000 0.659200
O O9 0.673223 0.030327 0.612604
O O10 0.777621 0.965758 0.677968
O O11 0.632088 0.750000 0.600312
O O12 0.632759 0.938091 0.476676
O O13 0.556937 0.983166 0.600439
O O14 0.155787 0.250000 0.386476
O O15 0.105940 0.013132 0.318580
O O16 0.601580 0.750000 0.249578
O O17 0.536496 0.974916 0.306708
O O18 0.655935 0.973869 0.326305
O O19 0.958234 0.750000 0.164846
O O20 0.790790 0.250000 0.905129
#
# Coordination Sequence:
#
# PCOD8251305 Si02
#       8
#     8   8   8   8   8   8   8   8
#     4  12  24  37  58  87 116 149 191 237 288 352
#     4   9  19  36  58  83 113 148 188 236 287 335
#     4  10  19  34  57  84 114 151 189 230 286 346
#     4  10  19  32  55  86 119 156 192 234 283 333
#     4  12  24  38  57  83 116 150 188 239 298 349
#     4  10  22  41  61  83 115 157 200 239 287 346
#     4   9  20  39  61  83 114 158 202 241 284 338
#     4  10  21  37  58  87 123 155 186 236 293 341
#
# _framework density 19.902806999999999
#
# number of rings (size 3 to 8) (size 9 to 14) (size 15 to 20)
#    0.000    1.750    1.250    4.500    0.000    7.500 
#    0.000    0.625    0.000    0.000    0.000    0.000 
#    0.000    0.000    0.000    0.000    0.000    0.000 
#
# Total GULP energy -793633.979327 kJ/mol
# GULP energy per Si atom -12400.530927 kJ/mol
# Density = 1.985751 g / cm^3
# Si number density = 19.902807 Si / 1000 Ang^3
#
#
#
# Elastic Constant Matrix: (Units=GPa)
#
#
# Indices 1 2 3 4 5 6 
#
# 1 30.8157 13.9121 14.2156 0.0000 0.0000 0.0000
# 2 13.9121 98.0212 47.1837 0.0000 0.0000 0.0000
# 3 14.2156 47.1837 101.9869 0.0000 0.0000 0.0000
# 4 0.0000 0.0000 0.0000 30.6816 0.0000 0.0000
# 5 0.0000 0.0000 0.0000 0.0000 22.4335 0.0000
# 6 0.0000 0.0000 0.0000 0.0000 0.0000 23.7733
#
#
#
# Elastic Compliance Matrix: (Units=1/GPa)
#
#
# Indices 1 2 3 4 5 6 
#
# 1 0.035552 -0.003423 -0.003372 0.000000 0.000000 0.000000
# 2 -0.003423 0.013454 -0.005747 0.000000 0.000000 0.000000
# 3 -0.003372 -0.005747 0.012934 0.000000 0.000000 0.000000
# 4 0.000000 0.000000 0.000000 0.032593 0.000000 0.000000
# 5 0.000000 0.000000 0.000000 0.000000 0.044576 0.000000
# 6 0.000000 0.000000 0.000000 0.000000 0.000000 0.042064
#
#
# Mechanical properties :
#
#
# Convention : Reuss Voigt Hill
#
# Bulk Modulus (GPa) = 27.13263 42.38297 34.75780
# Shear Modulus (GPa) = 22.87880 25.74516 24.31198
#
# Velocity S-wave (km/s) = 3.39414 3.60049 3.49884
# Velocity P-wave (km/s) = 5.38725 6.21497 5.81586
#
# Compressibility (1/GPa) = 0.03685600
#
# Stress axis : x y z
#
# Youngs Moduli (GPa) = 28.12799 74.32580 77.31426
#
# Poissons Ratio (x) = 0.25440 0.26070
# Poissons Ratio (y) = 0.09627 0.44436
# Poissons Ratio (z) = 0.09485 0.42719
#
# Static dielectric constant tensor:
#      x y z
#    x 3.615780 0.000000 0.000000 
#    y 0.000000 3.581110 0.000000 
#    z 0.000000 0.000000 3.729500 
# 
# 
# High freq. dielectric constant tensor:
#      x y z
#    x 1.759470 0.000000 0.000000 
#    y 0.000000 1.771860 0.000000 
#    z 0.000000 0.000000 1.782010 
# 
# From -- ./inp_files/20981.got.cif
#   From: 2010.03.12/outbox.cif.g09.slc.cpg/sg62_11_cif.got.tgz:20981.got - 2010.04.10 19:12:36.
