data_PCOD8251621
_publ_section_title
;
Structure prediction by ZEFSAII (Michael W. Deem and Ramdas Pophale) SiO2 
 PCOD8251621
Probable space group: P N M A
;
_chemical_formula_sum "Si O2"
_cell_formula_units_Z 48
_cell_length_a 9.005393
_cell_length_b 8.228834
_cell_length_c 31.207650
_cell_angle_alpha 90.000000
_cell_angle_beta 90.000000
_cell_angle_gamma 90.000000
_cell_volume 2312.608079
_symmetry_space_group_name_H-M "P N M A"
_symmetry_group_IT_number 62
_symmetry_cell_setting 'orthorhombic'
loop_
_space_group_symop_operation_xyz
x,y,z
1/2-x,-y,1/2+z
1/2+x,1/2-y,1/2-z
-x,1/2+y,-z
-x,-y,-z
1/2+x,y,1/2-z
1/2-x,1/2+y,1/2+z
x,1/2-y,z
loop_
_atom_site_type_symbol
_atom_site_label
_atom_site_fract_x
_atom_site_fract_y
_atom_site_fract_z
Si Si1 0.086828 0.055928 0.707648
Si Si2 0.578053 0.943692 0.292118
Si Si3 0.082422 0.939627 0.374900
Si Si4 0.092191 0.942673 0.040413
Si Si5 0.922356 0.438186 0.457485
Si Si6 0.913951 0.556626 0.123524
O O1 0.088180 0.250000 0.706980
O O2 0.004413 0.990247 0.749913
O O3 0.254490 0.988652 0.707459
O O4 0.002520 0.984643 0.666017
O O5 0.578169 0.750000 0.292311
O O6 0.492759 0.010979 0.333793
O O7 0.099846 0.750000 0.366778
O O8 0.247161 0.016054 0.379018
O O9 0.987883 0.966204 0.417364
O O10 0.116221 0.750000 0.040106
O O11 0.005636 0.003295 0.082490
O O12 0.248317 0.032316 0.039164
O O13 0.000000 0.000000 0.000000
O O14 0.956700 0.250000 0.451277
O O15 0.000000 0.500000 0.500000
O O16 0.909351 0.750000 0.124041
#
# Coordination Sequence:
#
# PCOD8251621 Si02
#       6
#     8   8   8   8   8   8
#     4   9  16  25  44  73 110 148 184 227 277 329
#     4   9  15  25  41  71 110 147 184 227 276 327
#     4  10  19  34  55  82 112 145 183 229 281 337
#     4  11  22  38  59  85 116 152 190 234 283 337
#     4  12  25  41  60  83 110 145 186 234 287 345
#     4   9  18  31  51  78 111 145 183 229 279 331
#
# _framework density 20.755787000000002
#
# number of rings (size 3 to 8) (size 9 to 14) (size 15 to 20)
#    0.000    2.000    0.000    5.000    0.000    8.000 
#    0.000    0.833    0.000    0.000    0.000   11.667 
#    0.000    0.000    0.000    0.000    0.000    0.000 
#
# Total GULP energy -595298.569881 kJ/mol
# GULP energy per Si atom -12402.053539 kJ/mol
# Density = 2.070855 g / cm^3
# Si number density = 20.755787 Si / 1000 Ang^3
#
#
#
# Elastic Constant Matrix: (Units=GPa)
#
#
# Indices 1 2 3 4 5 6 
#
# 1 197.5928 -1.9709 95.7274 0.0000 0.0000 0.0000
# 2 -1.9709 17.4938 -5.0010 0.0000 0.0000 0.0000
# 3 95.7274 -5.0010 204.8342 0.0000 0.0000 0.0000
# 4 0.0000 0.0000 0.0000 17.0020 0.0000 0.0000
# 5 0.0000 0.0000 0.0000 0.0000 51.4383 0.0000
# 6 0.0000 0.0000 0.0000 0.0000 0.0000 17.6242
#
#
#
# Elastic Compliance Matrix: (Units=1/GPa)
#
#
# Indices 1 2 3 4 5 6 
#
# 1 0.006542 -0.000138 -0.003061 0.000000 0.000000 0.000000
# 2 -0.000138 0.057568 0.001470 0.000000 0.000000 0.000000
# 3 -0.003061 0.001470 0.006348 0.000000 0.000000 0.000000
# 4 0.000000 0.000000 0.000000 0.058817 0.000000 0.000000
# 5 0.000000 0.000000 0.000000 0.000000 0.019441 0.000000
# 6 0.000000 0.000000 0.000000 0.000000 0.000000 0.056740
#
#
# Mechanical properties :
#
#
# Convention : Reuss Voigt Hill
#
# Bulk Modulus (GPa) = 14.92515 66.38130 40.65323
# Shear Modulus (GPa) = 21.62181 39.29058 30.45620
#
# Velocity S-wave (km/s) = 3.23108 4.35558 3.83477
# Velocity P-wave (km/s) = 4.59633 7.57273 6.26388
#
# Compressibility (1/GPa) = 0.06700102
#
# Stress axis : x y z
#
# Youngs Moduli (GPa) = 152.84772 17.37078 157.52046
#
# Poissons Ratio (x) = 0.00240 0.48216
# Poissons Ratio (y) = 0.02108 -0.23155
# Poissons Ratio (z) = 0.46786 -0.02553
#
# Static dielectric constant tensor:
#      x y z
#    x 4.057890 0.000000 0.000000 
#    y 0.000000 3.307710 0.000000 
#    z 0.000000 0.000000 3.949340 
# 
# 
# High freq. dielectric constant tensor:
#      x y z
#    x 1.834310 0.000000 0.000000 
#    y 0.000000 1.757110 0.000000 
#    z 0.000000 0.000000 1.832350 
# 
# From -- ./inp_files/32025.got.cif
#   From: 2010.03.12/outbox.cif.g09.slc.cpg/sg62_17_cif.got.tgz:32025.got - 2010.04.10 19:12:36.
