data_PCOD8251211
_publ_section_title
;
Structure prediction by ZEFSAII (Michael W. Deem and Ramdas Pophale) SiO2 
 PCOD8251211
Probable space group: P N M A
;
_chemical_formula_sum "Si O2"
_cell_formula_units_Z 56
_cell_length_a 15.889080
_cell_length_b 9.390554
_cell_length_c 19.408467
_cell_angle_alpha 90.000000
_cell_angle_beta 90.000000
_cell_angle_gamma 90.000000
_cell_volume 2895.884255
_symmetry_space_group_name_H-M "P N M A"
_symmetry_group_IT_number 62
_symmetry_cell_setting 'orthorhombic'
loop_
_space_group_symop_operation_xyz
x,y,z
1/2-x,-y,1/2+z
1/2+x,1/2-y,1/2-z
-x,1/2+y,-z
-x,-y,-z
1/2+x,y,1/2-z
1/2-x,1/2+y,1/2+z
x,1/2-y,z
loop_
_atom_site_type_symbol
_atom_site_label
_atom_site_fract_x
_atom_site_fract_y
_atom_site_fract_z
Si Si1 0.693947 0.085840 0.617039
Si Si2 0.911465 0.420503 0.006784
Si Si3 0.762648 0.084174 0.909461
Si Si4 0.331756 0.914482 0.224702
Si Si5 0.616001 0.909248 0.115090
Si Si6 0.117675 0.593749 0.533637
Si Si7 0.518585 0.589359 0.830543
O O1 0.668218 0.250000 0.601679
O O2 0.696456 0.055055 0.698357
O O3 0.788714 0.050626 0.595899
O O4 0.632579 0.980068 0.576039
O O5 0.924238 0.250000 0.013742
O O6 0.855127 0.459445 0.938660
O O7 0.000000 0.500000 0.000000
O O8 0.752637 0.250000 0.918586
O O9 0.742954 0.039925 0.829401
O O10 0.692036 0.018396 0.957960
O O11 0.355266 0.750000 0.212155
O O12 0.415692 0.006444 0.216364
O O13 0.610245 0.750000 0.146227
O O14 0.572820 0.013275 0.170913
O O15 0.571275 0.921785 0.040259
O O16 0.160384 0.750000 0.538972
O O17 0.046601 0.579421 0.590771
O O18 0.509583 0.750000 0.803074
#
# Coordination Sequence:
#
# PCOD8251211 Si02
#       7
#     8   8   8   8   8   8   8
#     4  10  21  39  62  84 111 149 194 243 295 345
#     4  11  23  39  61  88 118 152 196 247 296 349
#     4   9  18  34  57  83 109 143 188 235 284 340
#     4   9  19  38  60  81 109 147 191 239 290 347
#     4  10  19  32  52  80 111 143 183 227 279 339
#     4   9  17  30  51  78 109 142 176 220 270 326
#     4  10  20  32  50  79 113 147 182 222 275 338
#
# _framework density 19.337789999999998
#
# number of rings (size 3 to 8) (size 9 to 14) (size 15 to 20)
#    0.000    2.286    1.429    1.286    0.000    2.857 
#    2.571    0.000    0.000    0.000    0.000    0.000 
#    0.000    0.000    0.000    0.000    0.000    0.000 
#
# Total GULP energy -693927.368707 kJ/mol
# GULP energy per Si atom -12391.560155 kJ/mol
# Density = 1.929378 g / cm^3
# Si number density = 19.337790 Si / 1000 Ang^3
#
#
#
# Elastic Constant Matrix: (Units=GPa)
#
#
# Indices 1 2 3 4 5 6 
#
# 1 78.2768 44.3355 25.4611 0.0000 0.0000 0.0000
# 2 44.3355 74.6919 36.6259 0.0000 0.0000 0.0000
# 3 25.4611 36.6259 82.5170 0.0000 0.0000 0.0000
# 4 0.0000 0.0000 0.0000 26.1808 0.0000 0.0000
# 5 0.0000 0.0000 0.0000 0.0000 16.0379 0.0000
# 6 0.0000 0.0000 0.0000 0.0000 0.0000 32.4717
#
#
#
# Elastic Compliance Matrix: (Units=1/GPa)
#
#
# Indices 1 2 3 4 5 6 
#
# 1 0.019325 -0.010925 -0.001114 0.000000 0.000000 0.000000
# 2 -0.010925 0.023289 -0.006966 0.000000 0.000000 0.000000
# 3 -0.001114 -0.006966 0.015554 0.000000 0.000000 0.000000
# 4 0.000000 0.000000 0.000000 0.038196 0.000000 0.000000
# 5 0.000000 0.000000 0.000000 0.000000 0.062352 0.000000
# 6 0.000000 0.000000 0.000000 0.000000 0.000000 0.030796
#
#
# Mechanical properties :
#
#
# Convention : Reuss Voigt Hill
#
# Bulk Modulus (GPa) = 49.60557 49.81451 49.71004
# Shear Modulus (GPa) = 21.34542 23.54230 22.44386
#
# Velocity S-wave (km/s) = 3.32598 3.49295 3.41049
# Velocity P-wave (km/s) = 6.36061 6.48719 6.42421
#
# Compressibility (1/GPa) = 0.02015903
#
# Stress axis : x y z
#
# Youngs Moduli (GPa) = 51.74572 42.93867 64.29075
#
# Poissons Ratio (x) = 0.46910 0.07161
# Poissons Ratio (y) = 0.56532 0.44786
# Poissons Ratio (z) = 0.05763 0.29911
#
# Static dielectric constant tensor:
#      x y z
#    x 3.404880 0.000000 0.000000 
#    y 0.000000 3.636910 0.000000 
#    z 0.000000 0.000000 3.535040 
# 
# 
# High freq. dielectric constant tensor:
#      x y z
#    x 1.740320 0.000000 0.000000 
#    y 0.000000 1.754510 0.000000 
#    z 0.000000 0.000000 1.742950 
# 
# From -- ./inp_files/27084.got.cif
#   From: 2010.03.12/outbox.cif.g09.slc.cpg/sg62_14_cif.got.tgz:27084.got - 2010.04.10 19:12:36.
