data_PCOD8251284
_publ_section_title
;
Structure prediction by ZEFSAII (Michael W. Deem and Ramdas Pophale) SiO2 
 PCOD8251284
Probable space group: P N M A
;
_chemical_formula_sum "Si O2"
_cell_formula_units_Z 64
_cell_length_a 19.266005
_cell_length_b 8.898712
_cell_length_c 20.635441
_cell_angle_alpha 90.000000
_cell_angle_beta 90.000000
_cell_angle_gamma 90.000000
_cell_volume 3537.794274
_symmetry_space_group_name_H-M "P N M A"
_symmetry_group_IT_number 62
_symmetry_cell_setting 'orthorhombic'
loop_
_space_group_symop_operation_xyz
x,y,z
1/2-x,-y,1/2+z
1/2+x,1/2-y,1/2-z
-x,1/2+y,-z
-x,-y,-z
1/2+x,y,1/2-z
1/2-x,1/2+y,1/2+z
x,1/2-y,z
loop_
_atom_site_type_symbol
_atom_site_label
_atom_site_fract_x
_atom_site_fract_y
_atom_site_fract_z
Si Si1 0.782566 0.077669 0.195108
Si Si2 0.065971 0.576528 0.233287
Si Si3 0.078220 0.424218 0.619902
Si Si4 0.791814 0.574044 0.564687
Si Si5 0.078758 0.577127 0.381230
Si Si6 0.929892 0.077921 0.244079
Si Si7 0.786233 0.075280 0.816179
Si Si8 0.291291 0.427410 0.066087
O O1 0.760719 0.250000 0.208853
O O2 0.755344 0.024199 0.125316
O O3 0.865918 0.060563 0.194553
O O4 0.749196 0.973947 0.249626
O O5 0.043506 0.750000 0.232740
O O6 0.085951 0.529095 0.306279
O O7 0.131217 0.545027 0.187006
O O8 0.000092 0.479685 0.209059
O O9 0.098917 0.250000 0.617922
O O10 0.086911 0.479032 0.693269
O O11 0.129866 0.515604 0.573986
O O12 0.999955 0.450026 0.594961
O O13 0.788103 0.750000 0.551698
O O14 0.871520 0.527631 0.576650
O O15 0.761876 0.489858 0.501674
O O16 0.101029 0.750000 0.390755
O O17 0.939515 0.250000 0.265862
O O18 0.770168 0.250000 0.826835
O O19 0.757200 0.982194 0.875923
O O20 0.290924 0.250000 0.065396
#
# Coordination Sequence:
#
# PCOD8251284 Si02
#       8
#     8   8   8   8   8   8   8   8
#     4  10  21  36  56  85 114 143 184 232 276 327
#     4   9  19  34  54  83 114 144 182 226 274 330
#     4  10  20  35  54  78 111 150 188 226 271 329
#     4  11  23  38  56  79 111 150 189 228 279 333
#     4   9  18  34  53  78 111 145 185 227 268 322
#     4  10  19  32  54  84 115 145 179 227 278 324
#     4  11  21  36  60  84 110 146 186 230 279 329
#     4  12  25  39  55  79 112 147 189 235 280 333
#
# _framework density 18.090368000000002
#
# number of rings (size 3 to 8) (size 9 to 14) (size 15 to 20)
#    0.000    1.750    2.500    3.375    0.000    5.000 
#    0.000    0.000    0.000    0.750    0.000    0.000 
#    0.000    0.000    0.000    0.000    0.000    0.000 
#
# Total GULP energy -793787.357650 kJ/mol
# GULP energy per Si atom -12402.927463 kJ/mol
# Density = 1.804919 g / cm^3
# Si number density = 18.090368 Si / 1000 Ang^3
#
#
#
# Elastic Constant Matrix: (Units=GPa)
#
#
# Indices 1 2 3 4 5 6 
#
# 1 88.7637 48.1187 49.0177 0.0000 0.0000 0.0000
# 2 48.1187 110.8422 57.0079 0.0000 0.0000 0.0000
# 3 49.0177 57.0079 106.2620 0.0000 0.0000 0.0000
# 4 0.0000 0.0000 0.0000 28.1033 0.0000 0.0000
# 5 0.0000 0.0000 0.0000 0.0000 18.6627 0.0000
# 6 0.0000 0.0000 0.0000 0.0000 0.0000 25.8598
#
#
#
# Elastic Compliance Matrix: (Units=1/GPa)
#
#
# Indices 1 2 3 4 5 6 
#
# 1 0.016606 -0.004515 -0.005238 0.000000 0.000000 0.000000
# 2 -0.004515 0.013687 -0.005260 0.000000 0.000000 0.000000
# 3 -0.005238 -0.005260 0.014649 0.000000 0.000000 0.000000
# 4 0.000000 0.000000 0.000000 0.035583 0.000000 0.000000
# 5 0.000000 0.000000 0.000000 0.000000 0.053583 0.000000
# 6 0.000000 0.000000 0.000000 0.000000 0.000000 0.038670
#
#
# Mechanical properties :
#
#
# Convention : Reuss Voigt Hill
#
# Bulk Modulus (GPa) = 67.04313 68.23961 67.64137
# Shear Modulus (GPa) = 24.06428 24.64005 24.35217
#
# Velocity S-wave (km/s) = 3.65118 3.69460 3.67296
# Velocity P-wave (km/s) = 7.41049 7.48355 7.44711
#
# Compressibility (1/GPa) = 0.01491577
#
# Stress axis : x y z
#
# Youngs Moduli (GPa) = 60.21924 73.06014 68.26407
#
# Poissons Ratio (x) = 0.32987 0.35756
# Poissons Ratio (y) = 0.27189 0.35909
# Poissons Ratio (z) = 0.31543 0.38432
#
# Static dielectric constant tensor:
#      x y z
#    x 3.534240 0.000000 0.000000 
#    y 0.000000 3.407110 0.000000 
#    z 0.000000 0.000000 3.190600 
# 
# 
# High freq. dielectric constant tensor:
#      x y z
#    x 1.701610 0.000000 0.000000 
#    y 0.000000 1.711590 0.000000 
#    z 0.000000 0.000000 1.674640 
# 
# From -- ./inp_files/24805.got.cif
#   From: 2010.03.12/outbox.cif.g09.slc.cpg/sg62_13_cif.got.tgz:24805.got - 2010.04.10 19:12:36.
