data_PCOD8251691
_publ_section_title
;
Structure prediction by ZEFSAII (Michael W. Deem and Ramdas Pophale) SiO2 
 PCOD8251691
Probable space group: P N M A
;
_chemical_formula_sum "Si O2"
_cell_formula_units_Z 64
_cell_length_a 11.919222
_cell_length_b 8.954088
_cell_length_c 30.813181
_cell_angle_alpha 90.000000
_cell_angle_beta 90.000000
_cell_angle_gamma 90.000000
_cell_volume 3288.560243
_symmetry_space_group_name_H-M "P N M A"
_symmetry_group_IT_number 62
_symmetry_cell_setting 'orthorhombic'
loop_
_space_group_symop_operation_xyz
x,y,z
1/2-x,-y,1/2+z
1/2+x,1/2-y,1/2-z
-x,1/2+y,-z
-x,-y,-z
1/2+x,y,1/2-z
1/2-x,1/2+y,1/2+z
x,1/2-y,z
loop_
_atom_site_type_symbol
_atom_site_label
_atom_site_fract_x
_atom_site_fract_y
_atom_site_fract_z
Si Si1 0.241244 0.427625 0.452898
Si Si2 0.486551 0.420337 0.170873
Si Si3 0.999300 0.073216 0.425959
Si Si4 0.233575 0.420541 0.292049
Si Si5 0.137932 0.073010 0.127536
Si Si6 0.778295 0.925835 0.296062
Si Si7 0.382535 0.072800 0.371314
Si Si8 0.762809 0.425848 0.459694
O O1 0.244817 0.250000 0.455202
O O2 0.114576 0.489581 0.446031
O O3 0.318664 0.489177 0.413870
O O4 0.287508 0.493212 0.498080
O O5 0.442131 0.250000 0.171761
O O6 0.482065 0.488362 0.122565
O O7 0.611860 0.429344 0.187432
O O8 0.406645 0.520227 0.200784
O O9 0.008758 0.250000 0.422568
O O10 0.892632 0.023366 0.454376
O O11 0.262987 0.250000 0.278862
O O12 0.232848 0.525801 0.250551
O O13 0.322149 0.483066 0.327410
O O14 0.145377 0.250000 0.133460
O O15 0.192093 0.022669 0.082054
O O16 0.010034 0.015493 0.128410
O O17 0.203746 0.998825 0.166670
O O18 0.770850 0.750000 0.300575
O O19 0.376153 0.250000 0.372689
O O20 0.752795 0.250000 0.466257
#
# Coordination Sequence:
#
# PCOD8251691 Si02
#       8
#     8   8   8   8   8   8   8   8
#     4  10  19  34  57  85 115 145 186 240 294 340
#     4  10  19  38  66  88 111 151 199 242 282 336
#     4   9  16  32  57  83 113 146 186 238 284 330
#     4  10  21  39  65  90 112 148 201 244 282 340
#     4  10  21  40  62  82 111 154 204 242 277 338
#     4  12  26  40  57  87 126 154 184 237 303 354
#     4   9  19  37  62  88 110 144 197 248 282 328
#     4  10  20  34  54  81 114 152 193 236 283 339
#
# _framework density 19.461404999999999
#
# number of rings (size 3 to 8) (size 9 to 14) (size 15 to 20)
#    0.000    2.000    2.500    1.500    1.750    1.500 
#    0.000    1.875    0.000    0.000    0.000    0.000 
#    0.000    0.000    0.000    0.000    0.000    0.000 
#
# Total GULP energy -793689.455654 kJ/mol
# GULP energy per Si atom -12401.397745 kJ/mol
# Density = 1.941711 g / cm^3
# Si number density = 19.461405 Si / 1000 Ang^3
#
#
#
# Elastic Constant Matrix: (Units=GPa)
#
#
# Indices 1 2 3 4 5 6 
#
# 1 107.7448 28.4727 32.0594 0.0000 0.0000 0.0000
# 2 28.4727 40.2654 36.5144 0.0000 0.0000 0.0000
# 3 32.0594 36.5144 118.1182 0.0000 0.0000 0.0000
# 4 0.0000 0.0000 0.0000 29.9475 0.0000 0.0000
# 5 0.0000 0.0000 0.0000 0.0000 18.8322 0.0000
# 6 0.0000 0.0000 0.0000 0.0000 0.0000 10.0785
#
#
#
# Elastic Compliance Matrix: (Units=1/GPa)
#
#
# Indices 1 2 3 4 5 6 
#
# 1 0.011474 -0.007350 -0.000842 0.000000 0.000000 0.000000
# 2 -0.007350 0.039218 -0.010129 0.000000 0.000000 0.000000
# 3 -0.000842 -0.010129 0.011826 0.000000 0.000000 0.000000
# 4 0.000000 0.000000 0.000000 0.033392 0.000000 0.000000
# 5 0.000000 0.000000 0.000000 0.000000 0.053101 0.000000
# 6 0.000000 0.000000 0.000000 0.000000 0.000000 0.099221
#
#
# Mechanical properties :
#
#
# Convention : Reuss Voigt Hill
#
# Bulk Modulus (GPa) = 38.64576 51.13572 44.89074
# Shear Modulus (GPa) = 17.03595 23.04376 20.03986
#
# Velocity S-wave (km/s) = 2.96188 3.44477 3.21241
# Velocity P-wave (km/s) = 5.62118 6.49264 6.07257
#
# Compressibility (1/GPa) = 0.02587606
#
# Stress axis : x y z
#
# Youngs Moduli (GPa) = 87.15312 25.49882 84.56109
#
# Poissons Ratio (x) = 0.18741 0.07121
# Poissons Ratio (y) = 0.64056 0.85649
# Poissons Ratio (z) = 0.07340 0.25827
#
# Static dielectric constant tensor:
#      x y z
#    x 3.749560 0.000000 0.000000 
#    y 0.000000 3.177360 0.000000 
#    z 0.000000 0.000000 3.701210 
# 
# 
# High freq. dielectric constant tensor:
#      x y z
#    x 1.766270 0.000000 0.000000 
#    y 0.000000 1.713790 0.000000 
#    z 0.000000 0.000000 1.772530 
# 
# From -- ./inp_files/32463.got.cif
#   From: 2010.03.12/outbox.cif.g09.slc.cpg/sg62_17_cif.got.tgz:32463.got - 2010.04.10 19:12:36.
