data_PCOD8251463
_publ_section_title
;
Structure prediction by ZEFSAII (Michael W. Deem and Ramdas Pophale) SiO2 
 PCOD8251463
Probable space group: P N M A
;
_chemical_formula_sum "Si O2"
_cell_formula_units_Z 48
_cell_length_a 10.316912
_cell_length_b 9.058914
_cell_length_c 28.908283
_cell_angle_alpha 90.000000
_cell_angle_beta 90.000000
_cell_angle_gamma 90.000000
_cell_volume 2701.768666
_symmetry_space_group_name_H-M "P N M A"
_symmetry_group_IT_number 62
_symmetry_cell_setting 'orthorhombic'
loop_
_space_group_symop_operation_xyz
x,y,z
1/2-x,-y,1/2+z
1/2+x,1/2-y,1/2-z
-x,1/2+y,-z
-x,-y,-z
1/2+x,y,1/2-z
1/2-x,1/2+y,1/2+z
x,1/2-y,z
loop_
_atom_site_type_symbol
_atom_site_label
_atom_site_fract_x
_atom_site_fract_y
_atom_site_fract_z
Si Si1 0.382720 0.421255 0.524831
Si Si2 0.725357 0.074042 0.219264
Si Si3 0.002553 0.081260 0.882317
Si Si4 0.000129 0.574151 0.221938
Si Si5 0.738987 0.420572 0.114667
Si Si6 0.377877 0.577390 0.978889
O O1 0.500000 0.500000 0.500000
O O2 0.394286 0.250000 0.512412
O O3 0.388416 0.447896 0.580519
O O4 0.247435 0.484464 0.506060
O O5 0.733318 0.250000 0.227974
O O6 0.692550 0.034708 0.165887
O O7 0.609162 0.001968 0.247400
O O8 0.860961 0.998268 0.233856
O O9 0.045133 0.250000 0.881322
O O10 0.959718 0.034382 0.830776
O O11 0.127981 0.996039 0.899738
O O12 0.994520 0.750000 0.231109
O O13 0.771711 0.250000 0.112801
O O14 0.632008 0.461345 0.075909
O O15 0.393397 0.750000 0.987139
O O16 0.500000 0.500000 0.000000
#
# Coordination Sequence:
#
# PCOD8251463 Si02
#       6
#     8   8   8   8   8   8
#     4  10  19  33  55  80 105 134 174 217 258 307
#     4  10  20  36  58  81 108 141 180 223 271 322
#     4   9  18  32  54  81 106 133 173 219 263 314
#     4  10  20  36  56  80 111 142 178 222 271 323
#     4   9  18  34  55  77 105 139 176 216 260 314
#     4  10  21  36  52  75 109 142 176 215 260 312
#
# _framework density 17.766141000000001
#
# number of rings (size 3 to 8) (size 9 to 14) (size 15 to 20)
#    0.000    2.333    1.667    1.000    0.000    2.667 
#    3.000    0.000    0.000    0.000    0.000    0.000 
#    0.000    0.000    0.000    0.000    0.000    0.000 
#
# Total GULP energy -595022.809811 kJ/mol
# GULP energy per Si atom -12396.308538 kJ/mol
# Density = 1.772570 g / cm^3
# Si number density = 17.766141 Si / 1000 Ang^3
#
#
#
# Elastic Constant Matrix: (Units=GPa)
#
#
# Indices 1 2 3 4 5 6 
#
# 1 148.0448 56.4790 87.8432 0.0000 0.0000 0.0000
# 2 56.4790 61.7208 47.5630 0.0000 0.0000 0.0000
# 3 87.8432 47.5630 120.2541 0.0000 0.0000 0.0000
# 4 0.0000 0.0000 0.0000 25.3180 0.0000 0.0000
# 5 0.0000 0.0000 0.0000 0.0000 33.2292 0.0000
# 6 0.0000 0.0000 0.0000 0.0000 0.0000 34.5840
#
#
#
# Elastic Compliance Matrix: (Units=1/GPa)
#
#
# Indices 1 2 3 4 5 6 
#
# 1 0.013724 -0.006952 -0.007275 0.000000 0.000000 0.000000
# 2 -0.006952 0.026827 -0.005532 0.000000 0.000000 0.000000
# 3 -0.007275 -0.005532 0.015818 0.000000 0.000000 0.000000
# 4 0.000000 0.000000 0.000000 0.039498 0.000000 0.000000
# 5 0.000000 0.000000 0.000000 0.000000 0.030094 0.000000
# 6 0.000000 0.000000 0.000000 0.000000 0.000000 0.028915
#
#
# Mechanical properties :
#
#
# Convention : Reuss Voigt Hill
#
# Bulk Modulus (GPa) = 59.34778 79.31001 69.32889
# Shear Modulus (GPa) = 24.99868 27.83522 26.41695
#
# Velocity S-wave (km/s) = 3.75520 3.96252 3.86025
# Velocity P-wave (km/s) = 7.23046 8.10392 7.67962
#
# Compressibility (1/GPa) = 0.01684983
#
# Stress axis : x y z
#
# Youngs Moduli (GPa) = 72.86729 37.27642 63.21762
#
# Poissons Ratio (x) = 0.25913 0.45993
# Poissons Ratio (y) = 0.50655 0.34975
# Poissons Ratio (z) = 0.53013 0.20623
#
# Static dielectric constant tensor:
#      x y z
#    x 3.321240 0.000000 0.000000 
#    y 0.000000 3.414380 0.000000 
#    z 0.000000 0.000000 3.852040 
# 
# 
# High freq. dielectric constant tensor:
#      x y z
#    x 1.669180 0.000000 0.000000 
#    y 0.000000 1.691080 0.000000 
#    z 0.000000 0.000000 1.701590 
# 
# From -- ./inp_files/31902.got.cif
#   From: 2010.03.12/outbox.cif.g09.slc.cpg/sg62_16_cif.got.tgz:31902.got - 2010.04.10 19:12:36.
