data_PCOD8251177
_publ_section_title
;
Structure prediction by ZEFSAII (Michael W. Deem and Ramdas Pophale) SiO2 
 PCOD8251177
Probable space group: P N M A
;
_chemical_formula_sum "Si O2"
_cell_formula_units_Z 56
_cell_length_a 16.549132
_cell_length_b 8.929091
_cell_length_c 20.075032
_cell_angle_alpha 90.000000
_cell_angle_beta 90.000000
_cell_angle_gamma 90.000000
_cell_volume 2966.461493
_symmetry_space_group_name_H-M "P N M A"
_symmetry_group_IT_number 62
_symmetry_cell_setting 'orthorhombic'
loop_
_space_group_symop_operation_xyz
x,y,z
1/2-x,-y,1/2+z
1/2+x,1/2-y,1/2-z
-x,1/2+y,-z
-x,-y,-z
1/2+x,y,1/2-z
1/2-x,1/2+y,1/2+z
x,1/2-y,z
loop_
_atom_site_type_symbol
_atom_site_label
_atom_site_fract_x
_atom_site_fract_y
_atom_site_fract_z
Si Si1 0.938306 0.071766 0.949045
Si Si2 0.852428 0.927028 0.363524
Si Si3 0.741288 0.928212 0.480365
Si Si4 0.312940 0.573198 0.283348
Si Si5 0.491141 0.927180 0.310846
Si Si6 0.469257 0.072259 0.834723
Si Si7 0.310260 0.572734 0.879713
O O1 0.944978 0.250000 0.953762
O O2 0.849002 0.013217 0.966437
O O3 0.959781 0.013893 0.874695
O O4 0.000000 0.000000 0.000000
O O5 0.851496 0.750000 0.367992
O O6 0.801408 0.996555 0.424480
O O7 0.811271 0.974397 0.294042
O O8 0.945517 0.979762 0.366619
O O9 0.742672 0.750000 0.477197
O O10 0.769889 0.986611 0.552171
O O11 0.299669 0.750000 0.292281
O O12 0.397980 0.519217 0.315149
O O13 0.240336 0.486680 0.317679
O O14 0.489965 0.750000 0.308302
O O15 0.533145 0.982536 0.242535
O O16 0.457081 0.250000 0.839640
O O17 0.400636 0.989717 0.876377
O O18 0.312963 0.750000 0.877964
#
# Coordination Sequence:
#
# PCOD8251177 Si02
#       7
#     8   8   8   8   8   8   8
#     4  10  19  32  52  75 104 137 168 205 253 307
#     4   8  16  33  56  79  99 127 176 225 259 300
#     4   9  19  33  50  74 104 141 173 204 254 315
#     4   9  17  32  56  79 100 129 170 220 261 294
#     4   8  16  31  53  80 100 122 168 221 258 296
#     4   9  18  34  56  79  98 126 175 226 262 293
#     4  11  22  33  47  74 110 141 171 203 253 320
#
# _framework density 18.877711000000001
#
# number of rings (size 3 to 8) (size 9 to 14) (size 15 to 20)
#    0.000    2.857    0.000    3.000    2.000    0.571 
#    0.000    4.286    0.000    3.429    0.000    0.000 
#    0.000    0.000    0.000    0.000    0.000    0.000 
#
# Total GULP energy -694265.619839 kJ/mol
# GULP energy per Si atom -12397.600354 kJ/mol
# Density = 1.883474 g / cm^3
# Si number density = 18.877711 Si / 1000 Ang^3
#
#
#
# Elastic Constant Matrix: (Units=GPa)
#
#
# Indices 1 2 3 4 5 6 
#
# 1 155.4166 27.5004 80.5123 0.0000 0.0000 0.0000
# 2 27.5004 29.4618 22.8401 0.0000 0.0000 0.0000
# 3 80.5123 22.8401 108.4527 0.0000 0.0000 0.0000
# 4 0.0000 0.0000 0.0000 19.3254 0.0000 0.0000
# 5 0.0000 0.0000 0.0000 0.0000 41.2588 0.0000
# 6 0.0000 0.0000 0.0000 0.0000 0.0000 25.6426
#
#
#
# Elastic Compliance Matrix: (Units=1/GPa)
#
#
# Indices 1 2 3 4 5 6 
#
# 1 0.010973 -0.004693 -0.007157 0.000000 0.000000 0.000000
# 2 -0.004693 0.042573 -0.005482 0.000000 0.000000 0.000000
# 3 -0.007157 -0.005482 0.015688 0.000000 0.000000 0.000000
# 4 0.000000 0.000000 0.000000 0.051745 0.000000 0.000000
# 5 0.000000 0.000000 0.000000 0.000000 0.024237 0.000000
# 6 0.000000 0.000000 0.000000 0.000000 0.000000 0.038998
#
#
# Mechanical properties :
#
#
# Convention : Reuss Voigt Hill
#
# Bulk Modulus (GPa) = 28.92744 61.67075 45.29909
# Shear Modulus (GPa) = 21.70123 28.07725 24.88924
#
# Velocity S-wave (km/s) = 3.39421 3.86077 3.63498
# Velocity P-wave (km/s) = 5.54236 7.25352 6.45489
#
# Compressibility (1/GPa) = 0.03456925
#
# Stress axis : x y z
#
# Youngs Moduli (GPa) = 91.13620 23.48916 63.74138
#
# Poissons Ratio (x) = 0.11025 0.45622
# Poissons Ratio (y) = 0.42774 0.34940
# Poissons Ratio (z) = 0.65229 0.12876
#
# Static dielectric constant tensor:
#      x y z
#    x 3.688360 0.000000 0.000000 
#    y 0.000000 2.937950 0.000000 
#    z 0.000000 0.000000 3.903500 
# 
# 
# High freq. dielectric constant tensor:
#      x y z
#    x 1.745680 0.000000 0.000000 
#    y 0.000000 1.681330 0.000000 
#    z 0.000000 0.000000 1.742400 
# 
# From -- ./inp_files/27273.got.cif
#   From: 2010.03.12/outbox.cif.g09.slc.cpg/sg62_14_cif.got.tgz:27273.got - 2010.04.10 19:12:36.
