data_PCOD8251850
_publ_section_title
;
Structure prediction by ZEFSAII (Michael W. Deem and Ramdas Pophale) SiO2 
 PCOD8251850
Probable space group: P N M A
;
_chemical_formula_sum "Si O2"
_cell_formula_units_Z 64
_cell_length_a 20.466552
_cell_length_b 8.804487
_cell_length_c 19.828172
_cell_angle_alpha 90.000000
_cell_angle_beta 90.000000
_cell_angle_gamma 90.000000
_cell_volume 3572.986846
_symmetry_space_group_name_H-M "P N M A"
_symmetry_group_IT_number 62
_symmetry_cell_setting 'orthorhombic'
loop_
_space_group_symop_operation_xyz
x,y,z
1/2-x,-y,1/2+z
1/2+x,1/2-y,1/2-z
-x,1/2+y,-z
-x,-y,-z
1/2+x,y,1/2-z
1/2-x,1/2+y,1/2+z
x,1/2-y,z
loop_
_atom_site_type_symbol
_atom_site_label
_atom_site_fract_x
_atom_site_fract_y
_atom_site_fract_z
Si Si1 0.790777 0.917994 0.818952
Si Si2 0.557103 0.432013 0.456255
Si Si3 0.349358 0.070027 0.158677
Si Si4 0.546243 0.427147 0.055085
Si Si5 0.422996 0.071968 0.686705
Si Si6 0.490010 0.072410 0.201083
Si Si7 0.165354 0.932053 0.507381
Si Si8 0.804653 0.916369 0.978210
O O1 0.798874 0.750000 0.786082
O O2 0.717798 0.987712 0.804469
O O3 0.795007 0.901827 0.898659
O O4 0.849273 0.023810 0.791621
O O5 0.500000 0.500000 0.500000
O O6 0.555552 0.250000 0.456800
O O7 0.551747 0.486236 0.379577
O O8 0.625048 0.496660 0.489690
O O9 0.344063 0.250000 0.153943
O O10 0.413542 0.022665 0.200809
O O11 0.356176 0.009992 0.081776
O O12 0.548000 0.250000 0.041313
O O13 0.520250 0.465184 0.128773
O O14 0.500000 0.500000 0.000000
O O15 0.618721 0.495979 0.048645
O O16 0.424005 0.250000 0.673111
O O17 0.473258 0.030519 0.745241
O O18 0.497823 0.250000 0.219006
O O19 0.163079 0.750000 0.503224
O O20 0.239346 0.994901 0.491723
O O21 0.809194 0.750000 0.010923
#
# Coordination Sequence:
#
# PCOD8251850 Si02
#       8
#     8   8   8   8   8   8   8   8
#     4   8  14  29  53  75  96 127 169 211 254 306
#     4  10  19  35  59  84 107 134 171 213 263 317
#     4   8  14  28  52  77  98 130 173 213 256 305
#     4  11  21  32  49  74 105 140 177 216 256 302
#     4  11  22  35  52  78 108 137 172 215 264 314
#     4  10  20  35  53  73 102 141 180 215 259 312
#     4   9  15  29  50  73 102 134 170 211 252 299
#     4   7  13  26  49  76 101 131 164 200 250 305
#
# _framework density 17.912184
#
# number of rings (size 3 to 8) (size 9 to 14) (size 15 to 20)
#    0.000    2.750    1.250    4.125    0.000    1.000 
#    0.000    6.875    2.750    0.000    0.000    0.000 
#    0.000    0.000    0.000    0.000    0.000    0.000 
#
# Total GULP energy -792897.145247 kJ/mol
# GULP energy per Si atom -12389.017894 kJ/mol
# Density = 1.787141 g / cm^3
# Si number density = 17.912184 Si / 1000 Ang^3
#
#
#
# Elastic Constant Matrix: (Units=GPa)
#
#
# Indices 1 2 3 4 5 6 
#
# 1 189.1906 46.0479 55.8355 0.0000 0.0000 0.0000
# 2 46.0479 63.2859 30.7763 0.0000 0.0000 0.0000
# 3 55.8355 30.7763 49.6910 0.0000 0.0000 0.0000
# 4 0.0000 0.0000 0.0000 22.5718 0.0000 0.0000
# 5 0.0000 0.0000 0.0000 0.0000 26.9481 0.0000
# 6 0.0000 0.0000 0.0000 0.0000 0.0000 23.9776
#
#
#
# Elastic Compliance Matrix: (Units=1/GPa)
#
#
# Indices 1 2 3 4 5 6 
#
# 1 0.008099 -0.002100 -0.007800 0.000000 0.000000 0.000000
# 2 -0.002100 0.023156 -0.011983 0.000000 0.000000 0.000000
# 3 -0.007800 -0.011983 0.036310 0.000000 0.000000 0.000000
# 4 0.000000 0.000000 0.000000 0.044303 0.000000 0.000000
# 5 0.000000 0.000000 0.000000 0.000000 0.037108 0.000000
# 6 0.000000 0.000000 0.000000 0.000000 0.000000 0.041706
#
#
# Mechanical properties :
#
#
# Convention : Reuss Voigt Hill
#
# Bulk Modulus (GPa) = 42.01501 63.05411 52.53456
# Shear Modulus (GPa) = 20.62881 26.00001 23.31441
#
# Velocity S-wave (km/s) = 3.39730 3.81402 3.61168
# Velocity P-wave (km/s) = 6.23666 7.39418 6.83995
#
# Compressibility (1/GPa) = 0.02380102
#
# Stress axis : x y z
#
# Youngs Moduli (GPa) = 123.47794 43.18470 27.54066
#
# Poissons Ratio (x) = 0.09068 0.21481
# Poissons Ratio (y) = 0.25927 0.33001
# Poissons Ratio (z) = 0.96308 0.51747
#
# Static dielectric constant tensor:
#      x y z
#    x 4.128750 0.000000 0.000000 
#    y 0.000000 3.078400 0.000000 
#    z 0.000000 0.000000 2.927660 
# 
# 
# High freq. dielectric constant tensor:
#      x y z
#    x 1.722110 0.000000 0.000000 
#    y 0.000000 1.666650 0.000000 
#    z 0.000000 0.000000 1.644400 
# 
# From -- ./inp_files/27921.got.cif
#   From: 2010.03.12/outbox.cif.g09.slc.cpg/sg62_14_cif.got.tgz:27921.got - 2010.04.10 19:12:36.
