data_PCOD8251567
_publ_section_title
;
Structure prediction by ZEFSAII (Michael W. Deem and Ramdas Pophale) SiO2 
 PCOD8251567
Probable space group: P N M A
;
_chemical_formula_sum "Si O2"
_cell_formula_units_Z 56
_cell_length_a 18.958764
_cell_length_b 9.020557
_cell_length_c 18.998499
_cell_angle_alpha 90.000000
_cell_angle_beta 90.000000
_cell_angle_gamma 90.000000
_cell_volume 3249.096916
_symmetry_space_group_name_H-M "P N M A"
_symmetry_group_IT_number 62
_symmetry_cell_setting 'orthorhombic'
loop_
_space_group_symop_operation_xyz
x,y,z
1/2-x,-y,1/2+z
1/2+x,1/2-y,1/2-z
-x,1/2+y,-z
-x,-y,-z
1/2+x,y,1/2-z
1/2-x,1/2+y,1/2+z
x,1/2-y,z
loop_
_atom_site_type_symbol
_atom_site_label
_atom_site_fract_x
_atom_site_fract_y
_atom_site_fract_z
Si Si1 0.628280 0.077646 0.769712
Si Si2 0.261117 0.921515 0.347057
Si Si3 0.836662 0.918137 0.756490
Si Si4 0.553600 0.423811 0.052469
Si Si5 0.712237 0.074704 0.020356
Si Si6 0.012674 0.079876 0.289814
Si Si7 0.270608 0.078341 0.124446
O O1 0.631628 0.250000 0.789839
O O2 0.667450 0.046075 0.696153
O O3 0.548253 0.025495 0.760545
O O4 0.663221 0.986529 0.833046
O O5 0.252783 0.750000 0.365834
O O6 0.194572 0.969918 0.300428
O O7 0.263752 0.014400 0.418817
O O8 0.821266 0.750000 0.729987
O O9 0.920422 0.943944 0.761625
O O10 0.801847 0.945116 0.832456
O O11 0.548068 0.250000 0.040635
O O12 0.632544 0.478910 0.035643
O O13 0.534273 0.468633 0.131696
O O14 0.500000 0.500000 0.000000
O O15 0.718331 0.250000 0.017302
O O16 0.739528 0.007959 0.947678
O O17 0.987050 0.250000 0.288446
O O18 0.286185 0.250000 0.109511
#
# Coordination Sequence:
#
# PCOD8251567 Si02
#       7
#     8   8   8   8   8   8   8
#     4  10  21  35  51  77 108 137 173 218 260 305
#     4  10  20  34  53  76 103 136 177 217 258 310
#     4   9  18  35  55  75 102 135 176 219 259 309
#     4  10  21  33  47  71 105 139 169 203 247 307
#     4  11  21  35  53  75 106 139 174 217 261 309
#     4  10  19  34  53  74 101 138 176 211 257 312
#     4  10  20  34  54  78 104 137 175 216 261 312
#
# _framework density 17.235558999999999
#
# number of rings (size 3 to 8) (size 9 to 14) (size 15 to 20)
#    0.000    2.000    1.429    2.571    0.000    6.857 
#    0.000    0.000    0.000    0.857    0.000    0.000 
#    0.000    0.000    0.000    0.000    0.000    0.000 
#
# Total GULP energy -694601.226585 kJ/mol
# GULP energy per Si atom -12403.593332 kJ/mol
# Density = 1.719633 g / cm^3
# Si number density = 17.235559 Si / 1000 Ang^3
#
#
#
# Elastic Constant Matrix: (Units=GPa)
#
#
# Indices 1 2 3 4 5 6 
#
# 1 96.4491 46.0007 58.5224 0.0000 0.0000 0.0000
# 2 46.0007 83.0727 57.5372 0.0000 0.0000 0.0000
# 3 58.5224 57.5372 109.2361 0.0000 0.0000 0.0000
# 4 0.0000 0.0000 0.0000 32.1795 0.0000 0.0000
# 5 0.0000 0.0000 0.0000 0.0000 23.6500 0.0000
# 6 0.0000 0.0000 0.0000 0.0000 0.0000 25.4758
#
#
#
# Elastic Compliance Matrix: (Units=1/GPa)
#
#
# Indices 1 2 3 4 5 6 
#
# 1 0.016466 -0.004736 -0.006327 0.000000 0.000000 0.000000
# 2 -0.004736 0.020313 -0.008162 0.000000 0.000000 0.000000
# 3 -0.006327 -0.008162 0.016844 0.000000 0.000000 0.000000
# 4 0.000000 0.000000 0.000000 0.031076 0.000000 0.000000
# 5 0.000000 0.000000 0.000000 0.000000 0.042283 0.000000
# 6 0.000000 0.000000 0.000000 0.000000 0.000000 0.039253
#
#
# Mechanical properties :
#
#
# Convention : Reuss Voigt Hill
#
# Bulk Modulus (GPa) = 65.90896 68.09761 67.00328
# Shear Modulus (GPa) = 23.83873 24.70755 24.27314
#
# Velocity S-wave (km/s) = 3.72306 3.79030 3.75683
# Velocity P-wave (km/s) = 7.53689 7.66491 7.60117
#
# Compressibility (1/GPa) = 0.01517244
#
# Stress axis : x y z
#
# Youngs Moduli (GPa) = 60.73170 49.22873 59.36979
#
# Poissons Ratio (x) = 0.23312 0.37564
# Poissons Ratio (y) = 0.28760 0.48461
# Poissons Ratio (z) = 0.38426 0.40183
#
# Static dielectric constant tensor:
#      x y z
#    x 3.202830 0.000000 0.000000 
#    y 0.000000 3.285070 0.000000 
#    z 0.000000 0.000000 3.189780 
# 
# 
# High freq. dielectric constant tensor:
#      x y z
#    x 1.655210 0.000000 0.000000 
#    y 0.000000 1.675060 0.000000 
#    z 0.000000 0.000000 1.657000 
# 
# From -- ./inp_files/24604.got.cif
#   From: 2010.03.12/outbox.cif.g09.slc.cpg/sg62_13_cif.got.tgz:24604.got - 2010.04.10 19:12:36.
