data_PCOD8251937
_publ_section_title
;
Structure prediction by ZEFSAII (Michael W. Deem and Ramdas Pophale) SiO2 
 PCOD8251937
Probable space group: P N M A
;
_chemical_formula_sum "Si O2"
_cell_formula_units_Z 64
_cell_length_a 17.384747
_cell_length_b 12.493381
_cell_length_c 16.213417
_cell_angle_alpha 90.000000
_cell_angle_beta 90.000000
_cell_angle_gamma 90.000000
_cell_volume 3521.461235
_symmetry_space_group_name_H-M "P N M A"
_symmetry_group_IT_number 62
_symmetry_cell_setting 'orthorhombic'
loop_
_space_group_symop_operation_xyz
x,y,z
1/2-x,-y,1/2+z
1/2+x,1/2-y,1/2-z
-x,1/2+y,-z
-x,-y,-z
1/2+x,y,1/2-z
1/2-x,1/2+y,1/2+z
x,1/2-y,z
loop_
_atom_site_type_symbol
_atom_site_label
_atom_site_fract_x
_atom_site_fract_y
_atom_site_fract_z
Si Si1 0.937814 0.870913 0.657124
Si Si2 0.606604 0.874799 0.901521
Si Si3 0.910299 0.976004 0.990438
Si Si4 0.311453 0.624950 0.366808
Si Si5 0.224800 0.015136 0.699224
Si Si6 0.865853 0.630197 0.822090
Si Si7 0.669537 0.521556 0.056280
Si Si8 0.220896 0.872382 0.046310
O O1 0.916537 0.750000 0.627055
O O2 0.935857 0.876043 0.756776
O O3 0.879811 0.959134 0.623120
O O4 0.021704 0.902769 0.627590
O O5 0.625877 0.750000 0.893510
O O6 0.663952 0.940155 0.845060
O O7 0.614004 0.912485 0.995888
O O8 0.877772 0.919449 0.072673
O O9 0.895987 0.900252 0.912164
O O10 0.865195 0.086019 0.972231
O O11 0.000000 0.000000 0.000000
O O12 0.326142 0.750000 0.351889
O O13 0.315258 0.561795 0.280487
O O14 0.226329 0.608108 0.403085
O O15 0.253801 0.112208 0.641235
O O16 0.298895 0.942462 0.716542
O O17 0.832922 0.750000 0.828853
O O18 0.719156 0.434016 0.009584
O O19 0.222993 0.750000 0.021531
#
# Coordination Sequence:
#
# PCOD8251937 Si02
#       8
#     8   8   8   8   8   8   8   8
#     4  10  20  34  56  86 117 147 181 226 282 337
#     4  10  21  35  56  84 114 148 184 228 278 332
#     4  10  23  38  58  84 116 151 192 239 290 343
#     4  11  22  37  59  83 109 147 194 235 282 343
#     4  10  20  36  57  81 113 147 191 238 276 329
#     4  10  20  37  59  81 112 152 190 234 284 335
#     4  10  19  36  57  82 113 144 183 230 276 337
#     4   9  19  35  56  81 109 147 187 229 281 334
#
# _framework density 18.174274
#
# number of rings (size 3 to 8) (size 9 to 14) (size 15 to 20)
#    0.000    2.000    1.250    3.000    1.750    1.000 
#    0.000    0.625    0.000    2.250    0.000    0.000 
#    0.000    0.000    0.000    0.000    0.000    0.000 
#
# Total GULP energy -793504.745404 kJ/mol
# GULP energy per Si atom -12398.511647 kJ/mol
# Density = 1.813291 g / cm^3
# Si number density = 18.174274 Si / 1000 Ang^3
#
#
#
# Elastic Constant Matrix: (Units=GPa)
#
#
# Indices 1 2 3 4 5 6 
#
# 1 94.0884 31.1295 28.8806 0.0000 0.0000 0.0000
# 2 31.1295 90.1517 30.4653 0.0000 0.0000 0.0000
# 3 28.8806 30.4653 99.3413 0.0000 0.0000 0.0000
# 4 0.0000 0.0000 0.0000 21.9708 0.0000 0.0000
# 5 0.0000 0.0000 0.0000 0.0000 28.2890 0.0000
# 6 0.0000 0.0000 0.0000 0.0000 0.0000 15.2513
#
#
#
# Elastic Compliance Matrix: (Units=1/GPa)
#
#
# Indices 1 2 3 4 5 6 
#
# 1 0.012570 -0.003465 -0.002592 0.000000 0.000000 0.000000
# 2 -0.003465 0.013330 -0.003081 0.000000 0.000000 0.000000
# 3 -0.002592 -0.003081 0.011765 0.000000 0.000000 0.000000
# 4 0.000000 0.000000 0.000000 0.045515 0.000000 0.000000
# 5 0.000000 0.000000 0.000000 0.000000 0.035349 0.000000
# 6 0.000000 0.000000 0.000000 0.000000 0.000000 0.065568
#
#
# Mechanical properties :
#
#
# Convention : Reuss Voigt Hill
#
# Bulk Modulus (GPa) = 51.57240 51.61468 51.59354
# Shear Modulus (GPa) = 23.94235 25.97594 24.95915
#
# Velocity S-wave (km/s) = 3.63350 3.78467 3.70986
# Velocity P-wave (km/s) = 6.78538 6.89636 6.84109
#
# Compressibility (1/GPa) = 0.01939022
#
# Stress axis : x y z
#
# Youngs Moduli (GPa) = 79.55343 75.01986 85.00082
#
# Poissons Ratio (x) = 0.25991 0.22032
# Poissons Ratio (y) = 0.27562 0.26186
# Poissons Ratio (z) = 0.20620 0.23111
#
# Static dielectric constant tensor:
#      x y z
#    x 3.402700 0.000000 0.000000 
#    y 0.000000 3.356120 0.000000 
#    z 0.000000 0.000000 3.474090 
# 
# 
# High freq. dielectric constant tensor:
#      x y z
#    x 1.698820 0.000000 0.000000 
#    y 0.000000 1.707420 0.000000 
#    z 0.000000 0.000000 1.713650 
# 
# From -- ./inp_files/19922.got.cif
#   From: 2010.03.12/outbox.cif.g09.slc.cpg/sg62_10_cif.got.tgz:19922.got - 2010.04.10 19:12:36.
