data_PCOD8251870
_publ_section_title
;
Structure prediction by ZEFSAII (Michael W. Deem and Ramdas Pophale) SiO2 
 PCOD8251870
Probable space group: P N M A
;
_chemical_formula_sum "Si O2"
_cell_formula_units_Z 64
_cell_length_a 18.928798
_cell_length_b 8.757128
_cell_length_c 18.854824
_cell_angle_alpha 90.000000
_cell_angle_beta 90.000000
_cell_angle_gamma 90.000000
_cell_volume 3125.411582
_symmetry_space_group_name_H-M "P N M A"
_symmetry_group_IT_number 62
_symmetry_cell_setting 'orthorhombic'
loop_
_space_group_symop_operation_xyz
x,y,z
1/2-x,-y,1/2+z
1/2+x,1/2-y,1/2-z
-x,1/2+y,-z
-x,-y,-z
1/2+x,y,1/2-z
1/2-x,1/2+y,1/2+z
x,1/2-y,z
loop_
_atom_site_type_symbol
_atom_site_label
_atom_site_fract_x
_atom_site_fract_y
_atom_site_fract_z
Si Si1 0.683233 0.426107 0.527582
Si Si2 0.158302 0.574979 0.460445
Si Si3 0.879071 0.070255 0.158515
Si Si4 0.606408 0.075791 0.901220
Si Si5 0.786923 0.926027 0.275106
Si Si6 0.043461 0.568119 0.355186
Si Si7 0.836655 0.930431 0.866045
Si Si8 0.971370 0.431457 0.803324
O O1 0.658908 0.250000 0.532457
O O2 0.760897 0.449259 0.560524
O O3 0.632312 0.529697 0.575589
O O4 0.683541 0.480692 0.445926
O O5 0.137221 0.750000 0.464332
O O6 0.146817 0.511790 0.538173
O O7 0.108462 0.498756 0.400549
O O8 0.888690 0.250000 0.167745
O O9 0.811432 0.013437 0.204083
O O10 0.949374 0.984538 0.182553
O O11 0.601320 0.250000 0.925021
O O12 0.648717 0.056535 0.828906
O O13 0.528786 0.004786 0.889638
O O14 0.771813 0.750000 0.255662
O O15 0.715488 0.993692 0.308685
O O16 0.040965 0.750000 0.354742
O O17 0.051010 0.512069 0.274854
O O18 0.831438 0.750000 0.856746
O O19 0.916590 0.987899 0.856045
O O20 0.967408 0.250000 0.812472
#
# Coordination Sequence:
#
# PCOD8251870 Si02
#       8
#     8   8   8   8   8   8   8   8
#     4  10  23  42  64  90 126 168 209 260 318 384
#     4  10  20  36  59  89 125 164 206 252 307 368
#     4  12  26  43  66  95 127 162 210 271 321 374
#     4  10  19  35  59  88 124 163 205 250 301 371
#     4  11  22  40  66  92 126 171 211 252 312 381
#     4   9  19  36  58  88 123 162 207 250 298 370
#     4  11  24  43  65  96 130 163 210 264 317 371
#     4  11  23  43  67  92 123 167 213 259 319 387
#
# _framework density 20.477304
#
# number of rings (size 3 to 8) (size 9 to 14) (size 15 to 20)
#    0.000    1.500    2.500    2.625    1.750    2.500 
#    0.000    1.250    0.000    0.000    0.000    0.000 
#    0.000    0.000    0.000    0.000    0.000    0.000 
#
# Total GULP energy -793711.776006 kJ/mol
# GULP energy per Si atom -12401.746500 kJ/mol
# Density = 2.043070 g / cm^3
# Si number density = 20.477304 Si / 1000 Ang^3
#
#
#
# Elastic Constant Matrix: (Units=GPa)
#
#
# Indices 1 2 3 4 5 6 
#
# 1 66.4377 26.2029 34.3222 0.0000 0.0000 0.0000
# 2 26.2029 55.0666 29.0014 0.0000 0.0000 0.0000
# 3 34.3222 29.0014 83.1539 0.0000 0.0000 0.0000
# 4 0.0000 0.0000 0.0000 29.6628 0.0000 0.0000
# 5 0.0000 0.0000 0.0000 0.0000 35.2838 0.0000
# 6 0.0000 0.0000 0.0000 0.0000 0.0000 32.8939
#
#
#
# Elastic Compliance Matrix: (Units=1/GPa)
#
#
# Indices 1 2 3 4 5 6 
#
# 1 0.020936 -0.006629 -0.006330 0.000000 0.000000 0.000000
# 2 -0.006629 0.024345 -0.005755 0.000000 0.000000 0.000000
# 3 -0.006330 -0.005755 0.016646 0.000000 0.000000 0.000000
# 4 0.000000 0.000000 0.000000 0.033712 0.000000 0.000000
# 5 0.000000 0.000000 0.000000 0.000000 0.028342 0.000000
# 6 0.000000 0.000000 0.000000 0.000000 0.000000 0.030401
#
#
# Mechanical properties :
#
#
# Convention : Reuss Voigt Hill
#
# Bulk Modulus (GPa) = 40.81556 42.63458 41.72507
# Shear Modulus (GPa) = 25.00331 27.24352 26.12342
#
# Velocity S-wave (km/s) = 3.49811 3.65146 3.57560
# Velocity P-wave (km/s) = 6.02421 6.21636 6.12104
#
# Compressibility (1/GPa) = 0.02450046
#
# Stress axis : x y z
#
# Youngs Moduli (GPa) = 47.76475 41.07658 60.07626
#
# Poissons Ratio (x) = 0.27228 0.38026
# Poissons Ratio (y) = 0.31662 0.34572
# Poissons Ratio (z) = 0.30233 0.23638
#
# Static dielectric constant tensor:
#      x y z
#    x 3.792800 0.000000 0.000000 
#    y 0.000000 3.532510 0.000000 
#    z 0.000000 0.000000 3.794090 
# 
# 
# High freq. dielectric constant tensor:
#      x y z
#    x 1.810040 0.000000 0.000000 
#    y 0.000000 1.783380 0.000000 
#    z 0.000000 0.000000 1.808290 
# 
# From -- ./inp_files/24847.got.cif
#   From: 2010.03.12/outbox.cif.g09.slc.cpg/sg62_13_cif.got.tgz:24847.got - 2010.04.10 19:12:36.
