data_PCOD8251475
_publ_section_title
;
Structure prediction by ZEFSAII (Michael W. Deem and Ramdas Pophale) SiO2 
 PCOD8251475
Probable space group: P N M A
;
_chemical_formula_sum "Si O2"
_cell_formula_units_Z 64
_cell_length_a 19.304815
_cell_length_b 10.993157
_cell_length_c 15.598611
_cell_angle_alpha 90.000000
_cell_angle_beta 90.000000
_cell_angle_gamma 90.000000
_cell_volume 3310.350675
_symmetry_space_group_name_H-M "P N M A"
_symmetry_group_IT_number 62
_symmetry_cell_setting 'orthorhombic'
loop_
_space_group_symop_operation_xyz
x,y,z
1/2-x,-y,1/2+z
1/2+x,1/2-y,1/2-z
-x,1/2+y,-z
-x,-y,-z
1/2+x,y,1/2-z
1/2-x,1/2+y,1/2+z
x,1/2-y,z
loop_
_atom_site_type_symbol
_atom_site_label
_atom_site_fract_x
_atom_site_fract_y
_atom_site_fract_z
Si Si1 0.829449 0.534253 0.559287
Si Si2 0.882316 0.112582 0.401545
Si Si3 0.641445 0.478261 0.727845
Si Si4 0.126957 0.610301 0.119284
Si Si5 0.465535 0.886323 0.859163
Si Si6 0.007851 0.887368 0.237180
Si Si7 0.321997 0.113715 0.443211
Si Si8 0.789282 0.387162 0.724187
O O1 0.841271 0.467188 0.469706
O O2 0.897835 0.612352 0.580655
O O3 0.761500 0.617124 0.549522
O O4 0.813937 0.441896 0.635299
O O5 0.857071 0.250000 0.413659
O O6 0.863507 0.073525 0.305175
O O7 0.965145 0.100424 0.416541
O O8 0.573920 0.394396 0.723937
O O9 0.648709 0.546742 0.638827
O O10 0.707446 0.392533 0.740176
O O11 0.150757 0.750000 0.109978
O O12 0.172106 0.548188 0.195603
O O13 0.046046 0.598493 0.145107
O O14 0.144305 0.548727 0.027625
O O15 0.467382 0.750000 0.814761
O O16 0.463344 0.001954 0.795360
O O17 0.024174 0.750000 0.274305
O O18 0.349440 0.250000 0.434778
O O19 0.814917 0.250000 0.720197
#
# Coordination Sequence:
#
# PCOD8251475 Si02
#       8
#     8   8   8   8   8   8   8   8
#     4  11  20  34  56  81 113 149 193 236 286 347
#     4  10  21  36  54  80 116 153 192 236 290 352
#     4  10  21  35  55  82 113 150 191 240 292 344
#     4   9  18  34  56  80 107 145 192 238 284 342
#     4  10  21  37  57  86 121 153 190 237 292 353
#     4  10  20  37  61  87 115 151 197 242 288 346
#     4  10  21  36  56  80 112 152 194 241 294 344
#     4  10  19  33  55  81 110 145 188 240 293 343
#
# _framework density 19.333297999999999
#
# number of rings (size 3 to 8) (size 9 to 14) (size 15 to 20)
#    0.000    2.000    1.250    2.625    0.000    1.500 
#    0.000    6.875    0.000    3.750    0.000    0.000 
#    0.000    0.000    0.000    0.000    0.000    0.000 
#
# Total GULP energy -793119.684647 kJ/mol
# GULP energy per Si atom -12392.495073 kJ/mol
# Density = 1.928929 g / cm^3
# Si number density = 19.333298 Si / 1000 Ang^3
#
#
#
# Elastic Constant Matrix: (Units=GPa)
#
#
# Indices 1 2 3 4 5 6 
#
# 1 88.7430 13.9730 33.8783 0.0000 0.0000 0.0000
# 2 13.9730 90.5182 33.9845 0.0000 0.0000 0.0000
# 3 33.8783 33.9845 112.0934 0.0000 0.0000 0.0000
# 4 0.0000 0.0000 0.0000 16.4599 0.0000 0.0000
# 5 0.0000 0.0000 0.0000 0.0000 32.4383 0.0000
# 6 0.0000 0.0000 0.0000 0.0000 0.0000 4.1171
#
#
#
# Elastic Compliance Matrix: (Units=1/GPa)
#
#
# Indices 1 2 3 4 5 6 
#
# 1 0.012766 -0.000589 -0.003680 0.000000 0.000000 0.000000
# 2 -0.000589 0.012494 -0.003610 0.000000 0.000000 0.000000
# 3 -0.003680 -0.003610 0.011128 0.000000 0.000000 0.000000
# 4 0.000000 0.000000 0.000000 0.060754 0.000000 0.000000
# 5 0.000000 0.000000 0.000000 0.000000 0.030828 0.000000
# 6 0.000000 0.000000 0.000000 0.000000 0.000000 0.242892
#
#
# Mechanical properties :
#
#
# Convention : Reuss Voigt Hill
#
# Bulk Modulus (GPa) = 48.47271 50.55847 49.51559
# Shear Modulus (GPa) = 12.70664 24.57097 18.63881
#
# Velocity S-wave (km/s) = 2.56645 3.56886 3.10833
# Velocity P-wave (km/s) = 5.82313 6.57192 6.20882
#
# Compressibility (1/GPa) = 0.02063016
#
# Stress axis : x y z
#
# Youngs Moduli (GPa) = 78.33307 80.04022 89.86598
#
# Poissons Ratio (x) = 0.04715 0.33068
# Poissons Ratio (y) = 0.04615 0.32440
# Poissons Ratio (z) = 0.28824 0.28893
#
# Static dielectric constant tensor:
#      x y z
#    x 3.761040 0.000000 0.000000 
#    y 0.000000 3.382950 0.000000 
#    z 0.000000 0.000000 3.554670 
# 
# 
# High freq. dielectric constant tensor:
#      x y z
#    x 1.766250 0.000000 0.000000 
#    y 0.000000 1.737770 0.000000 
#    z 0.000000 0.000000 1.745880 
# 
# From -- ./inp_files/19905.got.cif
#   From: 2010.03.12/outbox.cif.g09.slc.cpg/sg62_10_cif.got.tgz:19905.got - 2010.04.10 19:12:36.
