data_PCOD8251618
_publ_section_title
;
Structure prediction by ZEFSAII (Michael W. Deem and Ramdas Pophale) SiO2 
 PCOD8251618
Probable space group: P N M A
;
_chemical_formula_sum "Si O2"
_cell_formula_units_Z 64
_cell_length_a 20.527536
_cell_length_b 8.919976
_cell_length_c 19.205155
_cell_angle_alpha 90.000000
_cell_angle_beta 90.000000
_cell_angle_gamma 90.000000
_cell_volume 3516.562373
_symmetry_space_group_name_H-M "P N M A"
_symmetry_group_IT_number 62
_symmetry_cell_setting 'orthorhombic'
loop_
_space_group_symop_operation_xyz
x,y,z
1/2-x,-y,1/2+z
1/2+x,1/2-y,1/2-z
-x,1/2+y,-z
-x,-y,-z
1/2+x,y,1/2-z
1/2-x,1/2+y,1/2+z
x,1/2-y,z
loop_
_atom_site_type_symbol
_atom_site_label
_atom_site_fract_x
_atom_site_fract_y
_atom_site_fract_z
Si Si1 0.564598 0.428357 0.969799
Si Si2 0.111942 0.925818 0.819477
Si Si3 0.812259 0.072731 0.542372
Si Si4 0.737885 0.074346 0.176020
Si Si5 0.195493 0.576620 0.035907
Si Si6 0.240662 0.578740 0.186035
Si Si7 0.610273 0.423864 0.820619
Si Si8 0.438034 0.073720 0.465751
O O1 0.563360 0.250000 0.977918
O O2 0.570111 0.475270 0.888507
O O3 0.500000 0.500000 0.000000
O O4 0.625307 0.491560 0.011583
O O5 0.107700 0.750000 0.810587
O O6 0.186706 0.973743 0.832412
O O7 0.069973 0.980884 0.885750
O O8 0.083277 0.996024 0.748724
O O9 0.822444 0.250000 0.539850
O O10 0.804713 0.018542 0.621579
O O11 0.748897 0.028195 0.498878
O O12 0.727375 0.250000 0.163731
O O13 0.713983 0.028664 0.253161
O O14 0.210336 0.750000 0.015610
O O15 0.195665 0.554276 0.118853
O O16 0.125285 0.525077 0.009169
O O17 0.237797 0.750000 0.212166
O O18 0.314418 0.534485 0.165730
O O19 0.601065 0.250000 0.807257
O O20 0.447311 0.250000 0.468535
O O21 0.500000 0.000000 0.500000
#
# Coordination Sequence:
#
# PCOD8251618 Si02
#       8
#     8   8   8   8   8   8   8   8
#     4  11  23  41  60  84 117 154 191 236 288 342
#     4   9  18  33  55  80 110 146 188 231 278 336
#     4  12  23  35  57  87 114 146 191 237 281 340
#     4  10  19  34  55  81 115 149 184 234 290 339
#     4  10  19  37  59  80 113 151 184 229 289 339
#     4   9  17  32  55  83 111 144 187 233 282 340
#     4   9  18  33  56  82 110 143 183 228 279 335
#     4  10  21  37  56  81 113 151 189 229 280 332
#
# _framework density 18.199591999999999
#
# number of rings (size 3 to 8) (size 9 to 14) (size 15 to 20)
#    0.000    2.000    2.500    1.875    0.000    3.000 
#    0.000    1.250    0.000    4.500    0.000    0.000 
#    0.000    0.000    0.000    0.000    0.000    0.000 
#
# Total GULP energy -793688.597238 kJ/mol
# GULP energy per Si atom -12401.384332 kJ/mol
# Density = 1.815817 g / cm^3
# Si number density = 18.199592 Si / 1000 Ang^3
#
#
#
# Elastic Constant Matrix: (Units=GPa)
#
#
# Indices 1 2 3 4 5 6 
#
# 1 106.6732 42.3944 76.6559 0.0000 0.0000 0.0000
# 2 42.3944 68.1535 58.0022 0.0000 0.0000 0.0000
# 3 76.6559 58.0022 167.3647 0.0000 0.0000 0.0000
# 4 0.0000 0.0000 0.0000 35.4712 0.0000 0.0000
# 5 0.0000 0.0000 0.0000 0.0000 27.9615 0.0000
# 6 0.0000 0.0000 0.0000 0.0000 0.0000 28.3336
#
#
#
# Elastic Compliance Matrix: (Units=1/GPa)
#
#
# Indices 1 2 3 4 5 6 
#
# 1 0.015072 -0.004965 -0.005183 0.000000 0.000000 0.000000
# 2 -0.004965 0.022446 -0.005505 0.000000 0.000000 0.000000
# 3 -0.005183 -0.005505 0.010257 0.000000 0.000000 0.000000
# 4 0.000000 0.000000 0.000000 0.028192 0.000000 0.000000
# 5 0.000000 0.000000 0.000000 0.000000 0.035763 0.000000
# 6 0.000000 0.000000 0.000000 0.000000 0.000000 0.035294
#
#
# Mechanical properties :
#
#
# Convention : Reuss Voigt Hill
#
# Bulk Modulus (GPa) = 60.71718 77.36629 69.04173
# Shear Modulus (GPa) = 27.20084 29.36251 28.28168
#
# Velocity S-wave (km/s) = 3.87018 4.02102 3.94632
# Velocity P-wave (km/s) = 7.30789 8.01002 7.66700
#
# Compressibility (1/GPa) = 0.01646980
#
# Stress axis : x y z
#
# Youngs Moduli (GPa) = 66.34960 44.55121 97.49895
#
# Poissons Ratio (x) = 0.22118 0.50529
# Poissons Ratio (y) = 0.32940 0.53674
# Poissons Ratio (z) = 0.34386 0.24526
#
# Static dielectric constant tensor:
#      x y z
#    x 2.996840 0.000000 0.000000 
#    y 0.000000 3.312680 0.000000 
#    z 0.000000 0.000000 3.636510 
# 
# 
# High freq. dielectric constant tensor:
#      x y z
#    x 1.675310 0.000000 0.000000 
#    y 0.000000 1.703400 0.000000 
#    z 0.000000 0.000000 1.723770 
# 
# From -- ./inp_files/24732.got.cif
#   From: 2010.03.12/outbox.cif.g09.slc.cpg/sg62_13_cif.got.tgz:24732.got - 2010.04.10 19:12:36.
