data_PCOD8251763
_publ_section_title
;
Structure prediction by ZEFSAII (Michael W. Deem and Ramdas Pophale) SiO2 
 PCOD8251763
Probable space group: P N M A
;
_chemical_formula_sum "Si O2"
_cell_formula_units_Z 40
_cell_length_a 12.334234
_cell_length_b 14.264646
_cell_length_c 12.607456
_cell_angle_alpha 90.000000
_cell_angle_beta 90.000000
_cell_angle_gamma 90.000000
_cell_volume 2218.199704
_symmetry_space_group_name_H-M "P N M A"
_symmetry_group_IT_number 62
_symmetry_cell_setting 'orthorhombic'
loop_
_space_group_symop_operation_xyz
x,y,z
1/2-x,-y,1/2+z
1/2+x,1/2-y,1/2-z
-x,1/2+y,-z
-x,-y,-z
1/2+x,y,1/2-z
1/2-x,1/2+y,1/2+z
x,1/2-y,z
loop_
_atom_site_type_symbol
_atom_site_label
_atom_site_fract_x
_atom_site_fract_y
_atom_site_fract_z
Si Si1 0.286954 0.921172 0.076028
Si Si2 0.806411 0.500784 0.119314
Si Si3 0.136429 0.143840 0.364654
Si Si4 0.473435 0.000500 0.217117
Si Si5 0.834197 0.356682 0.727685
O O1 0.369767 0.983653 0.142795
O O2 0.210464 0.859765 0.151865
O O3 0.204880 0.987978 0.007673
O O4 0.357036 0.857665 0.993920
O O5 0.735987 0.419076 0.179554
O O6 0.757739 0.602240 0.149810
O O7 0.929520 0.490726 0.161596
O O8 0.143218 0.250000 0.322725
O O9 0.025857 0.097535 0.321842
O O10 0.555186 0.913706 0.211896
O O11 0.858091 0.250000 0.696009
#
# Coordination Sequence:
#
# PCOD8251763 Si02
#       5
#     8   8   8   8   8
#     4   9  19  37  53  75 111 140 171 219 271 320
#     4   8  20  35  51  75 113 140 173 223 268 313
#     4   9  18  32  53  76 100 139 178 213 259 318
#     4  10  19  35  54  79 106 140 183 219 263 320
#     4  10  20  33  56  84 108 139 182 226 267 316
#
# _framework density 18.032641999999999
#
# number of rings (size 3 to 8) (size 9 to 14) (size 15 to 20)
#    1.200    1.600    0.000    1.200    0.000    5.600 
#    0.000    0.000    0.000    4.800    0.000    0.000 
#    0.000    0.000    0.000    0.000    0.000    0.000 
#
# Total GULP energy -495561.842335 kJ/mol
# GULP energy per Si atom -12389.046058 kJ/mol
# Density = 1.799160 g / cm^3
# Si number density = 18.032642 Si / 1000 Ang^3
#
#
#
# Elastic Constant Matrix: (Units=GPa)
#
#
# Indices 1 2 3 4 5 6 
#
# 1 30.9534 12.1676 13.2993 0.0000 0.0000 0.0000
# 2 12.1676 117.4000 19.0889 0.0000 0.0000 0.0000
# 3 13.2993 19.0889 49.6954 0.0000 0.0000 0.0000
# 4 0.0000 0.0000 0.0000 19.5627 0.0000 0.0000
# 5 0.0000 0.0000 0.0000 0.0000 26.8027 0.0000
# 6 0.0000 0.0000 0.0000 0.0000 0.0000 14.4812
#
#
#
# Elastic Compliance Matrix: (Units=1/GPa)
#
#
# Indices 1 2 3 4 5 6 
#
# 1 0.037117 -0.002380 -0.009019 0.000000 0.000000 0.000000
# 2 -0.002380 0.009238 -0.002911 0.000000 0.000000 0.000000
# 3 -0.009019 -0.002911 0.023654 0.000000 0.000000 0.000000
# 4 0.000000 0.000000 0.000000 0.051118 0.000000 0.000000
# 5 0.000000 0.000000 0.000000 0.000000 0.037310 0.000000
# 6 0.000000 0.000000 0.000000 0.000000 0.000000 0.069055
#
#
# Mechanical properties :
#
#
# Convention : Reuss Voigt Hill
#
# Bulk Modulus (GPa) = 24.16136 31.90671 28.03404
# Shear Modulus (GPa) = 18.52469 22.40217 20.46343
#
# Velocity S-wave (km/s) = 3.20861 3.52847 3.37233
# Velocity P-wave (km/s) = 5.21101 5.85939 5.54468
#
# Compressibility (1/GPa) = 0.04138839
#
# Stress axis : x y z
#
# Youngs Moduli (GPa) = 26.94158 108.24864 42.27532
#
# Poissons Ratio (x) = 0.25768 0.38127
# Poissons Ratio (y) = 0.06413 0.12308
# Poissons Ratio (z) = 0.24298 0.31516
#
# Static dielectric constant tensor:
#      x y z
#    x 3.270310 0.000000 0.000000 
#    y 0.000000 3.045960 0.000000 
#    z 0.000000 0.000000 3.270770 
# 
# 
# High freq. dielectric constant tensor:
#      x y z
#    x 1.692110 0.000000 0.000000 
#    y 0.000000 1.680540 0.000000 
#    z 0.000000 0.000000 1.686540 
# 
# From -- ./inp_files/17772.got.cif
#   From: 2010.03.12/outbox.cif.g09.slc.cpg/sg62_9_cif.got.tgz:17772.got - 2010.04.10 19:12:36.
