data_PCOD8251184
_publ_section_title
;
Structure prediction by ZEFSAII (Michael W. Deem and Ramdas Pophale) SiO2 
 PCOD8251184
Probable space group: P N M A
;
_chemical_formula_sum "Si O2"
_cell_formula_units_Z 64
_cell_length_a 24.690202
_cell_length_b 9.543194
_cell_length_c 15.285755
_cell_angle_alpha 90.000000
_cell_angle_beta 90.000000
_cell_angle_gamma 90.000000
_cell_volume 3601.681375
_symmetry_space_group_name_H-M "P N M A"
_symmetry_group_IT_number 62
_symmetry_cell_setting 'orthorhombic'
loop_
_space_group_symop_operation_xyz
x,y,z
1/2-x,-y,1/2+z
1/2+x,1/2-y,1/2-z
-x,1/2+y,-z
-x,-y,-z
1/2+x,y,1/2-z
1/2-x,1/2+y,1/2+z
x,1/2-y,z
loop_
_atom_site_type_symbol
_atom_site_label
_atom_site_fract_x
_atom_site_fract_y
_atom_site_fract_z
Si Si1 0.555200 0.585220 0.181883
Si Si2 0.831815 0.414180 0.007836
Si Si3 0.765841 0.909508 0.729892
Si Si4 0.611051 0.587873 0.001517
Si Si5 0.212568 0.409871 0.470549
Si Si6 0.145798 0.912975 0.181831
Si Si7 0.145570 0.583652 0.804565
Si Si8 0.552567 0.914062 0.822955
O O1 0.542261 0.750000 0.183468
O O2 0.594883 0.539805 0.260592
O O3 0.501057 0.499525 0.197538
O O4 0.581615 0.539771 0.090204
O O5 0.824191 0.250000 0.024424
O O6 0.866617 0.446035 0.920672
O O7 0.770452 0.472168 0.997942
O O8 0.861346 0.473869 0.095218
O O9 0.769016 0.750000 0.763317
O O10 0.791169 0.921790 0.633818
O O11 0.704007 0.964707 0.731628
O O12 0.799926 0.005792 0.794235
O O13 0.627541 0.750000 0.006092
O O14 0.570473 0.557312 0.922154
O O15 0.665778 0.502095 0.985811
O O16 0.204103 0.250000 0.501258
O O17 0.157989 0.750000 0.196819
O O18 0.143270 0.750000 0.802429
O O19 0.098051 0.525124 0.743141
O O20 0.541450 0.750000 0.807283
#
# Coordination Sequence:
#
# PCOD8251184 Si02
#       8
#     8   8   8   8   8   8   8   8
#     4  10  21  36  50  70 104 136 166 210 257 301
#     4   8  16  31  51  74 103 135 166 200 246 306
#     4   9  17  30  50  75 103 133 163 202 250 297
#     4  10  20  33  49  74 105 134 165 205 255 302
#     4   9  17  30  49  75 104 134 166 199 239 298
#     4  10  19  32  52  76 102 134 168 202 249 304
#     4   8  16  33  52  73 101 131 168 211 251 293
#     4  10  21  35  54  74  95 133 179 216 250 294
#
# _framework density 17.769479
#
# number of rings (size 3 to 8) (size 9 to 14) (size 15 to 20)
#    0.000    2.750    1.250    1.875    1.750    1.500 
#    0.000    1.250    0.000    2.250    0.000    0.000 
#    0.000    0.000    0.000    0.000    0.000    0.000 
#
# Total GULP energy -793421.625978 kJ/mol
# GULP energy per Si atom -12397.212906 kJ/mol
# Density = 1.772903 g / cm^3
# Si number density = 17.769479 Si / 1000 Ang^3
#
#
#
# Elastic Constant Matrix: (Units=GPa)
#
#
# Indices 1 2 3 4 5 6 
#
# 1 120.4108 40.1795 70.8577 0.0000 0.0000 0.0000
# 2 40.1795 36.6097 32.2958 0.0000 0.0000 0.0000
# 3 70.8577 32.2958 110.0392 0.0000 0.0000 0.0000
# 4 0.0000 0.0000 0.0000 13.1995 0.0000 0.0000
# 5 0.0000 0.0000 0.0000 0.0000 24.0653 0.0000
# 6 0.0000 0.0000 0.0000 0.0000 0.0000 25.7376
#
#
#
# Elastic Compliance Matrix: (Units=1/GPa)
#
#
# Indices 1 2 3 4 5 6 
#
# 1 0.016411 -0.011724 -0.007126 0.000000 0.000000 0.000000
# 2 -0.011724 0.045234 -0.005726 0.000000 0.000000 0.000000
# 3 -0.007126 -0.005726 0.015357 0.000000 0.000000 0.000000
# 4 0.000000 0.000000 0.000000 0.075760 0.000000 0.000000
# 5 0.000000 0.000000 0.000000 0.000000 0.041554 0.000000
# 6 0.000000 0.000000 0.000000 0.000000 0.000000 0.038854
#
#
# Mechanical properties :
#
#
# Convention : Reuss Voigt Hill
#
# Bulk Modulus (GPa) = 35.90898 61.52508 48.71703
# Shear Modulus (GPa) = 17.14637 20.84893 18.99765
#
# Velocity S-wave (km/s) = 3.10971 3.42906 3.27328
# Velocity P-wave (km/s) = 5.75724 7.09769 6.46231
#
# Compressibility (1/GPa) = 0.02784818
#
# Stress axis : x y z
#
# Youngs Moduli (GPa) = 60.93534 22.10714 65.11604
#
# Poissons Ratio (x) = 0.25919 0.46404
# Poissons Ratio (y) = 0.71443 0.37287
# Poissons Ratio (z) = 0.43425 0.12659
#
# Static dielectric constant tensor:
#      x y z
#    x 3.217030 0.000000 0.000000 
#    y 0.000000 2.995470 0.000000 
#    z 0.000000 0.000000 3.498770 
# 
# 
# High freq. dielectric constant tensor:
#      x y z
#    x 1.677900 0.000000 0.000000 
#    y 0.000000 1.656590 0.000000 
#    z 0.000000 0.000000 1.694300 
# 
# From -- ./inp_files/20964.got.cif
#   From: 2010.03.12/outbox.cif.g09.slc.cpg/sg62_11_cif.got.tgz:20964.got - 2010.04.10 19:12:36.
