data_PCOD8251207
_publ_section_title
;
Structure prediction by ZEFSAII (Michael W. Deem and Ramdas Pophale) SiO2 
 PCOD8251207
Probable space group: P N M A
;
_chemical_formula_sum "Si O2"
_cell_formula_units_Z 64
_cell_length_a 19.802848
_cell_length_b 8.972963
_cell_length_c 20.163293
_cell_angle_alpha 90.000000
_cell_angle_beta 90.000000
_cell_angle_gamma 90.000000
_cell_volume 3582.820017
_symmetry_space_group_name_H-M "P N M A"
_symmetry_group_IT_number 62
_symmetry_cell_setting 'orthorhombic'
loop_
_space_group_symop_operation_xyz
x,y,z
1/2-x,-y,1/2+z
1/2+x,1/2-y,1/2-z
-x,1/2+y,-z
-x,-y,-z
1/2+x,y,1/2-z
1/2-x,1/2+y,1/2+z
x,1/2-y,z
loop_
_atom_site_type_symbol
_atom_site_label
_atom_site_fract_x
_atom_site_fract_y
_atom_site_fract_z
Si Si1 0.411809 0.425076 0.302843
Si Si2 0.560995 0.423300 0.331666
Si Si3 0.547756 0.576372 0.835914
Si Si4 0.930764 0.423318 0.481841
Si Si5 0.088262 0.922788 0.297340
Si Si6 0.570804 0.425667 0.481634
Si Si7 0.682464 0.576573 0.082495
Si Si8 0.175429 0.927307 0.921102
O O1 0.409653 0.250000 0.311022
O O2 0.484142 0.483653 0.328561
O O3 0.403468 0.472568 0.225469
O O4 0.352930 0.488334 0.350144
O O5 0.563836 0.250000 0.314090
O O6 0.604092 0.506887 0.274829
O O7 0.589205 0.456060 0.404666
O O8 0.529781 0.750000 0.829058
O O9 0.586188 0.542706 0.904634
O O10 0.476959 0.491585 0.833017
O O11 0.941079 0.250000 0.495706
O O12 0.869895 0.482590 0.526977
O O13 0.000000 0.500000 0.500000
O O14 0.073814 0.750000 0.288033
O O15 0.152501 0.951258 0.344389
O O16 0.500000 0.500000 0.500000
O O17 0.565458 0.250000 0.496024
O O18 0.631612 0.498703 0.521378
O O19 0.699892 0.750000 0.071336
O O20 0.748109 0.477747 0.072716
O O21 0.170558 0.750000 0.928114
#
# Coordination Sequence:
#
# PCOD8251207 Si02
#       8
#     8   8   8   8   8   8   8   8
#     4   8  15  31  51  76 105 131 171 223 266 314
#     4   9  18  34  55  79 109 139 177 225 271 326
#     4   9  17  31  54  79 104 136 175 223 276 327
#     4  10  19  33  55  80 109 143 182 228 277 330
#     4  10  19  32  52  79 111 141 176 228 277 324
#     4  11  21  36  58  84 114 147 185 233 282 333
#     4  10  22  38  52  76 115 152 184 227 284 337
#     4  11  22  37  56  79 110 149 192 233 276 335
#
# _framework density 17.863022999999998
#
# number of rings (size 3 to 8) (size 9 to 14) (size 15 to 20)
#    0.000    2.250    2.500    1.875    0.000    2.500 
#    0.000    1.875    0.000    3.000    0.000    0.000 
#    0.000    0.000    0.000    0.000    0.000    0.000 
#
# Total GULP energy -793367.964820 kJ/mol
# GULP energy per Si atom -12396.374450 kJ/mol
# Density = 1.782237 g / cm^3
# Si number density = 17.863023 Si / 1000 Ang^3
#
#
#
# Elastic Constant Matrix: (Units=GPa)
#
#
# Indices 1 2 3 4 5 6 
#
# 1 104.4394 43.3361 71.7363 0.0000 0.0000 0.0000
# 2 43.3361 72.3297 55.5666 0.0000 0.0000 0.0000
# 3 71.7363 55.5666 156.2296 0.0000 0.0000 0.0000
# 4 0.0000 0.0000 0.0000 27.9222 0.0000 0.0000
# 5 0.0000 0.0000 0.0000 0.0000 26.3517 0.0000
# 6 0.0000 0.0000 0.0000 0.0000 0.0000 28.4177
#
#
#
# Elastic Compliance Matrix: (Units=1/GPa)
#
#
# Indices 1 2 3 4 5 6 
#
# 1 0.015277 -0.005179 -0.005173 0.000000 0.000000 0.000000
# 2 -0.005179 0.020780 -0.005013 0.000000 0.000000 0.000000
# 3 -0.005173 -0.005013 0.010559 0.000000 0.000000 0.000000
# 4 0.000000 0.000000 0.000000 0.035814 0.000000 0.000000
# 5 0.000000 0.000000 0.000000 0.000000 0.037948 0.000000
# 6 0.000000 0.000000 0.000000 0.000000 0.000000 0.035189
#
#
# Mechanical properties :
#
#
# Convention : Reuss Voigt Hill
#
# Bulk Modulus (GPa) = 62.94701 74.91963 68.93332
# Shear Modulus (GPa) = 26.09727 27.36232 26.72979
#
# Velocity S-wave (km/s) = 3.82641 3.91805 3.87250
# Velocity P-wave (km/s) = 7.40520 7.90572 7.65955
#
# Compressibility (1/GPa) = 0.01588638
#
# Stress axis : x y z
#
# Youngs Moduli (GPa) = 65.45801 48.12418 94.70800
#
# Poissons Ratio (x) = 0.24925 0.48989
# Poissons Ratio (y) = 0.33903 0.47472
# Poissons Ratio (z) = 0.33859 0.24122
#
# Static dielectric constant tensor:
#      x y z
#    x 3.119760 0.000000 0.000000 
#    y 0.000000 3.247820 0.000000 
#    z 0.000000 0.000000 4.015260 
# 
# 
# High freq. dielectric constant tensor:
#      x y z
#    x 1.659460 0.000000 0.000000 
#    y 0.000000 1.683610 0.000000 
#    z 0.000000 0.000000 1.712780 
# 
# From -- ./inp_files/27703.got.cif
#   From: 2010.03.12/outbox.cif.g09.slc.cpg/sg62_14_cif.got.tgz:27703.got - 2010.04.10 19:12:36.
