data_PCOD8251320
_publ_section_title
;
Structure prediction by ZEFSAII (Michael W. Deem and Ramdas Pophale) SiO2 
 PCOD8251320
Probable space group: P N M A
;
_chemical_formula_sum "Si O2"
_cell_formula_units_Z 28
_cell_length_a 5.288669
_cell_length_b 32.892461
_cell_length_c 6.830232
_cell_angle_alpha 90.000000
_cell_angle_beta 90.000000
_cell_angle_gamma 90.000000
_cell_volume 1188.168982
_symmetry_space_group_name_H-M "P N M A"
_symmetry_group_IT_number 62
_symmetry_cell_setting 'orthorhombic'
loop_
_space_group_symop_operation_xyz
x,y,z
1/2-x,-y,1/2+z
1/2+x,1/2-y,1/2-z
-x,1/2+y,-z
-x,-y,-z
1/2+x,y,1/2-z
1/2-x,1/2+y,1/2+z
x,1/2-y,z
loop_
_atom_site_type_symbol
_atom_site_label
_atom_site_fract_x
_atom_site_fract_y
_atom_site_fract_z
Si Si1 0.517441 0.540794 0.378412
Si Si2 0.477185 0.839041 0.976748
Si Si3 0.539610 0.250000 0.128104
Si Si4 0.977473 0.626464 0.963368
O O1 0.500000 0.500000 0.500000
O O2 0.289742 0.543008 0.224282
O O3 0.495528 0.577701 0.533518
O O4 0.499212 0.790473 0.999028
O O5 0.457741 0.855050 0.753298
O O6 0.218425 0.854424 0.077926
O O7 0.722756 0.859356 0.077142
O O8 0.826460 0.250000 0.204862
#
# Coordination Sequence:
#
# PCOD8251320 Si02
#       4
#     8   8   4   8
#     4  12  28  46  68  96 127 171 217 273 324 394
#     4  10  19  32  60  92 123 170 198 279 292 385
#     4  12  16  30  48  98 132 154 216 256 330 338
#     4  10  20  35  57  84 124 159 207 246 329 357
#
# _framework density 23.565673
#
# number of rings (size 3 to 8) (size 9 to 14) (size 15 to 20)
#    0.000    1.143    5.714    2.571    8.000    0.000 
#    0.000    0.000    0.000    0.000    0.000   34.000 
#    0.000    0.000    0.000    0.000    0.000    0.000 
#
# Total GULP energy -347009.070194 kJ/mol
# GULP energy per Si atom -12393.181078 kJ/mol
# Density = 2.351204 g / cm^3
# Si number density = 23.565673 Si / 1000 Ang^3
#
#
#
# Elastic Constant Matrix: (Units=GPa)
#
#
# Indices 1 2 3 4 5 6 
#
# 1 195.2275 18.0008 -20.9993 0.0000 0.0000 0.0000
# 2 18.0008 207.6930 7.7397 0.0000 0.0000 0.0000
# 3 -20.9993 7.7397 41.5431 0.0000 0.0000 0.0000
# 4 0.0000 0.0000 0.0000 22.3858 0.0000 0.0000
# 5 0.0000 0.0000 0.0000 0.0000 -2.7538 0.0000
# 6 0.0000 0.0000 0.0000 0.0000 0.0000 43.1220
#
#
#
# Elastic Compliance Matrix: (Units=1/GPa)
#
#
# Indices 1 2 3 4 5 6 
#
# 1 0.005486 -0.000583 0.002882 0.000000 0.000000 0.000000
# 2 -0.000583 0.004910 -0.001209 0.000000 0.000000 0.000000
# 3 0.002882 -0.001209 0.025753 0.000000 0.000000 0.000000
# 4 0.000000 0.000000 0.000000 0.044671 0.000000 0.000000
# 5 0.000000 0.000000 0.000000 0.000000 -0.363141 0.000000
# 6 0.000000 0.000000 0.000000 0.000000 0.000000 0.023190
#
#
# Mechanical properties :
#
#
# Convention : Reuss Voigt Hill
#
# Bulk Modulus (GPa) = 26.09038 50.43845 38.26442
# Shear Modulus (GPa) = -20.11812 41.86563 10.87376
#
# Velocity S-wave (km/s) = -2.92499 4.21949 2.15041
# Velocity P-wave (km/s) = 0.55861 6.72225 4.73691
#
# Compressibility (1/GPa) = 0.03832830
#
# Stress axis : x y z
#
# Youngs Moduli (GPa) = 182.28456 203.65006 38.82993
#
# Poissons Ratio (x) = 0.11870 -0.11189
# Poissons Ratio (y) = 0.10624 0.04696
# Poissons Ratio (z) = -0.52528 0.24630
#
# Static dielectric constant tensor:
#      x y z
#    x 7.787380 0.000000 0.000000 
#    y 0.000000 4.498180 0.000000 
#    z 0.000000 0.000000 3.671660 
# 
# 
# High freq. dielectric constant tensor:
#      x y z
#    x 1.978120 0.000000 0.000000 
#    y 0.000000 1.946020 0.000000 
#    z 0.000000 0.000000 1.893690 
# 
# From -- ./inp_files/3799.got.cif
#   From: 2010.03.12/outbox.cif.g09.slc.cpg/sg62_2_cif.got.tgz:3799.got - 2010.04.10 19:12:36.
