data_PCOD8251101
_publ_section_title
;
Structure prediction by ZEFSAII (Michael W. Deem and Ramdas Pophale) SiO2 
 PCOD8251101
Probable space group: P N M A
;
_chemical_formula_sum "Si O2"
_cell_formula_units_Z 40
_cell_length_a 25.626758
_cell_length_b 9.055895
_cell_length_c 9.584254
_cell_angle_alpha 90.000000
_cell_angle_beta 90.000000
_cell_angle_gamma 90.000000
_cell_volume 2224.248779
_symmetry_space_group_name_H-M "P N M A"
_symmetry_group_IT_number 62
_symmetry_cell_setting 'orthorhombic'
loop_
_space_group_symop_operation_xyz
x,y,z
1/2-x,-y,1/2+z
1/2+x,1/2-y,1/2-z
-x,1/2+y,-z
-x,-y,-z
1/2+x,y,1/2-z
1/2-x,1/2+y,1/2+z
x,1/2-y,z
loop_
_atom_site_type_symbol
_atom_site_label
_atom_site_fract_x
_atom_site_fract_y
_atom_site_fract_z
Si Si1 0.631538 0.575558 0.722511
Si Si2 0.641983 0.419682 0.303166
Si Si3 0.283962 0.077456 0.500104
Si Si4 0.055018 0.424273 0.979612
Si Si5 0.334975 0.577941 0.004249
O O1 0.621590 0.750000 0.720428
O O2 0.683605 0.529953 0.637356
O O3 0.581896 0.493910 0.656342
O O4 0.637153 0.520371 0.879947
O O5 0.656150 0.250000 0.326867
O O6 0.691567 0.506666 0.361949
O O7 0.589071 0.462642 0.383315
O O8 0.634505 0.453849 0.139727
O O9 0.287547 0.250000 0.521570
O O10 0.224617 0.025085 0.483472
O O11 0.048325 0.250000 0.957854
O O12 0.000000 0.500000 0.000000
O O13 0.337688 0.750000 0.046410
#
# Coordination Sequence:
#
# PCOD8251101 Si02
#       5
#     8   8   8   8   8
#     4  10  20  34  52  77 105 135 172 211 250 299
#     4   9  19  34  52  74 102 134 170 208 250 299
#     4   9  18  31  49  73 104 139 172 203 240 290
#     4  10  20  37  59  78  97 128 168 213 261 310
#     4  10  19  32  49  74 107 138 166 203 248 294
#
# _framework density 17.983599999999999
#
# number of rings (size 3 to 8) (size 9 to 14) (size 15 to 20)
#    0.000    2.400    0.000    2.400    0.000    4.800 
#    0.000    1.000    0.000    0.000    0.000    0.000 
#    0.000    0.000    0.000    0.000    0.000    0.000 
#
# Total GULP energy -496093.183754 kJ/mol
# GULP energy per Si atom -12402.329594 kJ/mol
# Density = 1.794267 g / cm^3
# Si number density = 17.983600 Si / 1000 Ang^3
#
#
#
# Elastic Constant Matrix: (Units=GPa)
#
#
# Indices 1 2 3 4 5 6 
#
# 1 111.3491 45.6916 52.4836 0.0000 0.0000 0.0000
# 2 45.6916 60.1760 41.8445 0.0000 0.0000 0.0000
# 3 52.4836 41.8445 117.9867 0.0000 0.0000 0.0000
# 4 0.0000 0.0000 0.0000 32.1831 0.0000 0.0000
# 5 0.0000 0.0000 0.0000 0.0000 13.2374 0.0000
# 6 0.0000 0.0000 0.0000 0.0000 0.0000 29.1089
#
#
#
# Elastic Compliance Matrix: (Units=1/GPa)
#
#
# Indices 1 2 3 4 5 6 
#
# 1 0.013922 -0.008315 -0.003244 0.000000 0.000000 0.000000
# 2 -0.008315 0.027024 -0.005885 0.000000 0.000000 0.000000
# 3 -0.003244 -0.005885 0.012006 0.000000 0.000000 0.000000
# 4 0.000000 0.000000 0.000000 0.031072 0.000000 0.000000
# 5 0.000000 0.000000 0.000000 0.000000 0.075543 0.000000
# 6 0.000000 0.000000 0.000000 0.000000 0.000000 0.034354
#
#
# Mechanical properties :
#
#
# Convention : Reuss Voigt Hill
#
# Bulk Modulus (GPa) = 55.36196 63.28346 59.32271
# Shear Modulus (GPa) = 21.29193 24.87201 23.08197
#
# Velocity S-wave (km/s) = 3.44461 3.72296 3.58649
# Velocity P-wave (km/s) = 6.83169 7.33120 7.08585
#
# Compressibility (1/GPa) = 0.01806294
#
# Stress axis : x y z
#
# Youngs Moduli (GPa) = 71.82982 37.00394 83.29354
#
# Poissons Ratio (x) = 0.30769 0.27019
# Poissons Ratio (y) = 0.59728 0.49022
# Poissons Ratio (z) = 0.23300 0.21778
#
# Static dielectric constant tensor:
#      x y z
#    x 3.315560 0.000000 0.000000 
#    y 0.000000 3.324230 0.000000 
#    z 0.000000 0.000000 3.398390 
# 
# 
# High freq. dielectric constant tensor:
#      x y z
#    x 1.682500 0.000000 0.000000 
#    y 0.000000 1.699610 0.000000 
#    z 0.000000 0.000000 1.698330 
# 
# From -- ./inp_files/9071.got.cif
#   From: 2010.03.12/outbox.cif.g09.slc.cpg/sg62_5_cif.got.tgz:9071.got - 2010.04.10 19:12:36.
