data_PCOD8251123
_publ_section_title
;
Structure prediction by ZEFSAII (Michael W. Deem and Ramdas Pophale) SiO2 
 PCOD8251123
Probable space group: P N M A
;
_chemical_formula_sum "Si O2"
_cell_formula_units_Z 48
_cell_length_a 19.618541
_cell_length_b 8.956642
_cell_length_c 16.726824
_cell_angle_alpha 90.000000
_cell_angle_beta 90.000000
_cell_angle_gamma 90.000000
_cell_volume 2939.174759
_symmetry_space_group_name_H-M "P N M A"
_symmetry_group_IT_number 62
_symmetry_cell_setting 'orthorhombic'
loop_
_space_group_symop_operation_xyz
x,y,z
1/2-x,-y,1/2+z
1/2+x,1/2-y,1/2-z
-x,1/2+y,-z
-x,-y,-z
1/2+x,y,1/2-z
1/2-x,1/2+y,1/2+z
x,1/2-y,z
loop_
_atom_site_type_symbol
_atom_site_label
_atom_site_fract_x
_atom_site_fract_y
_atom_site_fract_z
Si Si1 0.910483 0.081266 0.660246
Si Si2 0.540063 0.423603 0.929239
Si Si3 0.661970 0.576191 0.991913
Si Si4 0.863755 0.917603 0.814768
Si Si5 0.066757 0.418988 0.029999
Si Si6 0.300413 0.426914 0.548758
O O1 0.896343 0.250000 0.687930
O O2 0.871205 0.047426 0.578177
O O3 0.992248 0.057068 0.649146
O O4 0.882607 0.972491 0.727389
O O5 0.551485 0.250000 0.948773
O O6 0.613300 0.505300 0.922654
O O7 0.500000 0.500000 0.000000
O O8 0.671957 0.750000 0.973434
O O9 0.733543 0.492906 0.991797
O O10 0.834769 0.750000 0.807213
O O11 0.930807 0.919502 0.872552
O O12 0.805815 0.019574 0.858017
O O13 0.067987 0.250000 0.996522
O O14 0.134400 0.507431 0.999578
O O15 0.000000 0.500000 0.000000
O O16 0.299609 0.250000 0.543685
#
# Coordination Sequence:
#
# PCOD8251123 Si02
#       6
#     8   8   8   8   8   8
#     4   9  18  31  50  74 101 132 166 203 249 299
#     4   9  17  29  46  72 100 130 167 204 243 293
#     4  10  19  32  50  74 103 133 168 209 248 299
#     4   9  19  32  50  73  99 126 163 206 248 296
#     4   9  18  32  52  76  97 126 164 205 244 289
#     4  10  19  32  52  74  99 134 169 205 251 301
#
# _framework density 16.331113999999999
#
# number of rings (size 3 to 8) (size 9 to 14) (size 15 to 20)
#    1.000    1.667    0.000    4.000    0.000    4.000 
#    0.000    0.000    3.667    0.000    0.000    0.000 
#    0.000    0.000    0.000    0.000    0.000    0.000 
#
# Total GULP energy -594659.526544 kJ/mol
# GULP energy per Si atom -12388.740136 kJ/mol
# Density = 1.629394 g / cm^3
# Si number density = 16.331114 Si / 1000 Ang^3
#
#
#
# Elastic Constant Matrix: (Units=GPa)
#
#
# Indices 1 2 3 4 5 6 
#
# 1 119.4730 64.4569 21.1296 0.0000 0.0000 0.0000
# 2 64.4569 151.7613 32.4556 0.0000 0.0000 0.0000
# 3 21.1296 32.4556 41.2094 0.0000 0.0000 0.0000
# 4 0.0000 0.0000 0.0000 27.7891 0.0000 0.0000
# 5 0.0000 0.0000 0.0000 0.0000 15.0847 0.0000
# 6 0.0000 0.0000 0.0000 0.0000 0.0000 34.7422
#
#
#
# Elastic Compliance Matrix: (Units=1/GPa)
#
#
# Indices 1 2 3 4 5 6 
#
# 1 0.011047 -0.004186 -0.002368 0.000000 0.000000 0.000000
# 2 -0.004186 0.009510 -0.005344 0.000000 0.000000 0.000000
# 3 -0.002368 -0.005344 0.029689 0.000000 0.000000 0.000000
# 4 0.000000 0.000000 0.000000 0.035985 0.000000 0.000000
# 5 0.000000 0.000000 0.000000 0.000000 0.066292 0.000000
# 6 0.000000 0.000000 0.000000 0.000000 0.000000 0.028783
#
#
# Mechanical properties :
#
#
# Convention : Reuss Voigt Hill
#
# Bulk Modulus (GPa) = 37.80463 60.94754 49.37609
# Shear Modulus (GPa) = 23.37346 28.48331 25.92839
#
# Velocity S-wave (km/s) = 3.78725 4.18079 3.98888
# Velocity P-wave (km/s) = 6.50565 7.79142 7.17739
#
# Compressibility (1/GPa) = 0.02645178
#
# Stress axis : x y z
#
# Youngs Moduli (GPa) = 90.52225 105.15465 33.68273
#
# Poissons Ratio (x) = 0.44013 0.07975
# Poissons Ratio (y) = 0.37889 0.17999
# Poissons Ratio (z) = 0.21433 0.56190
#
# Static dielectric constant tensor:
#      x y z
#    x 3.142300 0.000000 0.000000 
#    y 0.000000 3.369510 0.000000 
#    z 0.000000 0.000000 2.762580 
# 
# 
# High freq. dielectric constant tensor:
#      x y z
#    x 1.621130 0.000000 0.000000 
#    y 0.000000 1.650130 0.000000 
#    z 0.000000 0.000000 1.588170 
# 
# From -- ./inp_files/24515.got.cif
#   From: 2010.03.12/outbox.cif.g09.slc.cpg/sg62_13_cif.got.tgz:24515.got - 2010.04.10 19:12:36.
