data_PCOD8251503
_publ_section_title
;
Structure prediction by ZEFSAII (Michael W. Deem and Ramdas Pophale) SiO2 
 PCOD8251503
Probable space group: P N M A
;
_chemical_formula_sum "Si O2"
_cell_formula_units_Z 48
_cell_length_a 29.399355
_cell_length_b 8.705493
_cell_length_c 10.254728
_cell_angle_alpha 90.000000
_cell_angle_beta 90.000000
_cell_angle_gamma 90.000000
_cell_volume 2624.552826
_symmetry_space_group_name_H-M "P N M A"
_symmetry_group_IT_number 62
_symmetry_cell_setting 'orthorhombic'
loop_
_space_group_symop_operation_xyz
x,y,z
1/2-x,-y,1/2+z
1/2+x,1/2-y,1/2-z
-x,1/2+y,-z
-x,-y,-z
1/2+x,y,1/2-z
1/2-x,1/2+y,1/2+z
x,1/2-y,z
loop_
_atom_site_type_symbol
_atom_site_label
_atom_site_fract_x
_atom_site_fract_y
_atom_site_fract_z
Si Si1 0.885561 0.568594 0.217583
Si Si2 0.024641 0.931981 0.876705
Si Si3 0.473632 0.567740 0.879391
Si Si4 0.718198 0.432383 0.997154
Si Si5 0.618054 0.430799 0.012182
Si Si6 0.211495 0.567996 0.781067
O O1 0.885522 0.750000 0.196738
O O2 0.923931 0.493672 0.126919
O O3 0.896162 0.519936 0.366114
O O4 0.836560 0.503691 0.177487
O O5 0.025344 0.750000 0.883857
O O6 0.995965 0.993059 0.753021
O O7 0.000000 0.000000 0.000000
O O8 0.476104 0.750000 0.888185
O O9 0.500000 0.500000 0.000000
O O10 0.420831 0.509765 0.888163
O O11 0.717837 0.250000 0.977463
O O12 0.668448 0.494372 0.044291
O O13 0.730006 0.506204 0.857230
O O14 0.753765 0.484811 0.106181
O O15 0.620646 0.250000 0.019971
O O16 0.207286 0.750000 0.773380
#
# Coordination Sequence:
#
# PCOD8251503 Si02
#       6
#     8   8   8   8   8   8
#     4  10  19  35  59  80 106 147 185 224 276 333
#     4  11  23  37  54  80 115 150 184 226 275 331
#     4  10  19  33  56  82 107 138 179 222 265 318
#     4   9  19  36  56  79 111 145 179 222 273 326
#     4   8  15  31  55  79 103 135 176 221 267 317
#     4  10  20  35  57  84 113 144 181 229 275 326
#
# _framework density 18.288829
#
# number of rings (size 3 to 8) (size 9 to 14) (size 15 to 20)
#    0.000    2.333    1.667    2.500    0.000    2.000 
#    3.000    0.000    0.000    0.000    0.000    0.000 
#    0.000    0.000    0.000    0.000    0.000    0.000 
#
# Total GULP energy -595047.870566 kJ/mol
# GULP energy per Si atom -12396.830637 kJ/mol
# Density = 1.824720 g / cm^3
# Si number density = 18.288829 Si / 1000 Ang^3
#
#
#
# Elastic Constant Matrix: (Units=GPa)
#
#
# Indices 1 2 3 4 5 6 
#
# 1 158.8603 40.2621 94.3395 0.0000 0.0000 0.0000
# 2 40.2621 45.7919 35.7242 0.0000 0.0000 0.0000
# 3 94.3395 35.7242 128.6399 0.0000 0.0000 0.0000
# 4 0.0000 0.0000 0.0000 26.2837 0.0000 0.0000
# 5 0.0000 0.0000 0.0000 0.0000 37.0577 0.0000
# 6 0.0000 0.0000 0.0000 0.0000 0.0000 27.5836
#
#
#
# Elastic Compliance Matrix: (Units=1/GPa)
#
#
# Indices 1 2 3 4 5 6 
#
# 1 0.011882 -0.004658 -0.007420 0.000000 0.000000 0.000000
# 2 -0.004658 0.029704 -0.004833 0.000000 0.000000 0.000000
# 3 -0.007420 -0.004833 0.014557 0.000000 0.000000 0.000000
# 4 0.000000 0.000000 0.000000 0.038046 0.000000 0.000000
# 5 0.000000 0.000000 0.000000 0.000000 0.026985 0.000000
# 6 0.000000 0.000000 0.000000 0.000000 0.000000 0.036253
#
#
# Mechanical properties :
#
#
# Convention : Reuss Voigt Hill
#
# Bulk Modulus (GPa) = 44.80118 74.88265 59.84192
# Shear Modulus (GPa) = 25.16479 29.04944 27.10711
#
# Velocity S-wave (km/s) = 3.71342 3.98976 3.85407
# Velocity P-wave (km/s) = 6.55253 7.89035 7.25235
#
# Compressibility (1/GPa) = 0.02232084
#
# Stress axis : x y z
#
# Youngs Moduli (GPa) = 84.16174 33.66556 68.69404
#
# Poissons Ratio (x) = 0.15683 0.50971
# Poissons Ratio (y) = 0.39205 0.33198
# Poissons Ratio (z) = 0.62448 0.16270
#
# Static dielectric constant tensor:
#      x y z
#    x 3.426440 0.000000 0.000000 
#    y 0.000000 3.231830 0.000000 
#    z 0.000000 0.000000 3.332140 
# 
# 
# High freq. dielectric constant tensor:
#      x y z
#    x 1.725230 0.000000 0.000000 
#    y 0.000000 1.699210 0.000000 
#    z 0.000000 0.000000 1.692900 
# 
# From -- ./inp_files/10188.got.cif
#   From: 2010.03.12/outbox.cif.g09.slc.cpg/sg62_6_cif.got.tgz:10188.got - 2010.04.10 19:12:36.
