data_PCOD8251726
_publ_section_title
;
Structure prediction by ZEFSAII (Michael W. Deem and Ramdas Pophale) SiO2 
 PCOD8251726
Probable space group: P N M A
;
_chemical_formula_sum "Si O2"
_cell_formula_units_Z 40
_cell_length_a 5.190562
_cell_length_b 23.387249
_cell_length_c 15.845941
_cell_angle_alpha 90.000000
_cell_angle_beta 90.000000
_cell_angle_gamma 90.000000
_cell_volume 1923.585776
_symmetry_space_group_name_H-M "P N M A"
_symmetry_group_IT_number 62
_symmetry_cell_setting 'orthorhombic'
loop_
_space_group_symop_operation_xyz
x,y,z
1/2-x,-y,1/2+z
1/2+x,1/2-y,1/2-z
-x,1/2+y,-z
-x,-y,-z
1/2+x,y,1/2-z
1/2-x,1/2+y,1/2+z
x,1/2-y,z
loop_
_atom_site_type_symbol
_atom_site_label
_atom_site_fract_x
_atom_site_fract_y
_atom_site_fract_z
Si Si1 0.609764 0.511559 0.196340
Si Si2 0.823580 0.126077 0.615454
Si Si3 0.682033 0.813877 0.365614
Si Si4 0.345103 0.616737 0.804943
Si Si5 0.950694 0.685910 0.530281
O O1 0.321326 0.520532 0.230665
O O2 0.658028 0.557402 0.121942
O O3 0.638864 0.447833 0.158657
O O4 0.563229 0.148195 0.659121
O O5 0.056830 0.155780 0.668867
O O6 0.836695 0.145611 0.516957
O O7 0.655758 0.750000 0.327937
O O8 0.703044 0.811333 0.468226
O O9 0.569353 0.627842 0.737345
O O10 0.370003 0.660769 0.880647
O O11 0.063174 0.750000 0.543281
#
# Coordination Sequence:
#
# PCOD8251726 Si02
#       5
#     8   8   8   8   8
#     4  10  21  39  58  80 114 150 185 230 279 329
#     4  10  19  34  59  83 108 149 187 228 277 329
#     4   9  18  33  54  81 110 140 178 225 273 321
#     4  10  23  39  56  82 115 149 187 229 276 332
#     4   9  21  37  59  84 113 147 186 231 278 328
#
# _framework density 20.794498000000001
#
# number of rings (size 3 to 8) (size 9 to 14) (size 15 to 20)
#    1.200    1.200    0.000    2.400    2.800    1.600 
#    0.000    1.000    0.000   20.400    0.000    0.000 
#    0.000    0.000    0.000    0.000    0.000    0.000 
#
# Total GULP energy -495668.123005 kJ/mol
# GULP energy per Si atom -12391.703075 kJ/mol
# Density = 2.074717 g / cm^3
# Si number density = 20.794498 Si / 1000 Ang^3
#
#
#
# Elastic Constant Matrix: (Units=GPa)
#
#
# Indices 1 2 3 4 5 6 
#
# 1 106.3815 0.0877 -12.5424 0.0000 0.0000 0.0000
# 2 0.0877 111.9867 41.3838 0.0000 0.0000 0.0000
# 3 -12.5424 41.3838 40.7595 0.0000 0.0000 0.0000
# 4 0.0000 0.0000 0.0000 40.8855 0.0000 0.0000
# 5 0.0000 0.0000 0.0000 0.0000 -7.5626 0.0000
# 6 0.0000 0.0000 0.0000 0.0000 0.0000 25.2287
#
#
#
# Elastic Compliance Matrix: (Units=1/GPa)
#
#
# Indices 1 2 3 4 5 6 
#
# 1 0.009983 -0.001829 0.004929 0.000000 0.000000 0.000000
# 2 -0.001829 0.014627 -0.015414 0.000000 0.000000 0.000000
# 3 0.004929 -0.015414 0.041701 0.000000 0.000000 0.000000
# 4 0.000000 0.000000 0.000000 0.024459 0.000000 0.000000
# 5 0.000000 0.000000 0.000000 0.000000 -0.132229 0.000000
# 6 0.000000 0.000000 0.000000 0.000000 0.000000 0.039637
#
#
# Mechanical properties :
#
#
# Convention : Reuss Voigt Hill
#
# Bulk Modulus (GPa) = 23.99077 35.22068 29.60572
# Shear Modulus (GPa) = 136.23442 27.05688 81.64565
#
# Velocity S-wave (km/s) = 8.10289 3.61107 6.27283
# Velocity P-wave (km/s) = 9.95513 5.86180 8.16901
#
# Compressibility (1/GPa) = 0.04168270
#
# Stress axis : x y z
#
# Youngs Moduli (GPa) = 100.17229 68.36530 23.98001
#
# Poissons Ratio (x) = 0.12507 -0.11820
# Poissons Ratio (y) = 0.18326 0.36964
# Poissons Ratio (z) = -0.49378 1.05380
#
# Static dielectric constant tensor:
#      x y z
#    x 3.728210 0.000000 0.000000 
#    y 0.000000 3.805580 0.000000 
#    z 0.000000 0.000000 3.224400 
# 
# 
# High freq. dielectric constant tensor:
#      x y z
#    x 1.816660 0.000000 0.000000 
#    y 0.000000 1.820980 0.000000 
#    z 0.000000 0.000000 1.775270 
# 
# From -- ./inp_files/21497.got.cif
#   From: 2010.03.12/outbox.cif.g09.slc.cpg/sg62_11_cif.got.tgz:21497.got - 2010.04.10 19:12:36.
