data_PCOD8251189
_publ_section_title
;
Structure prediction by ZEFSAII (Michael W. Deem and Ramdas Pophale) SiO2 
 PCOD8251189
Probable space group: P N M A
;
_chemical_formula_sum "Si O2"
_cell_formula_units_Z 64
_cell_length_a 15.072703
_cell_length_b 9.048185
_cell_length_c 25.376030
_cell_angle_alpha 90.000000
_cell_angle_beta 90.000000
_cell_angle_gamma 90.000000
_cell_volume 3460.798329
_symmetry_space_group_name_H-M "P N M A"
_symmetry_group_IT_number 62
_symmetry_cell_setting 'orthorhombic'
loop_
_space_group_symop_operation_xyz
x,y,z
1/2-x,-y,1/2+z
1/2+x,1/2-y,1/2-z
-x,1/2+y,-z
-x,-y,-z
1/2+x,y,1/2-z
1/2-x,1/2+y,1/2+z
x,1/2-y,z
loop_
_atom_site_type_symbol
_atom_site_label
_atom_site_fract_x
_atom_site_fract_y
_atom_site_fract_z
Si Si1 0.698853 0.077495 0.824207
Si Si2 0.628915 0.079134 0.526295
Si Si3 0.104120 0.923219 0.189191
Si Si4 0.044693 0.419320 0.387322
Si Si5 0.801410 0.924991 0.535522
Si Si6 0.489142 0.575796 0.215460
Si Si7 0.059970 0.921880 0.073570
Si Si8 0.647564 0.920463 0.928333
O O1 0.691914 0.250000 0.839051
O O2 0.792873 0.042528 0.795792
O O3 0.615706 0.031710 0.786616
O O4 0.697605 0.984990 0.877710
O O5 0.653699 0.250000 0.521036
O O6 0.543590 0.053961 0.562487
O O7 0.707975 0.991318 0.554947
O O8 0.617155 0.015050 0.467637
O O9 0.086971 0.750000 0.187019
O O10 0.037109 0.992241 0.232673
O O11 0.080711 0.986510 0.131474
O O12 0.056717 0.250000 0.370177
O O13 0.126196 0.476810 0.422123
O O14 0.040953 0.515633 0.334915
O O15 0.957450 0.440422 0.422372
O O16 0.796836 0.750000 0.531386
O O17 0.823321 0.989233 0.478739
O O18 0.500637 0.750000 0.214987
O O19 0.086788 0.750000 0.067842
O O20 0.674494 0.750000 0.934894
#
# Coordination Sequence:
#
# PCOD8251189 Si02
#       8
#     8   8   8   8   8   8   8   8
#     4   9  17  31  52  76 102 134 169 207 258 310
#     4  10  20  33  50  77 107 136 170 212 258 304
#     4   9  17  32  53  77 100 130 173 214 253 299
#     4   9  20  36  51  70 102 138 167 206 261 311
#     4  11  21  33  50  73 103 140 172 202 251 315
#     4   9  18  33  52  75 101 131 170 216 256 300
#     4   9  18  34  54  74 103 139 171 213 262 308
#     4  10  19  32  52  77 103 129 168 218 257 302
#
# _framework density 18.492843000000001
#
# number of rings (size 3 to 8) (size 9 to 14) (size 15 to 20)
#    0.000    2.500    0.000    2.250    0.000    3.000 
#    2.250    1.250    0.000    0.000    0.000    0.000 
#    0.000    0.000    0.000    0.000    0.000    0.000 
#
# Total GULP energy -793556.705597 kJ/mol
# GULP energy per Si atom -12399.323525 kJ/mol
# Density = 1.845075 g / cm^3
# Si number density = 18.492843 Si / 1000 Ang^3
#
#
#
# Elastic Constant Matrix: (Units=GPa)
#
#
# Indices 1 2 3 4 5 6 
#
# 1 116.3913 30.7958 64.2675 0.0000 0.0000 0.0000
# 2 30.7958 50.7356 25.5074 0.0000 0.0000 0.0000
# 3 64.2675 25.5074 81.5986 0.0000 0.0000 0.0000
# 4 0.0000 0.0000 0.0000 22.5102 0.0000 0.0000
# 5 0.0000 0.0000 0.0000 0.0000 28.4680 0.0000
# 6 0.0000 0.0000 0.0000 0.0000 0.0000 26.4225
#
#
#
# Elastic Compliance Matrix: (Units=1/GPa)
#
#
# Indices 1 2 3 4 5 6 
#
# 1 0.015849 -0.003968 -0.011243 0.000000 0.000000 0.000000
# 2 -0.003968 0.024379 -0.004495 0.000000 0.000000 0.000000
# 3 -0.011243 -0.004495 0.022515 0.000000 0.000000 0.000000
# 4 0.000000 0.000000 0.000000 0.044424 0.000000 0.000000
# 5 0.000000 0.000000 0.000000 0.000000 0.035127 0.000000
# 6 0.000000 0.000000 0.000000 0.000000 0.000000 0.037847
#
#
# Mechanical properties :
#
#
# Convention : Reuss Voigt Hill
#
# Bulk Modulus (GPa) = 42.86160 54.42965 48.64563
# Shear Modulus (GPa) = 21.99439 24.02380 23.00909
#
# Velocity S-wave (km/s) = 3.45243 3.60819 3.53117
# Velocity P-wave (km/s) = 6.25461 6.84511 6.55651
#
# Compressibility (1/GPa) = 0.02333090
#
# Stress axis : x y z
#
# Youngs Moduli (GPa) = 63.09350 41.01949 44.41443
#
# Poissons Ratio (x) = 0.16277 0.49934
# Poissons Ratio (y) = 0.25036 0.19966
# Poissons Ratio (z) = 0.70934 0.18440
#
# Static dielectric constant tensor:
#      x y z
#    x 3.767760 0.000000 0.000000 
#    y 0.000000 3.316900 0.000000 
#    z 0.000000 0.000000 3.400060 
# 
# 
# High freq. dielectric constant tensor:
#      x y z
#    x 1.732810 0.000000 0.000000 
#    y 0.000000 1.704760 0.000000 
#    z 0.000000 0.000000 1.700420 
# 
# From -- ./inp_files/29945.got.cif
#   From: 2010.03.12/outbox.cif.g09.slc.cpg/sg62_15_cif.got.tgz:29945.got - 2010.04.10 19:12:36.
