data_PCOD8251381
_publ_section_title
;
Structure prediction by ZEFSAII (Michael W. Deem and Ramdas Pophale) SiO2 
 PCOD8251381
Probable space group: P N M A
;
_chemical_formula_sum "Si O2"
_cell_formula_units_Z 48
_cell_length_a 12.432794
_cell_length_b 9.001582
_cell_length_c 22.102976
_cell_angle_alpha 90.000000
_cell_angle_beta 90.000000
_cell_angle_gamma 90.000000
_cell_volume 2473.650463
_symmetry_space_group_name_H-M "P N M A"
_symmetry_group_IT_number 62
_symmetry_cell_setting 'orthorhombic'
loop_
_space_group_symop_operation_xyz
x,y,z
1/2-x,-y,1/2+z
1/2+x,1/2-y,1/2-z
-x,1/2+y,-z
-x,-y,-z
1/2+x,y,1/2-z
1/2-x,1/2+y,1/2+z
x,1/2-y,z
loop_
_atom_site_type_symbol
_atom_site_label
_atom_site_fract_x
_atom_site_fract_y
_atom_site_fract_z
Si Si1 0.387803 0.574900 0.512475
Si Si2 0.866799 0.579399 0.327461
Si Si3 0.486449 0.073267 0.934513
Si Si4 0.249101 0.925514 0.400916
Si Si5 0.133070 0.920515 0.133568
Si Si6 0.084785 0.427258 0.802969
O O1 0.500000 0.500000 0.500000
O O2 0.402448 0.750000 0.510970
O O3 0.304658 0.518106 0.462245
O O4 0.342910 0.522880 0.576419
O O5 0.902499 0.750000 0.327485
O O6 0.738185 0.562870 0.325188
O O7 0.908268 0.505422 0.264904
O O8 0.921617 0.512290 0.388230
O O9 0.490940 0.250000 0.944233
O O10 0.374450 0.022263 0.903109
O O11 0.500000 0.000000 0.000000
O O12 0.255292 0.750000 0.397448
O O13 0.315787 0.989844 0.343437
O O14 0.115369 0.750000 0.113029
O O15 0.028633 0.979504 0.169057
O O16 0.090491 0.250000 0.800350
#
# Coordination Sequence:
#
# PCOD8251381 Si02
#       6
#     8   8   8   8   8   8
#     4  11  20  33  52  78 106 137 175 216 264 314
#     4   9  19  31  51  81 106 135 176 221 259 302
#     4  10  20  35  54  78 105 135 175 216 260 314
#     4   9  18  31  50  75 104 136 171 211 262 314
#     4  10  19  33  53  78 107 136 172 216 263 310
#     4   9  17  30  49  77 106 133 170 216 260 302
#
# _framework density 19.404520000000002
#
# number of rings (size 3 to 8) (size 9 to 14) (size 15 to 20)
#    0.000    2.333    1.667    1.500    2.333    0.000 
#    0.000    0.833    0.000    2.000    0.000    0.000 
#    0.000    0.000    0.000    0.000    0.000    0.000 
#
# Total GULP energy -594981.288171 kJ/mol
# GULP energy per Si atom -12395.443504 kJ/mol
# Density = 1.936035 g / cm^3
# Si number density = 19.404520 Si / 1000 Ang^3
#
#
#
# Elastic Constant Matrix: (Units=GPa)
#
#
# Indices 1 2 3 4 5 6 
#
# 1 134.1822 13.6387 65.1862 0.0000 0.0000 0.0000
# 2 13.6387 25.7943 19.2327 0.0000 0.0000 0.0000
# 3 65.1862 19.2327 171.3559 0.0000 0.0000 0.0000
# 4 0.0000 0.0000 0.0000 23.0424 0.0000 0.0000
# 5 0.0000 0.0000 0.0000 0.0000 28.8978 0.0000
# 6 0.0000 0.0000 0.0000 0.0000 0.0000 15.6231
#
#
#
# Elastic Compliance Matrix: (Units=1/GPa)
#
#
# Indices 1 2 3 4 5 6 
#
# 1 0.009286 -0.002484 -0.003254 0.000000 0.000000 0.000000
# 2 -0.002484 0.042973 -0.003878 0.000000 0.000000 0.000000
# 3 -0.003254 -0.003878 0.007509 0.000000 0.000000 0.000000
# 4 0.000000 0.000000 0.000000 0.043398 0.000000 0.000000
# 5 0.000000 0.000000 0.000000 0.000000 0.034605 0.000000
# 6 0.000000 0.000000 0.000000 0.000000 0.000000 0.064008
#
#
# Mechanical properties :
#
#
# Convention : Reuss Voigt Hill
#
# Bulk Modulus (GPa) = 24.66930 58.60527 41.63728
# Shear Modulus (GPa) = 21.31993 29.06430 25.19212
#
# Velocity S-wave (km/s) = 3.31827 3.87436 3.60705
# Velocity P-wave (km/s) = 5.23661 7.09095 6.23312
#
# Compressibility (1/GPa) = 0.04053621
#
# Stress axis : x y z
#
# Youngs Moduli (GPa) = 107.69329 23.27024 133.17667
#
# Poissons Ratio (x) = 0.05780 0.43330
# Poissons Ratio (y) = 0.26749 0.51651
# Poissons Ratio (z) = 0.35039 0.09025
#
# Static dielectric constant tensor:
#      x y z
#    x 3.764430 0.000000 0.000000 
#    y 0.000000 3.367170 0.000000 
#    z 0.000000 0.000000 4.092850 
# 
# 
# High freq. dielectric constant tensor:
#      x y z
#    x 1.771410 0.000000 0.000000 
#    y 0.000000 1.689620 0.000000 
#    z 0.000000 0.000000 1.768080 
# 
# From -- ./inp_files/26536.got.cif
#   From: 2010.03.12/outbox.cif.g09.slc.cpg/sg62_14_cif.got.tgz:26536.got - 2010.04.10 19:12:36.
