data_PCOD8251896
_publ_section_title
;
Structure prediction by ZEFSAII (Michael W. Deem and Ramdas Pophale) SiO2 
 PCOD8251896
Probable space group: P N M A
;
_chemical_formula_sum "Si O2"
_cell_formula_units_Z 64
_cell_length_a 23.493732
_cell_length_b 8.590615
_cell_length_c 15.542675
_cell_angle_alpha 90.000000
_cell_angle_beta 90.000000
_cell_angle_gamma 90.000000
_cell_volume 3136.909809
_symmetry_space_group_name_H-M "P N M A"
_symmetry_group_IT_number 62
_symmetry_cell_setting 'orthorhombic'
loop_
_space_group_symop_operation_xyz
x,y,z
1/2-x,-y,1/2+z
1/2+x,1/2-y,1/2-z
-x,1/2+y,-z
-x,-y,-z
1/2+x,y,1/2-z
1/2-x,1/2+y,1/2+z
x,1/2-y,z
loop_
_atom_site_type_symbol
_atom_site_label
_atom_site_fract_x
_atom_site_fract_y
_atom_site_fract_z
Si Si1 0.550112 0.064156 0.559983
Si Si2 0.623948 0.073639 0.130267
Si Si3 0.335004 0.568244 0.523673
Si Si4 0.209149 0.570353 0.496260
Si Si5 0.310504 0.568363 0.179781
Si Si6 0.067990 0.066143 0.747935
Si Si7 0.197624 0.430655 0.207930
Si Si8 0.008486 0.570592 0.406559
O O1 0.548494 0.250000 0.557264
O O2 0.610418 0.996144 0.524706
O O3 0.545414 0.003841 0.659242
O O4 0.500000 0.000000 0.500000
O O5 0.601695 0.250000 0.119010
O O6 0.648670 0.043711 0.223725
O O7 0.672719 0.044713 0.061201
O O8 0.573358 0.952576 0.119929
O O9 0.346072 0.750000 0.530670
O O10 0.275472 0.534616 0.474868
O O11 0.328742 0.500335 0.619891
O O12 0.194628 0.750000 0.476712
O O13 0.193374 0.535843 0.594601
O O14 0.312547 0.750000 0.155673
O O15 0.365973 0.520293 0.234713
O O16 0.254051 0.527764 0.235074
O O17 0.060586 0.250000 0.747888
O O18 0.031585 0.995006 0.668012
O O19 0.215007 0.250000 0.197918
O O20 0.993279 0.750000 0.414410
O O21 0.000000 0.500000 0.500000
#
# Coordination Sequence:
#
# PCOD8251896 Si02
#       8
#     8   8   8   8   8   8   8   8
#     4  10  21  39  60  83 112 150 194 242 289 345
#     4  11  23  37  57  85 120 154 195 247 294 349
#     4   8  17  35  59  80 109 150 190 229 286 351
#     4  10  20  36  59  87 117 153 192 237 296 363
#     4  10  19  35  60  87 116 152 193 238 295 354
#     4   9  21  38  59  86 119 153 193 243 292 346
#     4   9  20  37  55  82 118 154 189 238 291 347
#     4  11  23  41  62  87 119 158 201 248 304 363
#
# _framework density 20.402246000000002
#
# number of rings (size 3 to 8) (size 9 to 14) (size 15 to 20)
#    0.000    2.250    0.000    3.000    3.500    2.000 
#    0.000    6.875    0.000    0.000    0.000    0.000 
#    0.000    0.000    0.000    0.000    0.000    0.000 
#
# Total GULP energy -793406.426543 kJ/mol
# GULP energy per Si atom -12396.975415 kJ/mol
# Density = 2.035581 g / cm^3
# Si number density = 20.402246 Si / 1000 Ang^3
#
#
#
# Elastic Constant Matrix: (Units=GPa)
#
#
# Indices 1 2 3 4 5 6 
#
# 1 136.8956 25.9428 73.6394 0.0000 0.0000 0.0000
# 2 25.9428 32.6657 26.2859 0.0000 0.0000 0.0000
# 3 73.6394 26.2859 131.2195 0.0000 0.0000 0.0000
# 4 0.0000 0.0000 0.0000 25.5341 0.0000 0.0000
# 5 0.0000 0.0000 0.0000 0.0000 32.0221 0.0000
# 6 0.0000 0.0000 0.0000 0.0000 0.0000 29.8670
#
#
#
# Elastic Compliance Matrix: (Units=1/GPa)
#
#
# Indices 1 2 3 4 5 6 
#
# 1 0.010989 -0.004488 -0.005268 0.000000 0.000000 0.000000
# 2 -0.004488 0.038330 -0.005159 0.000000 0.000000 0.000000
# 3 -0.005268 -0.005159 0.011611 0.000000 0.000000 0.000000
# 4 0.000000 0.000000 0.000000 0.039163 0.000000 0.000000
# 5 0.000000 0.000000 0.000000 0.000000 0.031228 0.000000
# 6 0.000000 0.000000 0.000000 0.000000 0.000000 0.033482
#
#
# Mechanical properties :
#
#
# Convention : Reuss Voigt Hill
#
# Bulk Modulus (GPa) = 32.15636 61.39077 46.77357
# Shear Modulus (GPa) = 24.39022 29.14549 26.76786
#
# Velocity S-wave (km/s) = 3.46130 3.78371 3.62609
# Velocity P-wave (km/s) = 5.63645 7.01742 6.36450
#
# Compressibility (1/GPa) = 0.03109805
#
# Stress axis : x y z
#
# Youngs Moduli (GPa) = 90.99869 26.08955 86.12790
#
# Poissons Ratio (x) = 0.11710 0.45371
# Poissons Ratio (y) = 0.40844 0.44436
# Poissons Ratio (z) = 0.47937 0.13460
#
# Static dielectric constant tensor:
#      x y z
#    x 3.952690 0.000000 0.000000 
#    y 0.000000 3.544360 0.000000 
#    z 0.000000 0.000000 3.976570 
# 
# 
# High freq. dielectric constant tensor:
#      x y z
#    x 1.806280 0.000000 0.000000 
#    y 0.000000 1.768420 0.000000 
#    z 0.000000 0.000000 1.803820 
# 
# From -- ./inp_files/20863.got.cif
#   From: 2010.03.12/outbox.cif.g09.slc.cpg/sg62_11_cif.got.tgz:20863.got - 2010.04.10 19:12:36.
