data_PCOD8251120
_publ_section_title
;
Structure prediction by ZEFSAII (Michael W. Deem and Ramdas Pophale) SiO2 
 PCOD8251120
Probable space group: P N M A
;
_chemical_formula_sum "Si O2"
_cell_formula_units_Z 48
_cell_length_a 14.041892
_cell_length_b 9.517480
_cell_length_c 19.097292
_cell_angle_alpha 90.000000
_cell_angle_beta 90.000000
_cell_angle_gamma 90.000000
_cell_volume 2552.227535
_symmetry_space_group_name_H-M "P N M A"
_symmetry_group_IT_number 62
_symmetry_cell_setting 'orthorhombic'
loop_
_space_group_symop_operation_xyz
x,y,z
1/2-x,-y,1/2+z
1/2+x,1/2-y,1/2-z
-x,1/2+y,-z
-x,-y,-z
1/2+x,y,1/2-z
1/2-x,1/2+y,1/2+z
x,1/2-y,z
loop_
_atom_site_type_symbol
_atom_site_label
_atom_site_fract_x
_atom_site_fract_y
_atom_site_fract_z
Si Si1 0.353989 0.915813 0.136865
Si Si2 0.550932 0.912383 0.401078
Si Si3 0.869928 0.907055 0.022774
Si Si4 0.567779 0.915721 0.143122
Si Si5 0.841379 0.410734 0.504721
Si Si6 0.825700 0.083670 0.775457
O O1 0.341520 0.750000 0.123140
O O2 0.459437 0.951918 0.165568
O O3 0.276258 0.970052 0.194188
O O4 0.339750 0.993372 0.063387
O O5 0.576185 0.750000 0.409075
O O6 0.437822 0.942547 0.410405
O O7 0.588326 0.965344 0.326336
O O8 0.611320 0.987494 0.460369
O O9 0.894744 0.750000 0.996211
O O10 0.760335 0.917499 0.044483
O O11 0.583094 0.750000 0.140562
O O12 0.586560 0.971814 0.063945
O O13 0.643147 0.979673 0.199762
O O14 0.865760 0.250000 0.482873
O O15 0.820907 0.250000 0.769271
#
# Coordination Sequence:
#
# PCOD8251120 Si02
#       6
#     8   8   8   8   8   8
#     4  10  19  33  54  74  95 129 167 203 245 291
#     4   9  16  28  46  69  96 124 159 198 237 283
#     4   9  17  27  44  70  96 125 157 194 241 286
#     4   9  19  32  48  74 102 127 163 206 246 290
#     4  10  19  32  50  73 101 131 164 203 245 293
#     4   9  17  30  49  73  98 125 161 206 248 286
#
# _framework density 18.807100999999999
#
# number of rings (size 3 to 8) (size 9 to 14) (size 15 to 20)
#    0.000    2.667    1.667    0.500    0.000    1.333 
#    0.000    6.667    0.000    4.000    0.000    2.333 
#    0.000    0.000    0.000    0.000    0.000    0.000 
#
# Total GULP energy -594679.800784 kJ/mol
# GULP energy per Si atom -12389.162516 kJ/mol
# Density = 1.876429 g / cm^3
# Si number density = 18.807101 Si / 1000 Ang^3
#
#
#
# Elastic Constant Matrix: (Units=GPa)
#
#
# Indices 1 2 3 4 5 6 
#
# 1 106.2814 17.4407 59.4602 0.0000 0.0000 0.0000
# 2 17.4407 25.0557 17.3199 0.0000 0.0000 0.0000
# 3 59.4602 17.3199 107.2716 0.0000 0.0000 0.0000
# 4 0.0000 0.0000 0.0000 19.3888 0.0000 0.0000
# 5 0.0000 0.0000 0.0000 0.0000 26.9435 0.0000
# 6 0.0000 0.0000 0.0000 0.0000 0.0000 14.3983
#
#
#
# Elastic Compliance Matrix: (Units=1/GPa)
#
#
# Indices 1 2 3 4 5 6 
#
# 1 0.014172 -0.004992 -0.007050 0.000000 0.000000 0.000000
# 2 -0.004992 0.046683 -0.004771 0.000000 0.000000 0.000000
# 3 -0.007050 -0.004771 0.014000 0.000000 0.000000 0.000000
# 4 0.000000 0.000000 0.000000 0.051576 0.000000 0.000000
# 5 0.000000 0.000000 0.000000 0.000000 0.037115 0.000000
# 6 0.000000 0.000000 0.000000 0.000000 0.000000 0.069453
#
#
# Mechanical properties :
#
#
# Convention : Reuss Voigt Hill
#
# Bulk Modulus (GPa) = 24.25322 47.45004 35.85163
# Shear Modulus (GPa) = 17.83379 21.77197 19.80288
#
# Velocity S-wave (km/s) = 3.08270 3.40611 3.24843
# Velocity P-wave (km/s) = 5.05910 6.38384 5.75969
#
# Compressibility (1/GPa) = 0.04123164
#
# Stress axis : x y z
#
# Youngs Moduli (GPa) = 70.56127 21.42091 71.42899
#
# Poissons Ratio (x) = 0.10693 0.50354
# Poissons Ratio (y) = 0.35223 0.34075
# Poissons Ratio (z) = 0.49743 0.10219
#
# Static dielectric constant tensor:
#      x y z
#    x 3.832730 0.000000 0.000000 
#    y 0.000000 3.112510 0.000000 
#    z 0.000000 0.000000 3.511020 
# 
# 
# High freq. dielectric constant tensor:
#      x y z
#    x 1.748540 0.000000 0.000000 
#    y 0.000000 1.682520 0.000000 
#    z 0.000000 0.000000 1.718140 
# 
# From -- ./inp_files/23704.got.cif
#   From: 2010.03.12/outbox.cif.g09.slc.cpg/sg62_12_cif.got.tgz:23704.got - 2010.04.10 19:12:36.
