data_PCOD8251216
_publ_section_title
;
Structure prediction by ZEFSAII (Michael W. Deem and Ramdas Pophale) SiO2 
 PCOD8251216
Probable space group: P N M A
;
_chemical_formula_sum "Si O2"
_cell_formula_units_Z 64
_cell_length_a 20.640011
_cell_length_b 9.057094
_cell_length_c 19.173473
_cell_angle_alpha 90.000000
_cell_angle_beta 90.000000
_cell_angle_gamma 90.000000
_cell_volume 3584.260662
_symmetry_space_group_name_H-M "P N M A"
_symmetry_group_IT_number 62
_symmetry_cell_setting 'orthorhombic'
loop_
_space_group_symop_operation_xyz
x,y,z
1/2-x,-y,1/2+z
1/2+x,1/2-y,1/2-z
-x,1/2+y,-z
-x,-y,-z
1/2+x,y,1/2-z
1/2-x,1/2+y,1/2+z
x,1/2-y,z
loop_
_atom_site_type_symbol
_atom_site_label
_atom_site_fract_x
_atom_site_fract_y
_atom_site_fract_z
Si Si1 0.861668 0.079329 0.180105
Si Si2 0.684101 0.424997 0.965928
Si Si3 0.181782 0.574833 0.969646
Si Si4 0.362193 0.577847 0.181009
Si Si5 0.010136 0.081980 0.185084
Si Si6 0.939928 0.921076 0.964632
Si Si7 0.513143 0.577864 0.178318
Si Si8 0.443868 0.574231 0.955729
O O1 0.851620 0.250000 0.195458
O O2 0.821362 0.030083 0.111935
O O3 0.936498 0.040553 0.164553
O O4 0.835387 0.996632 0.248650
O O5 0.683920 0.250000 0.964182
O O6 0.750348 0.483642 0.999773
O O7 0.624367 0.479273 0.012799
O O8 0.676579 0.483596 0.886377
O O9 0.172515 0.750000 0.978149
O O10 0.126506 0.494706 0.012858
O O11 0.351375 0.750000 0.190688
O O12 0.437497 0.540907 0.168621
O O13 0.012912 0.250000 0.212545
O O14 0.055498 0.059739 0.118491
O O15 0.035977 0.973459 0.245176
O O16 0.941164 0.750000 0.986388
O O17 0.000000 0.000000 0.000000
O O18 0.527742 0.750000 0.168210
O O19 0.553836 0.483805 0.123056
O O20 0.451957 0.750000 0.958504
O O21 0.500000 0.500000 0.000000
#
# Coordination Sequence:
#
# PCOD8251216 Si02
#       8
#     8   8   8   8   8   8   8   8
#     4   9  17  31  51  77 103 134 176 219 265 317
#     4   9  19  36  56  77 107 145 183 218 269 329
#     4  10  20  37  57  78 108 146 183 221 267 326
#     4   9  17  32  52  76 103 136 179 221 264 322
#     4   9  18  33  51  77 108 139 176 220 267 320
#     4  11  21  35  56  82 111 140 178 224 269 319
#     4  10  19  32  52  81 109 137 178 227 274 323
#     4  11  20  34  55  80 108 143 181 224 272 323
#
# _framework density 17.855844000000001
#
# number of rings (size 3 to 8) (size 9 to 14) (size 15 to 20)
#    0.000    2.250    2.500    1.125    0.000    2.000 
#    0.000    3.125    0.000    4.500    0.000    0.000 
#    0.000    0.000    0.000    0.000    0.000    0.000 
#
# Total GULP energy -793631.051524 kJ/mol
# GULP energy per Si atom -12400.485180 kJ/mol
# Density = 1.781520 g / cm^3
# Si number density = 17.855844 Si / 1000 Ang^3
#
#
#
# Elastic Constant Matrix: (Units=GPa)
#
#
# Indices 1 2 3 4 5 6 
#
# 1 115.8004 44.0835 74.8919 0.0000 0.0000 0.0000
# 2 44.0835 62.6340 53.6440 0.0000 0.0000 0.0000
# 3 74.8919 53.6440 157.5724 0.0000 0.0000 0.0000
# 4 0.0000 0.0000 0.0000 35.4704 0.0000 0.0000
# 5 0.0000 0.0000 0.0000 0.0000 28.2398 0.0000
# 6 0.0000 0.0000 0.0000 0.0000 0.0000 19.3097
#
#
#
# Elastic Compliance Matrix: (Units=1/GPa)
#
#
# Indices 1 2 3 4 5 6 
#
# 1 0.013809 -0.005784 -0.004594 0.000000 0.000000 0.000000
# 2 -0.005784 0.024960 -0.005748 0.000000 0.000000 0.000000
# 3 -0.004594 -0.005748 0.010487 0.000000 0.000000 0.000000
# 4 0.000000 0.000000 0.000000 0.028193 0.000000 0.000000
# 5 0.000000 0.000000 0.000000 0.000000 0.035411 0.000000
# 6 0.000000 0.000000 0.000000 0.000000 0.000000 0.051787
#
#
# Mechanical properties :
#
#
# Convention : Reuss Voigt Hill
#
# Bulk Modulus (GPa) = 58.81487 75.69396 67.25441
# Shear Modulus (GPa) = 24.68328 27.49648 26.08988
#
# Velocity S-wave (km/s) = 3.72205 3.92843 3.82663
# Velocity P-wave (km/s) = 7.17508 7.94106 7.56777
#
# Compressibility (1/GPa) = 0.01700250
#
# Stress axis : x y z
#
# Youngs Moduli (GPa) = 72.41911 40.06394 95.36028
#
# Poissons Ratio (x) = 0.23175 0.43806
# Poissons Ratio (y) = 0.41890 0.54815
# Poissons Ratio (z) = 0.33268 0.23030
#
# Static dielectric constant tensor:
#      x y z
#    x 3.341810 0.000000 0.000000 
#    y 0.000000 3.242110 0.000000 
#    z 0.000000 0.000000 3.590840 
# 
# 
# High freq. dielectric constant tensor:
#      x y z
#    x 1.661920 0.000000 0.000000 
#    y 0.000000 1.682550 0.000000 
#    z 0.000000 0.000000 1.707580 
# 
# From -- ./inp_files/24821.got.cif
#   From: 2010.03.12/outbox.cif.g09.slc.cpg/sg62_13_cif.got.tgz:24821.got - 2010.04.10 19:12:36.
