data_PCOD8251872
_publ_section_title
;
Structure prediction by ZEFSAII (Michael W. Deem and Ramdas Pophale) SiO2 
 PCOD8251872
Probable space group: P N M A
;
_chemical_formula_sum "Si O2"
_cell_formula_units_Z 48
_cell_length_a 9.935084
_cell_length_b 27.642798
_cell_length_c 8.623231
_cell_angle_alpha 90.000000
_cell_angle_beta 90.000000
_cell_angle_gamma 90.000000
_cell_volume 2368.228284
_symmetry_space_group_name_H-M "P N M A"
_symmetry_group_IT_number 62
_symmetry_cell_setting 'orthorhombic'
loop_
_space_group_symop_operation_xyz
x,y,z
1/2-x,-y,1/2+z
1/2+x,1/2-y,1/2-z
-x,1/2+y,-z
-x,-y,-z
1/2+x,y,1/2-z
1/2-x,1/2+y,1/2+z
x,1/2-y,z
loop_
_atom_site_type_symbol
_atom_site_label
_atom_site_fract_x
_atom_site_fract_y
_atom_site_fract_z
Si Si1 0.258536 0.857701 0.551612
Si Si2 0.998154 0.302136 0.414405
Si Si3 0.356737 0.050009 0.887458
Si Si4 0.229198 0.130150 0.412674
Si Si5 0.517717 0.695582 0.552939
Si Si6 0.836234 0.539428 0.393796
O O1 0.155068 0.813410 0.545689
O O2 0.205175 0.899478 0.441304
O O3 0.271610 0.877389 0.727546
O O4 0.395848 0.835806 0.479973
O O5 0.034909 0.250000 0.488262
O O6 0.018976 0.298528 0.231418
O O7 0.095148 0.343904 0.476637
O O8 0.265812 0.031585 0.746897
O O9 0.513988 0.055794 0.838822
O O10 0.346948 0.012436 0.026923
O O11 0.349502 0.163941 0.472804
O O12 0.232451 0.077610 0.489315
O O13 0.532834 0.750000 0.480409
#
# Coordination Sequence:
#
# PCOD8251872 Si02
#       6
#     8   8   8   8   8   8
#     4  10  19  35  59  89 122 159 197 246 295 343
#     4   9  16  30  54  85 120 157 200 245 292 339
#     4  11  25  44  64  89 119 153 196 244 299 359
#     4  10  19  35  59  89 122 159 197 246 295 343
#     4   9  18  30  54  91 124 155 200 247 288 341
#     4  11  25  44  64  89 119 153 196 244 299 359
#
# _framework density 20.268315000000001
#
# number of rings (size 3 to 8) (size 9 to 14) (size 15 to 20)
#    0.000    2.000    1.667    2.000    2.333    4.667 
#    0.000    0.000    0.000    6.000    0.000    0.000 
#    0.000    0.000    0.000    0.000    0.000    0.000 
#
# Total GULP energy -595058.030468 kJ/mol
# GULP energy per Si atom -12397.042301 kJ/mol
# Density = 2.022218 g / cm^3
# Si number density = 20.268315 Si / 1000 Ang^3
#
#
#
# Elastic Constant Matrix: (Units=GPa)
#
#
# Indices 1 2 3 4 5 6 
#
# 1 119.8827 12.9010 22.2670 0.0000 0.0000 0.0000
# 2 12.9010 69.8953 1.2877 0.0000 0.0000 0.0000
# 3 22.2670 1.2877 36.1660 0.0000 0.0000 0.0000
# 4 0.0000 0.0000 0.0000 12.0667 0.0000 0.0000
# 5 0.0000 0.0000 0.0000 0.0000 23.7391 0.0000
# 6 0.0000 0.0000 0.0000 0.0000 0.0000 16.9859
#
#
#
# Elastic Compliance Matrix: (Units=1/GPa)
#
#
# Indices 1 2 3 4 5 6 
#
# 1 0.009609 -0.001666 -0.005857 0.000000 0.000000 0.000000
# 2 -0.001666 0.014605 0.000505 0.000000 0.000000 0.000000
# 3 -0.005857 0.000505 0.031238 0.000000 0.000000 0.000000
# 4 0.000000 0.000000 0.000000 0.082872 0.000000 0.000000
# 5 0.000000 0.000000 0.000000 0.000000 0.042125 0.000000
# 6 0.000000 0.000000 0.000000 0.000000 0.000000 0.058872
#
#
# Mechanical properties :
#
#
# Convention : Reuss Voigt Hill
#
# Bulk Modulus (GPa) = 24.14382 33.20615 28.67499
# Shear Modulus (GPa) = 18.71532 23.19090 20.95311
#
# Velocity S-wave (km/s) = 3.04201 3.38626 3.21874
# Velocity P-wave (km/s) = 4.92711 5.63098 5.29076
#
# Compressibility (1/GPa) = 0.04141847
#
# Stress axis : x y z
#
# Youngs Moduli (GPa) = 104.07428 68.46857 32.01225
#
# Poissons Ratio (x) = 0.11404 0.18748
# Poissons Ratio (y) = 0.17335 -0.01618
# Poissons Ratio (z) = 0.60952 -0.03461
#
# Static dielectric constant tensor:
#      x y z
#    x 3.920030 0.000000 0.000000 
#    y 0.000000 3.763900 0.000000 
#    z 0.000000 0.000000 3.200330 
# 
# 
# High freq. dielectric constant tensor:
#      x y z
#    x 1.808370 0.000000 0.000000 
#    y 0.000000 1.806760 0.000000 
#    z 0.000000 0.000000 1.742150 
# 
# From -- ./inp_files/4546.got.cif
#   From: 2010.03.12/outbox.cif.g09.slc.cpg/sg62_3_cif.got.tgz:4546.got - 2010.04.10 19:12:36.
