data_PCOD8251788
_publ_section_title
;
Structure prediction by ZEFSAII (Michael W. Deem and Ramdas Pophale) SiO2 
 PCOD8251788
Probable space group: P N M A
;
_chemical_formula_sum "Si O2"
_cell_formula_units_Z 48
_cell_length_a 9.415926
_cell_length_b 8.879025
_cell_length_c 30.580359
_cell_angle_alpha 90.000000
_cell_angle_beta 90.000000
_cell_angle_gamma 90.000000
_cell_volume 2556.647745
_symmetry_space_group_name_H-M "P N M A"
_symmetry_group_IT_number 62
_symmetry_cell_setting 'orthorhombic'
loop_
_space_group_symop_operation_xyz
x,y,z
1/2-x,-y,1/2+z
1/2+x,1/2-y,1/2-z
-x,1/2+y,-z
-x,-y,-z
1/2+x,y,1/2-z
1/2-x,1/2+y,1/2+z
x,1/2-y,z
loop_
_atom_site_type_symbol
_atom_site_label
_atom_site_fract_x
_atom_site_fract_y
_atom_site_fract_z
Si Si1 0.586509 0.070276 0.707390
Si Si2 0.900908 0.929867 0.865935
Si Si3 0.912152 0.919318 0.963294
Si Si4 0.897521 0.571086 0.369612
Si Si5 0.590652 0.572257 0.209858
Si Si6 0.915943 0.422534 0.461457
O O1 0.577924 0.250000 0.702050
O O2 0.498976 0.009953 0.749110
O O3 0.748243 0.012851 0.712192
O O4 0.523905 0.991281 0.664749
O O5 0.886940 0.750000 0.863795
O O6 0.939879 0.985671 0.914905
O O7 0.749870 0.000768 0.852699
O O8 0.965937 0.750000 0.963810
O O9 0.747439 0.933014 0.974813
O O10 0.000000 0.000000 0.000000
O O11 0.880352 0.750000 0.372033
O O12 0.946332 0.508315 0.416310
O O13 0.017837 0.520598 0.335199
O O14 0.590283 0.750000 0.213048
O O15 0.964484 0.250000 0.455822
O O16 0.000000 0.500000 0.500000
#
# Coordination Sequence:
#
# PCOD8251788 Si02
#       6
#     8   8   8   8   8   8
#     4  10  19  35  57  80 105 139 178 219 263 314
#     4  10  21  37  53  77 110 142 176 219 266 319
#     4   9  20  36  54  76 105 137 176 221 265 314
#     4  10  19  35  58  82 107 141 180 223 272 322
#     4   9  19  34  56  83 108 135 178 225 266 315
#     4  10  21  37  55  80 111 144 181 223 267 320
#
# _framework density 18.774584999999998
#
# number of rings (size 3 to 8) (size 9 to 14) (size 15 to 20)
#    0.000    2.333    0.000    3.500    0.000    8.000 
#    0.000   10.833    0.000    0.000    0.000    0.000 
#    0.000    0.000    0.000    0.000    0.000    0.000 
#
# Total GULP energy -595219.557742 kJ/mol
# GULP energy per Si atom -12400.407453 kJ/mol
# Density = 1.873185 g / cm^3
# Si number density = 18.774585 Si / 1000 Ang^3
#
#
#
# Elastic Constant Matrix: (Units=GPa)
#
#
# Indices 1 2 3 4 5 6 
#
# 1 137.9184 43.6076 93.5920 0.0000 0.0000 0.0000
# 2 43.6076 72.7855 45.3469 0.0000 0.0000 0.0000
# 3 93.5920 45.3469 136.0056 0.0000 0.0000 0.0000
# 4 0.0000 0.0000 0.0000 29.2889 0.0000 0.0000
# 5 0.0000 0.0000 0.0000 0.0000 44.5461 0.0000
# 6 0.0000 0.0000 0.0000 0.0000 0.0000 26.4650
#
#
#
# Elastic Compliance Matrix: (Units=1/GPa)
#
#
# Indices 1 2 3 4 5 6 
#
# 1 0.014115 -0.003036 -0.008701 0.000000 0.000000 0.000000
# 2 -0.003036 0.017994 -0.003911 0.000000 0.000000 0.000000
# 3 -0.008701 -0.003911 0.014644 0.000000 0.000000 0.000000
# 4 0.000000 0.000000 0.000000 0.034143 0.000000 0.000000
# 5 0.000000 0.000000 0.000000 0.000000 0.022449 0.000000
# 6 0.000000 0.000000 0.000000 0.000000 0.000000 0.037786
#
#
# Mechanical properties :
#
#
# Convention : Reuss Voigt Hill
#
# Bulk Modulus (GPa) = 64.68894 79.08915 71.88905
# Shear Modulus (GPa) = 28.15660 31.00420 29.58040
#
# Velocity S-wave (km/s) = 3.87682 4.06814 3.97363
# Velocity P-wave (km/s) = 7.38715 8.01770 7.70888
#
# Compressibility (1/GPa) = 0.01545859
#
# Stress axis : x y z
#
# Youngs Moduli (GPa) = 70.84587 55.57366 68.28659
#
# Poissons Ratio (x) = 0.16871 0.59417
# Poissons Ratio (y) = 0.21507 0.26704
# Poissons Ratio (z) = 0.61644 0.21732
#
# Static dielectric constant tensor:
#      x y z
#    x 3.557540 0.000000 0.000000 
#    y 0.000000 3.356810 0.000000 
#    z 0.000000 0.000000 3.570110 
# 
# 
# High freq. dielectric constant tensor:
#      x y z
#    x 1.730450 0.000000 0.000000 
#    y 0.000000 1.717250 0.000000 
#    z 0.000000 0.000000 1.742850 
# 
# From -- ./inp_files/31969.got.cif
#   From: 2010.03.12/outbox.cif.g09.slc.cpg/sg62_16_cif.got.tgz:31969.got - 2010.04.10 19:12:36.
