data_PCOD8251794
_publ_section_title
;
Structure prediction by ZEFSAII (Michael W. Deem and Ramdas Pophale) SiO2 
 PCOD8251794
Probable space group: P N M A
;
_chemical_formula_sum "Si O2"
_cell_formula_units_Z 48
_cell_length_a 15.021661
_cell_length_b 8.598319
_cell_length_c 20.114385
_cell_angle_alpha 90.000000
_cell_angle_beta 90.000000
_cell_angle_gamma 90.000000
_cell_volume 2597.994749
_symmetry_space_group_name_H-M "P N M A"
_symmetry_group_IT_number 62
_symmetry_cell_setting 'orthorhombic'
loop_
_space_group_symop_operation_xyz
x,y,z
1/2-x,-y,1/2+z
1/2+x,1/2-y,1/2-z
-x,1/2+y,-z
-x,-y,-z
1/2+x,y,1/2-z
1/2-x,1/2+y,1/2+z
x,1/2-y,z
loop_
_atom_site_type_symbol
_atom_site_label
_atom_site_fract_x
_atom_site_fract_y
_atom_site_fract_z
Si Si1 0.195500 0.433490 0.661202
Si Si2 0.432911 0.434028 0.945895
Si Si3 0.417022 0.933948 0.538980
Si Si4 0.109461 0.564856 0.182440
Si Si5 0.231180 0.434498 0.513330
Si Si6 0.994542 0.564955 0.304977
O O1 0.188027 0.250000 0.659948
O O2 0.287504 0.484235 0.696886
O O3 0.195759 0.491896 0.585115
O O4 0.107596 0.499030 0.698453
O O5 0.436251 0.250000 0.949828
O O6 0.461155 0.493981 0.873112
O O7 0.500000 0.500000 0.000000
O O8 0.333170 0.494627 0.957666
O O9 0.415637 0.750000 0.535317
O O10 0.500000 0.000000 0.500000
O O11 0.424363 0.987771 0.615054
O O12 0.329890 0.000606 0.502427
O O13 0.102161 0.750000 0.174227
O O14 0.049589 0.498691 0.242474
O O15 0.232824 0.250000 0.507563
O O16 0.996860 0.750000 0.302141
#
# Coordination Sequence:
#
# PCOD8251794 Si02
#       6
#     8   8   8   8   8   8
#     4   8  14  28  51  74 100 140 182 221 269 323
#     4  11  20  32  52  82 115 150 192 233 279 333
#     4  11  22  39  61  84 111 144 185 229 277 337
#     4   9  18  34  56  79 107 145 188 230 275 327
#     4  10  19  35  57  81 111 144 182 232 282 331
#     4   9  17  31  51  78 110 147 189 229 273 334
#
# _framework density 18.475787
#
# number of rings (size 3 to 8) (size 9 to 14) (size 15 to 20)
#    0.000    2.333    1.667    3.500    0.000    0.000 
#    3.000    1.667    0.000    0.000    0.000    0.000 
#    0.000    0.000    0.000    0.000    0.000    0.000 
#
# Total GULP energy -595056.407190 kJ/mol
# GULP energy per Si atom -12397.008483 kJ/mol
# Density = 1.843374 g / cm^3
# Si number density = 18.475787 Si / 1000 Ang^3
#
#
#
# Elastic Constant Matrix: (Units=GPa)
#
#
# Indices 1 2 3 4 5 6 
#
# 1 178.4367 24.5342 79.0651 0.0000 0.0000 0.0000
# 2 24.5342 56.0553 19.8305 0.0000 0.0000 0.0000
# 3 79.0651 19.8305 85.6776 0.0000 0.0000 0.0000
# 4 0.0000 0.0000 0.0000 22.3098 0.0000 0.0000
# 5 0.0000 0.0000 0.0000 0.0000 38.7956 0.0000
# 6 0.0000 0.0000 0.0000 0.0000 0.0000 26.2654
#
#
#
# Elastic Compliance Matrix: (Units=1/GPa)
#
#
# Indices 1 2 3 4 5 6 
#
# 1 0.009549 -0.001157 -0.008545 0.000000 0.000000 0.000000
# 2 -0.001157 0.019571 -0.003462 0.000000 0.000000 0.000000
# 3 -0.008545 -0.003462 0.020358 0.000000 0.000000 0.000000
# 4 0.000000 0.000000 0.000000 0.044823 0.000000 0.000000
# 5 0.000000 0.000000 0.000000 0.000000 0.025776 0.000000
# 6 0.000000 0.000000 0.000000 0.000000 0.000000 0.038073
#
#
# Mechanical properties :
#
#
# Convention : Reuss Voigt Hill
#
# Bulk Modulus (GPa) = 43.19479 63.00324 53.09901
# Shear Modulus (GPa) = 26.01525 30.59013 28.30269
#
# Velocity S-wave (km/s) = 3.75650 4.07343 3.91817
# Velocity P-wave (km/s) = 6.49961 7.50321 7.01937
#
# Compressibility (1/GPa) = 0.02315094
#
# Stress axis : x y z
#
# Youngs Moduli (GPa) = 104.71856 51.09700 49.12026
#
# Poissons Ratio (x) = 0.05911 0.41972
# Poissons Ratio (y) = 0.12114 0.17007
# Poissons Ratio (z) = 0.89478 0.17691
#
# Static dielectric constant tensor:
#      x y z
#    x 3.786290 0.000000 0.000000 
#    y 0.000000 3.154930 0.000000 
#    z 0.000000 0.000000 3.223030 
# 
# 
# High freq. dielectric constant tensor:
#      x y z
#    x 1.735340 0.000000 0.000000 
#    y 0.000000 1.692410 0.000000 
#    z 0.000000 0.000000 1.699360 
# 
# From -- ./inp_files/26891.got.cif
#   From: 2010.03.12/outbox.cif.g09.slc.cpg/sg62_14_cif.got.tgz:26891.got - 2010.04.10 19:12:36.
