data_PCOD8251328
_publ_section_title
;
Structure prediction by ZEFSAII (Michael W. Deem and Ramdas Pophale) SiO2 
 PCOD8251328
Probable space group: P N M A
;
_chemical_formula_sum "Si O2"
_cell_formula_units_Z 64
_cell_length_a 14.597115
_cell_length_b 8.940568
_cell_length_c 29.792945
_cell_angle_alpha 90.000000
_cell_angle_beta 90.000000
_cell_angle_gamma 90.000000
_cell_volume 3888.172955
_symmetry_space_group_name_H-M "P N M A"
_symmetry_group_IT_number 62
_symmetry_cell_setting 'orthorhombic'
loop_
_space_group_symop_operation_xyz
x,y,z
1/2-x,-y,1/2+z
1/2+x,1/2-y,1/2-z
-x,1/2+y,-z
-x,-y,-z
1/2+x,y,1/2-z
1/2-x,1/2+y,1/2+z
x,1/2-y,z
loop_
_atom_site_type_symbol
_atom_site_label
_atom_site_fract_x
_atom_site_fract_y
_atom_site_fract_z
Si Si1 0.398609 0.423437 0.544393
Si Si2 0.665317 0.070814 0.195129
Si Si3 0.022093 0.919066 0.825240
Si Si4 0.807617 0.927354 0.137100
Si Si5 0.229627 0.928158 0.715284
Si Si6 0.848535 0.076499 0.858973
Si Si7 0.893674 0.925401 0.044480
Si Si8 0.527788 0.582661 0.778081
O O1 0.403282 0.250000 0.533078
O O2 0.334349 0.452804 0.587798
O O3 0.354156 0.504638 0.501446
O O4 0.502442 0.482873 0.553204
O O5 0.671574 0.250000 0.190626
O O6 0.716550 0.015557 0.240595
O O7 0.559500 0.012759 0.195879
O O8 0.708538 0.989488 0.151742
O O9 0.018020 0.750000 0.844761
O O10 0.996857 0.915760 0.773327
O O11 0.122393 0.988114 0.830160
O O12 0.952211 0.027675 0.849986
O O13 0.814525 0.750000 0.143859
O O14 0.829265 0.974493 0.085885
O O15 0.227474 0.750000 0.716032
O O16 0.126170 0.997881 0.714854
O O17 0.277458 0.980820 0.669620
O O18 0.837270 0.250000 0.846712
O O19 0.891289 0.750000 0.038837
O O20 0.540823 0.750000 0.795959
#
# Coordination Sequence:
#
# PCOD8251328 Si02
#       8
#     8   8   8   8   8   8   8   8
#     4   9  18  32  47  67  97 128 158 196 241 291
#     4  10  19  33  51  71  96 131 172 204 236 284
#     4  11  19  31  50  70  95 134 173 202 236 286
#     4  11  21  33  47  72 104 131 161 204 250 289
#     4  10  19  33  51  71  96 131 172 204 236 284
#     4  11  21  33  47  72 104 131 161 204 250 289
#     4   9  18  32  47  67  97 128 158 196 241 291
#     4   9  18  33  49  68  97 128 167 214 237 264
#
# _framework density 16.460173000000001
#
# number of rings (size 3 to 8) (size 9 to 14) (size 15 to 20)
#    0.000    2.000    3.750    1.125    0.000    2.500 
#    0.000    0.625    0.000    0.000    0.000    0.875 
#    0.000    0.000    0.000    0.000    0.000    0.000 
#
# Total GULP energy -793313.492989 kJ/mol
# GULP energy per Si atom -12395.523328 kJ/mol
# Density = 1.642271 g / cm^3
# Si number density = 16.460173 Si / 1000 Ang^3
#
#
#
# Elastic Constant Matrix: (Units=GPa)
#
#
# Indices 1 2 3 4 5 6 
#
# 1 73.2689 12.3703 25.2905 0.0000 0.0000 0.0000
# 2 12.3703 23.7694 19.7710 0.0000 0.0000 0.0000
# 3 25.2905 19.7710 79.7265 0.0000 0.0000 0.0000
# 4 0.0000 0.0000 0.0000 26.4843 0.0000 0.0000
# 5 0.0000 0.0000 0.0000 0.0000 22.5425 0.0000
# 6 0.0000 0.0000 0.0000 0.0000 0.0000 20.3495
#
#
#
# Elastic Compliance Matrix: (Units=1/GPa)
#
#
# Indices 1 2 3 4 5 6 
#
# 1 0.015804 -0.005109 -0.003746 0.000000 0.000000 0.000000
# 2 -0.005109 0.054656 -0.011933 0.000000 0.000000 0.000000
# 3 -0.003746 -0.011933 0.016691 0.000000 0.000000 0.000000
# 4 0.000000 0.000000 0.000000 0.037758 0.000000 0.000000
# 5 0.000000 0.000000 0.000000 0.000000 0.044361 0.000000
# 6 0.000000 0.000000 0.000000 0.000000 0.000000 0.049141
#
#
# Mechanical properties :
#
#
# Convention : Reuss Voigt Hill
#
# Bulk Modulus (GPa) = 21.94256 32.40316 27.17286
# Shear Modulus (GPa) = 18.17004 21.83078 20.00041
#
# Velocity S-wave (km/s) = 3.32607 3.64576 3.48958
# Velocity P-wave (km/s) = 5.30188 6.11969 5.72541
#
# Compressibility (1/GPa) = 0.04557353
#
# Stress axis : x y z
#
# Youngs Moduli (GPa) = 63.27497 18.29638 59.91398
#
# Poissons Ratio (x) = 0.09347 0.22446
# Poissons Ratio (y) = 0.32325 0.71497
# Poissons Ratio (z) = 0.23705 0.21834
#
# Static dielectric constant tensor:
#      x y z
#    x 3.085540 0.000000 0.000000 
#    y 0.000000 2.968120 0.000000 
#    z 0.000000 0.000000 3.066690 
# 
# 
# High freq. dielectric constant tensor:
#      x y z
#    x 1.611380 0.000000 0.000000 
#    y 0.000000 1.624310 0.000000 
#    z 0.000000 0.000000 1.622490 
# 
# From -- ./inp_files/32709.got.cif
#   From: 2010.03.12/outbox.cif.g09.slc.cpg/sg62_17_cif.got.tgz:32709.got - 2010.04.10 19:12:36.
