data_PCOD8251967
_publ_section_title
;
Structure prediction by ZEFSAII (Michael W. Deem and Ramdas Pophale) SiO2 
 PCOD8251967
Probable space group: P N M A
;
_chemical_formula_sum "Si O2"
_cell_formula_units_Z 64
_cell_length_a 28.381795
_cell_length_b 8.797172
_cell_length_c 12.908192
_cell_angle_alpha 90.000000
_cell_angle_beta 90.000000
_cell_angle_gamma 90.000000
_cell_volume 3222.911341
_symmetry_space_group_name_H-M "P N M A"
_symmetry_group_IT_number 62
_symmetry_cell_setting 'orthorhombic'
loop_
_space_group_symop_operation_xyz
x,y,z
1/2-x,-y,1/2+z
1/2+x,1/2-y,1/2-z
-x,1/2+y,-z
-x,-y,-z
1/2+x,y,1/2-z
1/2-x,1/2+y,1/2+z
x,1/2-y,z
loop_
_atom_site_type_symbol
_atom_site_label
_atom_site_fract_x
_atom_site_fract_y
_atom_site_fract_z
Si Si1 0.575930 0.418734 0.909260
Si Si2 0.291633 0.429673 0.957672
Si Si3 0.700735 0.570875 0.629231
Si Si4 0.604301 0.927913 0.107425
Si Si5 0.613014 0.069475 0.527876
Si Si6 0.568115 0.570239 0.328995
Si Si7 0.538583 0.070137 0.696847
Si Si8 0.182950 0.079809 0.658949
O O1 0.555983 0.250000 0.929034
O O2 0.548376 0.496686 0.812385
O O3 0.630227 0.412516 0.880137
O O4 0.570294 0.509888 0.016383
O O5 0.287552 0.250000 0.970700
O O6 0.251255 0.492593 0.883749
O O7 0.341512 0.477356 0.907382
O O8 0.284681 0.507595 0.069562
O O9 0.705138 0.750000 0.614645
O O10 0.663718 0.505429 0.546531
O O11 0.683572 0.530479 0.743459
O O12 0.598488 0.750000 0.102749
O O13 0.586702 0.988257 0.218113
O O14 0.617958 0.250000 0.534584
O O15 0.575825 0.006396 0.613081
O O16 0.596553 0.021404 0.414599
O O17 0.575909 0.750000 0.343511
O O18 0.513392 0.525104 0.340020
O O19 0.545095 0.250000 0.704657
O O20 0.201127 0.250000 0.686503
#
# Coordination Sequence:
#
# PCOD8251967 Si02
#       8
#     8   8   8   8   8   8   8   8
#     4   9  17  33  58  83 111 150 193 236 285 341
#     4  10  21  38  58  83 115 152 193 239 295 355
#     4  12  24  38  59  87 114 149 197 244 297 356
#     4   9  20  37  56  82 117 153 189 237 292 345
#     4  11  22  39  59  83 116 152 197 247 298 352
#     4  10  21  38  58  83 120 160 196 238 293 355
#     4   9  18  35  59  85 115 154 195 242 297 348
#     4  10  19  36  59  83 114 149 188 239 293 344
#
# _framework density 19.857821000000001
#
# number of rings (size 3 to 8) (size 9 to 14) (size 15 to 20)
#    0.000    2.000    1.250    2.625    0.000    3.000 
#    0.000    5.000    0.000    0.000    0.000    0.000 
#    0.000    0.000    0.000    0.000    0.000    0.000 
#
# Total GULP energy -793660.150929 kJ/mol
# GULP energy per Si atom -12400.939858 kJ/mol
# Density = 1.981262 g / cm^3
# Si number density = 19.857821 Si / 1000 Ang^3
#
#
#
# Elastic Constant Matrix: (Units=GPa)
#
#
# Indices 1 2 3 4 5 6 
#
# 1 44.5443 24.0580 17.1804 0.0000 0.0000 0.0000
# 2 24.0580 50.5212 17.6688 0.0000 0.0000 0.0000
# 3 17.1804 17.6688 114.1019 0.0000 0.0000 0.0000
# 4 0.0000 0.0000 0.0000 34.5492 0.0000 0.0000
# 5 0.0000 0.0000 0.0000 0.0000 20.9452 0.0000
# 6 0.0000 0.0000 0.0000 0.0000 0.0000 20.2404
#
#
#
# Elastic Compliance Matrix: (Units=1/GPa)
#
#
# Indices 1 2 3 4 5 6 
#
# 1 0.030887 -0.013831 -0.002509 0.000000 0.000000 0.000000
# 2 -0.013831 0.027120 -0.002117 0.000000 0.000000 0.000000
# 3 -0.002509 -0.002117 0.009470 0.000000 0.000000 0.000000
# 4 0.000000 0.000000 0.000000 0.028944 0.000000 0.000000
# 5 0.000000 0.000000 0.000000 0.000000 0.047744 0.000000
# 6 0.000000 0.000000 0.000000 0.000000 0.000000 0.049406
#
#
# Mechanical properties :
#
#
# Convention : Reuss Voigt Hill
#
# Bulk Modulus (GPa) = 32.71899 36.33132 34.52515
# Shear Modulus (GPa) = 20.77508 25.16432 22.96970
#
# Velocity S-wave (km/s) = 3.23800 3.56367 3.40473
# Velocity P-wave (km/s) = 5.52195 5.93872 5.73412
#
# Compressibility (1/GPa) = 0.03056329
#
# Stress axis : x y z
#
# Youngs Moduli (GPa) = 32.37581 36.87271 105.59994
#
# Poissons Ratio (x) = 0.50998 0.26495
# Poissons Ratio (y) = 0.44779 0.22356
# Poissons Ratio (z) = 0.08123 0.07806
#
# Static dielectric constant tensor:
#      x y z
#    x 3.638720 0.000000 0.000000 
#    y 0.000000 3.567890 0.000000 
#    z 0.000000 0.000000 3.802240 
# 
# 
# High freq. dielectric constant tensor:
#      x y z
#    x 1.770240 0.000000 0.000000 
#    y 0.000000 1.760380 0.000000 
#    z 0.000000 0.000000 1.784470 
# 
# From -- ./inp_files/15864.got.cif
#   From: 2010.03.12/outbox.cif.g09.slc.cpg/sg62_8_cif.got.tgz:15864.got - 2010.04.10 19:12:36.
