data_PCOD8251755
_publ_section_title
;
Structure prediction by ZEFSAII (Michael W. Deem and Ramdas Pophale) SiO2 
 PCOD8251755
Probable space group: P N M A
;
_chemical_formula_sum "Si O2"
_cell_formula_units_Z 64
_cell_length_a 9.304299
_cell_length_b 28.808340
_cell_length_c 13.662960
_cell_angle_alpha 90.000000
_cell_angle_beta 90.000000
_cell_angle_gamma 90.000000
_cell_volume 3662.239050
_symmetry_space_group_name_H-M "P N M A"
_symmetry_group_IT_number 62
_symmetry_cell_setting 'orthorhombic'
loop_
_space_group_symop_operation_xyz
x,y,z
1/2-x,-y,1/2+z
1/2+x,1/2-y,1/2-z
-x,1/2+y,-z
-x,-y,-z
1/2+x,y,1/2-z
1/2-x,1/2+y,1/2+z
x,1/2-y,z
loop_
_atom_site_type_symbol
_atom_site_label
_atom_site_fract_x
_atom_site_fract_y
_atom_site_fract_z
Si Si1 0.746347 0.618361 0.407558
Si Si2 0.929330 0.197618 0.851450
Si Si3 0.578081 0.547009 0.899218
Si Si4 0.428526 0.119538 0.944833
Si Si5 0.239697 0.697560 0.350449
Si Si6 0.230621 0.025860 0.478266
Si Si7 0.624707 0.998829 0.708508
Si Si8 0.873169 0.061247 0.739767
O O1 0.643500 0.662677 0.430746
O O2 0.719577 0.574509 0.476344
O O3 0.700418 0.603572 0.297783
O O4 0.909791 0.635426 0.419136
O O5 0.915292 0.250000 0.892054
O O6 0.845469 0.192203 0.749928
O O7 0.094508 0.184026 0.832749
O O8 0.420338 0.528353 0.922833
O O9 0.585934 0.544609 0.780375
O O10 0.592203 0.598896 0.945004
O O11 0.706294 0.513577 0.939490
O O12 0.325688 0.163750 0.933020
O O13 0.390210 0.077219 0.872466
O O14 0.226609 0.750000 0.390557
O O15 0.362887 0.015559 0.404915
O O16 0.779696 0.015264 0.744095
O O17 0.524461 0.044455 0.716022
#
# Coordination Sequence:
#
# PCOD8251755 Si02
#       8
#     8   8   8   8   8   8   8   8
#     4  11  22  34  51  76 101 137 177 208 256 304
#     4  10  21  35  51  74 104 132 165 210 257 307
#     4  10  19  35  51  70 102 139 170 210 259 295
#     4  11  21  34  53  73 101 140 174 208 253 309
#     4  10  21  35  52  75 102 133 167 208 258 309
#     4  10  20  35  51  71 101 138 175 211 252 302
#     4  12  21  36  51  70 104 141 177 214 251 294
#     4  12  21  31  50  74 103 139 174 211 249 293
#
# _framework density 17.475646999999999
#
# number of rings (size 3 to 8) (size 9 to 14) (size 15 to 20)
#    0.000    1.250    6.250    1.500    1.750    2.000 
#    2.250    0.000    0.000    0.000    0.000    0.875 
#    0.000    0.000    0.000    0.000    0.000    0.000 
#
# Total GULP energy -793199.833101 kJ/mol
# GULP energy per Si atom -12393.747392 kJ/mol
# Density = 1.743587 g / cm^3
# Si number density = 17.475647 Si / 1000 Ang^3
#
#
#
# Elastic Constant Matrix: (Units=GPa)
#
#
# Indices 1 2 3 4 5 6 
#
# 1 88.6643 50.7303 22.8062 0.0000 0.0000 0.0000
# 2 50.7303 96.3605 20.0677 0.0000 0.0000 0.0000
# 3 22.8062 20.0677 30.7449 0.0000 0.0000 0.0000
# 4 0.0000 0.0000 0.0000 22.8590 0.0000 0.0000
# 5 0.0000 0.0000 0.0000 0.0000 17.8757 0.0000
# 6 0.0000 0.0000 0.0000 0.0000 0.0000 31.8794
#
#
#
# Elastic Compliance Matrix: (Units=1/GPa)
#
#
# Indices 1 2 3 4 5 6 
#
# 1 0.017757 -0.007644 -0.008182 0.000000 0.000000 0.000000
# 2 -0.007644 0.015301 -0.004317 0.000000 0.000000 0.000000
# 3 -0.008182 -0.004317 0.041413 0.000000 0.000000 0.000000
# 4 0.000000 0.000000 0.000000 0.043746 0.000000 0.000000
# 5 0.000000 0.000000 0.000000 0.000000 0.055942 0.000000
# 6 0.000000 0.000000 0.000000 0.000000 0.000000 0.031368
#
#
# Mechanical properties :
#
#
# Convention : Reuss Voigt Hill
#
# Bulk Modulus (GPa) = 29.25339 44.77536 37.01437
# Shear Modulus (GPa) = 19.43942 22.66719 21.05330
#
# Velocity S-wave (km/s) = 3.33884 3.60540 3.47468
# Velocity P-wave (km/s) = 5.62492 6.55813 6.10937
#
# Compressibility (1/GPa) = 0.03418407
#
# Stress axis : x y z
#
# Youngs Moduli (GPa) = 56.31588 65.35435 24.14703
#
# Poissons Ratio (x) = 0.49959 0.19758
# Poissons Ratio (y) = 0.43050 0.10424
# Poissons Ratio (z) = 0.46079 0.28212
#
# Static dielectric constant tensor:
#      x y z
#    x 3.406250 0.000000 0.000000 
#    y 0.000000 3.325070 0.000000 
#    z 0.000000 0.000000 3.090980 
# 
# 
# High freq. dielectric constant tensor:
#      x y z
#    x 1.688870 0.000000 0.000000 
#    y 0.000000 1.662620 0.000000 
#    z 0.000000 0.000000 1.634240 
# 
# From -- ./inp_files/17442.got.cif
#   From: 2010.03.12/outbox.cif.g09.slc.cpg/sg62_9_cif.got.tgz:17442.got - 2010.04.10 19:12:36.
