data_PCOD8251863
_publ_section_title
;
Structure prediction by ZEFSAII (Michael W. Deem and Ramdas Pophale) SiO2 
 PCOD8251863
Probable space group: P N M A
;
_chemical_formula_sum "Si O2"
_cell_formula_units_Z 48
_cell_length_a 29.029523
_cell_length_b 8.880357
_cell_length_c 10.137305
_cell_angle_alpha 90.000000
_cell_angle_beta 90.000000
_cell_angle_gamma 90.000000
_cell_volume 2613.321481
_symmetry_space_group_name_H-M "P N M A"
_symmetry_group_IT_number 62
_symmetry_cell_setting 'orthorhombic'
loop_
_space_group_symop_operation_xyz
x,y,z
1/2-x,-y,1/2+z
1/2+x,1/2-y,1/2-z
-x,1/2+y,-z
-x,-y,-z
1/2+x,y,1/2-z
1/2-x,1/2+y,1/2+z
x,1/2-y,z
loop_
_atom_site_type_symbol
_atom_site_label
_atom_site_fract_x
_atom_site_fract_y
_atom_site_fract_z
Si Si1 0.880516 0.422182 0.220710
Si Si2 0.530348 0.071870 0.112985
Si Si3 0.215822 0.426831 0.490518
Si Si4 0.620087 0.922294 0.027278
Si Si5 0.786161 0.925619 0.206473
Si Si6 0.978843 0.427066 0.127067
O O1 0.866732 0.250000 0.187291
O O2 0.892747 0.436548 0.374287
O O3 0.839250 0.532421 0.180814
O O4 0.925524 0.475968 0.141537
O O5 0.529147 0.250000 0.096185
O O6 0.508707 0.017040 0.249849
O O7 0.582703 0.014310 0.110307
O O8 0.500000 0.000000 0.000000
O O9 0.207774 0.250000 0.476501
O O10 0.170057 0.510377 0.442525
O O11 0.256683 0.478493 0.396014
O O12 0.227515 0.467986 0.642881
O O13 0.619762 0.750000 0.074483
O O14 0.778799 0.750000 0.178168
O O15 0.981904 0.250000 0.114368
O O16 0.000000 0.500000 0.000000
#
# Coordination Sequence:
#
# PCOD8251863 Si02
#       6
#     8   8   8   8   8   8
#     4   9  18  36  58  80 111 149 186 228 277 331
#     4  11  21  36  58  85 114 146 188 233 276 329
#     4  10  21  38  59  85 115 147 185 231 280 334
#     4  10  19  35  59  86 113 145 186 233 281 331
#     4  10  21  37  59  87 112 144 188 230 278 336
#     4  10  22  39  56  81 115 150 188 230 279 333
#
# _framework density 18.367429000000001
#
# number of rings (size 3 to 8) (size 9 to 14) (size 15 to 20)
#    0.000    2.000    1.667    2.000    0.000    4.667 
#    3.000    0.000    0.000    0.000    0.000    0.000 
#    0.000    0.000    0.000    0.000    0.000    0.000 
#
# Total GULP energy -595342.261314 kJ/mol
# GULP energy per Si atom -12402.963777 kJ/mol
# Density = 1.832562 g / cm^3
# Si number density = 18.367429 Si / 1000 Ang^3
#
#
#
# Elastic Constant Matrix: (Units=GPa)
#
#
# Indices 1 2 3 4 5 6 
#
# 1 107.7512 36.1088 68.8494 0.0000 0.0000 0.0000
# 2 36.1088 67.6073 43.1223 0.0000 0.0000 0.0000
# 3 68.8494 43.1223 109.4369 0.0000 0.0000 0.0000
# 4 0.0000 0.0000 0.0000 30.0811 0.0000 0.0000
# 5 0.0000 0.0000 0.0000 0.0000 33.8762 0.0000
# 6 0.0000 0.0000 0.0000 0.0000 0.0000 38.8940
#
#
#
# Elastic Compliance Matrix: (Units=1/GPa)
#
#
# Indices 1 2 3 4 5 6 
#
# 1 0.015913 -0.002823 -0.008899 0.000000 0.000000 0.000000
# 2 -0.002823 0.020258 -0.006206 0.000000 0.000000 0.000000
# 3 -0.008899 -0.006206 0.017182 0.000000 0.000000 0.000000
# 4 0.000000 0.000000 0.000000 0.033243 0.000000 0.000000
# 5 0.000000 0.000000 0.000000 0.000000 0.029519 0.000000
# 6 0.000000 0.000000 0.000000 0.000000 0.000000 0.025711
#
#
# Mechanical properties :
#
#
# Convention : Reuss Voigt Hill
#
# Bulk Modulus (GPa) = 57.15599 64.55070 60.85335
# Shear Modulus (GPa) = 27.24602 29.68459 28.46530
#
# Velocity S-wave (km/s) = 3.85566 4.02450 3.94098
# Velocity P-wave (km/s) = 7.14193 7.53763 7.34245
#
# Compressibility (1/GPa) = 0.01749598
#
# Stress axis : x y z
#
# Youngs Moduli (GPa) = 62.84329 49.36420 58.20205
#
# Poissons Ratio (x) = 0.13935 0.51792
# Poissons Ratio (y) = 0.17741 0.36122
# Poissons Ratio (z) = 0.55922 0.30637
#
# Static dielectric constant tensor:
#      x y z
#    x 3.223500 0.000000 0.000000 
#    y 0.000000 3.424670 0.000000 
#    z 0.000000 0.000000 3.249790 
# 
# 
# High freq. dielectric constant tensor:
#      x y z
#    x 1.723020 0.000000 0.000000 
#    y 0.000000 1.720190 0.000000 
#    z 0.000000 0.000000 1.697300 
# 
# From -- ./inp_files/10192.got.cif
#   From: 2010.03.12/outbox.cif.g09.slc.cpg/sg62_6_cif.got.tgz:10192.got - 2010.04.10 19:12:36.
