data_PCOD8251081
_publ_section_title
;
Structure prediction by ZEFSAII (Michael W. Deem and Ramdas Pophale) SiO2 
 PCOD8251081
Probable space group: P N M A
;
_chemical_formula_sum "Si O2"
_cell_formula_units_Z 64
_cell_length_a 19.881003
_cell_length_b 8.987096
_cell_length_c 20.073277
_cell_angle_alpha 90.000000
_cell_angle_beta 90.000000
_cell_angle_gamma 90.000000
_cell_volume 3586.542234
_symmetry_space_group_name_H-M "P N M A"
_symmetry_group_IT_number 62
_symmetry_cell_setting 'orthorhombic'
loop_
_space_group_symop_operation_xyz
x,y,z
1/2-x,-y,1/2+z
1/2+x,1/2-y,1/2-z
-x,1/2+y,-z
-x,-y,-z
1/2+x,y,1/2-z
1/2-x,1/2+y,1/2+z
x,1/2-y,z
loop_
_atom_site_type_symbol
_atom_site_label
_atom_site_fract_x
_atom_site_fract_y
_atom_site_fract_z
Si Si1 0.681114 0.422773 0.666302
Si Si2 0.422740 0.073300 0.725036
Si Si3 0.069590 0.425698 0.732225
Si Si4 0.448368 0.924493 0.087608
Si Si5 0.322349 0.575777 0.827265
Si Si6 0.552251 0.077288 0.406867
Si Si7 0.915526 0.922799 0.555159
Si Si8 0.919398 0.580032 0.054393
O O1 0.698316 0.250000 0.679603
O O2 0.627150 0.487358 0.719293
O O3 0.746620 0.520742 0.675138
O O4 0.651008 0.445660 0.592231
O O5 0.417559 0.250000 0.726786
O O6 0.495929 0.013058 0.747993
O O7 0.365783 0.008174 0.772408
O O8 0.409639 0.015352 0.650136
O O9 0.067511 0.250000 0.740666
O O10 0.087504 0.475182 0.656272
O O11 0.459756 0.750000 0.089534
O O12 0.522199 0.992380 0.086649
O O13 0.404935 0.971987 0.022431
O O14 0.325189 0.750000 0.811785
O O15 0.349878 0.539453 0.901574
O O16 0.553334 0.250000 0.387755
O O17 0.591289 0.046006 0.476280
O O18 0.475142 0.026368 0.413761
O O19 0.933464 0.750000 0.558507
O O20 0.944327 0.750000 0.064904
#
# Coordination Sequence:
#
# PCOD8251081 Si02
#       8
#     8   8   8   8   8   8   8   8
#     4  10  20  37  56  76 105 147 189 225 266 325
#     4  11  20  35  57  81 107 143 185 229 276 333
#     4   9  17  31  55  81 104 133 180 227 263 314
#     4   9  16  30  53  79 103 131 169 216 262 309
#     4  11  23  37  51  77 113 147 181 226 279 332
#     4  10  19  31  53  84 113 140 175 229 281 319
#     4   9  18  31  49  75 107 135 165 211 264 318
#     4   9  18  34  54  78 110 145 183 223 267 328
#
# _framework density 17.844486
#
# number of rings (size 3 to 8) (size 9 to 14) (size 15 to 20)
#    0.000    2.250    2.500    1.125    0.000    1.500 
#    0.000    1.875    0.000    1.500    0.000    0.000 
#    0.000    0.000    0.000    0.000    0.000    0.000 
#
# Total GULP energy -793428.760183 kJ/mol
# GULP energy per Si atom -12397.324378 kJ/mol
# Density = 1.780387 g / cm^3
# Si number density = 17.844486 Si / 1000 Ang^3
#
#
#
# Elastic Constant Matrix: (Units=GPa)
#
#
# Indices 1 2 3 4 5 6 
#
# 1 106.3742 37.6554 68.7991 0.0000 0.0000 0.0000
# 2 37.6554 59.3953 44.8138 0.0000 0.0000 0.0000
# 3 68.7991 44.8138 149.0578 0.0000 0.0000 0.0000
# 4 0.0000 0.0000 0.0000 25.0987 0.0000 0.0000
# 5 0.0000 0.0000 0.0000 0.0000 25.4486 0.0000
# 6 0.0000 0.0000 0.0000 0.0000 0.0000 26.2080
#
#
#
# Elastic Compliance Matrix: (Units=1/GPa)
#
#
# Indices 1 2 3 4 5 6 
#
# 1 0.014631 -0.005407 -0.005128 0.000000 0.000000 0.000000
# 2 -0.005407 0.023774 -0.004652 0.000000 0.000000 0.000000
# 3 -0.005128 -0.004652 0.010474 0.000000 0.000000 0.000000
# 4 0.000000 0.000000 0.000000 0.039843 0.000000 0.000000
# 5 0.000000 0.000000 0.000000 0.000000 0.039295 0.000000
# 6 0.000000 0.000000 0.000000 0.000000 0.000000 0.038156
#
#
# Mechanical properties :
#
#
# Convention : Reuss Voigt Hill
#
# Bulk Modulus (GPa) = 54.03570 68.59596 61.31583
# Shear Modulus (GPa) = 24.66513 26.25498 25.46005
#
# Velocity S-wave (km/s) = 3.72186 3.83994 3.78136
# Velocity P-wave (km/s) = 6.98691 7.62789 7.31442
#
# Compressibility (1/GPa) = 0.01850628
#
# Stress axis : x y z
#
# Youngs Moduli (GPa) = 68.34740 42.06230 95.47408
#
# Poissons Ratio (x) = 0.22744 0.48954
# Poissons Ratio (y) = 0.36956 0.44414
# Poissons Ratio (z) = 0.35045 0.19567
#
# Static dielectric constant tensor:
#      x y z
#    x 3.538620 0.000000 0.000000 
#    y 0.000000 3.236880 0.000000 
#    z 0.000000 0.000000 4.486140 
# 
# 
# High freq. dielectric constant tensor:
#      x y z
#    x 1.656010 0.000000 0.000000 
#    y 0.000000 1.682640 0.000000 
#    z 0.000000 0.000000 1.711770 
# 
# From -- ./inp_files/27639.got.cif
#   From: 2010.03.12/outbox.cif.g09.slc.cpg/sg62_14_cif.got.tgz:27639.got - 2010.04.10 19:12:36.
