data_PCOD8251010
_publ_section_title
;
Structure prediction by ZEFSAII (Michael W. Deem and Ramdas Pophale) SiO2 
 PCOD8251010
Probable space group: P N M A
;
_chemical_formula_sum "Si O2"
_cell_formula_units_Z 48
_cell_length_a 15.553455
_cell_length_b 17.143390
_cell_length_c 9.537088
_cell_angle_alpha 90.000000
_cell_angle_beta 90.000000
_cell_angle_gamma 90.000000
_cell_volume 2542.959082
_symmetry_space_group_name_H-M "P N M A"
_symmetry_group_IT_number 62
_symmetry_cell_setting 'orthorhombic'
loop_
_space_group_symop_operation_xyz
x,y,z
1/2-x,-y,1/2+z
1/2+x,1/2-y,1/2-z
-x,1/2+y,-z
-x,-y,-z
1/2+x,y,1/2-z
1/2-x,1/2+y,1/2+z
x,1/2-y,z
loop_
_atom_site_type_symbol
_atom_site_label
_atom_site_fract_x
_atom_site_fract_y
_atom_site_fract_z
Si Si1 0.427240 0.661284 0.162273
Si Si2 0.738024 0.841179 0.299315
Si Si3 0.904969 0.084561 0.614168
Si Si4 0.567757 0.657620 0.812936
Si Si5 0.777170 0.341471 0.121970
Si Si6 0.897240 0.596225 0.634590
O O1 0.452715 0.750000 0.196313
O O2 0.337725 0.639189 0.240010
O O3 0.509126 0.607774 0.203342
O O4 0.408363 0.653387 0.997742
O O5 0.718893 0.750000 0.276013
O O6 0.679696 0.892429 0.198469
O O7 0.716791 0.865190 0.459073
O O8 0.904215 0.127595 0.465620
O O9 0.905252 0.992844 0.587390
O O10 0.560464 0.750000 0.816561
O O11 0.637187 0.629493 0.699213
O O12 0.476579 0.619697 0.763778
O O13 0.763378 0.250000 0.141311
O O14 0.696608 0.385124 0.197921
#
# Coordination Sequence:
#
# PCOD8251010 Si02
#       6
#     8   8   8   8   8   8
#     4   9  17  32  52  70  95 133 170 197 231 291
#     4   9  18  34  52  70  95 130 166 198 241 294
#     4  11  20  30  51  79 103 125 158 206 250 288
#     4  10  19  34  55  75  96 127 171 211 235 275
#     4   9  19  35  53  70  94 133 171 199 237 292
#     4  10  19  31  50  74 103 132 159 195 249 302
#
# _framework density 18.875648999999999
#
# number of rings (size 3 to 8) (size 9 to 14) (size 15 to 20)
#    0.000    2.333    0.000    7.000    0.000    4.000 
#    0.000    2.500    0.000    4.000    0.000    0.000 
#    0.000    0.000    0.000    0.000    0.000    0.000 
#
# Total GULP energy -594958.756351 kJ/mol
# GULP energy per Si atom -12394.974091 kJ/mol
# Density = 1.883269 g / cm^3
# Si number density = 18.875649 Si / 1000 Ang^3
#
#
#
# Elastic Constant Matrix: (Units=GPa)
#
#
# Indices 1 2 3 4 5 6 
#
# 1 45.0922 10.7887 5.0802 0.0000 0.0000 0.0000
# 2 10.7887 48.1004 6.8613 0.0000 0.0000 0.0000
# 3 5.0802 6.8613 30.3564 0.0000 0.0000 0.0000
# 4 0.0000 0.0000 0.0000 10.4673 0.0000 0.0000
# 5 0.0000 0.0000 0.0000 0.0000 29.6130 0.0000
# 6 0.0000 0.0000 0.0000 0.0000 0.0000 22.1029
#
#
#
# Elastic Compliance Matrix: (Units=1/GPa)
#
#
# Indices 1 2 3 4 5 6 
#
# 1 0.023671 -0.004902 -0.002853 0.000000 0.000000 0.000000
# 2 -0.004902 0.022498 -0.004265 0.000000 0.000000 0.000000
# 3 -0.002853 -0.004265 0.034383 0.000000 0.000000 0.000000
# 4 0.000000 0.000000 0.000000 0.095535 0.000000 0.000000
# 5 0.000000 0.000000 0.000000 0.000000 0.033769 0.000000
# 6 0.000000 0.000000 0.000000 0.000000 0.000000 0.045243
#
#
# Mechanical properties :
#
#
# Convention : Reuss Voigt Hill
#
# Bulk Modulus (GPa) = 17.69545 18.77882 18.23713
# Shear Modulus (GPa) = 16.77980 19.15789 17.96884
#
# Velocity S-wave (km/s) = 2.98479 3.18929 3.08873
# Velocity P-wave (km/s) = 4.61234 4.85102 4.73319
#
# Compressibility (1/GPa) = 0.05651169
#
# Stress axis : x y z
#
# Youngs Moduli (GPa) = 42.24548 44.44886 29.08385
#
# Poissons Ratio (x) = 0.21790 0.08299
# Poissons Ratio (y) = 0.20710 0.12403
# Poissons Ratio (z) = 0.12054 0.18956
#
# Static dielectric constant tensor:
#      x y z
#    x 4.179500 0.000000 0.000000 
#    y 0.000000 3.348690 0.000000 
#    z 0.000000 0.000000 3.034010 
# 
# 
# High freq. dielectric constant tensor:
#      x y z
#    x 1.760270 0.000000 0.000000 
#    y 0.000000 1.733760 0.000000 
#    z 0.000000 0.000000 1.677950 
# 
# From -- ./inp_files/13301.got.cif
#   From: 2010.03.12/outbox.cif.g09.slc.cpg/sg62_7_cif.got.tgz:13301.got - 2010.04.10 19:12:36.
