data_PCOD8251157
_publ_section_title
;
Structure prediction by ZEFSAII (Michael W. Deem and Ramdas Pophale) SiO2 
 PCOD8251157
Probable space group: P N M A
;
_chemical_formula_sum "Si O2"
_cell_formula_units_Z 64
_cell_length_a 12.034136
_cell_length_b 12.941308
_cell_length_c 22.991280
_cell_angle_alpha 90.000000
_cell_angle_beta 90.000000
_cell_angle_gamma 90.000000
_cell_volume 3580.603561
_symmetry_space_group_name_H-M "P N M A"
_symmetry_group_IT_number 62
_symmetry_cell_setting 'orthorhombic'
loop_
_space_group_symop_operation_xyz
x,y,z
1/2-x,-y,1/2+z
1/2+x,1/2-y,1/2-z
-x,1/2+y,-z
-x,-y,-z
1/2+x,y,1/2-z
1/2-x,1/2+y,1/2+z
x,1/2-y,z
loop_
_atom_site_type_symbol
_atom_site_label
_atom_site_fract_x
_atom_site_fract_y
_atom_site_fract_z
Si Si1 0.122318 0.372938 0.658479
Si Si2 0.526241 0.023093 0.565369
Si Si3 0.871003 0.369161 0.640555
Si Si4 0.218133 0.496862 0.085408
Si Si5 0.331994 0.861533 0.686519
Si Si6 0.916259 0.135922 0.156005
Si Si7 0.269212 0.867757 0.469495
Si Si8 0.725312 0.012793 0.732601
O O1 0.132162 0.250000 0.657666
O O2 0.193552 0.416008 0.603873
O O3 0.164700 0.413761 0.720713
O O4 0.995845 0.411212 0.648928
O O5 0.406027 0.046869 0.594506
O O6 0.614787 0.117098 0.566552
O O7 0.500000 0.000000 0.500000
O O8 0.585179 0.923301 0.594322
O O9 0.867300 0.250000 0.657125
O O10 0.833615 0.387541 0.573901
O O11 0.784027 0.422187 0.683076
O O12 0.231218 0.400300 0.128763
O O13 0.240179 0.452299 0.020882
O O14 0.279483 0.750000 0.703141
O O15 0.459992 0.846123 0.675843
O O16 0.319398 0.944264 0.737362
O O17 0.859504 0.250000 0.149051
O O18 0.861380 0.066050 0.205061
O O19 0.267558 0.750000 0.493285
#
# Coordination Sequence:
#
# PCOD8251157 Si02
#       8
#     8   8   8   8   8   8   8   8
#     4  10  22  38  55  79 110 144 182 225 274 325
#     4   9  18  33  52  81 110 140 180 221 273 321
#     4  10  21  36  55  78 106 141 180 225 273 322
#     4   9  19  34  56  78 105 141 180 225 270 324
#     4   9  18  31  49  76 104 135 175 218 266 320
#     4  10  19  32  51  76 108 140 174 220 272 319
#     4  10  19  34  56  80 106 141 182 225 268 322
#     4  11  19  34  55  76 106 142 180 221 268 324
#
# _framework density 17.874081
#
# number of rings (size 3 to 8) (size 9 to 14) (size 15 to 20)
#    0.000    2.250    1.250    1.875    0.000    4.000 
#    0.000    1.875    0.000    2.250    0.000    0.000 
#    0.000    0.000    0.000    0.000    0.000    0.000 
#
# Total GULP energy -793151.802684 kJ/mol
# GULP energy per Si atom -12392.996917 kJ/mol
# Density = 1.783340 g / cm^3
# Si number density = 17.874081 Si / 1000 Ang^3
#
#
#
# Elastic Constant Matrix: (Units=GPa)
#
#
# Indices 1 2 3 4 5 6 
#
# 1 63.6267 39.8721 23.7872 0.0000 0.0000 0.0000
# 2 39.8721 90.3502 46.3087 0.0000 0.0000 0.0000
# 3 23.7872 46.3087 86.1152 0.0000 0.0000 0.0000
# 4 0.0000 0.0000 0.0000 24.9195 0.0000 0.0000
# 5 0.0000 0.0000 0.0000 0.0000 27.7344 0.0000
# 6 0.0000 0.0000 0.0000 0.0000 0.0000 22.8820
#
#
#
# Elastic Compliance Matrix: (Units=1/GPa)
#
#
# Indices 1 2 3 4 5 6 
#
# 1 0.021810 -0.009024 -0.001172 0.000000 0.000000 0.000000
# 2 -0.009024 0.019013 -0.007732 0.000000 0.000000 0.000000
# 3 -0.001172 -0.007732 0.016094 0.000000 0.000000 0.000000
# 4 0.000000 0.000000 0.000000 0.040129 0.000000 0.000000
# 5 0.000000 0.000000 0.000000 0.000000 0.036056 0.000000
# 6 0.000000 0.000000 0.000000 0.000000 0.000000 0.043702
#
#
# Mechanical properties :
#
#
# Convention : Reuss Voigt Hill
#
# Bulk Modulus (GPa) = 47.47965 51.11424 49.29694
# Shear Modulus (GPa) = 22.76028 23.78212 23.27120
#
# Velocity S-wave (km/s) = 3.57230 3.65161 3.61217
# Velocity P-wave (km/s) = 6.60577 6.81454 6.71096
#
# Compressibility (1/GPa) = 0.02106166
#
# Stress axis : x y z
#
# Youngs Moduli (GPa) = 45.85093 52.59436 62.13589
#
# Poissons Ratio (x) = 0.47463 0.07280
# Poissons Ratio (y) = 0.41377 0.48042
# Poissons Ratio (z) = 0.05372 0.40665
#
# Static dielectric constant tensor:
#      x y z
#    x 3.579750 0.000000 0.000000 
#    y 0.000000 3.323080 0.000000 
#    z 0.000000 0.000000 3.335620 
# 
# 
# High freq. dielectric constant tensor:
#      x y z
#    x 1.686810 0.000000 0.000000 
#    y 0.000000 1.691560 0.000000 
#    z 0.000000 0.000000 1.693720 
# 
# From -- ./inp_files/29438.got.cif
#   From: 2010.03.12/outbox.cif.g09.slc.cpg/sg62_15_cif.got.tgz:29438.got - 2010.04.10 19:12:36.
