data_PCOD8251187
_publ_section_title
;
Structure prediction by ZEFSAII (Michael W. Deem and Ramdas Pophale) SiO2 
 PCOD8251187
Probable space group: P N M A
;
_chemical_formula_sum "Si O2"
_cell_formula_units_Z 56
_cell_length_a 15.383667
_cell_length_b 9.482507
_cell_length_c 20.499389
_cell_angle_alpha 90.000000
_cell_angle_beta 90.000000
_cell_angle_gamma 90.000000
_cell_volume 2990.363335
_symmetry_space_group_name_H-M "P N M A"
_symmetry_group_IT_number 62
_symmetry_cell_setting 'orthorhombic'
loop_
_space_group_symop_operation_xyz
x,y,z
1/2-x,-y,1/2+z
1/2+x,1/2-y,1/2-z
-x,1/2+y,-z
-x,-y,-z
1/2+x,y,1/2-z
1/2-x,1/2+y,1/2+z
x,1/2-y,z
loop_
_atom_site_type_symbol
_atom_site_label
_atom_site_fract_x
_atom_site_fract_y
_atom_site_fract_z
Si Si1 0.051329 0.909453 0.949034
Si Si2 0.001350 0.915562 0.808551
Si Si3 0.880426 0.084235 0.309369
Si Si4 0.811553 0.586261 0.842159
Si Si5 0.985385 0.905267 0.406322
Si Si6 0.782698 0.089240 0.970711
Si Si7 0.611725 0.404889 0.036132
O O1 0.014834 0.750000 0.950647
O O2 0.037995 0.974927 0.877027
O O3 0.151270 0.914721 0.969052
O O4 0.000000 0.000000 0.000000
O O5 0.014814 0.750000 0.806717
O O6 0.062347 0.976477 0.750896
O O7 0.898525 0.955694 0.800866
O O8 0.897942 0.250000 0.321851
O O9 0.776472 0.056263 0.300428
O O10 0.909786 0.993914 0.371393
O O11 0.816619 0.750000 0.861392
O O12 0.814095 0.501535 0.909626
O O13 0.998069 0.750000 0.373869
O O14 0.961285 0.883658 0.481422
O O15 0.075825 0.994178 0.405928
O O16 0.767380 0.250000 0.946285
O O17 0.695405 0.025496 0.001889
O O18 0.634152 0.250000 0.066157
#
# Coordination Sequence:
#
# PCOD8251187 Si02
#       7
#     8   8   8   8   8   8   8
#     4  10  19  33  55  80 107 135 169 220 275 321
#     4   9  19  36  53  77 108 137 176 225 265 317
#     4  10  20  35  55  77 104 142 184 220 266 323
#     4  10  19  33  56  79 100 138 181 218 265 317
#     4  10  19  32  52  76 105 138 174 220 266 309
#     4  10  19  32  53  81 107 137 173 216 269 320
#     4   9  18  32  49  75 108 140 175 215 262 316
#
# _framework density 18.726821000000001
#
# number of rings (size 3 to 8) (size 9 to 14) (size 15 to 20)
#    0.000    2.286    2.857    0.429    0.000    1.143 
#    2.571    1.429    0.000    0.000    0.000    0.000 
#    0.000    0.000    0.000    0.000    0.000    0.000 
#
# Total GULP energy -693982.324992 kJ/mol
# GULP energy per Si atom -12392.541518 kJ/mol
# Density = 1.868420 g / cm^3
# Si number density = 18.726821 Si / 1000 Ang^3
#
#
#
# Elastic Constant Matrix: (Units=GPa)
#
#
# Indices 1 2 3 4 5 6 
#
# 1 122.2763 33.4112 47.0913 0.0000 0.0000 0.0000
# 2 33.4112 63.9546 29.5390 0.0000 0.0000 0.0000
# 3 47.0913 29.5390 62.2801 0.0000 0.0000 0.0000
# 4 0.0000 0.0000 0.0000 20.3818 0.0000 0.0000
# 5 0.0000 0.0000 0.0000 0.0000 36.6902 0.0000
# 6 0.0000 0.0000 0.0000 0.0000 0.0000 18.4700
#
#
#
# Elastic Compliance Matrix: (Units=1/GPa)
#
#
# Indices 1 2 3 4 5 6 
#
# 1 0.011875 -0.002633 -0.007730 0.000000 0.000000 0.000000
# 2 -0.002633 0.020606 -0.007782 0.000000 0.000000 0.000000
# 3 -0.007730 -0.007782 0.025592 0.000000 0.000000 0.000000
# 4 0.000000 0.000000 0.000000 0.049063 0.000000 0.000000
# 5 0.000000 0.000000 0.000000 0.000000 0.027255 0.000000
# 6 0.000000 0.000000 0.000000 0.000000 0.000000 0.054142
#
#
# Mechanical properties :
#
#
# Convention : Reuss Voigt Hill
#
# Bulk Modulus (GPa) = 45.90857 52.06598 48.98728
# Shear Modulus (GPa) = 21.54385 24.33971 22.94178
#
# Velocity S-wave (km/s) = 3.39548 3.60908 3.50391
# Velocity P-wave (km/s) = 6.31984 6.72536 6.52576
#
# Compressibility (1/GPa) = 0.02178242
#
# Stress axis : x y z
#
# Youngs Moduli (GPa) = 84.21330 48.52896 39.07461
#
# Poissons Ratio (x) = 0.12780 0.30203
# Poissons Ratio (y) = 0.22177 0.30409
# Poissons Ratio (z) = 0.65094 0.37766
#
# Static dielectric constant tensor:
#      x y z
#    x 3.790840 0.000000 0.000000 
#    y 0.000000 3.547500 0.000000 
#    z 0.000000 0.000000 3.442280 
# 
# 
# High freq. dielectric constant tensor:
#      x y z
#    x 1.737840 0.000000 0.000000 
#    y 0.000000 1.711080 0.000000 
#    z 0.000000 0.000000 1.696490 
# 
# From -- ./inp_files/27195.got.cif
#   From: 2010.03.12/outbox.cif.g09.slc.cpg/sg62_14_cif.got.tgz:27195.got - 2010.04.10 19:12:36.
