data_PCOD8251632
_publ_section_title
;
Structure prediction by ZEFSAII (Michael W. Deem and Ramdas Pophale) SiO2 
 PCOD8251632
Probable space group: P N M A
;
_chemical_formula_sum "Si O2"
_cell_formula_units_Z 64
_cell_length_a 19.529780
_cell_length_b 8.890552
_cell_length_c 19.806724
_cell_angle_alpha 90.000000
_cell_angle_beta 90.000000
_cell_angle_gamma 90.000000
_cell_volume 3439.051879
_symmetry_space_group_name_H-M "P N M A"
_symmetry_group_IT_number 62
_symmetry_cell_setting 'orthorhombic'
loop_
_space_group_symop_operation_xyz
x,y,z
1/2-x,-y,1/2+z
1/2+x,1/2-y,1/2-z
-x,1/2+y,-z
-x,-y,-z
1/2+x,y,1/2-z
1/2-x,1/2+y,1/2+z
x,1/2-y,z
loop_
_atom_site_type_symbol
_atom_site_label
_atom_site_fract_x
_atom_site_fract_y
_atom_site_fract_z
Si Si1 0.092068 0.426542 0.180751
Si Si2 0.248143 0.078863 0.207953
Si Si3 0.061979 0.570540 0.041253
Si Si4 0.708846 0.571734 0.509890
Si Si5 0.715581 0.425357 0.142936
Si Si6 0.076751 0.926468 0.320539
Si Si7 0.530213 0.426321 0.934357
Si Si8 0.180191 0.072665 0.594547
O O1 0.076110 0.250000 0.175656
O O2 0.172614 0.460810 0.181471
O O3 0.058003 0.512036 0.117960
O O4 0.061086 0.489166 0.250432
O O5 0.266226 0.250000 0.191232
O O6 0.255215 0.046184 0.287298
O O7 0.302303 0.973351 0.170845
O O8 0.056357 0.750000 0.040842
O O9 0.132566 0.512859 0.006409
O O10 0.000000 0.500000 0.000000
O O11 0.708752 0.750000 0.505190
O O12 0.733716 0.518670 0.583856
O O13 0.762638 0.504474 0.455846
O O14 0.696143 0.250000 0.134679
O O15 0.645245 0.517404 0.141992
O O16 0.083761 0.750000 0.306292
O O17 0.013764 0.966757 0.368705
O O18 0.531997 0.250000 0.946674
O O19 0.606188 0.493005 0.924224
O O20 0.500000 0.500000 0.000000
O O21 0.178737 0.250000 0.589567
#
# Coordination Sequence:
#
# PCOD8251632 Si02
#       8
#     8   8   8   8   8   8   8   8
#     4  10  20  37  60  83 108 146 192 233 277 336
#     4   9  18  32  53  80 107 135 176 228 272 318
#     4  11  22  38  59  84 113 147 186 235 290 344
#     4   9  18  34  58  82 106 142 184 224 272 329
#     4   9  18  35  57  81 110 144 186 229 270 325
#     4  10  20  35  55  84 118 151 188 231 280 334
#     4  10  22  37  55  81 115 150 188 231 279 333
#     4  10  19  34  56  79 106 145 184 222 271 330
#
# _framework density 18.609779
#
# number of rings (size 3 to 8) (size 9 to 14) (size 15 to 20)
#    0.000    2.250    1.250    2.625    0.000    4.500 
#    2.250    1.875    0.000    0.000    0.000    0.000 
#    0.000    0.000    0.000    0.000    0.000    0.000 
#
# Total GULP energy -793655.629489 kJ/mol
# GULP energy per Si atom -12400.869211 kJ/mol
# Density = 1.856742 g / cm^3
# Si number density = 18.609779 Si / 1000 Ang^3
#
#
#
# Elastic Constant Matrix: (Units=GPa)
#
#
# Indices 1 2 3 4 5 6 
#
# 1 141.8763 42.0794 85.2710 0.0000 0.0000 0.0000
# 2 42.0794 52.9002 48.1765 0.0000 0.0000 0.0000
# 3 85.2710 48.1765 145.3993 0.0000 0.0000 0.0000
# 4 0.0000 0.0000 0.0000 30.4221 0.0000 0.0000
# 5 0.0000 0.0000 0.0000 0.0000 31.2532 0.0000
# 6 0.0000 0.0000 0.0000 0.0000 0.0000 25.1100
#
#
#
# Elastic Compliance Matrix: (Units=1/GPa)
#
#
# Indices 1 2 3 4 5 6 
#
# 1 0.011535 -0.004318 -0.005334 0.000000 0.000000 0.000000
# 2 -0.004318 0.028689 -0.006974 0.000000 0.000000 0.000000
# 3 -0.005334 -0.006974 0.012317 0.000000 0.000000 0.000000
# 4 0.000000 0.000000 0.000000 0.032871 0.000000 0.000000
# 5 0.000000 0.000000 0.000000 0.000000 0.031997 0.000000
# 6 0.000000 0.000000 0.000000 0.000000 0.000000 0.039825
#
#
# Mechanical properties :
#
#
# Convention : Reuss Voigt Hill
#
# Bulk Modulus (GPa) = 51.84169 76.80328 64.32248
# Shear Modulus (GPa) = 25.39188 28.33366 26.86277
#
# Velocity S-wave (km/s) = 3.69784 3.90617 3.80343
# Velocity P-wave (km/s) = 6.79336 7.85521 7.34350
#
# Compressibility (1/GPa) = 0.01928950
#
# Stress axis : x y z
#
# Youngs Moduli (GPa) = 86.69315 34.85675 81.19153
#
# Poissons Ratio (x) = 0.15050 0.43309
# Poissons Ratio (y) = 0.37430 0.56620
# Poissons Ratio (z) = 0.46244 0.24308
#
# Static dielectric constant tensor:
#      x y z
#    x 3.487560 0.000000 0.000000 
#    y 0.000000 3.274940 0.000000 
#    z 0.000000 0.000000 3.543070 
# 
# 
# High freq. dielectric constant tensor:
#      x y z
#    x 1.713400 0.000000 0.000000 
#    y 0.000000 1.709870 0.000000 
#    z 0.000000 0.000000 1.735550 
# 
# From -- ./inp_files/24706.got.cif
#   From: 2010.03.12/outbox.cif.g09.slc.cpg/sg62_13_cif.got.tgz:24706.got - 2010.04.10 19:12:36.
