data_PCOD8251681
_publ_section_title
;
Structure prediction by ZEFSAII (Michael W. Deem and Ramdas Pophale) SiO2 
 PCOD8251681
Probable space group: P N M A
;
_chemical_formula_sum "Si O2"
_cell_formula_units_Z 64
_cell_length_a 28.584966
_cell_length_b 8.977021
_cell_length_c 12.910006
_cell_angle_alpha 90.000000
_cell_angle_beta 90.000000
_cell_angle_gamma 90.000000
_cell_volume 3312.808755
_symmetry_space_group_name_H-M "P N M A"
_symmetry_group_IT_number 62
_symmetry_cell_setting 'orthorhombic'
loop_
_space_group_symop_operation_xyz
x,y,z
1/2-x,-y,1/2+z
1/2+x,1/2-y,1/2-z
-x,1/2+y,-z
-x,-y,-z
1/2+x,y,1/2-z
1/2-x,1/2+y,1/2+z
x,1/2-y,z
loop_
_atom_site_type_symbol
_atom_site_label
_atom_site_fract_x
_atom_site_fract_y
_atom_site_fract_z
Si Si1 0.578539 0.084209 0.078752
Si Si2 0.210981 0.575004 0.539769
Si Si3 0.961248 0.573033 0.790638
Si Si4 0.702614 0.922277 0.363757
Si Si5 0.316446 0.917247 0.843290
Si Si6 0.391018 0.075324 0.115644
Si Si7 0.565930 0.926916 0.672944
Si Si8 0.104752 0.576936 0.043888
O O1 0.561417 0.250000 0.050550
O O2 0.547176 0.017409 0.172349
O O3 0.631170 0.087280 0.117920
O O4 0.575190 0.986750 0.974820
O O5 0.212709 0.750000 0.516480
O O6 0.253908 0.527127 0.610661
O O7 0.216220 0.484329 0.433183
O O8 0.162993 0.531397 0.598346
O O9 0.955818 0.750000 0.793859
O O10 0.922689 0.507805 0.866757
O O11 0.012310 0.518320 0.825876
O O12 0.718032 0.750000 0.362618
O O13 0.660257 0.948487 0.444235
O O14 0.685112 0.970298 0.251646
O O15 0.299030 0.750000 0.815003
O O16 0.398459 0.250000 0.113810
O O17 0.406921 0.008919 0.226622
O O18 0.568363 0.750000 0.675146
O O19 0.590129 0.987740 0.568422
O O20 0.091692 0.750000 0.053616
#
# Coordination Sequence:
#
# PCOD8251681 Si02
#       8
#     8   8   8   8   8   8   8   8
#     4   9  18  32  53  80 108 140 179 227 276 322
#     4  10  21  36  56  82 110 144 187 232 283 342
#     4  10  19  34  57  82 109 144 185 229 278 333
#     4  11  22  35  55  83 111 143 187 234 281 337
#     4  10  19  35  56  77 108 145 180 227 281 331
#     4   9  19  36  56  78 108 148 186 225 277 338
#     4   9  19  36  56  79 111 148 183 224 280 337
#     4  10  21  36  55  80 112 147 186 232 277 331
#
# _framework density 19.318954999999999
#
# number of rings (size 3 to 8) (size 9 to 14) (size 15 to 20)
#    0.000    2.250    1.250    1.500    0.000    3.500 
#    0.000    3.750    0.000    0.000    0.000    0.000 
#    0.000    0.000    0.000    0.000    0.000    0.000 
#
# Total GULP energy -793594.186572 kJ/mol
# GULP energy per Si atom -12399.909165 kJ/mol
# Density = 1.927498 g / cm^3
# Si number density = 19.318955 Si / 1000 Ang^3
#
#
#
# Elastic Constant Matrix: (Units=GPa)
#
#
# Indices 1 2 3 4 5 6 
#
# 1 61.3320 28.5050 33.8417 0.0000 0.0000 0.0000
# 2 28.5050 44.2276 25.6055 0.0000 0.0000 0.0000
# 3 33.8417 25.6055 114.7122 0.0000 0.0000 0.0000
# 4 0.0000 0.0000 0.0000 30.9115 0.0000 0.0000
# 5 0.0000 0.0000 0.0000 0.0000 21.3039 0.0000
# 6 0.0000 0.0000 0.0000 0.0000 0.0000 20.0759
#
#
#
# Elastic Compliance Matrix: (Units=1/GPa)
#
#
# Indices 1 2 3 4 5 6 
#
# 1 0.025031 -0.013617 -0.004345 0.000000 0.000000 0.000000
# 2 -0.013617 0.033374 -0.003432 0.000000 0.000000 0.000000
# 3 -0.004345 -0.003432 0.010765 0.000000 0.000000 0.000000
# 4 0.000000 0.000000 0.000000 0.032350 0.000000 0.000000
# 5 0.000000 0.000000 0.000000 0.000000 0.046940 0.000000
# 6 0.000000 0.000000 0.000000 0.000000 0.000000 0.049811
#
#
# Mechanical properties :
#
#
# Convention : Reuss Voigt Hill
#
# Bulk Modulus (GPa) = 37.90544 44.01957 40.96251
# Shear Modulus (GPa) = 20.01171 23.27955 21.64563
#
# Velocity S-wave (km/s) = 3.22197 3.47509 3.35092
# Velocity P-wave (km/s) = 5.78834 6.23994 6.01838
#
# Compressibility (1/GPa) = 0.02638143
#
# Stress axis : x y z
#
# Youngs Moduli (GPa) = 39.95067 29.96370 92.89002
#
# Poissons Ratio (x) = 0.40802 0.40360
# Poissons Ratio (y) = 0.54401 0.31883
# Poissons Ratio (z) = 0.17358 0.10284
#
# Static dielectric constant tensor:
#      x y z
#    x 3.497860 0.000000 0.000000 
#    y 0.000000 3.447390 0.000000 
#    z 0.000000 0.000000 3.773720 
# 
# 
# High freq. dielectric constant tensor:
#      x y z
#    x 1.747050 0.000000 0.000000 
#    y 0.000000 1.736000 0.000000 
#    z 0.000000 0.000000 1.760780 
# 
# From -- ./inp_files/15749.got.cif
#   From: 2010.03.12/outbox.cif.g09.slc.cpg/sg62_8_cif.got.tgz:15749.got - 2010.04.10 19:12:36.
