data_PCOD8251492
_publ_section_title
;
Structure prediction by ZEFSAII (Michael W. Deem and Ramdas Pophale) SiO2 
 PCOD8251492
Probable space group: P N M A
;
_chemical_formula_sum "Si O2"
_cell_formula_units_Z 64
_cell_length_a 24.705359
_cell_length_b 8.998277
_cell_length_c 14.302878
_cell_angle_alpha 90.000000
_cell_angle_beta 90.000000
_cell_angle_gamma 90.000000
_cell_volume 3179.610786
_symmetry_space_group_name_H-M "P N M A"
_symmetry_group_IT_number 62
_symmetry_cell_setting 'orthorhombic'
loop_
_space_group_symop_operation_xyz
x,y,z
1/2-x,-y,1/2+z
1/2+x,1/2-y,1/2-z
-x,1/2+y,-z
-x,-y,-z
1/2+x,y,1/2-z
1/2-x,1/2+y,1/2+z
x,1/2-y,z
loop_
_atom_site_type_symbol
_atom_site_label
_atom_site_fract_x
_atom_site_fract_y
_atom_site_fract_z
Si Si1 0.800754 0.573646 0.781976
Si Si2 0.830980 0.926746 0.985800
Si Si3 0.057584 0.926593 0.523242
Si Si4 0.587467 0.077828 0.785851
Si Si5 0.299270 0.576881 0.312205
Si Si6 0.394184 0.921876 0.857578
Si Si7 0.509426 0.413318 0.272581
Si Si8 0.447954 0.584727 0.531686
O O1 0.800835 0.750000 0.783768
O O2 0.744139 0.517846 0.743013
O O3 0.849100 0.516033 0.714727
O O4 0.806092 0.511277 0.888639
O O5 0.836294 0.750000 0.978110
O O6 0.797202 0.971913 0.078044
O O7 0.891810 0.991313 0.999851
O O8 0.051296 0.750000 0.518865
O O9 0.079775 0.974592 0.624131
O O10 0.104732 0.980276 0.451661
O O11 0.000000 0.000000 0.500000
O O12 0.584137 0.250000 0.814251
O O13 0.642638 0.040981 0.732313
O O14 0.537753 0.036262 0.716385
O O15 0.285357 0.750000 0.302667
O O16 0.382040 0.750000 0.881636
O O17 0.454827 0.942408 0.818738
O O18 0.482026 0.250000 0.266913
O O19 0.552450 0.416607 0.356219
O O20 0.500000 0.500000 0.500000
O O21 0.451779 0.750000 0.490176
#
# Coordination Sequence:
#
# PCOD8251492 Si02
#       8
#     8   8   8   8   8   8   8   8
#     4  10  21  40  66  89 115 157 204 247 298 354
#     4   9  18  38  63  84 113 155 194 233 289 355
#     4  12  24  38  59  88 122 163 205 250 303 364
#     4  11  23  39  59  87 123 162 200 248 309 365
#     4  10  23  41  61  87 121 157 199 250 299 351
#     4  10  20  37  60  88 118 154 198 249 303 356
#     4  10  19  33  57  85 116 152 195 245 298 362
#     4  10  19  33  55  85 117 153 194 237 294 357
#
# _framework density 20.128249
#
# number of rings (size 3 to 8) (size 9 to 14) (size 15 to 20)
#    0.000    1.750    2.500    2.250    0.000    4.000 
#    0.000    4.375    0.000    0.000    0.000    0.000 
#    0.000    0.000    0.000    0.000    0.000    0.000 
#
# Total GULP energy -793388.519205 kJ/mol
# GULP energy per Si atom -12396.695613 kJ/mol
# Density = 2.008244 g / cm^3
# Si number density = 20.128249 Si / 1000 Ang^3
#
#
#
# Elastic Constant Matrix: (Units=GPa)
#
#
# Indices 1 2 3 4 5 6 
#
# 1 95.0059 29.0354 40.4327 0.0000 0.0000 0.0000
# 2 29.0354 61.7621 27.1353 0.0000 0.0000 0.0000
# 3 40.4327 27.1353 101.0551 0.0000 0.0000 0.0000
# 4 0.0000 0.0000 0.0000 28.1718 0.0000 0.0000
# 5 0.0000 0.0000 0.0000 0.0000 32.1578 0.0000
# 6 0.0000 0.0000 0.0000 0.0000 0.0000 32.2232
#
#
#
# Elastic Compliance Matrix: (Units=1/GPa)
#
#
# Indices 1 2 3 4 5 6 
#
# 1 0.013743 -0.004586 -0.004267 0.000000 0.000000 0.000000
# 2 -0.004586 0.019887 -0.003505 0.000000 0.000000 0.000000
# 3 -0.004267 -0.003505 0.012544 0.000000 0.000000 0.000000
# 4 0.000000 0.000000 0.000000 0.035497 0.000000 0.000000
# 5 0.000000 0.000000 0.000000 0.000000 0.031097 0.000000
# 6 0.000000 0.000000 0.000000 0.000000 0.000000 0.031034
#
#
# Mechanical properties :
#
#
# Convention : Reuss Voigt Hill
#
# Bulk Modulus (GPa) = 46.60382 50.11445 48.35914
# Shear Modulus (GPa) = 28.46226 29.25852 28.86039
#
# Velocity S-wave (km/s) = 3.76446 3.81675 3.79070
# Velocity P-wave (km/s) = 6.48834 6.66146 6.57547
#
# Compressibility (1/GPa) = 0.02145747
#
# Stress axis : x y z
#
# Youngs Moduli (GPa) = 72.76237 50.28365 79.71821
#
# Poissons Ratio (x) = 0.23061 0.34018
# Poissons Ratio (y) = 0.33370 0.27943
# Poissons Ratio (z) = 0.31050 0.17625
#
# Static dielectric constant tensor:
#      x y z
#    x 3.551460 0.000000 0.000000 
#    y 0.000000 3.441460 0.000000 
#    z 0.000000 0.000000 4.180390 
# 
# 
# High freq. dielectric constant tensor:
#      x y z
#    x 1.778570 0.000000 0.000000 
#    y 0.000000 1.759970 0.000000 
#    z 0.000000 0.000000 1.804440 
# 
# From -- ./inp_files/20998.got.cif
#   From: 2010.03.12/outbox.cif.g09.slc.cpg/sg62_11_cif.got.tgz:20998.got - 2010.04.10 19:12:36.
