data_PCOD8251147
_publ_section_title
;
Structure prediction by ZEFSAII (Michael W. Deem and Ramdas Pophale) SiO2 
 PCOD8251147
Probable space group: P N M A
;
_chemical_formula_sum "Si O2"
_cell_formula_units_Z 56
_cell_length_a 18.833625
_cell_length_b 9.190947
_cell_length_c 19.144353
_cell_angle_alpha 90.000000
_cell_angle_beta 90.000000
_cell_angle_gamma 90.000000
_cell_volume 3313.865473
_symmetry_space_group_name_H-M "P N M A"
_symmetry_group_IT_number 62
_symmetry_cell_setting 'orthorhombic'
loop_
_space_group_symop_operation_xyz
x,y,z
1/2-x,-y,1/2+z
1/2+x,1/2-y,1/2-z
-x,1/2+y,-z
-x,-y,-z
1/2+x,y,1/2-z
1/2-x,1/2+y,1/2+z
x,1/2-y,z
loop_
_atom_site_type_symbol
_atom_site_label
_atom_site_fract_x
_atom_site_fract_y
_atom_site_fract_z
Si Si1 0.856971 0.579401 0.775959
Si Si2 0.766241 0.417830 0.169877
Si Si3 0.138104 0.419911 0.731430
Si Si4 0.259924 0.417870 0.625822
Si Si5 0.478885 0.420879 0.796535
Si Si6 0.558656 0.921837 0.045843
Si Si7 0.297028 0.918478 0.975946
O O1 0.868274 0.750000 0.784948
O O2 0.804040 0.539131 0.712872
O O3 0.825531 0.514887 0.847781
O O4 0.932108 0.505647 0.760075
O O5 0.784258 0.250000 0.180257
O O6 0.833998 0.505932 0.197653
O O7 0.752909 0.457974 0.089407
O O8 0.138539 0.250000 0.745372
O O9 0.187885 0.462626 0.666146
O O10 0.059449 0.474627 0.713523
O O11 0.278242 0.250000 0.640312
O O12 0.249530 0.449133 0.544289
O O13 0.470792 0.250000 0.783216
O O14 0.454148 0.463496 0.873884
O O15 0.553811 0.750000 0.033491
O O16 0.634999 0.978757 0.022299
O O17 0.500000 0.000000 0.000000
O O18 0.322161 0.750000 0.972534
#
# Coordination Sequence:
#
# PCOD8251147 Si02
#       7
#     8   8   8   8   8   8   8
#     4  10  19  32  51  75 102 131 168 214 256 301
#     4   9  18  32  50  73 100 130 166 208 255 303
#     4   9  18  32  50  72  98 130 170 209 245 297
#     4   9  18  33  53  73 100 136 169 205 249 305
#     4  10  20  34  51  73 101 136 174 209 252 307
#     4  11  22  33  49  74 107 141 173 208 252 310
#     4  10  19  34  53  74 103 136 170 208 256 309
#
# _framework density 16.898695
#
# number of rings (size 3 to 8) (size 9 to 14) (size 15 to 20)
#    0.000    2.286    1.429    1.714    0.000    5.143 
#    0.000    2.857    0.000    0.857    0.000    0.000 
#    0.000    0.000    0.000    0.000    0.000    0.000 
#
# Total GULP energy -694580.407879 kJ/mol
# GULP energy per Si atom -12403.221569 kJ/mol
# Density = 1.686023 g / cm^3
# Si number density = 16.898695 Si / 1000 Ang^3
#
#
#
# Elastic Constant Matrix: (Units=GPa)
#
#
# Indices 1 2 3 4 5 6 
#
# 1 44.5853 25.8734 26.9616 0.0000 0.0000 0.0000
# 2 25.8734 49.2878 31.9731 0.0000 0.0000 0.0000
# 3 26.9616 31.9731 99.9378 0.0000 0.0000 0.0000
# 4 0.0000 0.0000 0.0000 27.1277 0.0000 0.0000
# 5 0.0000 0.0000 0.0000 0.0000 24.2840 0.0000
# 6 0.0000 0.0000 0.0000 0.0000 0.0000 31.2306
#
#
#
# Elastic Compliance Matrix: (Units=1/GPa)
#
#
# Indices 1 2 3 4 5 6 
#
# 1 0.033675 -0.014870 -0.004328 0.000000 0.000000 0.000000
# 2 -0.014870 0.032169 -0.006280 0.000000 0.000000 0.000000
# 3 -0.004328 -0.006280 0.013183 0.000000 0.000000 0.000000
# 4 0.000000 0.000000 0.000000 0.036863 0.000000 0.000000
# 5 0.000000 0.000000 0.000000 0.000000 0.041179 0.000000
# 6 0.000000 0.000000 0.000000 0.000000 0.000000 0.032020
#
#
# Mechanical properties :
#
#
# Convention : Reuss Voigt Hill
#
# Bulk Modulus (GPa) = 35.62367 40.38078 38.00222
# Shear Modulus (GPa) = 20.04791 23.79531 21.92161
#
# Velocity S-wave (km/s) = 3.44809 3.75656 3.60562
# Velocity P-wave (km/s) = 6.08103 6.53937 6.31436
#
# Compressibility (1/GPa) = 0.02807123
#
# Stress axis : x y z
#
# Youngs Moduli (GPa) = 29.69526 31.08579 75.85584
#
# Poissons Ratio (x) = 0.46226 0.32827
# Poissons Ratio (y) = 0.44158 0.47638
# Poissons Ratio (z) = 0.12851 0.19522
#
# Static dielectric constant tensor:
#      x y z
#    x 3.123690 0.000000 0.000000 
#    y 0.000000 3.153200 0.000000 
#    z 0.000000 0.000000 3.176160 
# 
# 
# High freq. dielectric constant tensor:
#      x y z
#    x 1.639260 0.000000 0.000000 
#    y 0.000000 1.653520 0.000000 
#    z 0.000000 0.000000 1.645430 
# 
# From -- ./inp_files/24567.got.cif
#   From: 2010.03.12/outbox.cif.g09.slc.cpg/sg62_13_cif.got.tgz:24567.got - 2010.04.10 19:12:36.
