data_PCOD8251440
_publ_section_title
;
Structure prediction by ZEFSAII (Michael W. Deem and Ramdas Pophale) SiO2 
 PCOD8251440
Probable space group: P N M A
;
_chemical_formula_sum "Si O2"
_cell_formula_units_Z 56
_cell_length_a 21.869948
_cell_length_b 18.373529
_cell_length_c 6.980960
_cell_angle_alpha 90.000000
_cell_angle_beta 90.000000
_cell_angle_gamma 90.000000
_cell_volume 2805.146059
_symmetry_space_group_name_H-M "P N M A"
_symmetry_group_IT_number 62
_symmetry_cell_setting 'orthorhombic'
loop_
_space_group_symop_operation_xyz
x,y,z
1/2-x,-y,1/2+z
1/2+x,1/2-y,1/2-z
-x,1/2+y,-z
-x,-y,-z
1/2+x,y,1/2-z
1/2-x,1/2+y,1/2+z
x,1/2-y,z
loop_
_atom_site_type_symbol
_atom_site_label
_atom_site_fract_x
_atom_site_fract_y
_atom_site_fract_z
Si Si1 0.321528 0.457290 0.011929
Si Si2 0.388786 0.966389 0.358818
Si Si3 0.092315 0.331884 0.246437
Si Si4 0.496105 0.548386 0.713049
Si Si5 0.445870 0.668876 0.186118
Si Si6 0.442483 0.413194 0.915192
Si Si7 0.802207 0.567995 0.815314
O O1 0.362890 0.497519 0.168381
O O2 0.265129 0.413164 0.103480
O O3 0.368559 0.401169 0.905056
O O4 0.293965 0.517205 0.868909
O O5 0.401085 0.881770 0.309539
O O6 0.340553 0.976697 0.526813
O O7 0.453824 0.005990 0.425377
O O8 0.084731 0.250000 0.165767
O O9 0.073410 0.336162 0.465961
O O10 0.163114 0.356597 0.231301
O O11 0.049757 0.389637 0.122365
O O12 0.453796 0.493899 0.833282
O O13 0.537922 0.592157 0.863358
O O14 0.439020 0.750000 0.267384
O O15 0.517413 0.644739 0.205203
#
# Coordination Sequence:
#
# PCOD8251440 Si02
#       7
#     8   8   8   8   8   8   8
#     4  11  20  36  52  80 108 142 189 236 264 320
#     4  10  20  33  57  84 107 139 187 236 274 327
#     4  10  19  33  54  82 115 144 176 223 284 338
#     4   8  14  30  52  78 107 134 172 224 279 321
#     4   9  17  33  57  82 112 146 175 223 293 341
#     4   8  14  29  53  76 106 138 176 224 267 323
#     4  12  22  34  56  81 109 147 191 228 274 319
#
# _framework density 19.963311000000001
#
# number of rings (size 3 to 8) (size 9 to 14) (size 15 to 20)
#    0.000    2.286    4.286    1.714    0.000    1.143 
#    0.000    0.714    0.000    0.857    0.000    1.000 
#    0.000    0.000    0.000    0.000    0.000    0.000 
#
# Total GULP energy -694031.192392 kJ/mol
# GULP energy per Si atom -12393.414150 kJ/mol
# Density = 1.991787 g / cm^3
# Si number density = 19.963311 Si / 1000 Ang^3
#
#
#
# Elastic Constant Matrix: (Units=GPa)
#
#
# Indices 1 2 3 4 5 6 
#
# 1 150.6221 44.5494 22.4434 0.0000 0.0000 0.0000
# 2 44.5494 114.0038 11.5247 0.0000 0.0000 0.0000
# 3 22.4434 11.5247 40.0262 0.0000 0.0000 0.0000
# 4 0.0000 0.0000 0.0000 12.4770 0.0000 0.0000
# 5 0.0000 0.0000 0.0000 0.0000 29.6614 0.0000
# 6 0.0000 0.0000 0.0000 0.0000 0.0000 23.4170
#
#
#
# Elastic Compliance Matrix: (Units=1/GPa)
#
#
# Indices 1 2 3 4 5 6 
#
# 1 0.008004 -0.002754 -0.003695 0.000000 0.000000 0.000000
# 2 -0.002754 0.009982 -0.001330 0.000000 0.000000 0.000000
# 3 -0.003695 -0.001330 0.027438 0.000000 0.000000 0.000000
# 4 0.000000 0.000000 0.000000 0.080148 0.000000 0.000000
# 5 0.000000 0.000000 0.000000 0.000000 0.033714 0.000000
# 6 0.000000 0.000000 0.000000 0.000000 0.000000 0.042704
#
#
# Mechanical properties :
#
#
# Convention : Reuss Voigt Hill
#
# Bulk Modulus (GPa) = 33.48218 51.29857 42.39038
# Shear Modulus (GPa) = 21.97755 28.18671 25.08213
#
# Velocity S-wave (km/s) = 3.32158 3.76164 3.54843
# Velocity P-wave (km/s) = 5.61416 6.67973 6.16999
#
# Compressibility (1/GPa) = 0.02986663
#
# Stress axis : x y z
#
# Youngs Moduli (GPa) = 124.93168 100.17645 36.44518
#
# Poissons Ratio (x) = 0.27592 0.13467
# Poissons Ratio (y) = 0.34410 0.04847
# Poissons Ratio (z) = 0.46164 0.13322
#
# Static dielectric constant tensor:
#      x y z
#    x 3.889620 0.000000 0.000000 
#    y 0.000000 3.504760 0.000000 
#    z 0.000000 0.000000 3.708170 
# 
# 
# High freq. dielectric constant tensor:
#      x y z
#    x 1.780260 0.000000 0.000000 
#    y 0.000000 1.733350 0.000000 
#    z 0.000000 0.000000 1.797880 
# 
# From -- ./inp_files/8837.got.cif
#   From: 2010.03.12/outbox.cif.g09.slc.cpg/sg62_5_cif.got.tgz:8837.got - 2010.04.10 19:12:36.
