data_PCOD8251919
_publ_section_title
;
Structure prediction by ZEFSAII (Michael W. Deem and Ramdas Pophale) SiO2 
 PCOD8251919
Probable space group: P N M A
;
_chemical_formula_sum "Si O2"
_cell_formula_units_Z 64
_cell_length_a 14.519763
_cell_length_b 17.556169
_cell_length_c 11.283503
_cell_angle_alpha 90.000000
_cell_angle_beta 90.000000
_cell_angle_gamma 90.000000
_cell_volume 2876.293694
_symmetry_space_group_name_H-M "P N M A"
_symmetry_group_IT_number 62
_symmetry_cell_setting 'orthorhombic'
loop_
_space_group_symop_operation_xyz
x,y,z
1/2-x,-y,1/2+z
1/2+x,1/2-y,1/2-z
-x,1/2+y,-z
-x,-y,-z
1/2+x,y,1/2-z
1/2-x,1/2+y,1/2+z
x,1/2-y,z
loop_
_atom_site_type_symbol
_atom_site_label
_atom_site_fract_x
_atom_site_fract_y
_atom_site_fract_z
Si Si1 0.831861 0.569389 0.725251
Si Si2 0.256274 0.337604 0.673016
Si Si3 0.982511 0.835726 0.600155
Si Si4 0.048624 0.660520 0.113417
Si Si5 0.184644 0.839643 0.642162
Si Si6 0.555315 0.161331 0.842227
Si Si7 0.741116 0.919379 0.096993
Si Si8 0.926294 0.936497 0.976753
O O1 0.900975 0.610438 0.637925
O O2 0.743743 0.623716 0.751037
O O3 0.805716 0.491960 0.659338
O O4 0.886155 0.555629 0.846598
O O5 0.253286 0.250000 0.639610
O O6 0.346213 0.373668 0.605748
O O7 0.157972 0.376103 0.637940
O O8 0.268049 0.348440 0.813918
O O9 0.946457 0.750000 0.616771
O O10 0.003772 0.851731 0.461083
O O11 0.076628 0.847644 0.673983
O O12 0.057403 0.750000 0.126523
O O13 0.000342 0.625123 0.232046
O O14 0.985774 0.641045 0.999121
O O15 0.211190 0.750000 0.623710
O O16 0.198632 0.890737 0.525675
O O17 0.570882 0.250000 0.813504
O O18 0.846902 0.941323 0.074771
O O19 0.000000 0.000000 0.000000
#
# Coordination Sequence:
#
# PCOD8251919 Si02
#       8
#     8   8   8   8   8   8   8   8
#     4  11  26  42  65  98 132 177 220 274 344 400
#     4  10  19  35  63  97 127 163 218 277 334 390
#     4  10  22  42  66  94 129 172 223 278 335 401
#     4  10  20  37  64  96 125 164 213 268 328 387
#     4  10  23  45  71  98 130 179 233 278 329 402
#     4   9  18  34  59  92 123 155 205 270 326 379
#     4  11  23  41  64  94 130 176 221 278 332 394
#     4  11  25  42  61  88 133 174 213 265 326 407
#
# _framework density 22.250855999999999
#
# number of rings (size 3 to 8) (size 9 to 14) (size 15 to 20)
#    0.000    1.750    1.250    2.250    1.750    8.000 
#    0.000    0.000    0.000    0.000    0.000    0.000 
#    0.000    0.000    0.000    0.000    0.000    0.000 
#
# Total GULP energy -793043.505849 kJ/mol
# GULP energy per Si atom -12391.304779 kJ/mol
# Density = 2.220021 g / cm^3
# Si number density = 22.250856 Si / 1000 Ang^3
#
#
#
# Elastic Constant Matrix: (Units=GPa)
#
#
# Indices 1 2 3 4 5 6 
#
# 1 119.2635 28.0018 4.0153 0.0000 0.0000 0.0000
# 2 28.0018 49.8300 21.5553 0.0000 0.0000 0.0000
# 3 4.0153 21.5553 34.9896 0.0000 0.0000 0.0000
# 4 0.0000 0.0000 0.0000 33.6865 0.0000 0.0000
# 5 0.0000 0.0000 0.0000 0.0000 28.6910 0.0000
# 6 0.0000 0.0000 0.0000 0.0000 0.0000 30.9525
#
#
#
# Elastic Compliance Matrix: (Units=1/GPa)
#
#
# Indices 1 2 3 4 5 6 
#
# 1 0.009904 -0.006917 0.003125 0.000000 0.000000 0.000000
# 2 -0.006917 0.032190 -0.019037 0.000000 0.000000 0.000000
# 3 0.003125 -0.019037 0.039949 0.000000 0.000000 0.000000
# 4 0.000000 0.000000 0.000000 0.029685 0.000000 0.000000
# 5 0.000000 0.000000 0.000000 0.000000 0.034854 0.000000
# 6 0.000000 0.000000 0.000000 0.000000 0.000000 0.032308
#
#
# Mechanical properties :
#
#
# Convention : Reuss Voigt Hill
#
# Bulk Modulus (GPa) = 27.48435 34.58087 31.03261
# Shear Modulus (GPa) = 21.12590 28.70006 24.91298
#
# Velocity S-wave (km/s) = 3.08464 3.59533 3.34973
# Velocity P-wave (km/s) = 5.00655 5.72803 5.37940
#
# Compressibility (1/GPa) = 0.03638434
#
# Stress axis : x y z
#
# Youngs Moduli (GPa) = 100.97315 31.06544 25.03192
#
# Poissons Ratio (x) = 0.21488 -0.07822
# Poissons Ratio (y) = 0.69843 0.47653
# Poissons Ratio (z) = -0.31551 0.59139
#
# Static dielectric constant tensor:
#      x y z
#    x 7.983390 0.000000 0.000000 
#    y 0.000000 4.579180 0.000000 
#    z 0.000000 0.000000 5.344460 
# 
# 
# High freq. dielectric constant tensor:
#      x y z
#    x 1.903010 0.000000 0.000000 
#    y 0.000000 1.855930 0.000000 
#    z 0.000000 0.000000 1.859770 
# 
# From -- ./inp_files/13623.got.cif
#   From: 2010.03.12/outbox.cif.g09.slc.cpg/sg62_7_cif.got.tgz:13623.got - 2010.04.10 19:12:36.
