data_PCOD8251740
_publ_section_title
;
Structure prediction by ZEFSAII (Michael W. Deem and Ramdas Pophale) SiO2 
 PCOD8251740
Probable space group: P N M A
;
_chemical_formula_sum "Si O2"
_cell_formula_units_Z 56
_cell_length_a 14.717628
_cell_length_b 8.822660
_cell_length_c 21.824755
_cell_angle_alpha 90.000000
_cell_angle_beta 90.000000
_cell_angle_gamma 90.000000
_cell_volume 2833.914490
_symmetry_space_group_name_H-M "P N M A"
_symmetry_group_IT_number 62
_symmetry_cell_setting 'orthorhombic'
loop_
_space_group_symop_operation_xyz
x,y,z
1/2-x,-y,1/2+z
1/2+x,1/2-y,1/2-z
-x,1/2+y,-z
-x,-y,-z
1/2+x,y,1/2-z
1/2-x,1/2+y,1/2+z
x,1/2-y,z
loop_
_atom_site_type_symbol
_atom_site_label
_atom_site_fract_x
_atom_site_fract_y
_atom_site_fract_z
Si Si1 0.619772 0.428669 0.752165
Si Si2 0.729087 0.927427 0.981724
Si Si3 0.181886 0.569455 0.279779
Si Si4 0.915996 0.072150 0.382205
Si Si5 0.399584 0.070741 0.907182
Si Si6 0.949638 0.428711 0.824125
Si Si7 0.919929 0.069921 0.960417
O O1 0.620641 0.250000 0.764545
O O2 0.716299 0.490844 0.729519
O O3 0.589922 0.505387 0.814753
O O4 0.550195 0.472654 0.698327
O O5 0.751994 0.750000 0.985502
O O6 0.675367 0.968701 0.919522
O O7 0.822353 0.019674 0.985627
O O8 0.667486 0.978850 0.038718
O O9 0.179803 0.750000 0.280400
O O10 0.142639 0.508506 0.343725
O O11 0.122591 0.502639 0.223924
O O12 0.929773 0.250000 0.378582
O O13 0.002308 0.003708 0.417809
O O14 0.413005 0.250000 0.905948
O O15 0.937033 0.250000 0.826094
O O16 0.931823 0.495077 0.891478
O O17 0.927723 0.250000 0.962707
O O18 0.000000 0.000000 0.000000
#
# Coordination Sequence:
#
# PCOD8251740 Si02
#       7
#     8   8   8   8   8   8   8
#     4  10  19  34  60  85 109 147 197 245 283 340
#     4  10  23  40  60  86 119 158 198 242 293 352
#     4   9  17  31  57  88 108 136 194 251 283 320
#     4  11  22  37  56  88 127 156 186 238 307 365
#     4  10  20  37  62  86 112 154 204 248 288 344
#     4   9  18  34  57  86 112 143 194 242 279 334
#     4  11  24  41  63  89 120 157 199 247 295 348
#
# _framework density 19.760652
#
# number of rings (size 3 to 8) (size 9 to 14) (size 15 to 20)
#    0.000    2.000    1.429    2.143    2.000    2.857 
#    0.000    2.143    0.000    0.000    0.000    0.000 
#    0.000    0.000    0.000    0.000    0.000    0.000 
#
# Total GULP energy -694517.250580 kJ/mol
# GULP energy per Si atom -12402.093760 kJ/mol
# Density = 1.971568 g / cm^3
# Si number density = 19.760652 Si / 1000 Ang^3
#
#
#
# Elastic Constant Matrix: (Units=GPa)
#
#
# Indices 1 2 3 4 5 6 
#
# 1 149.0028 39.9011 38.5166 0.0000 0.0000 0.0000
# 2 39.9011 45.5048 26.3344 0.0000 0.0000 0.0000
# 3 38.5166 26.3344 98.6032 0.0000 0.0000 0.0000
# 4 0.0000 0.0000 0.0000 23.1894 0.0000 0.0000
# 5 0.0000 0.0000 0.0000 0.0000 35.6036 0.0000
# 6 0.0000 0.0000 0.0000 0.0000 0.0000 27.8102
#
#
#
# Elastic Compliance Matrix: (Units=1/GPa)
#
#
# Indices 1 2 3 4 5 6 
#
# 1 0.008996 -0.006925 -0.001665 0.000000 0.000000 0.000000
# 2 -0.006925 0.031324 -0.005661 0.000000 0.000000 0.000000
# 3 -0.001665 -0.005661 0.012304 0.000000 0.000000 0.000000
# 4 0.000000 0.000000 0.000000 0.043123 0.000000 0.000000
# 5 0.000000 0.000000 0.000000 0.000000 0.028087 0.000000
# 6 0.000000 0.000000 0.000000 0.000000 0.000000 0.035958
#
#
# Mechanical properties :
#
#
# Convention : Reuss Voigt Hill
#
# Bulk Modulus (GPa) = 41.45408 55.84610 48.65009
# Shear Modulus (GPa) = 25.46695 29.87791 27.67243
#
# Velocity S-wave (km/s) = 3.59384 3.89265 3.74623
# Velocity P-wave (km/s) = 6.18422 6.96608 6.58676
#
# Compressibility (1/GPa) = 0.02412308
#
# Stress axis : x y z
#
# Youngs Moduli (GPa) = 111.16106 31.92465 81.27621
#
# Poissons Ratio (x) = 0.22107 0.13529
# Poissons Ratio (y) = 0.76977 0.46009
# Poissons Ratio (z) = 0.18504 0.18072
#
# Static dielectric constant tensor:
#      x y z
#    x 3.898450 0.000000 0.000000 
#    y 0.000000 3.220870 0.000000 
#    z 0.000000 0.000000 3.830360 
# 
# 
# High freq. dielectric constant tensor:
#      x y z
#    x 1.787580 0.000000 0.000000 
#    y 0.000000 1.733030 0.000000 
#    z 0.000000 0.000000 1.782820 
# 
# From -- ./inp_files/27086.got.cif
#   From: 2010.03.12/outbox.cif.g09.slc.cpg/sg62_14_cif.got.tgz:27086.got - 2010.04.10 19:12:36.
