data_PCOD8251628
_publ_section_title
;
Structure prediction by ZEFSAII (Michael W. Deem and Ramdas Pophale) SiO2 
 PCOD8251628
Probable space group: P N M A
;
_chemical_formula_sum "Si O2"
_cell_formula_units_Z 56
_cell_length_a 14.645709
_cell_length_b 8.472498
_cell_length_c 21.962971
_cell_angle_alpha 90.000000
_cell_angle_beta 90.000000
_cell_angle_gamma 90.000000
_cell_volume 2725.291514
_symmetry_space_group_name_H-M "P N M A"
_symmetry_group_IT_number 62
_symmetry_cell_setting 'orthorhombic'
loop_
_space_group_symop_operation_xyz
x,y,z
1/2-x,-y,1/2+z
1/2+x,1/2-y,1/2-z
-x,1/2+y,-z
-x,-y,-z
1/2+x,y,1/2-z
1/2-x,1/2+y,1/2+z
x,1/2-y,z
loop_
_atom_site_type_symbol
_atom_site_label
_atom_site_fract_x
_atom_site_fract_y
_atom_site_fract_z
Si Si1 0.830586 0.565690 0.347208
Si Si2 0.164251 0.066057 0.092767
Si Si3 0.826744 0.063327 0.217463
Si Si4 0.683491 0.932231 0.130792
Si Si5 0.689668 0.570158 0.534383
Si Si6 0.032733 0.930973 0.881789
Si Si7 0.499118 0.936842 0.069142
O O1 0.811148 0.750000 0.356066
O O2 0.739121 0.462796 0.355827
O O3 0.855697 0.529521 0.277827
O O4 0.908478 0.508662 0.394562
O O5 0.154004 0.250000 0.076339
O O6 0.067542 0.991360 0.114420
O O7 0.201120 0.968798 0.035682
O O8 0.830971 0.250000 0.228084
O O9 0.903134 0.997592 0.170670
O O10 0.726357 0.022357 0.189483
O O11 0.676217 0.750000 0.148870
O O12 0.584364 0.999218 0.109977
O O13 0.747556 0.952545 0.072270
O O14 0.721102 0.750000 0.547542
O O15 0.583947 0.546967 0.553613
O O16 0.017844 0.750000 0.865149
O O17 0.504844 0.750000 0.064525
O O18 0.500000 0.000000 0.000000
#
# Coordination Sequence:
#
# PCOD8251628 Si02
#       7
#     8   8   8   8   8   8   8
#     4  11  24  41  57  80 113 149 187 235 284 335
#     4  11  21  35  55  82 112 146 183 224 272 326
#     4  10  21  40  61  84 111 145 186 231 281 338
#     4  10  20  37  60  86 113 148 189 233 281 336
#     4  10  19  34  55  84 117 148 180 222 272 328
#     4   8  18  35  56  81 112 144 180 222 270 327
#     4  10  23  40  60  85 116 152 194 239 290 342
#
# _framework density 20.548261
#
# number of rings (size 3 to 8) (size 9 to 14) (size 15 to 20)
#    0.000    2.000    0.000    4.286    0.000    5.714 
#    0.000   10.714    0.000    0.000    0.000    0.000 
#    0.000    0.000    0.000    0.000    0.000    0.000 
#
# Total GULP energy -694229.420301 kJ/mol
# GULP energy per Si atom -12396.953934 kJ/mol
# Density = 2.050149 g / cm^3
# Si number density = 20.548261 Si / 1000 Ang^3
#
#
#
# Elastic Constant Matrix: (Units=GPa)
#
#
# Indices 1 2 3 4 5 6 
#
# 1 114.5409 27.8406 29.1188 0.0000 0.0000 0.0000
# 2 27.8406 43.7891 16.7238 0.0000 0.0000 0.0000
# 3 29.1188 16.7238 103.9747 0.0000 0.0000 0.0000
# 4 0.0000 0.0000 0.0000 32.3540 0.0000 0.0000
# 5 0.0000 0.0000 0.0000 0.0000 29.6495 0.0000
# 6 0.0000 0.0000 0.0000 0.0000 0.0000 25.8201
#
#
#
# Elastic Compliance Matrix: (Units=1/GPa)
#
#
# Indices 1 2 3 4 5 6 
#
# 1 0.010714 -0.006037 -0.002030 0.000000 0.000000 0.000000
# 2 -0.006037 0.027733 -0.002770 0.000000 0.000000 0.000000
# 3 -0.002030 -0.002770 0.010632 0.000000 0.000000 0.000000
# 4 0.000000 0.000000 0.000000 0.030908 0.000000 0.000000
# 5 0.000000 0.000000 0.000000 0.000000 0.033727 0.000000
# 6 0.000000 0.000000 0.000000 0.000000 0.000000 0.038730
#
#
# Mechanical properties :
#
#
# Convention : Reuss Voigt Hill
#
# Bulk Modulus (GPa) = 36.48868 45.51901 41.00385
# Shear Modulus (GPa) = 27.28504 30.13947 28.71226
#
# Velocity S-wave (km/s) = 3.64792 3.83399 3.74211
# Velocity P-wave (km/s) = 5.96148 6.46527 6.21848
#
# Compressibility (1/GPa) = 0.02740576
#
# Stress axis : x y z
#
# Youngs Moduli (GPa) = 93.33834 36.05859 94.05879
#
# Poissons Ratio (x) = 0.21767 0.19089
# Poissons Ratio (y) = 0.56344 0.26055
# Poissons Ratio (z) = 0.18943 0.09988
#
# Static dielectric constant tensor:
#      x y z
#    x 4.007690 0.000000 0.000000 
#    y 0.000000 3.458730 0.000000 
#    z 0.000000 0.000000 3.655010 
# 
# 
# High freq. dielectric constant tensor:
#      x y z
#    x 1.809960 0.000000 0.000000 
#    y 0.000000 1.788810 0.000000 
#    z 0.000000 0.000000 1.802020 
# 
# From -- ./inp_files/27201.got.cif
#   From: 2010.03.12/outbox.cif.g09.slc.cpg/sg62_14_cif.got.tgz:27201.got - 2010.04.10 19:12:36.
