data_PCOD8251549
_publ_section_title
;
Structure prediction by ZEFSAII (Michael W. Deem and Ramdas Pophale) SiO2 
 PCOD8251549
Probable space group: P N M A
;
_chemical_formula_sum "Si O2"
_cell_formula_units_Z 40
_cell_length_a 17.882302
_cell_length_b 14.131196
_cell_length_c 7.722592
_cell_angle_alpha 90.000000
_cell_angle_beta 90.000000
_cell_angle_gamma 90.000000
_cell_volume 1951.485982
_symmetry_space_group_name_H-M "P N M A"
_symmetry_group_IT_number 62
_symmetry_cell_setting 'orthorhombic'
loop_
_space_group_symop_operation_xyz
x,y,z
1/2-x,-y,1/2+z
1/2+x,1/2-y,1/2-z
-x,1/2+y,-z
-x,-y,-z
1/2+x,y,1/2-z
1/2-x,1/2+y,1/2+z
x,1/2-y,z
loop_
_atom_site_type_symbol
_atom_site_label
_atom_site_fract_x
_atom_site_fract_y
_atom_site_fract_z
Si Si1 0.308636 0.358911 0.601499
Si Si2 0.007066 0.144576 0.376971
Si Si3 0.862897 0.641962 0.382515
Si Si4 0.144034 0.644658 0.474333
Si Si5 0.613371 0.538640 0.703052
O O1 0.335858 0.250000 0.582178
O O2 0.221835 0.367506 0.554081
O O3 0.321732 0.395873 0.797121
O O4 0.356853 0.426602 0.479941
O O5 0.017198 0.250000 0.297800
O O6 0.085245 0.107544 0.456120
O O7 0.946762 0.147701 0.535169
O O8 0.972928 0.075041 0.228655
O O9 0.882040 0.750000 0.329626
O O10 0.880884 0.575286 0.216967
O O11 0.176648 0.750000 0.506628
O O12 0.166110 0.580400 0.640832
#
# Coordination Sequence:
#
# PCOD8251549 Si02
#       5
#     8   8   8   8   8
#     4  10  20  35  56  82 106 137 182 229 267 314
#     4   8  16  34  57  79 109 146 175 216 273 322
#     4  10  21  34  53  82 116 143 173 228 280 307
#     4   8  17  33  57  81 106 137 179 222 264 320
#     4  10  19  33  60  79 103 146 188 210 264 332
#
# _framework density 20.497199999999999
#
# number of rings (size 3 to 8) (size 9 to 14) (size 15 to 20)
#    1.200    1.600    0.000    1.800    2.800    0.000 
#    0.000    1.000    4.400    1.200    0.000    0.000 
#    0.000    0.000    0.000    0.000    0.000    0.000 
#
# Total GULP energy -495552.974529 kJ/mol
# GULP energy per Si atom -12388.824363 kJ/mol
# Density = 2.045055 g / cm^3
# Si number density = 20.497200 Si / 1000 Ang^3
#
#
#
# Elastic Constant Matrix: (Units=GPa)
#
#
# Indices 1 2 3 4 5 6 
#
# 1 54.3084 -9.1991 -1.1850 0.0000 0.0000 0.0000
# 2 -9.1991 67.2163 14.5237 0.0000 0.0000 0.0000
# 3 -1.1850 14.5237 57.2682 0.0000 0.0000 0.0000
# 4 0.0000 0.0000 0.0000 22.8885 0.0000 0.0000
# 5 0.0000 0.0000 0.0000 0.0000 13.3775 0.0000
# 6 0.0000 0.0000 0.0000 0.0000 0.0000 16.3523
#
#
#
# Elastic Compliance Matrix: (Units=1/GPa)
#
#
# Indices 1 2 3 4 5 6 
#
# 1 0.018855 0.002641 -0.000280 0.000000 0.000000 0.000000
# 2 0.002641 0.016110 -0.004031 0.000000 0.000000 0.000000
# 3 -0.000280 -0.004031 0.018478 0.000000 0.000000 0.000000
# 4 0.000000 0.000000 0.000000 0.043690 0.000000 0.000000
# 5 0.000000 0.000000 0.000000 0.000000 0.074752 0.000000
# 6 0.000000 0.000000 0.000000 0.000000 0.000000 0.061154
#
#
# Mechanical properties :
#
#
# Convention : Reuss Voigt Hill
#
# Bulk Modulus (GPa) = 19.95883 20.78578 20.37231
# Shear Modulus (GPa) = 19.75669 22.16722 20.96196
#
# Velocity S-wave (km/s) = 3.10800 3.29215 3.20140
# Velocity P-wave (km/s) = 4.75794 4.96123 4.86065
#
# Compressibility (1/GPa) = 0.05010313
#
# Stress axis : x y z
#
# Youngs Moduli (GPa) = 53.03751 62.07428 54.11790
#
# Poissons Ratio (x) = -0.16393 0.01513
# Poissons Ratio (y) = -0.14006 0.21814
# Poissons Ratio (z) = 0.01483 0.25022
#
# Static dielectric constant tensor:
#      x y z
#    x 3.520310 0.000000 0.000000 
#    y 0.000000 3.777450 0.000000 
#    z 0.000000 0.000000 3.188410 
# 
# 
# High freq. dielectric constant tensor:
#      x y z
#    x 1.782440 0.000000 0.000000 
#    y 0.000000 1.809780 0.000000 
#    z 0.000000 0.000000 1.753560 
# 
# From -- ./inp_files/7459.got.cif
#   From: 2010.03.12/outbox.cif.g09.slc.cpg/sg62_4_cif.got.tgz:7459.got - 2010.04.10 19:12:36.
