data_PCOD8251232
_publ_section_title
;
Structure prediction by ZEFSAII (Michael W. Deem and Ramdas Pophale) SiO2 
 PCOD8251232
Probable space group: P N M A
;
_chemical_formula_sum "Si O2"
_cell_formula_units_Z 56
_cell_length_a 11.824251
_cell_length_b 12.453417
_cell_length_c 20.604728
_cell_angle_alpha 90.000000
_cell_angle_beta 90.000000
_cell_angle_gamma 90.000000
_cell_volume 3034.094174
_symmetry_space_group_name_H-M "P N M A"
_symmetry_group_IT_number 62
_symmetry_cell_setting 'orthorhombic'
loop_
_space_group_symop_operation_xyz
x,y,z
1/2-x,-y,1/2+z
1/2+x,1/2-y,1/2-z
-x,1/2+y,-z
-x,-y,-z
1/2+x,y,1/2-z
1/2-x,1/2+y,1/2+z
x,1/2-y,z
loop_
_atom_site_type_symbol
_atom_site_label
_atom_site_fract_x
_atom_site_fract_y
_atom_site_fract_z
Si Si1 0.541622 0.375378 0.440226
Si Si2 0.529701 0.981532 0.810295
Si Si3 0.781967 0.871236 0.375592
Si Si4 0.314634 0.047859 0.495716
Si Si5 0.407257 0.490761 0.682005
Si Si6 0.775639 0.367873 0.256507
Si Si7 0.321535 0.622431 0.878317
O O1 0.569397 0.250000 0.425741
O O2 0.644213 0.428167 0.482530
O O3 0.425659 0.380347 0.481183
O O4 0.523101 0.446688 0.374537
O O5 0.475134 0.039957 0.747131
O O6 0.595185 0.881304 0.778267
O O7 0.442030 0.930472 0.860861
O O8 0.614434 0.061924 0.845444
O O9 0.821245 0.750000 0.367523
O O10 0.765683 0.900510 0.450355
O O11 0.656903 0.884605 0.343507
O O12 0.232098 0.048663 0.434054
O O13 0.301956 0.565275 0.696775
O O14 0.731817 0.250000 0.268498
O O15 0.763729 0.396386 0.181082
O O16 0.332816 0.750000 0.895953
#
# Coordination Sequence:
#
# PCOD8251232 Si02
#       7
#     8   8   8   8   8   8   8
#     4  10  19  34  58  81 105 137 172 220 271 306
#     4  10  20  33  51  77 104 133 173 214 259 316
#     4  10  21  37  53  69  99 139 173 212 259 308
#     4  10  21  35  52  78 107 137 177 211 248 311
#     4   9  19  33  52  78 102 126 170 222 264 312
#     4   9  17  30  49  76 108 135 163 209 268 318
#     4  10  19  32  53  78 107 140 172 213 263 312
#
# _framework density 18.456909
#
# number of rings (size 3 to 8) (size 9 to 14) (size 15 to 20)
#    0.000    2.286    0.000    3.000    0.000    4.000 
#    0.000    1.429    0.000   13.714    0.000    0.000 
#    0.000    0.000    0.000    0.000    0.000    0.000 
#
# Total GULP energy -693816.506672 kJ/mol
# GULP energy per Si atom -12389.580476 kJ/mol
# Density = 1.841490 g / cm^3
# Si number density = 18.456909 Si / 1000 Ang^3
#
#
#
# Elastic Constant Matrix: (Units=GPa)
#
#
# Indices 1 2 3 4 5 6 
#
# 1 97.0177 45.5893 54.8470 0.0000 0.0000 0.0000
# 2 45.5893 61.8659 48.0683 0.0000 0.0000 0.0000
# 3 54.8470 48.0683 99.5709 0.0000 0.0000 0.0000
# 4 0.0000 0.0000 0.0000 14.0297 0.0000 0.0000
# 5 0.0000 0.0000 0.0000 0.0000 36.9940 0.0000
# 6 0.0000 0.0000 0.0000 0.0000 0.0000 14.7896
#
#
#
# Elastic Compliance Matrix: (Units=1/GPa)
#
#
# Indices 1 2 3 4 5 6 
#
# 1 0.017434 -0.008618 -0.005443 0.000000 0.000000 0.000000
# 2 -0.008618 0.030126 -0.009796 0.000000 0.000000 0.000000
# 3 -0.005443 -0.009796 0.017770 0.000000 0.000000 0.000000
# 4 0.000000 0.000000 0.000000 0.071277 0.000000 0.000000
# 5 0.000000 0.000000 0.000000 0.000000 0.027031 0.000000
# 6 0.000000 0.000000 0.000000 0.000000 0.000000 0.067615
#
#
# Mechanical properties :
#
#
# Convention : Reuss Voigt Hill
#
# Bulk Modulus (GPa) = 56.76675 61.71817 59.24246
# Shear Modulus (GPa) = 17.55360 20.49267 19.02314
#
# Velocity S-wave (km/s) = 3.08727 3.33573 3.21390
# Velocity P-wave (km/s) = 6.59784 6.95326 6.77788
#
# Compressibility (1/GPa) = 0.01761595
#
# Stress axis : x y z
#
# Youngs Moduli (GPa) = 57.35842 33.19337 56.27347
#
# Poissons Ratio (x) = 0.28608 0.30628
# Poissons Ratio (y) = 0.49434 0.55127
# Poissons Ratio (z) = 0.31219 0.32517
#
# Static dielectric constant tensor:
#      x y z
#    x 3.794350 0.000000 0.000000 
#    y 0.000000 3.309010 0.000000 
#    z 0.000000 0.000000 3.515640 
# 
# 
# High freq. dielectric constant tensor:
#      x y z
#    x 1.716210 0.000000 0.000000 
#    y 0.000000 1.694850 0.000000 
#    z 0.000000 0.000000 1.726630 
# 
# From -- ./inp_files/26598.got.cif
#   From: 2010.03.12/outbox.cif.g09.slc.cpg/sg62_14_cif.got.tgz:26598.got - 2010.04.10 19:12:36.
