data_PCOD8251500
_publ_section_title
;
Structure prediction by ZEFSAII (Michael W. Deem and Ramdas Pophale) SiO2 
 PCOD8251500
Probable space group: P N M A
;
_chemical_formula_sum "Si O2"
_cell_formula_units_Z 48
_cell_length_a 29.048042
_cell_length_b 9.215118
_cell_length_c 10.173001
_cell_angle_alpha 90.000000
_cell_angle_beta 90.000000
_cell_angle_gamma 90.000000
_cell_volume 2723.120451
_symmetry_space_group_name_H-M "P N M A"
_symmetry_group_IT_number 62
_symmetry_cell_setting 'orthorhombic'
loop_
_space_group_symop_operation_xyz
x,y,z
1/2-x,-y,1/2+z
1/2+x,1/2-y,1/2-z
-x,1/2+y,-z
-x,-y,-z
1/2+x,y,1/2-z
1/2-x,1/2+y,1/2+z
x,1/2-y,z
loop_
_atom_site_type_symbol
_atom_site_label
_atom_site_fract_x
_atom_site_fract_y
_atom_site_fract_z
Si Si1 0.890808 0.417931 0.218352
Si Si2 0.974715 0.578172 0.117203
Si Si3 0.475381 0.419086 0.883164
Si Si4 0.719697 0.578487 0.006491
Si Si5 0.618789 0.920108 0.009614
Si Si6 0.215457 0.583590 0.794437
O O1 0.906018 0.250000 0.205554
O O2 0.923011 0.516578 0.126434
O O3 0.896698 0.478857 0.366748
O O4 0.838272 0.438199 0.173748
O O5 0.973308 0.750000 0.094903
O O6 0.003629 0.532890 0.245552
O O7 0.000000 0.500000 0.000000
O O8 0.482388 0.250000 0.909231
O O9 0.420620 0.458483 0.884145
O O10 0.500000 0.500000 0.000000
O O11 0.723613 0.750000 0.022121
O O12 0.668975 0.519830 0.051680
O O13 0.757334 0.508798 0.099478
O O14 0.727351 0.533052 0.854192
O O15 0.625772 0.750000 0.988940
O O16 0.229665 0.750000 0.812130
#
# Coordination Sequence:
#
# PCOD8251500 Si02
#       6
#     8   8   8   8   8   8
#     4   9  17  34  58  76 100 140 177 213 262 315
#     4  11  23  36  52  78 111 143 176 216 261 316
#     4  10  19  33  56  81 103 132 174 217 257 307
#     4   9  18  34  55  77 105 139 175 214 260 314
#     4   8  15  31  55  78 100 132 172 215 262 309
#     4   9  19  35  55  80 106 135 174 216 261 315
#
# _framework density 17.626836999999998
#
# number of rings (size 3 to 8) (size 9 to 14) (size 15 to 20)
#    0.000    2.667    1.667    2.500    0.000    2.000 
#    3.000    3.333    0.000    0.000    0.000    0.000 
#    0.000    0.000    0.000    0.000    0.000    0.000 
#
# Total GULP energy -594996.981214 kJ/mol
# GULP energy per Si atom -12395.770442 kJ/mol
# Density = 1.758672 g / cm^3
# Si number density = 17.626837 Si / 1000 Ang^3
#
#
#
# Elastic Constant Matrix: (Units=GPa)
#
#
# Indices 1 2 3 4 5 6 
#
# 1 116.8336 48.4775 71.1711 0.0000 0.0000 0.0000
# 2 48.4775 57.8931 52.2628 0.0000 0.0000 0.0000
# 3 71.1711 52.2628 110.0866 0.0000 0.0000 0.0000
# 4 0.0000 0.0000 0.0000 29.0951 0.0000 0.0000
# 5 0.0000 0.0000 0.0000 0.0000 33.9040 0.0000
# 6 0.0000 0.0000 0.0000 0.0000 0.0000 31.0751
#
#
#
# Elastic Compliance Matrix: (Units=1/GPa)
#
#
# Indices 1 2 3 4 5 6 
#
# 1 0.015552 -0.006906 -0.006776 0.000000 0.000000 0.000000
# 2 -0.006906 0.033295 -0.011342 0.000000 0.000000 0.000000
# 3 -0.006776 -0.011342 0.018849 0.000000 0.000000 0.000000
# 4 0.000000 0.000000 0.000000 0.034370 0.000000 0.000000
# 5 0.000000 0.000000 0.000000 0.000000 0.029495 0.000000
# 6 0.000000 0.000000 0.000000 0.000000 0.000000 0.032180
#
#
# Mechanical properties :
#
#
# Convention : Reuss Voigt Hill
#
# Bulk Modulus (GPa) = 56.66201 69.84845 63.25523
# Shear Modulus (GPa) = 22.76126 26.34163 24.55145
#
# Velocity S-wave (km/s) = 3.59734 3.86995 3.73613
# Velocity P-wave (km/s) = 7.03346 7.72534 7.38751
#
# Compressibility (1/GPa) = 0.01764851
#
# Stress axis : x y z
#
# Youngs Moduli (GPa) = 64.29866 30.03488 53.05342
#
# Poissons Ratio (x) = 0.20742 0.35950
# Poissons Ratio (y) = 0.44404 0.60172
# Poissons Ratio (z) = 0.43570 0.34065
#
# Static dielectric constant tensor:
#      x y z
#    x 4.021530 0.000000 0.000000 
#    y 0.000000 3.080340 0.000000 
#    z 0.000000 0.000000 3.338650 
# 
# 
# High freq. dielectric constant tensor:
#      x y z
#    x 1.694480 0.000000 0.000000 
#    y 0.000000 1.663590 0.000000 
#    z 0.000000 0.000000 1.667710 
# 
# From -- ./inp_files/10191.got.cif
#   From: 2010.03.12/outbox.cif.g09.slc.cpg/sg62_6_cif.got.tgz:10191.got - 2010.04.10 19:12:36.
