data_PCOD8251036
_publ_section_title
;
Structure prediction by ZEFSAII (Michael W. Deem and Ramdas Pophale) SiO2 
 PCOD8251036
Probable space group: P N M A
;
_chemical_formula_sum "Si O2"
_cell_formula_units_Z 48
_cell_length_a 19.237590
_cell_length_b 8.966273
_cell_length_c 17.122491
_cell_angle_alpha 90.000000
_cell_angle_beta 90.000000
_cell_angle_gamma 90.000000
_cell_volume 2953.449634
_symmetry_space_group_name_H-M "P N M A"
_symmetry_group_IT_number 62
_symmetry_cell_setting 'orthorhombic'
loop_
_space_group_symop_operation_xyz
x,y,z
1/2-x,-y,1/2+z
1/2+x,1/2-y,1/2-z
-x,1/2+y,-z
-x,-y,-z
1/2+x,y,1/2-z
1/2-x,1/2+y,1/2+z
x,1/2-y,z
loop_
_atom_site_type_symbol
_atom_site_label
_atom_site_fract_x
_atom_site_fract_y
_atom_site_fract_z
Si Si1 0.907646 0.080205 0.656576
Si Si2 0.540273 0.422439 0.930899
Si Si3 0.663988 0.575917 0.992121
Si Si4 0.877181 0.926087 0.812847
Si Si5 0.051916 0.581177 0.057423
Si Si6 0.295194 0.418898 0.565962
O O1 0.891505 0.250000 0.681644
O O2 0.866706 0.040562 0.577320
O O3 0.991195 0.059766 0.645320
O O4 0.881011 0.968319 0.722300
O O5 0.551764 0.250000 0.951302
O O6 0.615245 0.502676 0.924357
O O7 0.500000 0.500000 0.000000
O O8 0.668328 0.750000 0.975475
O O9 0.740139 0.504926 0.987287
O O10 0.875913 0.750000 0.822379
O O11 0.944186 0.994322 0.859206
O O12 0.806745 0.996373 0.850766
O O13 0.026102 0.750000 0.071991
O O14 0.130187 0.580457 0.020787
O O15 0.000000 0.500000 0.000000
O O16 0.270062 0.250000 0.581893
#
# Coordination Sequence:
#
# PCOD8251036 Si02
#       6
#     8   8   8   8   8   8
#     4   9  18  32  49  73 102 133 166 203 249 297
#     4   9  17  29  47  71 100 131 166 205 245 293
#     4  10  19  31  51  75 102 133 168 207 249 302
#     4  10  19  31  51  74  98 128 165 206 248 295
#     4   9  18  32  53  75  97 127 163 205 245 292
#     4   9  19  33  51  73 100 133 167 206 251 300
#
# _framework density 16.252182000000001
#
# number of rings (size 3 to 8) (size 9 to 14) (size 15 to 20)
#    1.000    1.667    0.000    4.000    0.000    4.000 
#    0.000    0.000    3.667    0.000    0.000    0.000 
#    0.000    0.000    0.000    0.000    0.000    0.000 
#
# Total GULP energy -594702.943361 kJ/mol
# GULP energy per Si atom -12389.644653 kJ/mol
# Density = 1.621519 g / cm^3
# Si number density = 16.252182 Si / 1000 Ang^3
#
#
#
# Elastic Constant Matrix: (Units=GPa)
#
#
# Indices 1 2 3 4 5 6 
#
# 1 80.0099 49.5250 35.7785 0.0000 0.0000 0.0000
# 2 49.5250 148.8721 51.7738 0.0000 0.0000 0.0000
# 3 35.7785 51.7738 67.6889 0.0000 0.0000 0.0000
# 4 0.0000 0.0000 0.0000 28.9660 0.0000 0.0000
# 5 0.0000 0.0000 0.0000 0.0000 19.3086 0.0000
# 6 0.0000 0.0000 0.0000 0.0000 0.0000 32.5851
#
#
#
# Elastic Compliance Matrix: (Units=1/GPa)
#
#
# Indices 1 2 3 4 5 6 
#
# 1 0.017666 -0.003582 -0.006598 0.000000 0.000000 0.000000
# 2 -0.003582 0.009878 -0.005662 0.000000 0.000000 0.000000
# 3 -0.006598 -0.005662 0.022592 0.000000 0.000000 0.000000
# 4 0.000000 0.000000 0.000000 0.034523 0.000000 0.000000
# 5 0.000000 0.000000 0.000000 0.000000 0.051790 0.000000
# 6 0.000000 0.000000 0.000000 0.000000 0.000000 0.030689
#
#
# Mechanical properties :
#
#
# Convention : Reuss Voigt Hill
#
# Bulk Modulus (GPa) = 54.19586 63.41394 58.80490
# Shear Modulus (GPa) = 24.39346 26.80486 25.59916
#
# Velocity S-wave (km/s) = 3.87839 4.06557 3.97309
# Velocity P-wave (km/s) = 7.31267 7.81933 7.57024
#
# Compressibility (1/GPa) = 0.01845159
#
# Stress axis : x y z
#
# Youngs Moduli (GPa) = 56.60486 101.23496 44.26442
#
# Poissons Ratio (x) = 0.36267 0.29205
# Poissons Ratio (y) = 0.20279 0.25062
# Poissons Ratio (z) = 0.37347 0.57318
#
# Static dielectric constant tensor:
#      x y z
#    x 3.113460 0.000000 0.000000 
#    y 0.000000 3.220220 0.000000 
#    z 0.000000 0.000000 2.760440 
# 
# 
# High freq. dielectric constant tensor:
#      x y z
#    x 1.612180 0.000000 0.000000 
#    y 0.000000 1.646320 0.000000 
#    z 0.000000 0.000000 1.588930 
# 
# From -- ./inp_files/24516.got.cif
#   From: 2010.03.12/outbox.cif.g09.slc.cpg/sg62_13_cif.got.tgz:24516.got - 2010.04.10 19:12:36.
