data_PCOD8251464
_publ_section_title
;
Structure prediction by ZEFSAII (Michael W. Deem and Ramdas Pophale) SiO2 
 PCOD8251464
Probable space group: P N M A
;
_chemical_formula_sum "Si O2"
_cell_formula_units_Z 56
_cell_length_a 21.935971
_cell_length_b 9.087931
_cell_length_c 14.745602
_cell_angle_alpha 90.000000
_cell_angle_beta 90.000000
_cell_angle_gamma 90.000000
_cell_volume 2939.573963
_symmetry_space_group_name_H-M "P N M A"
_symmetry_group_IT_number 62
_symmetry_cell_setting 'orthorhombic'
loop_
_space_group_symop_operation_xyz
x,y,z
1/2-x,-y,1/2+z
1/2+x,1/2-y,1/2-z
-x,1/2+y,-z
-x,-y,-z
1/2+x,y,1/2-z
1/2-x,1/2+y,1/2+z
x,1/2-y,z
loop_
_atom_site_type_symbol
_atom_site_label
_atom_site_fract_x
_atom_site_fract_y
_atom_site_fract_z
Si Si1 0.386965 0.575943 0.574253
Si Si2 0.679423 0.076866 0.030679
Si Si3 0.481053 0.924087 0.723953
Si Si4 0.541401 0.423703 0.074362
Si Si5 0.749208 0.075719 0.379681
Si Si6 0.226103 0.924570 0.820805
Si Si7 0.903940 0.075257 0.109616
O O1 0.392835 0.750000 0.561206
O O2 0.424091 0.522944 0.662909
O O3 0.317053 0.525953 0.585205
O O4 0.416268 0.497358 0.487542
O O5 0.687770 0.250000 0.017340
O O6 0.610962 0.033953 0.055141
O O7 0.722872 0.016155 0.110388
O O8 0.697638 0.996762 0.938334
O O9 0.479552 0.750000 0.730173
O O10 0.475574 0.986931 0.825960
O O11 0.543966 0.978373 0.678964
O O12 0.530788 0.250000 0.068882
O O13 0.500000 0.500000 0.000000
O O14 0.756593 0.250000 0.383631
O O15 0.757919 0.014628 0.278293
O O16 0.226761 0.750000 0.819389
O O17 0.160058 0.982876 0.851100
O O18 0.904896 0.250000 0.097253
#
# Coordination Sequence:
#
# PCOD8251464 Si02
#       7
#     8   8   8   8   8   8   8
#     4  10  19  34  54  81 112 140 176 223 270 317
#     4  10  20  37  57  79 108 141 175 219 269 316
#     4   9  19  35  56  79 105 143 185 219 261 322
#     4  10  22  39  59  80 107 143 182 223 266 315
#     4  10  20  33  55  81 106 141 180 219 263 315
#     4   9  18  33  54  78 106 141 181 217 260 321
#     4  10  19  33  55  80 106 140 180 221 267 319
#
# _framework density 19.050380000000001
#
# number of rings (size 3 to 8) (size 9 to 14) (size 15 to 20)
#    0.000    2.286    1.429    1.286    2.000    4.000 
#    0.000    2.857    0.000    3.429    0.000    0.000 
#    0.000    0.000    0.000    0.000    0.000    0.000 
#
# Total GULP energy -694497.452263 kJ/mol
# GULP energy per Si atom -12401.740219 kJ/mol
# Density = 1.900702 g / cm^3
# Si number density = 19.050380 Si / 1000 Ang^3
#
#
#
# Elastic Constant Matrix: (Units=GPa)
#
#
# Indices 1 2 3 4 5 6 
#
# 1 140.4889 30.4121 77.2511 0.0000 0.0000 0.0000
# 2 30.4121 20.1959 29.9210 0.0000 0.0000 0.0000
# 3 77.2511 29.9210 169.5226 0.0000 0.0000 0.0000
# 4 0.0000 0.0000 0.0000 30.1219 0.0000 0.0000
# 5 0.0000 0.0000 0.0000 0.0000 37.9774 0.0000
# 6 0.0000 0.0000 0.0000 0.0000 0.0000 22.8365
#
#
#
# Elastic Compliance Matrix: (Units=1/GPa)
#
#
# Indices 1 2 3 4 5 6 
#
# 1 0.011572 -0.013017 -0.002976 0.000000 0.000000 0.000000
# 2 -0.013017 0.081690 -0.008487 0.000000 0.000000 0.000000
# 3 -0.002976 -0.008487 0.008753 0.000000 0.000000 0.000000
# 4 0.000000 0.000000 0.000000 0.033198 0.000000 0.000000
# 5 0.000000 0.000000 0.000000 0.000000 0.026331 0.000000
# 6 0.000000 0.000000 0.000000 0.000000 0.000000 0.043789
#
#
# Mechanical properties :
#
#
# Convention : Reuss Voigt Hill
#
# Bulk Modulus (GPa) = 18.84795 67.26399 43.05597
# Shear Modulus (GPa) = 18.38372 31.02871 24.70621
#
# Velocity S-wave (km/s) = 3.10982 4.04018 3.60514
# Velocity P-wave (km/s) = 4.77597 7.55971 6.32294
#
# Compressibility (1/GPa) = 0.05305618
#
# Stress axis : x y z
#
# Youngs Moduli (GPa) = 86.41358 12.24133 114.24777
#
# Poissons Ratio (x) = 0.15935 0.33999
# Poissons Ratio (y) = 1.12487 0.96957
# Poissons Ratio (z) = 0.25716 0.10389
#
# Static dielectric constant tensor:
#      x y z
#    x 3.677060 0.000000 0.000000 
#    y 0.000000 3.040820 0.000000 
#    z 0.000000 0.000000 3.716610 
# 
# 
# High freq. dielectric constant tensor:
#      x y z
#    x 1.755090 0.000000 0.000000 
#    y 0.000000 1.696530 0.000000 
#    z 0.000000 0.000000 1.756570 
# 
# From -- ./inp_files/20206.got.cif
#   From: 2010.03.12/outbox.cif.g09.slc.cpg/sg62_11_cif.got.tgz:20206.got - 2010.04.10 19:12:36.
