data_PCOD8251724
_publ_section_title
;
Structure prediction by ZEFSAII (Michael W. Deem and Ramdas Pophale) SiO2 
 PCOD8251724
Probable space group: P N M A
;
_chemical_formula_sum "Si O2"
_cell_formula_units_Z 48
_cell_length_a 23.204410
_cell_length_b 7.438201
_cell_length_c 14.134171
_cell_angle_alpha 90.000000
_cell_angle_beta 90.000000
_cell_angle_gamma 90.000000
_cell_volume 2439.544709
_symmetry_space_group_name_H-M "P N M A"
_symmetry_group_IT_number 62
_symmetry_cell_setting 'orthorhombic'
loop_
_space_group_symop_operation_xyz
x,y,z
1/2-x,-y,1/2+z
1/2+x,1/2-y,1/2-z
-x,1/2+y,-z
-x,-y,-z
1/2+x,y,1/2-z
1/2-x,1/2+y,1/2+z
x,1/2-y,z
loop_
_atom_site_type_symbol
_atom_site_label
_atom_site_fract_x
_atom_site_fract_y
_atom_site_fract_z
Si Si1 0.124463 0.250000 0.884801
Si Si2 0.656026 0.459575 0.895162
Si Si3 0.875542 0.750000 0.890745
Si Si4 0.253920 0.250000 0.106333
Si Si5 0.940298 0.947661 0.260071
Si Si6 0.842948 0.955911 0.614977
Si Si7 0.246046 0.750000 0.383640
Si Si8 0.566072 0.959361 0.268294
O O1 0.092892 0.427338 0.841374
O O2 0.189464 0.250000 0.842638
O O3 0.119933 0.250000 0.996740
O O4 0.667159 0.250000 0.871512
O O5 0.712384 0.569820 0.862420
O O6 0.601671 0.541124 0.836725
O O7 0.643046 0.492008 0.005337
O O8 0.810182 0.750000 0.850555
O O9 0.905088 0.569124 0.853325
O O10 0.246798 0.250000 0.994929
O O11 0.954295 0.750000 0.302255
O O12 0.001905 0.043667 0.246539
O O13 0.826710 0.750000 0.634381
O O14 0.788599 0.073122 0.649881
O O15 0.899774 0.013281 0.671125
O O16 0.564259 0.750000 0.298397
#
# Coordination Sequence:
#
# PCOD8251724 Si02
#       8
#     4   8   4   4   8   8   4   8
#     4   9  20  41  61  79 111 152 191 245 292 320
#     4   9  18  36  60  85 121 149 177 226 284 343
#     4  11  24  39  59  83 111 148 199 241 286 330
#     4   9  20  35  54  89 115 144 190 227 277 350
#     4   8  19  38  57  82 110 146 191 232 278 337
#     4  10  19  34  58  90 118 150 181 220 285 351
#     4   9  18  35  60  81 119 150 178 237 283 332
#     4  11  22  39  57  84 117 146 193 239 275 336
#
# _framework density 19.675802999999998
#
# number of rings (size 3 to 8) (size 9 to 14) (size 15 to 20)
#    0.500    2.000    1.667    0.000    0.000    4.000 
#    0.000    2.500    3.667    0.000    0.000    0.000 
#    0.000    0.000    0.000    0.000    0.000    0.000 
#
# Total GULP energy -594881.584132 kJ/mol
# GULP energy per Si atom -12393.366336 kJ/mol
# Density = 1.963102 g / cm^3
# Si number density = 19.675803 Si / 1000 Ang^3
#
#
#
# Elastic Constant Matrix: (Units=GPa)
#
#
# Indices 1 2 3 4 5 6 
#
# 1 190.8797 54.7592 56.1646 0.0000 0.0000 0.0000
# 2 54.7592 99.7755 27.0399 0.0000 0.0000 0.0000
# 3 56.1646 27.0399 82.1835 0.0000 0.0000 0.0000
# 4 0.0000 0.0000 0.0000 16.0110 0.0000 0.0000
# 5 0.0000 0.0000 0.0000 0.0000 32.0199 0.0000
# 6 0.0000 0.0000 0.0000 0.0000 0.0000 21.3516
#
#
#
# Elastic Compliance Matrix: (Units=1/GPa)
#
#
# Indices 1 2 3 4 5 6 
#
# 1 0.007246 -0.002893 -0.004000 0.000000 0.000000 0.000000
# 2 -0.002893 0.012158 -0.002024 0.000000 0.000000 0.000000
# 3 -0.004000 -0.002024 0.015567 0.000000 0.000000 0.000000
# 4 0.000000 0.000000 0.000000 0.062457 0.000000 0.000000
# 5 0.000000 0.000000 0.000000 0.000000 0.031231 0.000000
# 6 0.000000 0.000000 0.000000 0.000000 0.000000 0.046835
#
#
# Mechanical properties :
#
#
# Convention : Reuss Voigt Hill
#
# Bulk Modulus (GPa) = 58.34606 72.08515 65.21560
# Shear Modulus (GPa) = 25.12067 29.53484 27.32775
#
# Velocity S-wave (km/s) = 3.57701 3.87857 3.73084
# Velocity P-wave (km/s) = 6.83945 7.53484 7.19555
#
# Compressibility (1/GPa) = 0.01713912
#
# Stress axis : x y z
#
# Youngs Moduli (GPa) = 138.01307 82.24764 64.23715
#
# Poissons Ratio (x) = 0.23791 0.25695
# Poissons Ratio (y) = 0.39921 0.12999
# Poissons Ratio (z) = 0.55206 0.16643
#
# Static dielectric constant tensor:
#      x y z
#    x 3.899610 0.000000 0.000000 
#    y 0.000000 3.494140 0.000000 
#    z 0.000000 0.000000 3.343780 
# 
# 
# High freq. dielectric constant tensor:
#      x y z
#    x 1.775280 0.000000 0.000000 
#    y 0.000000 1.753990 0.000000 
#    z 0.000000 0.000000 1.755950 
# 
# From -- ./inp_files/20071.got.cif
#   From: 2010.03.12/outbox.cif.g09.slc.cpg/sg62_11_cif.got.tgz:20071.got - 2010.04.10 19:12:36.
