data_PCOD8251824
_publ_section_title
;
Structure prediction by ZEFSAII (Michael W. Deem and Ramdas Pophale) SiO2 
 PCOD8251824
Probable space group: P N M A
;
_chemical_formula_sum "Si O2"
_cell_formula_units_Z 64
_cell_length_a 15.570321
_cell_length_b 11.157835
_cell_length_c 18.845038
_cell_angle_alpha 90.000000
_cell_angle_beta 90.000000
_cell_angle_gamma 90.000000
_cell_volume 3273.968665
_symmetry_space_group_name_H-M "P N M A"
_symmetry_group_IT_number 62
_symmetry_cell_setting 'orthorhombic'
loop_
_space_group_symop_operation_xyz
x,y,z
1/2-x,-y,1/2+z
1/2+x,1/2-y,1/2-z
-x,1/2+y,-z
-x,-y,-z
1/2+x,y,1/2-z
1/2-x,1/2+y,1/2+z
x,1/2-y,z
loop_
_atom_site_type_symbol
_atom_site_label
_atom_site_fract_x
_atom_site_fract_y
_atom_site_fract_z
Si Si1 0.409031 0.885095 0.260240
Si Si2 0.280026 0.463473 0.022002
Si Si3 0.670375 0.617331 0.577918
Si Si4 0.889487 0.383524 0.601807
Si Si5 0.922819 0.885368 0.404358
Si Si6 0.490184 0.389563 0.335511
Si Si7 0.741732 0.995818 0.200804
Si Si8 0.686174 0.116841 0.341464
O O1 0.445863 0.750000 0.279230
O O2 0.394585 0.895688 0.176789
O O3 0.467002 0.001010 0.281663
O O4 0.315927 0.894464 0.297982
O O5 0.353101 0.553742 0.046342
O O6 0.242026 0.390599 0.087342
O O7 0.200727 0.528851 0.983662
O O8 0.326025 0.377334 0.965398
O O9 0.686018 0.750000 0.548768
O O10 0.569711 0.596155 0.595053
O O11 0.724136 0.603305 0.651112
O O12 0.908983 0.250000 0.628552
O O13 0.847066 0.449953 0.668282
O O14 0.982006 0.444201 0.585086
O O15 0.925604 0.750000 0.431558
O O16 0.479123 0.250000 0.305431
O O17 0.587530 0.413327 0.359240
O O18 0.724472 0.032640 0.281283
O O19 0.693804 0.250000 0.311238
#
# Coordination Sequence:
#
# PCOD8251824 Si02
#       8
#     8   8   8   8   8   8   8   8
#     4  10  19  35  58  87 118 150 191 241 293 346
#     4  11  21  36  55  81 113 149 192 238 289 347
#     4   9  19  36  57  78 108 150 192 232 287 349
#     4  10  21  36  55  79 111 151 188 233 289 348
#     4  10  20  35  53  78 114 148 188 239 290 343
#     4   9  20  38  58  84 116 153 195 243 293 347
#     4  10  19  35  58  82 113 146 191 233 289 351
#     4  11  22  37  58  84 116 149 192 245 296 346
#
# _framework density 19.548141999999999
#
# number of rings (size 3 to 8) (size 9 to 14) (size 15 to 20)
#    0.000    2.000    1.250    2.625    0.000    1.000 
#    0.000    2.500    0.000    5.250    0.000    0.000 
#    0.000    0.000    0.000    0.000    0.000    0.000 
#
# Total GULP energy -793093.766818 kJ/mol
# GULP energy per Si atom -12392.090107 kJ/mol
# Density = 1.950365 g / cm^3
# Si number density = 19.548142 Si / 1000 Ang^3
#
#
#
# Elastic Constant Matrix: (Units=GPa)
#
#
# Indices 1 2 3 4 5 6 
#
# 1 102.3095 25.0325 25.4311 0.0000 0.0000 0.0000
# 2 25.0325 82.6987 16.3442 0.0000 0.0000 0.0000
# 3 25.4311 16.3442 75.9963 0.0000 0.0000 0.0000
# 4 0.0000 0.0000 0.0000 7.8502 0.0000 0.0000
# 5 0.0000 0.0000 0.0000 0.0000 29.1804 0.0000
# 6 0.0000 0.0000 0.0000 0.0000 0.0000 26.1108
#
#
#
# Elastic Compliance Matrix: (Units=1/GPa)
#
#
# Indices 1 2 3 4 5 6 
#
# 1 0.011240 -0.002777 -0.003164 0.000000 0.000000 0.000000
# 2 -0.002777 0.013315 -0.001934 0.000000 0.000000 0.000000
# 3 -0.003164 -0.001934 0.014633 0.000000 0.000000 0.000000
# 4 0.000000 0.000000 0.000000 0.127386 0.000000 0.000000
# 5 0.000000 0.000000 0.000000 0.000000 0.034270 0.000000
# 6 0.000000 0.000000 0.000000 0.000000 0.000000 0.038298
#
#
# Mechanical properties :
#
#
# Convention : Reuss Voigt Hill
#
# Bulk Modulus (GPa) = 42.66640 43.84668 43.25654
# Shear Modulus (GPa) = 19.03271 25.57471 22.30371
#
# Velocity S-wave (km/s) = 3.12369 3.62096 3.38148
# Velocity P-wave (km/s) = 5.90624 6.32144 6.11736
#
# Compressibility (1/GPa) = 0.02343764
#
# Stress axis : x y z
#
# Youngs Moduli (GPa) = 88.96608 75.10348 68.33693
#
# Poissons Ratio (x) = 0.20856 0.21623
# Poissons Ratio (y) = 0.24706 0.13218
# Poissons Ratio (z) = 0.28150 0.14527
#
# Static dielectric constant tensor:
#      x y z
#    x 3.744820 0.000000 0.000000 
#    y 0.000000 3.547950 0.000000 
#    z 0.000000 0.000000 3.353640 
# 
# 
# High freq. dielectric constant tensor:
#      x y z
#    x 1.773950 0.000000 0.000000 
#    y 0.000000 1.756290 0.000000 
#    z 0.000000 0.000000 1.747130 
# 
# From -- ./inp_files/24011.got.cif
#   From: 2010.03.12/outbox.cif.g09.slc.cpg/sg62_13_cif.got.tgz:24011.got - 2010.04.10 19:12:36.
