data_PCOD8251329
_publ_section_title
;
Structure prediction by ZEFSAII (Michael W. Deem and Ramdas Pophale) SiO2 
 PCOD8251329
Probable space group: P N M A
;
_chemical_formula_sum "Si O2"
_cell_formula_units_Z 48
_cell_length_a 23.041941
_cell_length_b 13.341226
_cell_length_c 8.654499
_cell_angle_alpha 90.000000
_cell_angle_beta 90.000000
_cell_angle_gamma 90.000000
_cell_volume 2660.459999
_symmetry_space_group_name_H-M "P N M A"
_symmetry_group_IT_number 62
_symmetry_cell_setting 'orthorhombic'
loop_
_space_group_symop_operation_xyz
x,y,z
1/2-x,-y,1/2+z
1/2+x,1/2-y,1/2-z
-x,1/2+y,-z
-x,-y,-z
1/2+x,y,1/2-z
1/2-x,1/2+y,1/2+z
x,1/2-y,z
loop_
_atom_site_type_symbol
_atom_site_label
_atom_site_fract_x
_atom_site_fract_y
_atom_site_fract_z
Si Si1 0.862885 0.364225 0.771123
Si Si2 0.244727 0.636983 0.738278
Si Si3 0.875353 0.138993 0.110586
Si Si4 0.079218 0.503429 0.648195
Si Si5 0.978577 0.135428 0.606866
Si Si6 0.801762 0.005889 0.521010
O O1 0.844636 0.250000 0.750387
O O2 0.931005 0.381228 0.739696
O O3 0.820481 0.420639 0.656947
O O4 0.852882 0.401267 0.945790
O O5 0.270300 0.750000 0.705023
O O6 0.177199 0.650258 0.771179
O O7 0.275605 0.590845 0.890822
O O8 0.246282 0.562821 0.587565
O O9 0.904634 0.250000 0.091080
O O10 0.917646 0.056208 0.184103
O O11 0.043946 0.581258 0.545118
O O12 0.142058 0.472870 0.579037
O O13 0.040715 0.403963 0.666033
O O14 0.986706 0.250000 0.561782
#
# Coordination Sequence:
#
# PCOD8251329 Si02
#       6
#     8   8   8   8   8   8
#     4   9  17  30  50  72  94 124 162 204 246 290
#     4  10  20  33  51  74  99 129 165 204 248 298
#     4   9  17  30  48  70  94 121 159 203 243 287
#     4   9  18  30  47  70  95 127 160 197 242 287
#     4   9  17  30  47  68  94 125 161 197 238 289
#     4  10  19  33  51  72 100 129 163 204 249 296
#
# _framework density 18.041992
#
# number of rings (size 3 to 8) (size 9 to 14) (size 15 to 20)
#    0.000    2.667    0.000    2.000    0.000    5.333 
#    0.000    0.833    0.000    7.000    0.000    0.000 
#    0.000    0.000    0.000    0.000    0.000    0.000 
#
# Total GULP energy -594833.823936 kJ/mol
# GULP energy per Si atom -12392.371332 kJ/mol
# Density = 1.800093 g / cm^3
# Si number density = 18.041992 Si / 1000 Ang^3
#
#
#
# Elastic Constant Matrix: (Units=GPa)
#
#
# Indices 1 2 3 4 5 6 
#
# 1 43.8467 31.7138 7.6511 0.0000 0.0000 0.0000
# 2 31.7138 85.4160 23.7462 0.0000 0.0000 0.0000
# 3 7.6511 23.7462 78.8542 0.0000 0.0000 0.0000
# 4 0.0000 0.0000 0.0000 30.7125 0.0000 0.0000
# 5 0.0000 0.0000 0.0000 0.0000 16.9553 0.0000
# 6 0.0000 0.0000 0.0000 0.0000 0.0000 25.1258
#
#
#
# Elastic Compliance Matrix: (Units=1/GPa)
#
#
# Indices 1 2 3 4 5 6 
#
# 1 0.031198 -0.011723 0.000503 0.000000 0.000000 0.000000
# 2 -0.011723 0.017182 -0.004037 0.000000 0.000000 0.000000
# 3 0.000503 -0.004037 0.013848 0.000000 0.000000 0.000000
# 4 0.000000 0.000000 0.000000 0.032560 0.000000 0.000000
# 5 0.000000 0.000000 0.000000 0.000000 0.058979 0.000000
# 6 0.000000 0.000000 0.000000 0.000000 0.000000 0.039800
#
#
# Mechanical properties :
#
#
# Convention : Reuss Voigt Hill
#
# Bulk Modulus (GPa) = 31.53056 37.14879 34.33967
# Shear Modulus (GPa) = 21.30802 24.22577 22.76690
#
# Velocity S-wave (km/s) = 3.44033 3.66832 3.55615
# Velocity P-wave (km/s) = 5.77021 6.21104 5.99468
#
# Compressibility (1/GPa) = 0.03171526
#
# Stress axis : x y z
#
# Youngs Moduli (GPa) = 32.05298 58.19898 72.21020
#
# Poissons Ratio (x) = 0.68229 -0.03634
# Poissons Ratio (y) = 0.37577 0.29150
# Poissons Ratio (z) = -0.01613 0.23494
#
# Static dielectric constant tensor:
#      x y z
#    x 3.248600 0.000000 0.000000 
#    y 0.000000 3.449140 0.000000 
#    z 0.000000 0.000000 3.409870 
# 
# 
# High freq. dielectric constant tensor:
#      x y z
#    x 1.673900 0.000000 0.000000 
#    y 0.000000 1.694160 0.000000 
#    z 0.000000 0.000000 1.702430 
# 
# From -- ./inp_files/8605.got.cif
#   From: 2010.03.12/outbox.cif.g09.slc.cpg/sg62_5_cif.got.tgz:8605.got - 2010.04.10 19:12:36.
