data_PCOD8251826
_publ_section_title
;
Structure prediction by ZEFSAII (Michael W. Deem and Ramdas Pophale) SiO2 
 PCOD8251826
Probable space group: P N M A
;
_chemical_formula_sum "Si O2"
_cell_formula_units_Z 64
_cell_length_a 19.193640
_cell_length_b 8.919433
_cell_length_c 19.767983
_cell_angle_alpha 90.000000
_cell_angle_beta 90.000000
_cell_angle_gamma 90.000000
_cell_volume 3384.207248
_symmetry_space_group_name_H-M "P N M A"
_symmetry_group_IT_number 62
_symmetry_cell_setting 'orthorhombic'
loop_
_space_group_symop_operation_xyz
x,y,z
1/2-x,-y,1/2+z
1/2+x,1/2-y,1/2-z
-x,1/2+y,-z
-x,-y,-z
1/2+x,y,1/2-z
1/2-x,1/2+y,1/2+z
x,1/2-y,z
loop_
_atom_site_type_symbol
_atom_site_label
_atom_site_fract_x
_atom_site_fract_y
_atom_site_fract_z
Si Si1 0.792265 0.926625 0.514124
Si Si2 0.222504 0.426518 0.857586
Si Si3 0.252447 0.924651 0.723820
Si Si4 0.469114 0.074921 0.565405
Si Si5 0.596829 0.575745 0.816491
Si Si6 0.314913 0.423854 0.602479
Si Si7 0.931906 0.071239 0.467865
Si Si8 0.432732 0.574347 0.316750
O O1 0.805110 0.750000 0.521029
O O2 0.746308 0.966493 0.448886
O O3 0.751025 0.984709 0.578733
O O4 0.865574 0.010744 0.508759
O O5 0.232677 0.250000 0.868144
O O6 0.265016 0.481024 0.791891
O O7 0.141900 0.472140 0.847675
O O8 0.260788 0.750000 0.740268
O O9 0.177826 0.964092 0.691604
O O10 0.309509 0.976475 0.669671
O O11 0.483041 0.250000 0.558990
O O12 0.387979 0.035083 0.568203
O O13 0.508055 0.014187 0.632426
O O14 0.500000 0.000000 0.500000
O O15 0.582761 0.750000 0.809391
O O16 0.571865 0.518065 0.889723
O O17 0.553464 0.497105 0.756786
O O18 0.311814 0.250000 0.623105
O O19 0.933771 0.250000 0.473915
O O20 0.000000 0.000000 0.500000
O O21 0.437081 0.750000 0.305958
#
# Coordination Sequence:
#
# PCOD8251826 Si02
#       8
#     8   8   8   8   8   8   8   8
#     4  11  22  37  59  87 115 150 192 237 288 347
#     4  10  20  35  57  85 116 151 190 237 288 341
#     4  10  19  35  58  83 110 144 189 237 284 342
#     4  10  21  37  55  82 117 153 192 235 283 339
#     4   9  19  36  59  83 110 144 188 235 282 338
#     4  10  21  36  57  83 116 152 190 237 287 341
#     4  11  23  41  61  85 114 149 190 239 294 350
#     4   9  19  35  57  84 115 153 196 235 281 340
#
# _framework density 18.911370999999999
#
# number of rings (size 3 to 8) (size 9 to 14) (size 15 to 20)
#    0.000    2.000    1.250    2.250    0.000    3.500 
#    2.250    0.000    0.000    0.000    0.000    0.000 
#    0.000    0.000    0.000    0.000    0.000    0.000 
#
# Total GULP energy -793812.232642 kJ/mol
# GULP energy per Si atom -12403.316135 kJ/mol
# Density = 1.886833 g / cm^3
# Si number density = 18.911371 Si / 1000 Ang^3
#
#
#
# Elastic Constant Matrix: (Units=GPa)
#
#
# Indices 1 2 3 4 5 6 
#
# 1 76.3311 33.7258 25.6236 0.0000 0.0000 0.0000
# 2 33.7258 56.8930 41.6929 0.0000 0.0000 0.0000
# 3 25.6236 41.6929 97.3732 0.0000 0.0000 0.0000
# 4 0.0000 0.0000 0.0000 39.3850 0.0000 0.0000
# 5 0.0000 0.0000 0.0000 0.0000 31.6363 0.0000
# 6 0.0000 0.0000 0.0000 0.0000 0.0000 26.9469
#
#
#
# Elastic Compliance Matrix: (Units=1/GPa)
#
#
# Indices 1 2 3 4 5 6 
#
# 1 0.017754 -0.010347 -0.000241 0.000000 0.000000 0.000000
# 2 -0.010347 0.031645 -0.010827 0.000000 0.000000 0.000000
# 3 -0.000241 -0.010827 0.014969 0.000000 0.000000 0.000000
# 4 0.000000 0.000000 0.000000 0.025390 0.000000 0.000000
# 5 0.000000 0.000000 0.000000 0.000000 0.031609 0.000000
# 6 0.000000 0.000000 0.000000 0.000000 0.000000 0.037110
#
#
# Mechanical properties :
#
#
# Convention : Reuss Voigt Hill
#
# Bulk Modulus (GPa) = 46.43238 48.07576 47.25407
# Shear Modulus (GPa) = 23.98232 28.23065 26.10648
#
# Velocity S-wave (km/s) = 3.56496 3.86785 3.71949
# Velocity P-wave (km/s) = 6.44602 6.73972 6.59451
#
# Compressibility (1/GPa) = 0.02153669
#
# Stress axis : x y z
#
# Youngs Moduli (GPa) = 56.32631 31.60071 66.80474
#
# Poissons Ratio (x) = 0.32699 0.01612
# Poissons Ratio (y) = 0.58283 0.72327
# Poissons Ratio (z) = 0.01359 0.34213
#
# Static dielectric constant tensor:
#      x y z
#    x 3.504260 0.000000 0.000000 
#    y 0.000000 3.439360 0.000000 
#    z 0.000000 0.000000 3.641820 
# 
# 
# High freq. dielectric constant tensor:
#      x y z
#    x 1.723350 0.000000 0.000000 
#    y 0.000000 1.736610 0.000000 
#    z 0.000000 0.000000 1.747040 
# 
# From -- ./inp_files/24807.got.cif
#   From: 2010.03.12/outbox.cif.g09.slc.cpg/sg62_13_cif.got.tgz:24807.got - 2010.04.10 19:12:36.
