data_PCOD8251874
_publ_section_title
;
Structure prediction by ZEFSAII (Michael W. Deem and Ramdas Pophale) SiO2 
 PCOD8251874
Probable space group: P N M A
;
_chemical_formula_sum "Si O2"
_cell_formula_units_Z 24
_cell_length_a 9.915105
_cell_length_b 13.125629
_cell_length_c 9.626198
_cell_angle_alpha 90.000000
_cell_angle_beta 90.000000
_cell_angle_gamma 90.000000
_cell_volume 1252.772561
_symmetry_space_group_name_H-M "P N M A"
_symmetry_group_IT_number 62
_symmetry_cell_setting 'orthorhombic'
loop_
_space_group_symop_operation_xyz
x,y,z
1/2-x,-y,1/2+z
1/2+x,1/2-y,1/2-z
-x,1/2+y,-z
-x,-y,-z
1/2+x,y,1/2-z
1/2-x,1/2+y,1/2+z
x,1/2-y,z
loop_
_atom_site_type_symbol
_atom_site_label
_atom_site_fract_x
_atom_site_fract_y
_atom_site_fract_z
Si Si1 0.451914 0.016087 0.155068
Si Si2 0.000476 0.635033 0.122328
Si Si3 0.653230 0.441529 0.375379
O O1 0.309773 0.074865 0.157979
O O2 0.562405 0.083989 0.238946
O O3 0.436442 0.906658 0.233068
O O4 0.500000 0.000000 0.000000
O O5 0.052362 0.750000 0.142776
O O6 0.124487 0.560059 0.078687
O O7 0.886712 0.632119 0.002236
#
# Coordination Sequence:
#
# PCOD8251874 Si02
#       3
#     8   8   8
#     4  10  19  35  60  81 113 148 190 234 290 329
#     4   9  20  36  58  81 113 154 190 228 284 344
#     4   9  20  37  58  79 118 149 184 241 283 332
#
# _framework density 19.157506000000001
#
# number of rings (size 3 to 8) (size 9 to 14) (size 15 to 20)
#    2.000    0.667    0.000    2.000    0.000    1.333 
#    0.000    3.333    0.000    0.000    0.000    0.000 
#    0.000    0.000    0.000    0.000    0.000    0.000 
#
# Total GULP energy -297317.493289 kJ/mol
# GULP energy per Si atom -12388.228887 kJ/mol
# Density = 1.911390 g / cm^3
# Si number density = 19.157506 Si / 1000 Ang^3
#
#
#
# Elastic Constant Matrix: (Units=GPa)
#
#
# Indices 1 2 3 4 5 6 
#
# 1 137.2555 -9.9971 49.4298 0.0000 0.0000 0.0000
# 2 -9.9971 46.3096 12.3217 0.0000 0.0000 0.0000
# 3 49.4298 12.3217 162.2231 0.0000 0.0000 0.0000
# 4 0.0000 0.0000 0.0000 15.6514 0.0000 0.0000
# 5 0.0000 0.0000 0.0000 0.0000 33.5819 0.0000
# 6 0.0000 0.0000 0.0000 0.0000 0.0000 10.9751
#
#
#
# Elastic Compliance Matrix: (Units=1/GPa)
#
#
# Indices 1 2 3 4 5 6 
#
# 1 0.008473 0.002568 -0.002777 0.000000 0.000000 0.000000
# 2 0.002568 0.022817 -0.002516 0.000000 0.000000 0.000000
# 3 -0.002777 -0.002516 0.007201 0.000000 0.000000 0.000000
# 4 0.000000 0.000000 0.000000 0.063892 0.000000 0.000000
# 5 0.000000 0.000000 0.000000 0.000000 0.029778 0.000000
# 6 0.000000 0.000000 0.000000 0.000000 0.000000 0.091115
#
#
# Mechanical properties :
#
#
# Convention : Reuss Voigt Hill
#
# Bulk Modulus (GPa) = 30.26376 49.92190 40.09283
# Shear Modulus (GPa) = 20.85593 31.64393 26.24993
#
# Velocity S-wave (km/s) = 3.30306 4.06862 3.70566
# Velocity P-wave (km/s) = 5.51167 6.94167 6.26759
#
# Compressibility (1/GPa) = 0.03304282
#
# Stress axis : x y z
#
# Youngs Moduli (GPa) = 118.02642 43.82615 138.86032
#
# Poissons Ratio (x) = -0.11254 0.38557
# Poissons Ratio (y) = -0.30307 0.34931
# Poissons Ratio (z) = 0.32772 0.11025
#
# Static dielectric constant tensor:
#      x y z
#    x 3.418070 0.000000 0.000000 
#    y 0.000000 3.010860 0.000000 
#    z 0.000000 0.000000 3.527170 
# 
# 
# High freq. dielectric constant tensor:
#      x y z
#    x 1.732210 0.000000 0.000000 
#    y 0.000000 1.693150 0.000000 
#    z 0.000000 0.000000 1.756470 
# 
# From -- ./inp_files/3974.got.cif
#   From: 2010.03.12/outbox.cif.g09.slc.cpg/sg62_2_cif.got.tgz:3974.got - 2010.04.10 19:12:36.
