data_PCOD8251159
_publ_section_title
;
Structure prediction by ZEFSAII (Michael W. Deem and Ramdas Pophale) SiO2 
 PCOD8251159
Probable space group: P N M A
;
_chemical_formula_sum "Si O2"
_cell_formula_units_Z 64
_cell_length_a 9.370611
_cell_length_b 18.006122
_cell_length_c 20.569508
_cell_angle_alpha 90.000000
_cell_angle_beta 90.000000
_cell_angle_gamma 90.000000
_cell_volume 3470.659451
_symmetry_space_group_name_H-M "P N M A"
_symmetry_group_IT_number 62
_symmetry_cell_setting 'orthorhombic'
loop_
_space_group_symop_operation_xyz
x,y,z
1/2-x,-y,1/2+z
1/2+x,1/2-y,1/2-z
-x,1/2+y,-z
-x,-y,-z
1/2+x,y,1/2-z
1/2-x,1/2+y,1/2+z
x,1/2-y,z
loop_
_atom_site_type_symbol
_atom_site_label
_atom_site_fract_x
_atom_site_fract_y
_atom_site_fract_z
Si Si1 0.889348 0.831087 0.908933
Si Si2 0.689124 0.618997 0.587699
Si Si3 0.815333 0.467504 0.551609
Si Si4 0.829646 0.396782 0.316656
Si Si5 0.866025 0.668819 0.060372
Si Si6 0.642344 0.334523 0.206904
Si Si7 0.141303 0.475448 0.586729
Si Si8 0.809664 0.334091 0.940762
O O1 0.941982 0.750000 0.886485
O O2 0.742954 0.849787 0.873390
O O3 0.021933 0.885412 0.891928
O O4 0.852988 0.830486 0.983669
O O5 0.748679 0.536297 0.589392
O O6 0.782240 0.667048 0.637223
O O7 0.706197 0.657742 0.518110
O O8 0.739437 0.395804 0.583347
O O9 0.788701 0.478206 0.473643
O O10 0.979795 0.459576 0.567863
O O11 0.727424 0.391383 0.253851
O O12 0.844630 0.480529 0.345102
O O13 0.981587 0.362904 0.299003
O O14 0.819227 0.750000 0.087833
O O15 0.027866 0.651695 0.081523
O O16 0.642106 0.250000 0.234414
O O17 0.215100 0.395274 0.596186
O O18 0.762218 0.250000 0.922073
#
# Coordination Sequence:
#
# PCOD8251159 Si02
#       8
#     8   8   8   8   8   8   8   8
#     4  10  19  32  51  77 108 145 188 228 272 324
#     4  10  20  34  56  81 115 151 191 231 277 336
#     4  10  19  35  53  83 116 149 188 232 291 347
#     4  12  24  40  54  80 108 152 198 240 277 334
#     4   9  18  31  52  82 114 147 183 220 275 344
#     4  12  24  39  56  76 110 153 196 237 273 321
#     4  10  21  35  55  82 115 149 187 238 292 345
#     4   9  19  34  56  87 118 147 184 229 286 346
#
# _framework density 18.440299
#
# number of rings (size 3 to 8) (size 9 to 14) (size 15 to 20)
#    0.000    1.750    2.500    3.750    1.750    2.000 
#    0.000    0.000    0.000    0.000    0.000    1.750 
#    0.000    0.000    0.000    0.000    0.000    0.000 
#
# Total GULP energy -793352.561244 kJ/mol
# GULP energy per Si atom -12396.133769 kJ/mol
# Density = 1.839833 g / cm^3
# Si number density = 18.440299 Si / 1000 Ang^3
#
#
#
# Elastic Constant Matrix: (Units=GPa)
#
#
# Indices 1 2 3 4 5 6 
#
# 1 88.3011 44.4534 24.2736 0.0000 0.0000 0.0000
# 2 44.4534 131.3481 23.9249 0.0000 0.0000 0.0000
# 3 24.2736 23.9249 41.5800 0.0000 0.0000 0.0000
# 4 0.0000 0.0000 0.0000 16.6565 0.0000 0.0000
# 5 0.0000 0.0000 0.0000 0.0000 23.0069 0.0000
# 6 0.0000 0.0000 0.0000 0.0000 0.0000 31.5745
#
#
#
# Elastic Compliance Matrix: (Units=1/GPa)
#
#
# Indices 1 2 3 4 5 6 
#
# 1 0.015100 -0.003915 -0.006562 0.000000 0.000000 0.000000
# 2 -0.003915 0.009520 -0.003192 0.000000 0.000000 0.000000
# 3 -0.006562 -0.003192 0.029718 0.000000 0.000000 0.000000
# 4 0.000000 0.000000 0.000000 0.060037 0.000000 0.000000
# 5 0.000000 0.000000 0.000000 0.000000 0.043465 0.000000
# 6 0.000000 0.000000 0.000000 0.000000 0.000000 0.031671
#
#
# Mechanical properties :
#
#
# Convention : Reuss Voigt Hill
#
# Bulk Modulus (GPa) = 37.03925 49.61479 43.32702
# Shear Modulus (GPa) = 22.13874 25.48607 23.81240
#
# Velocity S-wave (km/s) = 3.46867 3.72167 3.59740
# Velocity P-wave (km/s) = 6.01431 6.74032 6.38763
#
# Compressibility (1/GPa) = 0.02699838
#
# Stress axis : x y z
#
# Youngs Moduli (GPa) = 66.22617 105.04410 33.65004
#
# Poissons Ratio (x) = 0.41125 0.22082
# Poissons Ratio (y) = 0.25928 0.10741
# Poissons Ratio (z) = 0.43459 0.33531
#
# Static dielectric constant tensor:
#      x y z
#    x 3.515710 0.000000 0.000000 
#    y 0.000000 3.590610 0.000000 
#    z 0.000000 0.000000 3.092800 
# 
# 
# High freq. dielectric constant tensor:
#      x y z
#    x 1.727430 0.000000 0.000000 
#    y 0.000000 1.716390 0.000000 
#    z 0.000000 0.000000 1.668800 
# 
# From -- ./inp_files/26179.got.cif
#   From: 2010.03.12/outbox.cif.g09.slc.cpg/sg62_14_cif.got.tgz:26179.got - 2010.04.10 19:12:36.
