data_PCOD8251296
_publ_section_title
;
Structure prediction by ZEFSAII (Michael W. Deem and Ramdas Pophale) SiO2 
 PCOD8251296
Probable space group: P N M A
;
_chemical_formula_sum "Si O2"
_cell_formula_units_Z 56
_cell_length_a 18.181684
_cell_length_b 18.763914
_cell_length_c 8.584173
_cell_angle_alpha 90.000000
_cell_angle_beta 90.000000
_cell_angle_gamma 90.000000
_cell_volume 2928.572640
_symmetry_space_group_name_H-M "P N M A"
_symmetry_group_IT_number 62
_symmetry_cell_setting 'orthorhombic'
loop_
_space_group_symop_operation_xyz
x,y,z
1/2-x,-y,1/2+z
1/2+x,1/2-y,1/2-z
-x,1/2+y,-z
-x,-y,-z
1/2+x,y,1/2-z
1/2-x,1/2+y,1/2+z
x,1/2-y,z
loop_
_atom_site_type_symbol
_atom_site_label
_atom_site_fract_x
_atom_site_fract_y
_atom_site_fract_z
Si Si1 0.581434 0.913554 0.884608
Si Si2 0.795640 0.456797 0.812765
Si Si3 0.940940 0.664946 0.491810
Si Si4 0.063344 0.556866 0.972680
Si Si5 0.014992 0.673172 0.188576
Si Si6 0.663278 0.670727 0.116736
Si Si7 0.342015 0.959739 0.973134
O O1 0.588218 0.932595 0.703924
O O2 0.505036 0.872860 0.909595
O O3 0.648213 0.861986 0.944056
O O4 0.589482 0.987406 0.983876
O O5 0.786495 0.381753 0.720012
O O6 0.809102 0.521264 0.694280
O O7 0.863241 0.459143 0.932016
O O8 0.719659 0.471119 0.897161
O O9 0.936191 0.750000 0.528583
O O10 0.866622 0.622963 0.537001
O O11 0.950102 0.650015 0.306423
O O12 0.023984 0.627065 0.035951
O O13 0.000000 0.500000 0.000000
O O14 0.997587 0.750000 0.118465
O O15 0.085405 0.674870 0.299276
O O16 0.698827 0.750000 0.103758
#
# Coordination Sequence:
#
# PCOD8251296 Si02
#       7
#     8   8   8   8   8   8   8
#     4  10  19  32  55  82 110 144 187 234 282 335
#     4  10  22  36  55  79 109 148 187 229 280 337
#     4  10  20  36  58  82 110 145 184 229 283 338
#     4  11  20  32  52  81 111 142 183 232 277 326
#     4   8  16  30  48  72 101 134 172 214 264 321
#     4   8  16  33  53  74 103 137 177 225 274 326
#     4  11  21  37  56  80 112 150 191 235 282 339
#
# _framework density 19.121943000000002
#
# number of rings (size 3 to 8) (size 9 to 14) (size 15 to 20)
#    0.000    2.286    0.000    5.143    0.000    1.714 
#    0.000    0.000    0.000    9.429    0.000    0.000 
#    0.000    0.000    0.000    0.000    0.000    0.000 
#
# Total GULP energy -693936.731270 kJ/mol
# GULP energy per Si atom -12391.727344 kJ/mol
# Density = 1.907842 g / cm^3
# Si number density = 19.121943 Si / 1000 Ang^3
#
#
#
# Elastic Constant Matrix: (Units=GPa)
#
#
# Indices 1 2 3 4 5 6 
#
# 1 71.2650 43.8297 31.8023 0.0000 0.0000 0.0000
# 2 43.8297 111.7275 36.9045 0.0000 0.0000 0.0000
# 3 31.8023 36.9045 109.3363 0.0000 0.0000 0.0000
# 4 0.0000 0.0000 0.0000 25.5048 0.0000 0.0000
# 5 0.0000 0.0000 0.0000 0.0000 22.9278 0.0000
# 6 0.0000 0.0000 0.0000 0.0000 0.0000 18.3368
#
#
#
# Elastic Compliance Matrix: (Units=1/GPa)
#
#
# Indices 1 2 3 4 5 6 
#
# 1 0.019615 -0.006539 -0.003498 0.000000 0.000000 0.000000
# 2 -0.006539 0.012254 -0.002234 0.000000 0.000000 0.000000
# 3 -0.003498 -0.002234 0.010918 0.000000 0.000000 0.000000
# 4 0.000000 0.000000 0.000000 0.039208 0.000000 0.000000
# 5 0.000000 0.000000 0.000000 0.000000 0.043615 0.000000
# 6 0.000000 0.000000 0.000000 0.000000 0.000000 0.054535
#
#
# Mechanical properties :
#
#
# Convention : Reuss Voigt Hill
#
# Bulk Modulus (GPa) = 54.81416 57.48910 56.15163
# Shear Modulus (GPa) = 23.72267 25.34002 24.53135
#
# Velocity S-wave (km/s) = 3.52604 3.64425 3.58563
# Velocity P-wave (km/s) = 6.73090 6.91644 6.82430
#
# Compressibility (1/GPa) = 0.01824346
#
# Stress axis : x y z
#
# Youngs Moduli (GPa) = 50.98123 81.60895 91.59532
#
# Poissons Ratio (x) = 0.53367 0.32041
# Poissons Ratio (y) = 0.33338 0.20461
# Poissons Ratio (z) = 0.17834 0.18231
#
# Static dielectric constant tensor:
#      x y z
#    x 3.217330 0.000000 0.000000 
#    y 0.000000 3.585650 0.000000 
#    z 0.000000 0.000000 3.867730 
# 
# 
# High freq. dielectric constant tensor:
#      x y z
#    x 1.714870 0.000000 0.000000 
#    y 0.000000 1.753310 0.000000 
#    z 0.000000 0.000000 1.740550 
# 
# From -- ./inp_files/8807.got.cif
#   From: 2010.03.12/outbox.cif.g09.slc.cpg/sg62_5_cif.got.tgz:8807.got - 2010.04.10 19:12:36.
