data_PCOD8251055
_publ_section_title
;
Structure prediction by ZEFSAII (Michael W. Deem and Ramdas Pophale) SiO2 
 PCOD8251055
Probable space group: P N M A
;
_chemical_formula_sum "Si O2"
_cell_formula_units_Z 64
_cell_length_a 19.242730
_cell_length_b 8.836804
_cell_length_c 19.539252
_cell_angle_alpha 90.000000
_cell_angle_beta 90.000000
_cell_angle_gamma 90.000000
_cell_volume 3322.537128
_symmetry_space_group_name_H-M "P N M A"
_symmetry_group_IT_number 62
_symmetry_cell_setting 'orthorhombic'
loop_
_space_group_symop_operation_xyz
x,y,z
1/2-x,-y,1/2+z
1/2+x,1/2-y,1/2-z
-x,1/2+y,-z
-x,-y,-z
1/2+x,y,1/2-z
1/2-x,1/2+y,1/2+z
x,1/2-y,z
loop_
_atom_site_type_symbol
_atom_site_label
_atom_site_fract_x
_atom_site_fract_y
_atom_site_fract_z
Si Si1 0.881433 0.921251 0.970376
Si Si2 0.904461 0.921569 0.451705
Si Si3 0.549184 0.571895 0.344051
Si Si4 0.032337 0.421575 0.398045
Si Si5 0.726290 0.923820 0.001243
Si Si6 0.244870 0.570727 0.854646
Si Si7 0.602648 0.428556 0.625602
Si Si8 0.871420 0.429389 0.711530
O O1 0.905861 0.750000 0.957707
O O2 0.798745 0.936763 0.961383
O O3 0.919142 0.025976 0.916241
O O4 0.902864 0.975610 0.046042
O O5 0.895397 0.750000 0.425767
O O6 0.935203 0.926022 0.527240
O O7 0.830476 0.004935 0.450759
O O8 0.954893 0.009568 0.399546
O O9 0.550387 0.750000 0.340958
O O10 0.468655 0.519372 0.337921
O O11 0.593945 0.506168 0.281246
O O12 0.029793 0.250000 0.370012
O O13 0.078978 0.526411 0.350660
O O14 0.708039 0.750000 0.018421
O O15 0.728242 0.013981 0.072162
O O16 0.247813 0.750000 0.853588
O O17 0.166789 0.514645 0.838837
O O18 0.296018 0.506192 0.796318
O O19 0.617382 0.250000 0.631146
O O20 0.862215 0.250000 0.713166
#
# Coordination Sequence:
#
# PCOD8251055 Si02
#       8
#     8   8   8   8   8   8   8   8
#     4   9  19  34  56  84 112 143 178 226 285 328
#     4  10  19  31  51  80 111 143 184 229 276 323
#     4  10  22  38  58  83 111 147 186 225 276 334
#     4  10  20  33  51  77 108 144 185 228 275 325
#     4  10  19  33  54  81 113 146 180 225 277 327
#     4  11  21  34  55  84 109 140 183 225 271 325
#     4   9  19  38  60  84 112 141 181 230 277 327
#     4  11  22  37  56  79 111 150 188 227 273 328
#
# _framework density 19.262388000000001
#
# number of rings (size 3 to 8) (size 9 to 14) (size 15 to 20)
#    0.000    2.000    1.250    3.750    0.000    5.000 
#    0.000    1.250    0.000    1.500    0.000    0.000 
#    0.000    0.000    0.000    0.000    0.000    0.000 
#
# Total GULP energy -793714.123200 kJ/mol
# GULP energy per Si atom -12401.783175 kJ/mol
# Density = 1.921855 g / cm^3
# Si number density = 19.262388 Si / 1000 Ang^3
#
#
#
# Elastic Constant Matrix: (Units=GPa)
#
#
# Indices 1 2 3 4 5 6 
#
# 1 146.5842 55.3422 51.7024 0.0000 0.0000 0.0000
# 2 55.3422 92.1087 27.9079 0.0000 0.0000 0.0000
# 3 51.7024 27.9079 54.6368 0.0000 0.0000 0.0000
# 4 0.0000 0.0000 0.0000 21.3840 0.0000 0.0000
# 5 0.0000 0.0000 0.0000 0.0000 28.4401 0.0000
# 6 0.0000 0.0000 0.0000 0.0000 0.0000 34.2206
#
#
#
# Elastic Compliance Matrix: (Units=1/GPa)
#
#
# Indices 1 2 3 4 5 6 
#
# 1 0.011507 -0.004276 -0.008704 0.000000 0.000000 0.000000
# 2 -0.004276 0.014434 -0.003326 0.000000 0.000000 0.000000
# 3 -0.008704 -0.003326 0.028238 0.000000 0.000000 0.000000
# 4 0.000000 0.000000 0.000000 0.046764 0.000000 0.000000
# 5 0.000000 0.000000 0.000000 0.000000 0.035162 0.000000
# 6 0.000000 0.000000 0.000000 0.000000 0.000000 0.029222
#
#
# Mechanical properties :
#
#
# Convention : Reuss Voigt Hill
#
# Bulk Modulus (GPa) = 46.37023 62.58164 54.47593
# Shear Modulus (GPa) = 24.37494 27.36742 25.87118
#
# Velocity S-wave (km/s) = 3.56113 3.77340 3.66880
# Velocity P-wave (km/s) = 6.40578 7.17944 6.80361
#
# Compressibility (1/GPa) = 0.02156556
#
# Stress axis : x y z
#
# Youngs Moduli (GPa) = 86.90599 69.28167 35.41265
#
# Poissons Ratio (x) = 0.29627 0.30825
# Poissons Ratio (y) = 0.37163 0.11778
# Poissons Ratio (z) = 0.75647 0.23043
#
# Static dielectric constant tensor:
#      x y z
#    x 3.828860 0.000000 0.000000 
#    y 0.000000 3.532130 0.000000 
#    z 0.000000 0.000000 3.280390 
# 
# 
# High freq. dielectric constant tensor:
#      x y z
#    x 1.765400 0.000000 0.000000 
#    y 0.000000 1.753600 0.000000 
#    z 0.000000 0.000000 1.711880 
# 
# From -- ./inp_files/27653.got.cif
#   From: 2010.03.12/outbox.cif.g09.slc.cpg/sg62_14_cif.got.tgz:27653.got - 2010.04.10 19:12:36.
