data_PCOD8251652
_publ_section_title
;
Structure prediction by ZEFSAII (Michael W. Deem and Ramdas Pophale) SiO2 
 PCOD8251652
Probable space group: P N M A
;
_chemical_formula_sum "Si O2"
_cell_formula_units_Z 48
_cell_length_a 8.752972
_cell_length_b 8.827991
_cell_length_c 30.126379
_cell_angle_alpha 90.000000
_cell_angle_beta 90.000000
_cell_angle_gamma 90.000000
_cell_volume 2327.900193
_symmetry_space_group_name_H-M "P N M A"
_symmetry_group_IT_number 62
_symmetry_cell_setting 'orthorhombic'
loop_
_space_group_symop_operation_xyz
x,y,z
1/2-x,-y,1/2+z
1/2+x,1/2-y,1/2-z
-x,1/2+y,-z
-x,-y,-z
1/2+x,y,1/2-z
1/2-x,1/2+y,1/2+z
x,1/2-y,z
loop_
_atom_site_type_symbol
_atom_site_label
_atom_site_fract_x
_atom_site_fract_y
_atom_site_fract_z
Si Si1 0.222035 0.072023 0.119533
Si Si2 0.934533 0.576224 0.638240
Si Si3 0.743441 0.926367 0.724217
Si Si4 0.710647 0.079302 0.967994
Si Si5 0.929066 0.071364 0.800851
Si Si6 0.854224 0.419852 0.553409
O O1 0.191223 0.250000 0.123748
O O2 0.389704 0.024218 0.137100
O O3 0.201502 0.021660 0.068452
O O4 0.099282 0.980642 0.148634
O O5 0.922639 0.750000 0.624009
O O6 0.873307 0.546394 0.687413
O O7 0.831168 0.486404 0.602691
O O8 0.696096 0.750000 0.727601
O O9 0.808186 0.981179 0.770912
O O10 0.599181 0.027425 0.712404
O O11 0.773042 0.250000 0.965794
O O12 0.531550 0.072948 0.958527
O O13 0.742561 0.013416 0.017074
O O14 0.905662 0.250000 0.795371
O O15 0.791155 0.250000 0.552976
#
# Coordination Sequence:
#
# PCOD8251652 Si02
#       6
#     8   8   8   8   8   8
#     4  10  19  34  56  82 112 147 187 229 276 330
#     4   9  19  34  55  81 109 143 184 228 272 322
#     4  11  23  41  62  83 110 147 187 226 275 335
#     4   9  16  27  45  73 109 145 183 227 271 317
#     4  12  25  40  59  85 114 144 182 230 281 331
#     4   9  16  26  45  74 108 144 181 223 271 321
#
# _framework density 20.619441999999999
#
# number of rings (size 3 to 8) (size 9 to 14) (size 15 to 20)
#    0.000    2.000    0.000    4.500    0.000    7.333 
#    0.000    0.000    0.000    1.000    0.000    0.000 
#    0.000    0.000    0.000    0.000    0.000    0.000 
#
# Total GULP energy -595364.501654 kJ/mol
# GULP energy per Si atom -12403.427118 kJ/mol
# Density = 2.057251 g / cm^3
# Si number density = 20.619442 Si / 1000 Ang^3
#
#
#
# Elastic Constant Matrix: (Units=GPa)
#
#
# Indices 1 2 3 4 5 6 
#
# 1 26.9625 5.3657 -15.9701 0.0000 0.0000 0.0000
# 2 5.3657 103.5600 28.9890 0.0000 0.0000 0.0000
# 3 -15.9701 28.9890 46.5846 0.0000 0.0000 0.0000
# 4 0.0000 0.0000 0.0000 41.4107 0.0000 0.0000
# 5 0.0000 0.0000 0.0000 0.0000 15.4672 0.0000
# 6 0.0000 0.0000 0.0000 0.0000 0.0000 23.7327
#
#
#
# Elastic Compliance Matrix: (Units=1/GPa)
#
#
# Indices 1 2 3 4 5 6 
#
# 1 0.053336 -0.009544 0.024224 0.000000 0.000000 0.000000
# 2 -0.009544 0.013401 -0.011611 0.000000 0.000000 0.000000
# 3 0.024224 -0.011611 0.036996 0.000000 0.000000 0.000000
# 4 0.000000 0.000000 0.000000 0.024148 0.000000 0.000000
# 5 0.000000 0.000000 0.000000 0.000000 0.064653 0.000000
# 6 0.000000 0.000000 0.000000 0.000000 0.000000 0.042136
#
#
# Mechanical properties :
#
#
# Convention : Reuss Voigt Hill
#
# Bulk Modulus (GPa) = 9.10167 23.76403 16.43285
# Shear Modulus (GPa) = 18.85673 26.70362 22.78017
#
# Velocity S-wave (km/s) = 3.02737 3.60261 3.32745
# Velocity P-wave (km/s) = 4.07966 5.37170 4.76963
#
# Compressibility (1/GPa) = 0.10987000
#
# Stress axis : x y z
#
# Youngs Moduli (GPa) = 18.74907 74.62099 27.02968
#
# Poissons Ratio (x) = 0.71221 -0.65477
# Poissons Ratio (y) = 0.17895 0.31385
# Poissons Ratio (z) = -0.45418 0.86645
#
# Static dielectric constant tensor:
#      x y z
#    x 3.336720 0.000000 0.000000 
#    y 0.000000 3.778150 0.000000 
#    z 0.000000 0.000000 3.893280 
# 
# 
# High freq. dielectric constant tensor:
#      x y z
#    x 1.764180 0.000000 0.000000 
#    y 0.000000 1.814300 0.000000 
#    z 0.000000 0.000000 1.820610 
# 
# From -- ./inp_files/31950.got.cif
#   From: 2010.03.12/outbox.cif.g09.slc.cpg/sg62_16_cif.got.tgz:31950.got - 2010.04.10 19:12:36.
