data_PCOD8251226
_publ_section_title
;
Structure prediction by ZEFSAII (Michael W. Deem and Ramdas Pophale) SiO2 
 PCOD8251226
Probable space group: P N M A
;
_chemical_formula_sum "Si O2"
_cell_formula_units_Z 48
_cell_length_a 18.907819
_cell_length_b 9.096041
_cell_length_c 15.219161
_cell_angle_alpha 90.000000
_cell_angle_beta 90.000000
_cell_angle_gamma 90.000000
_cell_volume 2617.487141
_symmetry_space_group_name_H-M "P N M A"
_symmetry_group_IT_number 62
_symmetry_cell_setting 'orthorhombic'
loop_
_space_group_symop_operation_xyz
x,y,z
1/2-x,-y,1/2+z
1/2+x,1/2-y,1/2-z
-x,1/2+y,-z
-x,-y,-z
1/2+x,y,1/2-z
1/2-x,1/2+y,1/2+z
x,1/2-y,z
loop_
_atom_site_type_symbol
_atom_site_label
_atom_site_fract_x
_atom_site_fract_y
_atom_site_fract_z
Si Si1 0.930709 0.578920 0.148149
Si Si2 0.415960 0.917699 0.152213
Si Si3 0.922266 0.077185 0.654973
Si Si4 0.329368 0.424265 0.008386
Si Si5 0.328993 0.576296 0.503881
Si Si6 0.076615 0.424044 0.166206
O O1 0.949019 0.750000 0.131819
O O2 0.899142 0.556607 0.245308
O O3 0.001794 0.487134 0.134989
O O4 0.873548 0.516909 0.079150
O O5 0.402214 0.750000 0.124786
O O6 0.496876 0.961885 0.131928
O O7 0.364034 0.019938 0.097782
O O8 0.913943 0.250000 0.673399
O O9 0.873866 0.020761 0.575396
O O10 0.897845 0.991896 0.741869
O O11 0.329213 0.250000 0.012637
O O12 0.250181 0.489113 0.000619
O O13 0.324873 0.750000 0.496527
O O14 0.365538 0.528292 0.594450
O O15 0.070052 0.250000 0.175416
#
# Coordination Sequence:
#
# PCOD8251226 Si02
#       6
#     8   8   8   8   8   8
#     4   9  18  35  55  73  99 133 167 203 244 296
#     4   9  18  32  51  76 100 125 163 210 251 283
#     4   9  19  35  54  74  97 131 171 204 242 296
#     4  10  20  34  52  73 100 136 170 199 242 300
#     4   9  19  34  51  74 104 134 163 201 249 295
#     4  10  19  32  53  78 101 127 163 209 253 288
#
# _framework density 18.338197999999998
#
# number of rings (size 3 to 8) (size 9 to 14) (size 15 to 20)
#    0.000    2.667    0.000    2.500    0.000    4.667 
#    0.000    5.000    0.000    0.000    0.000    0.000 
#    0.000    0.000    0.000    0.000    0.000    0.000 
#
# Total GULP energy -595261.075600 kJ/mol
# GULP energy per Si atom -12401.272408 kJ/mol
# Density = 1.829646 g / cm^3
# Si number density = 18.338198 Si / 1000 Ang^3
#
#
#
# Elastic Constant Matrix: (Units=GPa)
#
#
# Indices 1 2 3 4 5 6 
#
# 1 118.6322 29.9647 78.1104 0.0000 0.0000 0.0000
# 2 29.9647 36.6448 37.0610 0.0000 0.0000 0.0000
# 3 78.1104 37.0610 121.3394 0.0000 0.0000 0.0000
# 4 0.0000 0.0000 0.0000 25.4133 0.0000 0.0000
# 5 0.0000 0.0000 0.0000 0.0000 17.7481 0.0000
# 6 0.0000 0.0000 0.0000 0.0000 0.0000 21.5149
#
#
#
# Elastic Compliance Matrix: (Units=1/GPa)
#
#
# Indices 1 2 3 4 5 6 
#
# 1 0.014953 -0.003606 -0.008524 0.000000 0.000000 0.000000
# 2 -0.003606 0.040356 -0.010005 0.000000 0.000000 0.000000
# 3 -0.008524 -0.010005 0.016784 0.000000 0.000000 0.000000
# 4 0.000000 0.000000 0.000000 0.039349 0.000000 0.000000
# 5 0.000000 0.000000 0.000000 0.000000 0.056344 0.000000
# 6 0.000000 0.000000 0.000000 0.000000 0.000000 0.046479
#
#
# Mechanical properties :
#
#
# Convention : Reuss Voigt Hill
#
# Bulk Modulus (GPa) = 35.94107 62.98762 49.46435
# Shear Modulus (GPa) = 18.66993 21.70063 20.18528
#
# Velocity S-wave (km/s) = 3.19421 3.44373 3.32131
# Velocity P-wave (km/s) = 5.76590 7.08764 6.46066
#
# Compressibility (1/GPa) = 0.02782332
#
# Stress axis : x y z
#
# Youngs Moduli (GPa) = 66.87700 24.77952 59.57888
#
# Poissons Ratio (x) = 0.08935 0.50787
# Poissons Ratio (y) = 0.24116 0.59607
# Poissons Ratio (z) = 0.57008 0.24791
#
# Static dielectric constant tensor:
#      x y z
#    x 3.526720 0.000000 0.000000 
#    y 0.000000 3.138540 0.000000 
#    z 0.000000 0.000000 3.494380 
# 
# 
# High freq. dielectric constant tensor:
#      x y z
#    x 1.708140 0.000000 0.000000 
#    y 0.000000 1.689450 0.000000 
#    z 0.000000 0.000000 1.723150 
# 
# From -- ./inp_files/19535.got.cif
#   From: 2010.03.12/outbox.cif.g09.slc.cpg/sg62_10_cif.got.tgz:19535.got - 2010.04.10 19:12:36.
