data_PCOD8251053
_publ_section_title
;
Structure prediction by ZEFSAII (Michael W. Deem and Ramdas Pophale) SiO2 
 PCOD8251053
Probable space group: P N M A
;
_chemical_formula_sum "Si O2"
_cell_formula_units_Z 64
_cell_length_a 18.991995
_cell_length_b 9.318196
_cell_length_c 20.528950
_cell_angle_alpha 90.000000
_cell_angle_beta 90.000000
_cell_angle_gamma 90.000000
_cell_volume 3633.031517
_symmetry_space_group_name_H-M "P N M A"
_symmetry_group_IT_number 62
_symmetry_cell_setting 'orthorhombic'
loop_
_space_group_symop_operation_xyz
x,y,z
1/2-x,-y,1/2+z
1/2+x,1/2-y,1/2-z
-x,1/2+y,-z
-x,-y,-z
1/2+x,y,1/2-z
1/2-x,1/2+y,1/2+z
x,1/2-y,z
loop_
_atom_site_type_symbol
_atom_site_label
_atom_site_fract_x
_atom_site_fract_y
_atom_site_fract_z
Si Si1 0.463711 0.586755 0.806137
Si Si2 0.032435 0.583205 0.059690
Si Si3 0.183897 0.413352 0.758849
Si Si4 0.464257 0.916021 0.307702
Si Si5 0.317270 0.584804 0.748355
Si Si6 0.464635 0.080164 0.059735
Si Si7 0.665491 0.414913 0.891028
Si Si8 0.822921 0.415293 0.882381
O O1 0.485479 0.750000 0.791888
O O2 0.502630 0.491948 0.753731
O O3 0.379740 0.565875 0.800489
O O4 0.487512 0.541483 0.878057
O O5 0.015667 0.750000 0.049909
O O6 0.116470 0.554157 0.064285
O O7 0.995607 0.523606 0.125155
O O8 0.000000 0.500000 0.000000
O O9 0.210630 0.250000 0.762401
O O10 0.119712 0.441367 0.808084
O O11 0.247860 0.515048 0.780004
O O12 0.158430 0.448010 0.685623
O O13 0.483498 0.750000 0.300155
O O14 0.301655 0.750000 0.733090
O O15 0.338526 0.509712 0.680957
O O16 0.460723 0.250000 0.046627
O O17 0.385730 0.020061 0.069612
O O18 0.500000 0.000000 0.000000
O O19 0.645281 0.250000 0.906355
O O20 0.746143 0.448407 0.912948
O O21 0.825811 0.250000 0.859214
#
# Coordination Sequence:
#
# PCOD8251053 Si02
#       8
#     8   8   8   8   8   8   8   8
#     4  10  21  35  53  80 110 137 173 224 275 318
#     4  10  21  36  55  80 111 147 184 224 270 319
#     4   9  18  32  52  80 110 140 176 222 270 319
#     4  10  19  34  57  80 105 140 181 221 266 321
#     4  10  19  31  51  80 110 140 174 220 274 322
#     4  11  23  38  55  78 110 145 181 223 271 323
#     4   9  17  32  55  80 105 137 177 220 268 323
#     4   9  18  34  55  78 106 142 181 221 267 320
#
# _framework density 17.616143999999998
#
# number of rings (size 3 to 8) (size 9 to 14) (size 15 to 20)
#    0.000    2.250    2.500    1.500    0.000    4.500 
#    0.000    1.250    0.000    4.500    0.000    0.000 
#    0.000    0.000    0.000    0.000    0.000    0.000 
#
# Total GULP energy -793604.611214 kJ/mol
# GULP energy per Si atom -12400.072050 kJ/mol
# Density = 1.757605 g / cm^3
# Si number density = 17.616144 Si / 1000 Ang^3
#
#
#
# Elastic Constant Matrix: (Units=GPa)
#
#
# Indices 1 2 3 4 5 6 
#
# 1 135.5467 63.1711 68.0599 0.0000 0.0000 0.0000
# 2 63.1711 86.5512 57.9192 0.0000 0.0000 0.0000
# 3 68.0599 57.9192 101.8402 0.0000 0.0000 0.0000
# 4 0.0000 0.0000 0.0000 27.1361 0.0000 0.0000
# 5 0.0000 0.0000 0.0000 0.0000 26.8334 0.0000
# 6 0.0000 0.0000 0.0000 0.0000 0.0000 33.3091
#
#
#
# Elastic Compliance Matrix: (Units=1/GPa)
#
#
# Indices 1 2 3 4 5 6 
#
# 1 0.012674 -0.005784 -0.005181 0.000000 0.000000 0.000000
# 2 -0.005784 0.021292 -0.008244 0.000000 0.000000 0.000000
# 3 -0.005181 -0.008244 0.017970 0.000000 0.000000 0.000000
# 4 0.000000 0.000000 0.000000 0.036851 0.000000 0.000000
# 5 0.000000 0.000000 0.000000 0.000000 0.037267 0.000000
# 6 0.000000 0.000000 0.000000 0.000000 0.000000 0.030022
#
#
# Mechanical properties :
#
#
# Convention : Reuss Voigt Hill
#
# Bulk Modulus (GPa) = 73.96809 78.02649 75.99729
# Shear Modulus (GPa) = 25.12550 26.44159 25.78355
#
# Velocity S-wave (km/s) = 3.78071 3.87846 3.82989
# Velocity P-wave (km/s) = 7.81910 8.02779 7.92413
#
# Compressibility (1/GPa) = 0.01351934
#
# Stress axis : x y z
#
# Youngs Moduli (GPa) = 78.89900 46.96597 55.64679
#
# Poissons Ratio (x) = 0.27163 0.28831
# Poissons Ratio (y) = 0.45632 0.45876
# Poissons Ratio (z) = 0.40878 0.38719
#
# Static dielectric constant tensor:
#      x y z
#    x 3.639820 0.000000 0.000000 
#    y 0.000000 3.285180 0.000000 
#    z 0.000000 0.000000 3.051620 
# 
# 
# High freq. dielectric constant tensor:
#      x y z
#    x 1.696760 0.000000 0.000000 
#    y 0.000000 1.683320 0.000000 
#    z 0.000000 0.000000 1.648520 
# 
# From -- ./inp_files/27700.got.cif
#   From: 2010.03.12/outbox.cif.g09.slc.cpg/sg62_14_cif.got.tgz:27700.got - 2010.04.10 19:12:36.
