data_PCOD8251751
_publ_section_title
;
Structure prediction by ZEFSAII (Michael W. Deem and Ramdas Pophale) SiO2 
 PCOD8251751
Probable space group: P N M A
;
_chemical_formula_sum "Si O2"
_cell_formula_units_Z 64
_cell_length_a 13.769322
_cell_length_b 16.440624
_cell_length_c 13.720604
_cell_angle_alpha 90.000000
_cell_angle_beta 90.000000
_cell_angle_gamma 90.000000
_cell_volume 3106.018823
_symmetry_space_group_name_H-M "P N M A"
_symmetry_group_IT_number 62
_symmetry_cell_setting 'orthorhombic'
loop_
_space_group_symop_operation_xyz
x,y,z
1/2-x,-y,1/2+z
1/2+x,1/2-y,1/2-z
-x,1/2+y,-z
-x,-y,-z
1/2+x,y,1/2-z
1/2-x,1/2+y,1/2+z
x,1/2-y,z
loop_
_atom_site_type_symbol
_atom_site_label
_atom_site_fract_x
_atom_site_fract_y
_atom_site_fract_z
Si Si1 0.422080 0.395804 0.479226
Si Si2 0.278257 0.661958 0.053591
Si Si3 0.373441 0.524331 0.759471
Si Si4 0.887133 0.660836 0.887981
Si Si5 0.454505 0.956088 0.350714
Si Si6 0.112145 0.491805 0.482323
Si Si7 0.267465 0.617356 0.262607
Si Si8 0.783430 0.341093 0.528503
O O1 0.321229 0.349389 0.492852
O O2 0.499081 0.347872 0.412606
O O3 0.467597 0.406038 0.586255
O O4 0.400537 0.481399 0.424718
O O5 0.321524 0.750000 0.017672
O O6 0.263435 0.675379 0.169323
O O7 0.346668 0.582737 0.046132
O O8 0.349520 0.605192 0.699427
O O9 0.483129 0.498093 0.734360
O O10 0.364726 0.538017 0.873919
O O11 0.289968 0.462389 0.727893
O O12 0.868286 0.750000 0.847327
O O13 0.825144 0.644657 0.986518
O O14 0.377307 0.900904 0.295726
O O15 0.154366 0.581509 0.508773
O O16 0.000000 0.500000 0.500000
O O17 0.215377 0.659829 0.354255
O O18 0.821794 0.250000 0.495864
#
# Coordination Sequence:
#
# PCOD8251751 Si02
#       8
#     8   8   8   8   8   8   8   8
#     4  10  19  36  61  91 123 160 199 264 320 375
#     4  12  25  40  61  92 130 169 209 258 313 373
#     4  10  21  36  60  87 116 162 206 255 307 371
#     4  10  20  36  60  92 125 156 200 260 320 375
#     4  10  19  34  62  90 117 159 208 252 317 375
#     4  11  25  44  63  83 122 172 213 254 306 369
#     4  11  20  36  59  90 125 157 198 255 307 375
#     4  10  21  38  63  92 119 154 203 257 311 374
#
# _framework density 20.605155
#
# number of rings (size 3 to 8) (size 9 to 14) (size 15 to 20)
#    0.000    1.500    2.500    3.750    1.750    1.000 
#    0.000    0.000    0.000    3.750    0.000    0.000 
#    0.000    0.000    0.000    0.000    0.000    0.000 
#
# Total GULP energy -793172.495516 kJ/mol
# GULP energy per Si atom -12393.320242 kJ/mol
# Density = 2.055826 g / cm^3
# Si number density = 20.605155 Si / 1000 Ang^3
#
#
#
# Elastic Constant Matrix: (Units=GPa)
#
#
# Indices 1 2 3 4 5 6 
#
# 1 89.0306 45.7989 7.4508 0.0000 0.0000 0.0000
# 2 45.7989 152.4748 25.2277 0.0000 0.0000 0.0000
# 3 7.4508 25.2277 55.5024 0.0000 0.0000 0.0000
# 4 0.0000 0.0000 0.0000 19.1060 0.0000 0.0000
# 5 0.0000 0.0000 0.0000 0.0000 28.1284 0.0000
# 6 0.0000 0.0000 0.0000 0.0000 0.0000 18.7989
#
#
#
# Elastic Compliance Matrix: (Units=1/GPa)
#
#
# Indices 1 2 3 4 5 6 
#
# 1 0.013285 -0.003996 0.000033 0.000000 0.000000 0.000000
# 2 -0.003996 0.008294 -0.003233 0.000000 0.000000 0.000000
# 3 0.000033 -0.003233 0.019483 0.000000 0.000000 0.000000
# 4 0.000000 0.000000 0.000000 0.052340 0.000000 0.000000
# 5 0.000000 0.000000 0.000000 0.000000 0.035551 0.000000
# 6 0.000000 0.000000 0.000000 0.000000 0.000000 0.053195
#
#
# Mechanical properties :
#
#
# Convention : Reuss Voigt Hill
#
# Bulk Modulus (GPa) = 37.49756 50.44029 43.96893
# Shear Modulus (GPa) = 24.33938 27.77537 26.05738
#
# Velocity S-wave (km/s) = 3.44063 3.67547 3.55999
# Velocity P-wave (km/s) = 5.83280 6.52263 6.18734
#
# Compressibility (1/GPa) = 0.02666840
#
# Stress axis : x y z
#
# Youngs Moduli (GPa) = 75.27360 120.57405 51.32810
#
# Poissons Ratio (x) = 0.48179 -0.00169
# Poissons Ratio (y) = 0.30078 0.16596
# Poissons Ratio (z) = -0.00247 0.38986
#
# Static dielectric constant tensor:
#      x y z
#    x 3.581740 0.000000 0.000000 
#    y 0.000000 3.827480 0.000000 
#    z 0.000000 0.000000 4.122050 
# 
# 
# High freq. dielectric constant tensor:
#      x y z
#    x 1.793700 0.000000 0.000000 
#    y 0.000000 1.806630 0.000000 
#    z 0.000000 0.000000 1.803070 
# 
# From -- ./inp_files/18294.got.cif
#   From: 2010.03.12/outbox.cif.g09.slc.cpg/sg62_10_cif.got.tgz:18294.got - 2010.04.10 19:12:36.
