data_PCOD8251684
_publ_section_title
;
Structure prediction by ZEFSAII (Michael W. Deem and Ramdas Pophale) SiO2 
 PCOD8251684
Probable space group: P N M A
;
_chemical_formula_sum "Si O2"
_cell_formula_units_Z 56
_cell_length_a 18.201963
_cell_length_b 13.337335
_cell_length_c 12.404619
_cell_angle_alpha 90.000000
_cell_angle_beta 90.000000
_cell_angle_gamma 90.000000
_cell_volume 3011.415744
_symmetry_space_group_name_H-M "P N M A"
_symmetry_group_IT_number 62
_symmetry_cell_setting 'orthorhombic'
loop_
_space_group_symop_operation_xyz
x,y,z
1/2-x,-y,1/2+z
1/2+x,1/2-y,1/2-z
-x,1/2+y,-z
-x,-y,-z
1/2+x,y,1/2-z
1/2-x,1/2+y,1/2+z
x,1/2-y,z
loop_
_atom_site_type_symbol
_atom_site_label
_atom_site_fract_x
_atom_site_fract_y
_atom_site_fract_z
Si Si1 0.344509 0.542841 0.934677
Si Si2 0.481510 0.865919 0.831975
Si Si3 0.748533 0.634750 0.394611
Si Si4 0.118962 0.968162 0.979174
Si Si5 0.854956 0.134320 0.409982
Si Si6 0.473363 0.866574 0.584014
Si Si7 0.781480 0.019684 0.224779
O O1 0.427831 0.567520 0.904740
O O2 0.295384 0.551439 0.827926
O O3 0.315754 0.623152 0.021856
O O4 0.338229 0.430899 0.983791
O O5 0.460389 0.750000 0.845376
O O6 0.562880 0.888029 0.872247
O O7 0.475250 0.899330 0.708374
O O8 0.729406 0.750000 0.376783
O O9 0.677024 0.577959 0.438369
O O10 0.772959 0.588326 0.280759
O O11 0.051779 0.890942 0.969326
O O12 0.154560 0.988007 0.863185
O O13 0.091665 0.074248 0.024911
O O14 0.842013 0.250000 0.439411
O O15 0.800437 0.104265 0.313198
O O16 0.456815 0.750000 0.569343
#
# Coordination Sequence:
#
# PCOD8251684 Si02
#       7
#     8   8   8   8   8   8   8
#     4  10  21  36  55  82 112 144 183 233 277 329
#     4  10  19  34  57  83 109 144 186 231 277 329
#     4  10  21  36  55  78 108 147 185 224 278 337
#     4  10  20  36  56  81 113 147 185 233 282 332
#     4  10  21  37  58  82 110 147 188 229 281 333
#     4  10  20  34  57  84 110 145 189 233 280 332
#     4  10  21  37  55  81 113 146 184 228 282 327
#
# _framework density 18.595904000000001
#
# number of rings (size 3 to 8) (size 9 to 14) (size 15 to 20)
#    0.000    2.000    1.429    2.143    0.000    4.000 
#    0.000    8.571    0.000    0.857    0.000    0.000 
#    0.000    0.000    0.000    0.000    0.000    0.000 
#
# Total GULP energy -694617.159691 kJ/mol
# GULP energy per Si atom -12403.877852 kJ/mol
# Density = 1.855358 g / cm^3
# Si number density = 18.595904 Si / 1000 Ang^3
#
#
#
# Elastic Constant Matrix: (Units=GPa)
#
#
# Indices 1 2 3 4 5 6 
#
# 1 66.2187 39.4673 20.6199 0.0000 0.0000 0.0000
# 2 39.4673 102.6917 29.8109 0.0000 0.0000 0.0000
# 3 20.6199 29.8109 53.3116 0.0000 0.0000 0.0000
# 4 0.0000 0.0000 0.0000 18.9055 0.0000 0.0000
# 5 0.0000 0.0000 0.0000 0.0000 29.7830 0.0000
# 6 0.0000 0.0000 0.0000 0.0000 0.0000 24.1944
#
#
#
# Elastic Compliance Matrix: (Units=1/GPa)
#
#
# Indices 1 2 3 4 5 6 
#
# 1 0.020337 -0.006605 -0.004173 0.000000 0.000000 0.000000
# 2 -0.006605 0.013770 -0.005145 0.000000 0.000000 0.000000
# 3 -0.004173 -0.005145 0.023249 0.000000 0.000000 0.000000
# 4 0.000000 0.000000 0.000000 0.052895 0.000000 0.000000
# 5 0.000000 0.000000 0.000000 0.000000 0.033576 0.000000
# 6 0.000000 0.000000 0.000000 0.000000 0.000000 0.041332
#
#
# Mechanical properties :
#
#
# Convention : Reuss Voigt Hill
#
# Bulk Modulus (GPa) = 39.19993 44.66867 41.93430
# Shear Modulus (GPa) = 22.17214 23.39819 22.78516
#
# Velocity S-wave (km/s) = 3.45673 3.55102 3.50420
# Velocity P-wave (km/s) = 6.08750 6.39421 6.24274
#
# Compressibility (1/GPa) = 0.02551025
#
# Stress axis : x y z
#
# Youngs Moduli (GPa) = 49.17032 72.62169 43.01308
#
# Poissons Ratio (x) = 0.47966 0.17948
# Poissons Ratio (y) = 0.32477 0.22131
# Poissons Ratio (z) = 0.20518 0.37366
#
# Static dielectric constant tensor:
#      x y z
#    x 3.451980 0.000000 0.000000 
#    y 0.000000 3.300990 0.000000 
#    z 0.000000 0.000000 3.465570 
# 
# 
# High freq. dielectric constant tensor:
#      x y z
#    x 1.732010 0.000000 0.000000 
#    y 0.000000 1.713710 0.000000 
#    z 0.000000 0.000000 1.725610 
# 
# From -- ./inp_files/14777.got.cif
#   From: 2010.03.12/outbox.cif.g09.slc.cpg/sg62_8_cif.got.tgz:14777.got - 2010.04.10 19:12:36.
