data_PCOD8251037
_publ_section_title
;
Structure prediction by ZEFSAII (Michael W. Deem and Ramdas Pophale) SiO2 
 PCOD8251037
Probable space group: P N M A
;
_chemical_formula_sum "Si O2"
_cell_formula_units_Z 64
_cell_length_a 12.490208
_cell_length_b 14.357928
_cell_length_c 18.363147
_cell_angle_alpha 90.000000
_cell_angle_beta 90.000000
_cell_angle_gamma 90.000000
_cell_volume 3293.127554
_symmetry_space_group_name_H-M "P N M A"
_symmetry_group_IT_number 62
_symmetry_cell_setting 'orthorhombic'
loop_
_space_group_symop_operation_xyz
x,y,z
1/2-x,-y,1/2+z
1/2+x,1/2-y,1/2-z
-x,1/2+y,-z
-x,-y,-z
1/2+x,y,1/2-z
1/2-x,1/2+y,1/2+z
x,1/2-y,z
loop_
_atom_site_type_symbol
_atom_site_label
_atom_site_fract_x
_atom_site_fract_y
_atom_site_fract_z
Si Si1 0.567962 0.642576 0.312617
Si Si2 0.188424 0.851198 0.652532
Si Si3 0.648553 0.459625 0.692180
Si Si4 0.960390 0.638843 0.451626
Si Si5 0.353153 0.142916 0.849586
Si Si6 0.736753 0.852718 0.684374
Si Si7 0.722343 0.049936 0.858896
Si Si8 0.046738 0.142677 0.385546
O O1 0.550857 0.750000 0.333591
O O2 0.462053 0.585466 0.332040
O O3 0.590985 0.630510 0.227958
O O4 0.664337 0.601568 0.360529
O O5 0.202781 0.750000 0.611077
O O6 0.246187 0.840779 0.729399
O O7 0.061016 0.873055 0.661078
O O8 0.238708 0.942183 0.613628
O O9 0.741348 0.410115 0.646120
O O10 0.646818 0.569056 0.668304
O O11 0.670315 0.448469 0.778379
O O12 0.959656 0.750000 0.447532
O O13 0.852469 0.603197 0.414870
O O14 0.966725 0.599083 0.533821
O O15 0.064695 0.600472 0.408974
O O16 0.328088 0.250000 0.866008
O O17 0.708824 0.750000 0.650497
O O18 0.850051 0.896746 0.657278
O O19 0.072197 0.250000 0.396223
#
# Coordination Sequence:
#
# PCOD8251037 Si02
#       8
#     8   8   8   8   8   8   8   8
#     4  10  19  32  50  75 110 147 184 222 265 317
#     4   9  19  34  52  76 107 139 180 230 277 315
#     4  10  19  31  51  75 108 142 188 226 268 315
#     4  10  19  33  53  82 116 143 174 217 274 333
#     4   9  18  30  48  77 110 143 177 220 266 314
#     4   9  19  34  52  75 104 138 182 231 275 316
#     4  10  20  31  51  79 109 144 185 220 269 323
#     4   9  19  35  55  81 110 142 176 221 278 331
#
# _framework density 19.434412999999999
#
# number of rings (size 3 to 8) (size 9 to 14) (size 15 to 20)
#    0.000    2.500    1.250    0.750    1.750    4.500 
#    0.000    1.875    0.000    0.750    3.250    0.000 
#    0.000    0.000    0.000    0.000    0.000    0.000 
#
# Total GULP energy -793113.592458 kJ/mol
# GULP energy per Si atom -12392.399882 kJ/mol
# Density = 1.939018 g / cm^3
# Si number density = 19.434413 Si / 1000 Ang^3
#
#
#
# Elastic Constant Matrix: (Units=GPa)
#
#
# Indices 1 2 3 4 5 6 
#
# 1 114.3058 48.1592 41.3785 0.0000 0.0000 0.0000
# 2 48.1592 91.0318 8.5013 0.0000 0.0000 0.0000
# 3 41.3785 8.5013 65.3911 0.0000 0.0000 0.0000
# 4 0.0000 0.0000 0.0000 12.7832 0.0000 0.0000
# 5 0.0000 0.0000 0.0000 0.0000 22.2451 0.0000
# 6 0.0000 0.0000 0.0000 0.0000 0.0000 32.9284
#
#
#
# Elastic Compliance Matrix: (Units=1/GPa)
#
#
# Indices 1 2 3 4 5 6 
#
# 1 0.014756 -0.007020 -0.008425 0.000000 0.000000 0.000000
# 2 -0.007020 0.014459 0.002562 0.000000 0.000000 0.000000
# 3 -0.008425 0.002562 0.020290 0.000000 0.000000 0.000000
# 4 0.000000 0.000000 0.000000 0.078228 0.000000 0.000000
# 5 0.000000 0.000000 0.000000 0.000000 0.044954 0.000000
# 6 0.000000 0.000000 0.000000 0.000000 0.000000 0.030369
#
#
# Mechanical properties :
#
#
# Convention : Reuss Voigt Hill
#
# Bulk Modulus (GPa) = 42.12038 51.86740 46.99389
# Shear Modulus (GPa) = 21.12077 25.10398 23.11238
#
# Velocity S-wave (km/s) = 3.30020 3.59796 3.45229
# Velocity P-wave (km/s) = 6.02012 6.63376 6.33438
#
# Compressibility (1/GPa) = 0.02374147
#
# Stress axis : x y z
#
# Youngs Moduli (GPa) = 67.77101 69.15870 49.28429
#
# Poissons Ratio (x) = 0.48546 0.41520
# Poissons Ratio (y) = 0.47572 -0.12627
# Poissons Ratio (z) = 0.57094 -0.17719
#
# Static dielectric constant tensor:
#      x y z
#    x 3.481340 0.000000 0.000000 
#    y 0.000000 3.989660 0.000000 
#    z 0.000000 0.000000 3.303970 
# 
# 
# High freq. dielectric constant tensor:
#      x y z
#    x 1.744430 0.000000 0.000000 
#    y 0.000000 1.782570 0.000000 
#    z 0.000000 0.000000 1.708860 
# 
# From -- ./inp_files/23216.got.cif
#   From: 2010.03.12/outbox.cif.g09.slc.cpg/sg62_12_cif.got.tgz:23216.got - 2010.04.10 19:12:36.
