data_PCOD8251940
_publ_section_title
;
Structure prediction by ZEFSAII (Michael W. Deem and Ramdas Pophale) SiO2 
 PCOD8251940
Probable space group: P N M A
;
_chemical_formula_sum "Si O2"
_cell_formula_units_Z 48
_cell_length_a 18.533183
_cell_length_b 9.542614
_cell_length_c 14.028767
_cell_angle_alpha 90.000000
_cell_angle_beta 90.000000
_cell_angle_gamma 90.000000
_cell_volume 2481.057750
_symmetry_space_group_name_H-M "P N M A"
_symmetry_group_IT_number 62
_symmetry_cell_setting 'orthorhombic'
loop_
_space_group_symop_operation_xyz
x,y,z
1/2-x,-y,1/2+z
1/2+x,1/2-y,1/2-z
-x,1/2+y,-z
-x,-y,-z
1/2+x,y,1/2-z
1/2-x,1/2+y,1/2+z
x,1/2-y,z
loop_
_atom_site_type_symbol
_atom_site_label
_atom_site_fract_x
_atom_site_fract_y
_atom_site_fract_z
Si Si1 0.105468 0.906916 0.026964
Si Si2 0.148663 0.916785 0.377628
Si Si3 0.951830 0.593067 0.126171
Si Si4 0.651913 0.086742 0.939559
Si Si5 0.511717 0.084555 0.831720
Si Si6 0.713897 0.586842 0.317845
O O1 0.130881 0.750000 0.999166
O O2 0.105910 0.000201 0.931432
O O3 0.160128 0.977854 0.102839
O O4 0.026876 0.901992 0.071684
O O5 0.153010 0.750000 0.393237
O O6 0.196972 0.970425 0.288235
O O7 0.066667 0.970816 0.361933
O O8 0.178259 0.994422 0.471379
O O9 0.919483 0.750000 0.135371
O O10 0.964569 0.522520 0.229456
O O11 0.655742 0.250000 0.967783
O O12 0.571049 0.041334 0.910212
O O13 0.703938 0.056660 0.848898
O O14 0.507273 0.250000 0.818825
O O15 0.695172 0.750000 0.313972
#
# Coordination Sequence:
#
# PCOD8251940 Si02
#       6
#     8   8   8   8   8   8
#     4   9  16  29  48  71  99 133 168 203 247 299
#     4  10  19  36  58  75  97 137 176 205 246 307
#     4   9  16  28  49  75 100 128 166 209 247 291
#     4  10  21  35  52  78 105 130 167 216 258 294
#     4   9  17  32  54  76 101 135 173 208 248 302
#     4   9  18  34  54  72 100 141 173 199 252 317
#
# _framework density 19.346588000000001
#
# number of rings (size 3 to 8) (size 9 to 14) (size 15 to 20)
#    0.000    2.667    1.667    0.500    0.000    1.333 
#    0.000    5.833    0.000    0.000    0.000    0.000 
#    0.000    0.000    0.000    0.000    0.000    0.000 
#
# Total GULP energy -595047.613675 kJ/mol
# GULP energy per Si atom -12396.825285 kJ/mol
# Density = 1.930255 g / cm^3
# Si number density = 19.346588 Si / 1000 Ang^3
#
#
#
# Elastic Constant Matrix: (Units=GPa)
#
#
# Indices 1 2 3 4 5 6 
#
# 1 74.2276 19.0785 36.5703 0.0000 0.0000 0.0000
# 2 19.0785 45.6026 39.4812 0.0000 0.0000 0.0000
# 3 36.5703 39.4812 127.1134 0.0000 0.0000 0.0000
# 4 0.0000 0.0000 0.0000 31.0334 0.0000 0.0000
# 5 0.0000 0.0000 0.0000 0.0000 28.8495 0.0000
# 6 0.0000 0.0000 0.0000 0.0000 0.0000 13.9560
#
#
#
# Elastic Compliance Matrix: (Units=1/GPa)
#
#
# Indices 1 2 3 4 5 6 
#
# 1 0.016150 -0.003740 -0.003485 0.000000 0.000000 0.000000
# 2 -0.003740 0.030860 -0.008509 0.000000 0.000000 0.000000
# 3 -0.003485 -0.008509 0.011513 0.000000 0.000000 0.000000
# 4 0.000000 0.000000 0.000000 0.032223 0.000000 0.000000
# 5 0.000000 0.000000 0.000000 0.000000 0.034663 0.000000
# 6 0.000000 0.000000 0.000000 0.000000 0.000000 0.071654
#
#
# Mechanical properties :
#
#
# Convention : Reuss Voigt Hill
#
# Bulk Modulus (GPa) = 36.96110 48.57820 42.76965
# Shear Modulus (GPa) = 21.04835 24.88868 22.96851
#
# Velocity S-wave (km/s) = 3.30200 3.59062 3.44933
# Velocity P-wave (km/s) = 5.80378 6.50800 6.16595
#
# Compressibility (1/GPa) = 0.02705547
#
# Stress axis : x y z
#
# Youngs Moduli (GPa) = 61.91890 32.40429 86.86182
#
# Poissons Ratio (x) = 0.12118 0.30270
# Poissons Ratio (y) = 0.23155 0.73913
# Poissons Ratio (z) = 0.21578 0.27574
#
# Static dielectric constant tensor:
#      x y z
#    x 3.458520 0.000000 0.000000 
#    y 0.000000 3.252730 0.000000 
#    z 0.000000 0.000000 3.634160 
# 
# 
# High freq. dielectric constant tensor:
#      x y z
#    x 1.748890 0.000000 0.000000 
#    y 0.000000 1.702830 0.000000 
#    z 0.000000 0.000000 1.761540 
# 
# From -- ./inp_files/14093.got.cif
#   From: 2010.03.12/outbox.cif.g09.slc.cpg/sg62_8_cif.got.tgz:14093.got - 2010.04.10 19:12:36.
