data_PCOD8251000
_publ_section_title
;
Structure prediction by ZEFSAII (Michael W. Deem and Ramdas Pophale) SiO2 
 PCOD8251000
Probable space group: P N M A
;
_chemical_formula_sum "Si O2"
_cell_formula_units_Z 56
_cell_length_a 14.186455
_cell_length_b 9.234051
_cell_length_c 24.447713
_cell_angle_alpha 90.000000
_cell_angle_beta 90.000000
_cell_angle_gamma 90.000000
_cell_volume 3202.612484
_symmetry_space_group_name_H-M "P N M A"
_symmetry_group_IT_number 62
_symmetry_cell_setting 'orthorhombic'
loop_
_space_group_symop_operation_xyz
x,y,z
1/2-x,-y,1/2+z
1/2+x,1/2-y,1/2-z
-x,1/2+y,-z
-x,-y,-z
1/2+x,y,1/2-z
1/2-x,1/2+y,1/2+z
x,1/2-y,z
loop_
_atom_site_type_symbol
_atom_site_label
_atom_site_fract_x
_atom_site_fract_y
_atom_site_fract_z
Si Si1 0.898876 0.576987 0.494535
Si Si2 0.742418 0.921453 0.292903
Si Si3 0.703223 0.419549 0.105512
Si Si4 0.154482 0.914833 0.609832
Si Si5 0.529280 0.089254 0.173610
Si Si6 0.164735 0.416826 0.822134
Si Si7 0.970091 0.084099 0.777061
O O1 0.914058 0.750000 0.488915
O O2 0.832206 0.536952 0.545601
O O3 0.838783 0.513547 0.444048
O O4 0.000000 0.500000 0.500000
O O5 0.756329 0.750000 0.302962
O O6 0.787316 0.969338 0.234858
O O7 0.632559 0.969478 0.295662
O O8 0.788358 0.011772 0.341395
O O9 0.721120 0.250000 0.108723
O O10 0.625933 0.472276 0.149314
O O11 0.798625 0.498840 0.124326
O O12 0.191125 0.750000 0.599617
O O13 0.044646 0.909630 0.624484
O O14 0.544239 0.250000 0.197007
O O15 0.492999 0.991172 0.222377
O O16 0.189490 0.250000 0.830571
O O17 0.051626 0.443653 0.821843
O O18 0.963540 0.250000 0.760960
#
# Coordination Sequence:
#
# PCOD8251000 Si02
#       7
#     8   8   8   8   8   8   8
#     4  11  22  37  56  80 110 144 180 221 270 323
#     4  10  20  34  53  78 108 143 178 218 268 317
#     4  10  21  36  52  76 110 143 176 215 264 318
#     4  11  22  36  53  79 111 144 181 221 265 321
#     4  10  19  31  49  76 110 141 175 214 259 315
#     4  10  20  33  53  80 107 141 181 219 266 319
#     4  10  20  34  51  77 111 142 179 219 262 318
#
# _framework density 17.485724000000001
#
# number of rings (size 3 to 8) (size 9 to 14) (size 15 to 20)
#    0.000    1.714    4.286    0.857    0.000    3.429 
#    0.000    0.000    0.000    0.857    0.000    0.000 
#    0.000    0.000    0.000    0.000    0.000    0.000 
#
# Total GULP energy -694256.011582 kJ/mol
# GULP energy per Si atom -12397.428778 kJ/mol
# Density = 1.744593 g / cm^3
# Si number density = 17.485724 Si / 1000 Ang^3
#
#
#
# Elastic Constant Matrix: (Units=GPa)
#
#
# Indices 1 2 3 4 5 6 
#
# 1 74.4836 25.6976 21.9813 0.0000 0.0000 0.0000
# 2 25.6976 63.4991 44.1089 0.0000 0.0000 0.0000
# 3 21.9813 44.1089 87.0188 0.0000 0.0000 0.0000
# 4 0.0000 0.0000 0.0000 30.2703 0.0000 0.0000
# 5 0.0000 0.0000 0.0000 0.0000 24.6212 0.0000
# 6 0.0000 0.0000 0.0000 0.0000 0.0000 26.1591
#
#
#
# Elastic Compliance Matrix: (Units=1/GPa)
#
#
# Indices 1 2 3 4 5 6 
#
# 1 0.015679 -0.005547 -0.001149 0.000000 0.000000 0.000000
# 2 -0.005547 0.026269 -0.011914 0.000000 0.000000 0.000000
# 3 -0.001149 -0.011914 0.017821 0.000000 0.000000 0.000000
# 4 0.000000 0.000000 0.000000 0.033036 0.000000 0.000000
# 5 0.000000 0.000000 0.000000 0.000000 0.040615 0.000000
# 6 0.000000 0.000000 0.000000 0.000000 0.000000 0.038228
#
#
# Mechanical properties :
#
#
# Convention : Reuss Voigt Hill
#
# Bulk Modulus (GPa) = 44.34841 45.39744 44.87292
# Shear Modulus (GPa) = 23.10704 25.09105 24.09904
#
# Velocity S-wave (km/s) = 3.63916 3.79218 3.71646
# Velocity P-wave (km/s) = 6.56321 6.72258 6.64337
#
# Compressibility (1/GPa) = 0.02254872
#
# Stress axis : x y z
#
# Youngs Moduli (GPa) = 63.78129 38.06726 56.11285
#
# Poissons Ratio (x) = 0.21116 0.06446
# Poissons Ratio (y) = 0.35380 0.66855
# Poissons Ratio (z) = 0.07327 0.45355
#
# Static dielectric constant tensor:
#      x y z
#    x 3.319380 0.000000 0.000000 
#    y 0.000000 3.260320 0.000000 
#    z 0.000000 0.000000 3.116180 
# 
# 
# High freq. dielectric constant tensor:
#      x y z
#    x 1.668370 0.000000 0.000000 
#    y 0.000000 1.679360 0.000000 
#    z 0.000000 0.000000 1.659540 
# 
# From -- ./inp_files/27146.got.cif
#   From: 2010.03.12/outbox.cif.g09.slc.cpg/sg62_14_cif.got.tgz:27146.got - 2010.04.10 19:12:36.
