data_PCOD8251194
_publ_section_title
;
Structure prediction by ZEFSAII (Michael W. Deem and Ramdas Pophale) SiO2 
 PCOD8251194
Probable space group: P N M A
;
_chemical_formula_sum "Si O2"
_cell_formula_units_Z 64
_cell_length_a 19.716500
_cell_length_b 9.182790
_cell_length_c 18.820455
_cell_angle_alpha 90.000000
_cell_angle_beta 90.000000
_cell_angle_gamma 90.000000
_cell_volume 3407.490034
_symmetry_space_group_name_H-M "P N M A"
_symmetry_group_IT_number 62
_symmetry_cell_setting 'orthorhombic'
loop_
_space_group_symop_operation_xyz
x,y,z
1/2-x,-y,1/2+z
1/2+x,1/2-y,1/2-z
-x,1/2+y,-z
-x,-y,-z
1/2+x,y,1/2-z
1/2-x,1/2+y,1/2+z
x,1/2-y,z
loop_
_atom_site_type_symbol
_atom_site_label
_atom_site_fract_x
_atom_site_fract_y
_atom_site_fract_z
Si Si1 0.352740 0.922284 0.285386
Si Si2 0.951657 0.078642 0.444949
Si Si3 0.102672 0.082003 0.191291
Si Si4 0.437255 0.920923 0.534585
Si Si5 0.737945 0.921995 0.324842
Si Si6 0.474984 0.418566 0.216034
Si Si7 0.297091 0.079610 0.042057
Si Si8 0.815293 0.920536 0.061328
O O1 0.362379 0.750000 0.287883
O O2 0.296627 0.969168 0.228902
O O3 0.328601 0.988656 0.361101
O O4 0.424139 0.991237 0.264760
O O5 0.960639 0.250000 0.454969
O O6 0.971229 0.028737 0.365511
O O7 0.874800 0.028586 0.461386
O O8 0.000000 0.000000 0.500000
O O9 0.125766 0.250000 0.187986
O O10 0.067304 0.037170 0.117317
O O11 0.050672 0.054065 0.255594
O O12 0.167653 0.982652 0.206006
O O13 0.447338 0.750000 0.524125
O O14 0.369702 0.979297 0.495566
O O15 0.500000 0.000000 0.500000
O O16 0.732163 0.750000 0.333254
O O17 0.754924 0.992147 0.399945
O O18 0.454169 0.250000 0.221712
O O19 0.292000 0.250000 0.061339
O O20 0.260768 0.044403 0.966687
O O21 0.824797 0.750000 0.068898
#
# Coordination Sequence:
#
# PCOD8251194 Si02
#       8
#     8   8   8   8   8   8   8   8
#     4  10  21  36  56  84 115 147 185 237 294 344
#     4  10  22  38  61  88 114 153 196 240 291 343
#     4  10  21  37  57  81 113 153 191 230 279 341
#     4  10  19  32  52  77 107 146 183 223 273 328
#     4  11  22  35  56  86 115 148 190 239 288 339
#     4  10  21  38  59  85 116 152 197 239 283 345
#     4  10  19  38  63  81 108 154 197 236 287 348
#     4   9  18  34  56  80 107 143 190 231 278 343
#
# _framework density 18.782153999999998
#
# number of rings (size 3 to 8) (size 9 to 14) (size 15 to 20)
#    0.000    2.000    2.500    1.125    0.000    3.500 
#    0.000    1.875    0.000    0.000    0.000    0.000 
#    0.000    0.000    0.000    0.000    0.000    0.000 
#
# Total GULP energy -793709.875782 kJ/mol
# GULP energy per Si atom -12401.716809 kJ/mol
# Density = 1.873940 g / cm^3
# Si number density = 18.782154 Si / 1000 Ang^3
#
#
#
# Elastic Constant Matrix: (Units=GPa)
#
#
# Indices 1 2 3 4 5 6 
#
# 1 115.4773 32.1140 39.3832 0.0000 0.0000 0.0000
# 2 32.1140 35.2629 19.5430 0.0000 0.0000 0.0000
# 3 39.3832 19.5430 105.6486 0.0000 0.0000 0.0000
# 4 0.0000 0.0000 0.0000 21.9332 0.0000 0.0000
# 5 0.0000 0.0000 0.0000 0.0000 36.7793 0.0000
# 6 0.0000 0.0000 0.0000 0.0000 0.0000 33.7668
#
#
#
# Elastic Compliance Matrix: (Units=1/GPa)
#
#
# Indices 1 2 3 4 5 6 
#
# 1 0.012298 -0.009648 -0.002800 0.000000 0.000000 0.000000
# 2 -0.009648 0.039167 -0.003649 0.000000 0.000000 0.000000
# 3 -0.002800 -0.003649 0.011184 0.000000 0.000000 0.000000
# 4 0.000000 0.000000 0.000000 0.045593 0.000000 0.000000
# 5 0.000000 0.000000 0.000000 0.000000 0.027189 0.000000
# 6 0.000000 0.000000 0.000000 0.000000 0.000000 0.029615
#
#
# Mechanical properties :
#
#
# Convention : Reuss Voigt Hill
#
# Bulk Modulus (GPa) = 32.83407 48.71880 40.77644
# Shear Modulus (GPa) = 24.10922 29.51911 26.81417
#
# Velocity S-wave (km/s) = 3.58666 3.96871 3.78251
# Velocity P-wave (km/s) = 5.88826 6.85537 6.39014
#
# Compressibility (1/GPa) = 0.03045617
#
# Stress axis : x y z
#
# Youngs Moduli (GPa) = 81.31703 25.53176 89.41445
#
# Poissons Ratio (x) = 0.24633 0.25032
# Poissons Ratio (y) = 0.78454 0.32624
# Poissons Ratio (z) = 0.22765 0.09316
#
# Static dielectric constant tensor:
#      x y z
#    x 3.546660 0.000000 0.000000 
#    y 0.000000 3.233130 0.000000 
#    z 0.000000 0.000000 3.647850 
# 
# 
# High freq. dielectric constant tensor:
#      x y z
#    x 1.738900 0.000000 0.000000 
#    y 0.000000 1.708680 0.000000 
#    z 0.000000 0.000000 1.736560 
# 
# From -- ./inp_files/24752.got.cif
#   From: 2010.03.12/outbox.cif.g09.slc.cpg/sg62_13_cif.got.tgz:24752.got - 2010.04.10 19:12:36.
