data_PCOD8251636
_publ_section_title
;
Structure prediction by ZEFSAII (Michael W. Deem and Ramdas Pophale) SiO2 
 PCOD8251636
Probable space group: P N M A
;
_chemical_formula_sum "Si O2"
_cell_formula_units_Z 48
_cell_length_a 28.787974
_cell_length_b 9.214456
_cell_length_c 10.205781
_cell_angle_alpha 90.000000
_cell_angle_beta 90.000000
_cell_angle_gamma 90.000000
_cell_volume 2707.241801
_symmetry_space_group_name_H-M "P N M A"
_symmetry_group_IT_number 62
_symmetry_cell_setting 'orthorhombic'
loop_
_space_group_symop_operation_xyz
x,y,z
1/2-x,-y,1/2+z
1/2+x,1/2-y,1/2-z
-x,1/2+y,-z
-x,-y,-z
1/2+x,y,1/2-z
1/2-x,1/2+y,1/2+z
x,1/2-y,z
loop_
_atom_site_type_symbol
_atom_site_label
_atom_site_fract_x
_atom_site_fract_y
_atom_site_fract_z
Si Si1 0.974837 0.583029 0.614358
Si Si2 0.288239 0.920999 0.305525
Si Si3 0.118958 0.918407 0.773877
Si Si4 0.117962 0.414482 0.514787
Si Si5 0.722722 0.416449 0.995992
Si Si6 0.980522 0.417653 0.122365
O O1 0.989955 0.750000 0.603397
O O2 0.919044 0.563650 0.602046
O O3 0.000000 0.500000 0.500000
O O4 0.992150 0.518942 0.751914
O O5 0.293649 0.750000 0.323514
O O6 0.337948 0.993664 0.333496
O O7 0.252812 0.979342 0.413404
O O8 0.271262 0.958067 0.157690
O O9 0.132460 0.750000 0.763814
O O10 0.074661 0.942915 0.866762
O O11 0.105475 0.974878 0.630114
O O12 0.115554 0.250000 0.571440
O O13 0.169518 0.442903 0.460116
O O14 0.737753 0.250000 0.019351
O O15 0.992470 0.250000 0.104882
O O16 0.000000 0.500000 0.000000
#
# Coordination Sequence:
#
# PCOD8251636 Si02
#       6
#     8   8   8   8   8   8
#     4  10  19  34  56  82 109 139 180 224 264 314
#     4  10  21  37  58  83 108 141 181 221 270 325
#     4  10  19  34  56  80 109 143 181 221 266 321
#     4   9  18  33  56  82 109 139 178 225 270 318
#     4   9  19  36  55  79 111 141 177 224 270 320
#     4  10  22  37  53  78 113 147 181 222 268 319
#
# _framework density 17.730222000000001
#
# number of rings (size 3 to 8) (size 9 to 14) (size 15 to 20)
#    0.000    2.333    1.667    2.000    0.000    5.333 
#    3.000    0.000    0.000    0.000    0.000    0.000 
#    0.000    0.000    0.000    0.000    0.000    0.000 
#
# Total GULP energy -595180.101630 kJ/mol
# GULP energy per Si atom -12399.585451 kJ/mol
# Density = 1.768987 g / cm^3
# Si number density = 17.730222 Si / 1000 Ang^3
#
#
#
# Elastic Constant Matrix: (Units=GPa)
#
#
# Indices 1 2 3 4 5 6 
#
# 1 117.4685 65.4934 76.2648 0.0000 0.0000 0.0000
# 2 65.4934 92.0115 63.6080 0.0000 0.0000 0.0000
# 3 76.2648 63.6080 123.0667 0.0000 0.0000 0.0000
# 4 0.0000 0.0000 0.0000 33.3196 0.0000 0.0000
# 5 0.0000 0.0000 0.0000 0.0000 31.2800 0.0000
# 6 0.0000 0.0000 0.0000 0.0000 0.0000 30.5075
#
#
#
# Elastic Compliance Matrix: (Units=1/GPa)
#
#
# Indices 1 2 3 4 5 6 
#
# 1 0.017033 -0.007511 -0.006674 0.000000 0.000000 0.000000
# 2 -0.007511 0.020222 -0.005798 0.000000 0.000000 0.000000
# 3 -0.006674 -0.005798 0.015258 0.000000 0.000000 0.000000
# 4 0.000000 0.000000 0.000000 0.030012 0.000000 0.000000
# 5 0.000000 0.000000 0.000000 0.000000 0.031969 0.000000
# 6 0.000000 0.000000 0.000000 0.000000 0.000000 0.032779
#
#
# Mechanical properties :
#
#
# Convention : Reuss Voigt Hill
#
# Bulk Modulus (GPa) = 79.68434 82.58656 81.13545
# Shear Modulus (GPa) = 26.12053 27.50013 26.81033
#
# Velocity S-wave (km/s) = 3.84242 3.94259 3.89282
# Velocity P-wave (km/s) = 8.04524 8.21011 8.12809
#
# Compressibility (1/GPa) = 0.01254952
#
# Stress axis : x y z
#
# Youngs Moduli (GPa) = 58.70926 49.45064 65.54021
#
# Poissons Ratio (x) = 0.37141 0.43738
# Poissons Ratio (y) = 0.44094 0.37998
# Poissons Ratio (z) = 0.39180 0.28670
#
# Static dielectric constant tensor:
#      x y z
#    x 3.851340 0.000000 0.000000 
#    y 0.000000 3.319440 0.000000 
#    z 0.000000 0.000000 3.300760 
# 
# 
# High freq. dielectric constant tensor:
#      x y z
#    x 1.696100 0.000000 0.000000 
#    y 0.000000 1.690770 0.000000 
#    z 0.000000 0.000000 1.666060 
# 
# From -- ./inp_files/10246.got.cif
#   From: 2010.03.12/outbox.cif.g09.slc.cpg/sg62_6_cif.got.tgz:10246.got - 2010.04.10 19:12:36.
