data_PCOD8251078
_publ_section_title
;
Structure prediction by ZEFSAII (Michael W. Deem and Ramdas Pophale) SiO2 
 PCOD8251078
Probable space group: P N M A
;
_chemical_formula_sum "Si O2"
_cell_formula_units_Z 64
_cell_length_a 22.971933
_cell_length_b 8.716268
_cell_length_c 16.461158
_cell_angle_alpha 90.000000
_cell_angle_beta 90.000000
_cell_angle_gamma 90.000000
_cell_volume 3296.009839
_symmetry_space_group_name_H-M "P N M A"
_symmetry_group_IT_number 62
_symmetry_cell_setting 'orthorhombic'
loop_
_space_group_symop_operation_xyz
x,y,z
1/2-x,-y,1/2+z
1/2+x,1/2-y,1/2-z
-x,1/2+y,-z
-x,-y,-z
1/2+x,y,1/2-z
1/2-x,1/2+y,1/2+z
x,1/2-y,z
loop_
_atom_site_type_symbol
_atom_site_label
_atom_site_fract_x
_atom_site_fract_y
_atom_site_fract_z
Si Si1 0.334264 0.573873 0.047104
Si Si2 0.144086 0.932986 0.254056
Si Si3 0.487050 0.067437 0.746589
Si Si4 0.716027 0.926911 0.391291
Si Si5 0.777805 0.071449 0.604537
Si Si6 0.465634 0.569051 0.077435
Si Si7 0.833469 0.431186 0.058557
Si Si8 0.965489 0.067044 0.078084
O O1 0.335766 0.750000 0.016088
O O2 0.286326 0.557029 0.119409
O O3 0.398032 0.519408 0.073682
O O4 0.308313 0.462801 0.980156
O O5 0.143935 0.750000 0.253597
O O6 0.078700 0.992915 0.249013
O O7 0.181832 0.006736 0.181588
O O8 0.175204 0.997189 0.333492
O O9 0.493096 0.250000 0.737716
O O10 0.513802 0.011398 0.833297
O O11 0.514027 0.991265 0.666225
O O12 0.698058 0.750000 0.392775
O O13 0.690434 0.999308 0.473640
O O14 0.768436 0.250000 0.616757
O O15 0.714459 0.995453 0.621781
O O16 0.474330 0.750000 0.071766
O O17 0.500000 0.500000 0.000000
O O18 0.831913 0.250000 0.062931
O O19 0.898725 0.490441 0.072891
O O20 0.970691 0.250000 0.074025
O O21 0.000000 0.000000 0.000000
#
# Coordination Sequence:
#
# PCOD8251078 Si02
#       8
#     8   8   8   8   8   8   8   8
#     4   9  18  33  51  72 101 139 180 218 268 332
#     4   9  17  30  50  76 104 134 170 217 273 323
#     4  10  21  37  56  82 115 149 190 236 281 336
#     4   8  14  28  50  70  91 127 171 208 250 317
#     4  10  19  31  53  82 106 133 175 227 275 325
#     4  10  21  36  56  80 110 151 193 236 285 337
#     4   9  19  36  55  75 105 143 177 215 273 336
#     4  11  23  39  60  85 115 152 190 231 281 336
#
# _framework density 19.417418000000001
#
# number of rings (size 3 to 8) (size 9 to 14) (size 15 to 20)
#    0.000    2.500    0.000    3.000    0.000    6.000 
#    0.000    3.750    0.000    7.500    0.000    0.000 
#    0.000    0.000    0.000    0.000    0.000    0.000 
#
# Total GULP energy -792853.203250 kJ/mol
# GULP energy per Si atom -12388.331301 kJ/mol
# Density = 1.937322 g / cm^3
# Si number density = 19.417418 Si / 1000 Ang^3
#
#
#
# Elastic Constant Matrix: (Units=GPa)
#
#
# Indices 1 2 3 4 5 6 
#
# 1 210.8123 33.7941 85.7201 0.0000 0.0000 0.0000
# 2 33.7941 31.6112 26.5024 0.0000 0.0000 0.0000
# 3 85.7201 26.5024 127.9640 0.0000 0.0000 0.0000
# 4 0.0000 0.0000 0.0000 24.6324 0.0000 0.0000
# 5 0.0000 0.0000 0.0000 0.0000 37.6131 0.0000
# 6 0.0000 0.0000 0.0000 0.0000 0.0000 24.7677
#
#
#
# Elastic Compliance Matrix: (Units=1/GPa)
#
#
# Indices 1 2 3 4 5 6 
#
# 1 0.006967 -0.004278 -0.003781 0.000000 0.000000 0.000000
# 2 -0.004278 0.040908 -0.005607 0.000000 0.000000 0.000000
# 3 -0.003781 -0.005607 0.011509 0.000000 0.000000 0.000000
# 4 0.000000 0.000000 0.000000 0.040597 0.000000 0.000000
# 5 0.000000 0.000000 0.000000 0.000000 0.026586 0.000000
# 6 0.000000 0.000000 0.000000 0.000000 0.000000 0.040375
#
#
# Mechanical properties :
#
#
# Convention : Reuss Voigt Hill
#
# Bulk Modulus (GPa) = 31.19872 73.60230 52.40051
# Shear Modulus (GPa) = 24.39529 32.36069 28.37799
#
# Velocity S-wave (km/s) = 3.54836 4.08681 3.82707
# Velocity P-wave (km/s) = 5.73499 7.76253 6.82448
#
# Compressibility (1/GPa) = 0.03205260
#
# Stress axis : x y z
#
# Youngs Moduli (GPa) = 143.54028 24.44482 86.89166
#
# Poissons Ratio (x) = 0.10457 0.32852
# Poissons Ratio (y) = 0.61407 0.48718
# Poissons Ratio (z) = 0.54270 0.13706
#
# Static dielectric constant tensor:
#      x y z
#    x 4.006910 0.000000 0.000000 
#    y 0.000000 3.203550 0.000000 
#    z 0.000000 0.000000 3.726000 
# 
# 
# High freq. dielectric constant tensor:
#      x y z
#    x 1.778180 0.000000 0.000000 
#    y 0.000000 1.722720 0.000000 
#    z 0.000000 0.000000 1.753610 
# 
# From -- ./inp_files/20849.got.cif
#   From: 2010.03.12/outbox.cif.g09.slc.cpg/sg62_11_cif.got.tgz:20849.got - 2010.04.10 19:12:36.
