data_PCOD8251749
_publ_section_title
;
Structure prediction by ZEFSAII (Michael W. Deem and Ramdas Pophale) SiO2 
 PCOD8251749
Probable space group: P N M A
;
_chemical_formula_sum "Si O2"
_cell_formula_units_Z 48
_cell_length_a 9.815354
_cell_length_b 18.379960
_cell_length_c 13.455936
_cell_angle_alpha 90.000000
_cell_angle_beta 90.000000
_cell_angle_gamma 90.000000
_cell_volume 2427.529086
_symmetry_space_group_name_H-M "P N M A"
_symmetry_group_IT_number 62
_symmetry_cell_setting 'orthorhombic'
loop_
_space_group_symop_operation_xyz
x,y,z
1/2-x,-y,1/2+z
1/2+x,1/2-y,1/2-z
-x,1/2+y,-z
-x,-y,-z
1/2+x,y,1/2-z
1/2-x,1/2+y,1/2+z
x,1/2-y,z
loop_
_atom_site_type_symbol
_atom_site_label
_atom_site_fract_x
_atom_site_fract_y
_atom_site_fract_z
Si Si1 0.799236 0.333463 0.431153
Si Si2 0.308249 0.434211 0.461617
Si Si3 0.585590 0.405973 0.549365
Si Si4 0.264462 0.445374 0.236688
Si Si5 0.012360 0.955686 0.253682
Si Si6 0.524462 0.081534 0.964604
O O1 0.812855 0.250000 0.400526
O O2 0.689890 0.341956 0.520997
O O3 0.742630 0.377280 0.335843
O O4 0.946965 0.361549 0.465373
O O5 0.448209 0.392825 0.486028
O O6 0.335689 0.519774 0.479968
O O7 0.259195 0.417929 0.349853
O O8 0.187305 0.404898 0.532178
O O9 0.549676 0.405901 0.666210
O O10 0.410737 0.479967 0.214689
O O11 0.150936 0.507114 0.215784
O O12 0.032888 0.907184 0.352366
O O13 0.500000 0.000000 0.000000
#
# Coordination Sequence:
#
# PCOD8251749 Si02
#       6
#     8   8   8   8   8   8
#     4  12  25  40  56  82 126 165 193 244 315 367
#     4  10  19  34  62  87 119 145 198 254 284 340
#     4  10  20  36  56  88 114 154 196 244 295 347
#     4  11  19  34  55  89 114 149 192 240 300 350
#     4  11  20  32  65  90 111 144 200 255 288 337
#     4  12  19  38  61  92 119 152 200 254 293 349
#
# _framework density 19.773192000000002
#
# number of rings (size 3 to 8) (size 9 to 14) (size 15 to 20)
#    0.000    1.000    5.000    5.000    0.000    0.000 
#    0.000    9.167    0.000    0.000    0.000    0.000 
#    0.000    0.000    0.000    0.000    0.000    0.000 
#
# Total GULP energy -595283.324040 kJ/mol
# GULP energy per Si atom -12401.735917 kJ/mol
# Density = 1.972819 g / cm^3
# Si number density = 19.773192 Si / 1000 Ang^3
#
#
#
# Elastic Constant Matrix: (Units=GPa)
#
#
# Indices 1 2 3 4 5 6 
#
# 1 117.4320 24.6543 26.5815 0.0000 0.0000 0.0000
# 2 24.6543 56.6540 31.2680 0.0000 0.0000 0.0000
# 3 26.5815 31.2680 106.0297 0.0000 0.0000 0.0000
# 4 0.0000 0.0000 0.0000 14.7195 0.0000 0.0000
# 5 0.0000 0.0000 0.0000 0.0000 35.5309 0.0000
# 6 0.0000 0.0000 0.0000 0.0000 0.0000 16.8612
#
#
#
# Elastic Compliance Matrix: (Units=1/GPa)
#
#
# Indices 1 2 3 4 5 6 
#
# 1 0.009541 -0.003383 -0.001395 0.000000 0.000000 0.000000
# 2 -0.003383 0.022281 -0.005723 0.000000 0.000000 0.000000
# 3 -0.001395 -0.005723 0.011469 0.000000 0.000000 0.000000
# 4 0.000000 0.000000 0.000000 0.067937 0.000000 0.000000
# 5 0.000000 0.000000 0.000000 0.000000 0.028145 0.000000
# 6 0.000000 0.000000 0.000000 0.000000 0.000000 0.059308
#
#
# Mechanical properties :
#
#
# Convention : Reuss Voigt Hill
#
# Bulk Modulus (GPa) = 44.85957 49.45814 47.15885
# Shear Modulus (GPa) = 22.01567 26.59645 24.30606
#
# Velocity S-wave (km/s) = 3.34040 3.67151 3.50986
# Velocity P-wave (km/s) = 6.13303 6.56051 6.35037
#
# Compressibility (1/GPa) = 0.02229179
#
# Stress axis : x y z
#
# Youngs Moduli (GPa) = 104.80685 44.88038 87.19489
#
# Poissons Ratio (x) = 0.15181 0.12159
# Poissons Ratio (y) = 0.35451 0.49900
# Poissons Ratio (z) = 0.14615 0.25684
#
# Static dielectric constant tensor:
#      x y z
#    x 3.949760 0.000000 0.000000 
#    y 0.000000 2.935900 0.000000 
#    z 0.000000 0.000000 3.854430 
# 
# 
# High freq. dielectric constant tensor:
#      x y z
#    x 1.795200 0.000000 0.000000 
#    y 0.000000 1.688310 0.000000 
#    z 0.000000 0.000000 1.789150 
# 
# From -- ./inp_files/16960.got.cif
#   From: 2010.03.12/outbox.cif.g09.slc.cpg/sg62_9_cif.got.tgz:16960.got - 2010.04.10 19:12:36.
