data_PCOD8251033
_publ_section_title
;
Structure prediction by ZEFSAII (Michael W. Deem and Ramdas Pophale) SiO2 
 PCOD8251033
Probable space group: P N M A
;
_chemical_formula_sum "Si O2"
_cell_formula_units_Z 56
_cell_length_a 20.697962
_cell_length_b 9.183987
_cell_length_c 14.597336
_cell_angle_alpha 90.000000
_cell_angle_beta 90.000000
_cell_angle_gamma 90.000000
_cell_volume 2774.804884
_symmetry_space_group_name_H-M "P N M A"
_symmetry_group_IT_number 62
_symmetry_cell_setting 'orthorhombic'
loop_
_space_group_symop_operation_xyz
x,y,z
1/2-x,-y,1/2+z
1/2+x,1/2-y,1/2-z
-x,1/2+y,-z
-x,-y,-z
1/2+x,y,1/2-z
1/2-x,1/2+y,1/2+z
x,1/2-y,z
loop_
_atom_site_type_symbol
_atom_site_label
_atom_site_fract_x
_atom_site_fract_y
_atom_site_fract_z
Si Si1 0.032502 0.579911 0.273550
Si Si2 0.153620 0.079176 0.338929
Si Si3 0.610771 0.418657 0.747561
Si Si4 0.239643 0.576769 0.690562
Si Si5 0.041089 0.912758 0.071736
Si Si6 0.762938 0.915188 0.495763
Si Si7 0.132583 0.909177 0.920350
O O1 0.049571 0.750000 0.278294
O O2 0.083152 0.494680 0.335754
O O3 0.043596 0.515675 0.171365
O O4 0.957088 0.553659 0.301396
O O5 0.145302 0.250000 0.324419
O O6 0.204204 0.021249 0.260567
O O7 0.174628 0.042748 0.443589
O O8 0.630087 0.250000 0.752614
O O9 0.668889 0.515321 0.785060
O O10 0.599457 0.465757 0.641459
O O11 0.235751 0.750000 0.692245
O O12 0.252611 0.523629 0.587152
O O13 0.012701 0.750000 0.081622
O O14 0.112173 0.915203 0.027137
O O15 0.000000 0.000000 0.000000
O O16 0.768349 0.750000 0.457235
O O17 0.709312 0.927126 0.575923
O O18 0.114329 0.750000 0.878737
#
# Coordination Sequence:
#
# PCOD8251033 Si02
#       7
#     8   8   8   8   8   8   8
#     4  10  22  38  56  84 121 157 200 247 294 352
#     4  10  22  40  62  88 121 157 196 245 301 357
#     4  11  22  37  59  86 118 157 199 243 293 352
#     4  11  23  41  63  91 121 155 203 249 296 358
#     4  10  19  31  50  79 114 152 188 232 289 350
#     4  10  21  40  62  87 119 154 196 248 302 353
#     4  10  19  34  57  82 117 156 190 239 298 352
#
# _framework density 20.181598999999999
#
# number of rings (size 3 to 8) (size 9 to 14) (size 15 to 20)
#    0.000    1.714    2.857    1.714    0.000    5.143 
#    0.000    0.714    0.000    0.000    0.000    0.000 
#    0.000    0.000    0.000    0.000    0.000    0.000 
#
# Total GULP energy -693981.380159 kJ/mol
# GULP energy per Si atom -12392.524646 kJ/mol
# Density = 2.013567 g / cm^3
# Si number density = 20.181599 Si / 1000 Ang^3
#
#
#
# Elastic Constant Matrix: (Units=GPa)
#
#
# Indices 1 2 3 4 5 6 
#
# 1 86.8531 31.9004 7.1724 0.0000 0.0000 0.0000
# 2 31.9004 67.8738 20.7018 0.0000 0.0000 0.0000
# 3 7.1724 20.7018 45.2869 0.0000 0.0000 0.0000
# 4 0.0000 0.0000 0.0000 33.3926 0.0000 0.0000
# 5 0.0000 0.0000 0.0000 0.0000 24.6180 0.0000
# 6 0.0000 0.0000 0.0000 0.0000 0.0000 34.6700
#
#
#
# Elastic Compliance Matrix: (Units=1/GPa)
#
#
# Indices 1 2 3 4 5 6 
#
# 1 0.013949 -0.006835 0.000915 0.000000 0.000000 0.000000
# 2 -0.006835 0.020469 -0.008275 0.000000 0.000000 0.000000
# 3 0.000915 -0.008275 0.025719 0.000000 0.000000 0.000000
# 4 0.000000 0.000000 0.000000 0.029947 0.000000 0.000000
# 5 0.000000 0.000000 0.000000 0.000000 0.040621 0.000000
# 6 0.000000 0.000000 0.000000 0.000000 0.000000 0.028843
#
#
# Mechanical properties :
#
#
# Convention : Reuss Voigt Hill
#
# Bulk Modulus (GPa) = 31.49756 35.50700 33.50228
# Shear Modulus (GPa) = 25.18651 27.88541 26.53596
#
# Velocity S-wave (km/s) = 3.53653 3.72119 3.63003
# Velocity P-wave (km/s) = 5.68480 6.00791 5.84859
#
# Compressibility (1/GPa) = 0.03174849
#
# Stress axis : x y z
#
# Youngs Moduli (GPa) = 71.69217 48.85340 38.88176
#
# Poissons Ratio (x) = 0.33391 -0.03559
# Poissons Ratio (y) = 0.49001 0.32173
# Poissons Ratio (z) = -0.06562 0.40424
#
# Static dielectric constant tensor:
#      x y z
#    x 3.871210 0.000000 0.000000 
#    y 0.000000 -1.962520 0.000000 
#    z 0.000000 0.000000 3.745280 
# 
# 
# High freq. dielectric constant tensor:
#      x y z
#    x 1.796770 0.000000 0.000000 
#    y 0.000000 1.778250 0.000000 
#    z 0.000000 0.000000 1.771250 
# 
# From -- ./inp_files/20383.got.cif
#   From: 2010.03.12/outbox.cif.g09.slc.cpg/sg62_11_cif.got.tgz:20383.got - 2010.04.10 19:12:36.
