data_PCOD8251318
_publ_section_title
;
Structure prediction by ZEFSAII (Michael W. Deem and Ramdas Pophale) SiO2 
 PCOD8251318
Probable space group: P N M A
;
_chemical_formula_sum "Si O2"
_cell_formula_units_Z 64
_cell_length_a 33.162916
_cell_length_b 8.758363
_cell_length_c 11.415940
_cell_angle_alpha 90.000000
_cell_angle_beta 90.000000
_cell_angle_gamma 90.000000
_cell_volume 3315.792382
_symmetry_space_group_name_H-M "P N M A"
_symmetry_group_IT_number 62
_symmetry_cell_setting 'orthorhombic'
loop_
_space_group_symop_operation_xyz
x,y,z
1/2-x,-y,1/2+z
1/2+x,1/2-y,1/2-z
-x,1/2+y,-z
-x,-y,-z
1/2+x,y,1/2-z
1/2-x,1/2+y,1/2+z
x,1/2-y,z
loop_
_atom_site_type_symbol
_atom_site_label
_atom_site_fract_x
_atom_site_fract_y
_atom_site_fract_z
Si Si1 0.407070 0.075776 0.694720
Si Si2 0.702887 0.426215 0.940994
Si Si3 0.174297 0.926299 0.328766
Si Si4 0.286165 0.571232 0.610615
Si Si5 0.856552 0.071139 0.024841
Si Si6 0.052348 0.430042 0.595071
Si Si7 0.868980 0.572798 0.269457
Si Si8 0.027402 0.428833 0.340809
O O1 0.421372 0.250000 0.696984
O O2 0.370955 0.047925 0.785378
O O3 0.392330 0.027876 0.565265
O O4 0.444926 0.973112 0.730740
O O5 0.716311 0.250000 0.946734
O O6 0.741138 0.535257 0.930141
O O7 0.673559 0.455863 0.831822
O O8 0.679239 0.468426 0.058541
O O9 0.183107 0.750000 0.358456
O O10 0.205412 0.978035 0.228766
O O11 0.290959 0.750000 0.634872
O O12 0.316274 0.521827 0.506916
O O13 0.846460 0.250000 0.014750
O O14 0.871106 0.028288 0.153450
O O15 0.048888 0.250000 0.598751
O O16 0.095207 0.484593 0.645736
O O17 0.047903 0.489546 0.461388
O O18 0.016624 0.497713 0.674857
O O19 0.874575 0.750000 0.236703
O O20 0.021696 0.250000 0.343498
#
# Coordination Sequence:
#
# PCOD8251318 Si02
#       8
#     8   8   8   8   8   8   8   8
#     4   9  19  36  57  81 110 147 185 231 285 337
#     4  11  23  38  58  84 114 147 187 236 287 342
#     4  10  21  38  58  83 113 144 186 235 283 336
#     4  11  23  39  59  82 111 149 191 234 285 339
#     4  10  22  40  60  82 113 150 192 240 289 342
#     4   9  19  36  55  82 119 152 184 230 286 341
#     4  10  22  39  59  83 114 153 192 233 288 348
#     4  10  19  32  57  88 115 147 188 234 282 338
#
# _framework density 19.301570000000002
#
# number of rings (size 3 to 8) (size 9 to 14) (size 15 to 20)
#    0.000    2.000    0.000    4.125    1.750    6.000 
#    0.000    0.625    0.000    0.000    0.000    0.000 
#    0.000    0.000    0.000    0.000    0.000    0.000 
#
# Total GULP energy -793893.494012 kJ/mol
# GULP energy per Si atom -12404.585844 kJ/mol
# Density = 1.925764 g / cm^3
# Si number density = 19.301570 Si / 1000 Ang^3
#
#
#
# Elastic Constant Matrix: (Units=GPa)
#
#
# Indices 1 2 3 4 5 6 
#
# 1 80.3312 32.3006 21.2233 0.0000 0.0000 0.0000
# 2 32.3006 50.9585 21.2601 0.0000 0.0000 0.0000
# 3 21.2233 21.2601 75.8513 0.0000 0.0000 0.0000
# 4 0.0000 0.0000 0.0000 32.6641 0.0000 0.0000
# 5 0.0000 0.0000 0.0000 0.0000 19.1650 0.0000
# 6 0.0000 0.0000 0.0000 0.0000 0.0000 29.1817
#
#
#
# Elastic Compliance Matrix: (Units=1/GPa)
#
#
# Indices 1 2 3 4 5 6 
#
# 1 0.016960 -0.009932 -0.001962 0.000000 0.000000 0.000000
# 2 -0.009932 0.028039 -0.005080 0.000000 0.000000 0.000000
# 3 -0.001962 -0.005080 0.015156 0.000000 0.000000 0.000000
# 4 0.000000 0.000000 0.000000 0.030615 0.000000 0.000000
# 5 0.000000 0.000000 0.000000 0.000000 0.052178 0.000000
# 6 0.000000 0.000000 0.000000 0.000000 0.000000 0.034268
#
#
# Mechanical properties :
#
#
# Convention : Reuss Voigt Hill
#
# Bulk Modulus (GPa) = 38.15605 39.63434 38.89520
# Shear Modulus (GPa) = 22.73762 25.02596 23.88179
#
# Velocity S-wave (km/s) = 3.43595 3.60471 3.52134
# Velocity P-wave (km/s) = 5.96258 6.15663 6.06038
#
# Compressibility (1/GPa) = 0.02620816
#
# Stress axis : x y z
#
# Youngs Moduli (GPa) = 58.96112 35.66503 65.97875
#
# Poissons Ratio (x) = 0.35423 0.12943
# Poissons Ratio (y) = 0.58560 0.33516
# Poissons Ratio (z) = 0.11566 0.18117
#
# Static dielectric constant tensor:
#      x y z
#    x 3.468920 0.000000 0.000000 
#    y 0.000000 3.451400 0.000000 
#    z 0.000000 0.000000 3.503220 
# 
# 
# High freq. dielectric constant tensor:
#      x y z
#    x 1.749880 0.000000 0.000000 
#    y 0.000000 1.754610 0.000000 
#    z 0.000000 0.000000 1.745320 
# 
# From -- ./inp_files/15915.got.cif
#   From: 2010.03.12/outbox.cif.g09.slc.cpg/sg62_8_cif.got.tgz:15915.got - 2010.04.10 19:12:36.
