data_PCOD8251846
_publ_section_title
;
Structure prediction by ZEFSAII (Michael W. Deem and Ramdas Pophale) SiO2 
 PCOD8251846
Probable space group: P N M A
;
_chemical_formula_sum "Si O2"
_cell_formula_units_Z 64
_cell_length_a 29.247992
_cell_length_b 8.924934
_cell_length_c 12.921426
_cell_angle_alpha 90.000000
_cell_angle_beta 90.000000
_cell_angle_gamma 90.000000
_cell_volume 3372.962503
_symmetry_space_group_name_H-M "P N M A"
_symmetry_group_IT_number 62
_symmetry_cell_setting 'orthorhombic'
loop_
_space_group_symop_operation_xyz
x,y,z
1/2-x,-y,1/2+z
1/2+x,1/2-y,1/2-z
-x,1/2+y,-z
-x,-y,-z
1/2+x,y,1/2-z
1/2-x,1/2+y,1/2+z
x,1/2-y,z
loop_
_atom_site_type_symbol
_atom_site_label
_atom_site_fract_x
_atom_site_fract_y
_atom_site_fract_z
Si Si1 0.466856 0.071750 0.288427
Si Si2 0.108111 0.427703 0.379075
Si Si3 0.197931 0.928548 0.876189
Si Si4 0.936560 0.071787 0.820027
Si Si5 0.577503 0.917752 0.921942
Si Si6 0.293625 0.926136 0.953087
Si Si7 0.895882 0.072321 0.037294
Si Si8 0.180013 0.582135 0.648872
O O1 0.473799 0.250000 0.295727
O O2 0.456139 0.025306 0.169198
O O3 0.427739 0.016063 0.368027
O O4 0.512163 0.986615 0.321365
O O5 0.104628 0.250000 0.368926
O O6 0.091382 0.503354 0.274775
O O7 0.076544 0.476455 0.476880
O O8 0.160389 0.484764 0.396128
O O9 0.198927 0.750000 0.881477
O O10 0.247110 0.996819 0.907521
O O11 0.156082 0.988120 0.947348
O O12 0.188996 0.985160 0.761034
O O13 0.935910 0.250000 0.811075
O O14 0.913683 0.014311 0.926639
O O15 0.564064 0.750000 0.957805
O O16 0.626447 0.916908 0.868932
O O17 0.292446 0.750000 0.943787
O O18 0.293937 0.972343 0.072084
O O19 0.896104 0.250000 0.039529
O O20 0.199903 0.750000 0.636905
#
# Coordination Sequence:
#
# PCOD8251846 Si02
#       8
#     8   8   8   8   8   8   8   8
#     4  10  19  35  59  83 106 137 177 223 274 322
#     4  10  21  37  53  74 109 148 179 217 270 321
#     4   9  16  31  55  80 104 137 177 215 261 319
#     4  11  23  36  53  79 111 146 181 218 263 321
#     4   9  17  32  57  82 101 130 177 225 264 311
#     4   9  19  33  52  78 107 138 173 216 268 316
#     4   9  18  34  56  81 108 139 179 220 264 321
#     4   9  16  30  53  76 100 133 173 216 258 309
#
# _framework density 18.974416999999999
#
# number of rings (size 3 to 8) (size 9 to 14) (size 15 to 20)
#    0.000    2.500    1.250    1.125    0.000    2.500 
#    0.000    1.250    0.000    3.000    0.000    0.000 
#    0.000    0.000    0.000    0.000    0.000    0.000 
#
# Total GULP energy -793346.834544 kJ/mol
# GULP energy per Si atom -12396.044290 kJ/mol
# Density = 1.893123 g / cm^3
# Si number density = 18.974417 Si / 1000 Ang^3
#
#
#
# Elastic Constant Matrix: (Units=GPa)
#
#
# Indices 1 2 3 4 5 6 
#
# 1 77.5730 21.2516 57.5374 0.0000 0.0000 0.0000
# 2 21.2516 31.7502 27.6231 0.0000 0.0000 0.0000
# 3 57.5374 27.6231 133.8656 0.0000 0.0000 0.0000
# 4 0.0000 0.0000 0.0000 21.8660 0.0000 0.0000
# 5 0.0000 0.0000 0.0000 0.0000 23.1424 0.0000
# 6 0.0000 0.0000 0.0000 0.0000 0.0000 18.5176
#
#
#
# Elastic Compliance Matrix: (Units=1/GPa)
#
#
# Indices 1 2 3 4 5 6 
#
# 1 0.020216 -0.007278 -0.007187 0.000000 0.000000 0.000000
# 2 -0.007278 0.041008 -0.005334 0.000000 0.000000 0.000000
# 3 -0.007187 -0.005334 0.011660 0.000000 0.000000 0.000000
# 4 0.000000 0.000000 0.000000 0.045733 0.000000 0.000000
# 5 0.000000 0.000000 0.000000 0.000000 0.043211 0.000000
# 6 0.000000 0.000000 0.000000 0.000000 0.000000 0.054003
#
#
# Mechanical properties :
#
#
# Convention : Reuss Voigt Hill
#
# Bulk Modulus (GPa) = 30.04320 50.66810 40.35565
# Shear Modulus (GPa) = 18.76006 21.82363 20.29184
#
# Velocity S-wave (km/s) = 3.14778 3.39508 3.27376
# Velocity P-wave (km/s) = 5.39252 6.49077 5.96696
#
# Compressibility (1/GPa) = 0.03328540
#
# Stress axis : x y z
#
# Youngs Moduli (GPa) = 49.46597 24.38563 85.76362
#
# Poissons Ratio (x) = 0.17748 0.61640
# Poissons Ratio (y) = 0.36003 0.45743
# Poissons Ratio (z) = 0.35552 0.13006
#
# Static dielectric constant tensor:
#      x y z
#    x 3.735750 0.000000 0.000000 
#    y 0.000000 3.194050 0.000000 
#    z 0.000000 0.000000 3.648370 
# 
# 
# High freq. dielectric constant tensor:
#      x y z
#    x 1.741140 0.000000 0.000000 
#    y 0.000000 1.704960 0.000000 
#    z 0.000000 0.000000 1.746950 
# 
# From -- ./inp_files/15823.got.cif
#   From: 2010.03.12/outbox.cif.g09.slc.cpg/sg62_8_cif.got.tgz:15823.got - 2010.04.10 19:12:36.
