data_PCOD8251129
_publ_section_title
;
Structure prediction by ZEFSAII (Michael W. Deem and Ramdas Pophale) SiO2 
 PCOD8251129
Probable space group: P N M A
;
_chemical_formula_sum "Si O2"
_cell_formula_units_Z 64
_cell_length_a 15.131911
_cell_length_b 9.339584
_cell_length_c 24.903536
_cell_angle_alpha 90.000000
_cell_angle_beta 90.000000
_cell_angle_gamma 90.000000
_cell_volume 3519.510999
_symmetry_space_group_name_H-M "P N M A"
_symmetry_group_IT_number 62
_symmetry_cell_setting 'orthorhombic'
loop_
_space_group_symop_operation_xyz
x,y,z
1/2-x,-y,1/2+z
1/2+x,1/2-y,1/2-z
-x,1/2+y,-z
-x,-y,-z
1/2+x,y,1/2-z
1/2-x,1/2+y,1/2+z
x,1/2-y,z
loop_
_atom_site_type_symbol
_atom_site_label
_atom_site_fract_x
_atom_site_fract_y
_atom_site_fract_z
Si Si1 0.194036 0.419024 0.148857
Si Si2 0.179816 0.918657 0.556212
Si Si3 0.828536 0.586023 0.144259
Si Si4 0.216220 0.584476 0.253946
Si Si5 0.995880 0.584638 0.600422
Si Si6 0.823217 0.080683 0.565046
Si Si7 0.549797 0.412437 0.218214
Si Si8 0.994286 0.413873 0.165928
O O1 0.206144 0.250000 0.158047
O O2 0.243173 0.475923 0.095522
O O3 0.237316 0.498626 0.199699
O O4 0.090730 0.458951 0.143929
O O5 0.174525 0.750000 0.562822
O O6 0.084115 0.980080 0.573401
O O7 0.203033 0.962782 0.495598
O O8 0.846072 0.750000 0.129703
O O9 0.798138 0.567082 0.205706
O O10 0.754566 0.524094 0.103690
O O11 0.920360 0.504547 0.135276
O O12 0.198159 0.750000 0.240375
O O13 0.131000 0.521593 0.284195
O O14 0.980287 0.750000 0.584603
O O15 0.914169 0.494329 0.579574
O O16 0.007793 0.568052 0.664651
O O17 0.837258 0.250000 0.571624
O O18 0.587437 0.250000 0.222817
O O19 0.489464 0.444318 0.270132
O O20 0.974370 0.250000 0.152620
#
# Coordination Sequence:
#
# PCOD8251129 Si02
#       8
#     8   8   8   8   8   8   8   8
#     4   9  19  37  57  78 103 135 177 223 266 310
#     4   9  19  35  58  79 102 140 181 220 262 314
#     4  10  21  34  50  75 107 142 178 211 257 315
#     4  10  19  32  50  75 106 140 173 209 259 316
#     4  10  19  32  53  82 108 136 174 215 261 311
#     4  10  20  37  55  76 108 144 179 214 259 315
#     4   9  18  32  50  77 108 136 170 211 259 312
#     4   9  19  33  52  77 104 135 174 219 264 307
#
# _framework density 18.184345
#
# number of rings (size 3 to 8) (size 9 to 14) (size 15 to 20)
#    0.000    2.500    1.250    1.500    1.750    3.500 
#    0.000    1.875    0.000    0.000    0.000    0.000 
#    0.000    0.000    0.000    0.000    0.000    0.000 
#
# Total GULP energy -793561.996723 kJ/mol
# GULP energy per Si atom -12399.406199 kJ/mol
# Density = 1.814296 g / cm^3
# Si number density = 18.184345 Si / 1000 Ang^3
#
#
#
# Elastic Constant Matrix: (Units=GPa)
#
#
# Indices 1 2 3 4 5 6 
#
# 1 120.7067 44.7732 70.0987 0.0000 0.0000 0.0000
# 2 44.7732 52.2413 34.1553 0.0000 0.0000 0.0000
# 3 70.0987 34.1553 115.8778 0.0000 0.0000 0.0000
# 4 0.0000 0.0000 0.0000 19.6321 0.0000 0.0000
# 5 0.0000 0.0000 0.0000 0.0000 25.8676 0.0000
# 6 0.0000 0.0000 0.0000 0.0000 0.0000 27.3983
#
#
#
# Elastic Compliance Matrix: (Units=1/GPa)
#
#
# Indices 1 2 3 4 5 6 
#
# 1 0.015500 -0.008862 -0.006765 0.000000 0.000000 0.000000
# 2 -0.008862 0.028778 -0.003122 0.000000 0.000000 0.000000
# 3 -0.006765 -0.003122 0.013642 0.000000 0.000000 0.000000
# 4 0.000000 0.000000 0.000000 0.050937 0.000000 0.000000
# 5 0.000000 0.000000 0.000000 0.000000 0.038658 0.000000
# 6 0.000000 0.000000 0.000000 0.000000 0.000000 0.036499
#
#
# Mechanical properties :
#
#
# Convention : Reuss Voigt Hill
#
# Bulk Modulus (GPa) = 48.96152 65.20892 57.08522
# Shear Modulus (GPa) = 21.89940 23.89952 22.89946
#
# Velocity S-wave (km/s) = 3.47407 3.62925 3.55250
# Velocity P-wave (km/s) = 6.56321 7.31435 6.94894
#
# Compressibility (1/GPa) = 0.02042420
#
# Stress axis : x y z
#
# Youngs Moduli (GPa) = 64.51657 34.74928 73.30312
#
# Poissons Ratio (x) = 0.30793 0.49586
# Poissons Ratio (y) = 0.57171 0.22882
# Poissons Ratio (z) = 0.43642 0.10847
#
# Static dielectric constant tensor:
#      x y z
#    x 3.253970 0.000000 0.000000 
#    y 0.000000 3.199960 0.000000 
#    z 0.000000 0.000000 3.567740 
# 
# 
# High freq. dielectric constant tensor:
#      x y z
#    x 1.697470 0.000000 0.000000 
#    y 0.000000 1.687160 0.000000 
#    z 0.000000 0.000000 1.702800 
# 
# From -- ./inp_files/29845.got.cif
#   From: 2010.03.12/outbox.cif.g09.slc.cpg/sg62_15_cif.got.tgz:29845.got - 2010.04.10 19:12:36.
