data_PCOD8251438
_publ_section_title
;
Structure prediction by ZEFSAII (Michael W. Deem and Ramdas Pophale) SiO2 
 PCOD8251438
Probable space group: P N M A
;
_chemical_formula_sum "Si O2"
_cell_formula_units_Z 48
_cell_length_a 14.682062
_cell_length_b 9.182493
_cell_length_c 19.958409
_cell_angle_alpha 90.000000
_cell_angle_beta 90.000000
_cell_angle_gamma 90.000000
_cell_volume 2690.751418
_symmetry_space_group_name_H-M "P N M A"
_symmetry_group_IT_number 62
_symmetry_cell_setting 'orthorhombic'
loop_
_space_group_symop_operation_xyz
x,y,z
1/2-x,-y,1/2+z
1/2+x,1/2-y,1/2-z
-x,1/2+y,-z
-x,-y,-z
1/2+x,y,1/2-z
1/2-x,1/2+y,1/2+z
x,1/2-y,z
loop_
_atom_site_type_symbol
_atom_site_label
_atom_site_fract_x
_atom_site_fract_y
_atom_site_fract_z
Si Si1 0.055877 0.916716 0.944604
Si Si2 0.575171 0.416857 0.959363
Si Si3 0.497443 0.581160 0.700126
Si Si4 0.384695 0.577882 0.191420
Si Si5 0.205034 0.419191 0.162766
Si Si6 0.723364 0.916173 0.471085
O O1 0.023868 0.750000 0.947227
O O2 0.036981 0.977594 0.870610
O O3 0.162550 0.935419 0.962468
O O4 0.000000 0.000000 0.000000
O O5 0.549554 0.250000 0.966405
O O6 0.577286 0.463421 0.881736
O O7 0.673362 0.453260 0.991783
O O8 0.500000 0.500000 0.000000
O O9 0.523676 0.750000 0.710963
O O10 0.542807 0.483577 0.756656
O O11 0.388620 0.559387 0.703651
O O12 0.373560 0.750000 0.200891
O O13 0.285476 0.504592 0.201137
O O14 0.231434 0.250000 0.157884
O O15 0.188537 0.479419 0.087972
O O16 0.718767 0.750000 0.443545
#
# Coordination Sequence:
#
# PCOD8251438 Si02
#       6
#     8   8   8   8   8   8
#     4  10  19  33  54  82 114 142 178 223 269 326
#     4   9  19  36  56  79 104 138 181 222 270 321
#     4  10  21  36  55  82 113 145 183 228 276 325
#     4  10  22  39  57  79 110 146 186 226 272 331
#     4  10  19  34  57  81 107 141 182 224 270 328
#     4   9  18  33  54  79 109 142 176 218 270 326
#
# _framework density 17.838884
#
# number of rings (size 3 to 8) (size 9 to 14) (size 15 to 20)
#    0.000    2.333    1.667    2.000    0.000    5.333 
#    3.000    0.000    0.000    0.000    0.000    0.000 
#    0.000    0.000    0.000    0.000    0.000    0.000 
#
# Total GULP energy -595188.528059 kJ/mol
# GULP energy per Si atom -12399.761001 kJ/mol
# Density = 1.779828 g / cm^3
# Si number density = 17.838884 Si / 1000 Ang^3
#
#
#
# Elastic Constant Matrix: (Units=GPa)
#
#
# Indices 1 2 3 4 5 6 
#
# 1 129.7655 61.7003 73.2774 0.0000 0.0000 0.0000
# 2 61.7003 85.2464 51.7525 0.0000 0.0000 0.0000
# 3 73.2774 51.7525 93.4305 0.0000 0.0000 0.0000
# 4 0.0000 0.0000 0.0000 31.7339 0.0000 0.0000
# 5 0.0000 0.0000 0.0000 0.0000 33.6500 0.0000
# 6 0.0000 0.0000 0.0000 0.0000 0.0000 32.0446
#
#
#
# Elastic Compliance Matrix: (Units=1/GPa)
#
#
# Indices 1 2 3 4 5 6 
#
# 1 0.015524 -0.005792 -0.008967 0.000000 0.000000 0.000000
# 2 -0.005792 0.019835 -0.006444 0.000000 0.000000 0.000000
# 3 -0.008967 -0.006444 0.021305 0.000000 0.000000 0.000000
# 4 0.000000 0.000000 0.000000 0.031512 0.000000 0.000000
# 5 0.000000 0.000000 0.000000 0.000000 0.029718 0.000000
# 6 0.000000 0.000000 0.000000 0.000000 0.000000 0.031206
#
#
# Mechanical properties :
#
#
# Convention : Reuss Voigt Hill
#
# Bulk Modulus (GPa) = 70.13696 75.76700 72.95198
# Shear Modulus (GPa) = 25.47643 27.59987 26.53815
#
# Velocity S-wave (km/s) = 3.78317 3.93768 3.86120
# Velocity P-wave (km/s) = 7.64758 7.95229 7.80142
#
# Compressibility (1/GPa) = 0.01425782
#
# Stress axis : x y z
#
# Youngs Moduli (GPa) = 64.41737 50.41533 46.93639
#
# Poissons Ratio (x) = 0.29201 0.42087
# Poissons Ratio (y) = 0.37312 0.30247
# Poissons Ratio (z) = 0.57762 0.32489
#
# Static dielectric constant tensor:
#      x y z
#    x 3.577600 0.000000 0.000000 
#    y 0.000000 3.357910 0.000000 
#    z 0.000000 0.000000 3.280830 
# 
# 
# High freq. dielectric constant tensor:
#      x y z
#    x 1.700610 0.000000 0.000000 
#    y 0.000000 1.694100 0.000000 
#    z 0.000000 0.000000 1.671060 
# 
# From -- ./inp_files/23738.got.cif
#   From: 2010.03.12/outbox.cif.g09.slc.cpg/sg62_12_cif.got.tgz:23738.got - 2010.04.10 19:12:36.
