data_PCOD8251789
_publ_section_title
;
Structure prediction by ZEFSAII (Michael W. Deem and Ramdas Pophale) SiO2 
 PCOD8251789
Probable space group: P N M A
;
_chemical_formula_sum "Si O2"
_cell_formula_units_Z 40
_cell_length_a 12.987944
_cell_length_b 18.200582
_cell_length_c 8.870045
_cell_angle_alpha 90.000000
_cell_angle_beta 90.000000
_cell_angle_gamma 90.000000
_cell_volume 2096.773437
_symmetry_space_group_name_H-M "P N M A"
_symmetry_group_IT_number 62
_symmetry_cell_setting 'orthorhombic'
loop_
_space_group_symop_operation_xyz
x,y,z
1/2-x,-y,1/2+z
1/2+x,1/2-y,1/2-z
-x,1/2+y,-z
-x,-y,-z
1/2+x,y,1/2-z
1/2-x,1/2+y,1/2+z
x,1/2-y,z
loop_
_atom_site_type_symbol
_atom_site_label
_atom_site_fract_x
_atom_site_fract_y
_atom_site_fract_z
Si Si1 0.701143 0.559388 0.060317
Si Si2 0.615770 0.666586 0.482456
Si Si3 0.808359 0.667630 0.272312
Si Si4 0.497153 0.925632 0.240889
Si Si5 0.154754 0.551896 0.784188
O O1 0.763016 0.629536 0.122560
O O2 0.584155 0.560726 0.117393
O O3 0.757152 0.485226 0.113333
O O4 0.701677 0.562266 0.880896
O O5 0.573854 0.750000 0.496805
O O6 0.726764 0.666295 0.405707
O O7 0.537627 0.616420 0.388175
O O8 0.626871 0.631445 0.648109
O O9 0.839297 0.750000 0.227563
O O10 0.908147 0.624517 0.333518
O O11 0.449130 0.003659 0.286998
#
# Coordination Sequence:
#
# PCOD8251789 Si02
#       5
#     8   8   8   8   8
#     4  10  21  35  56  81 107 140 180 223 268 318
#     4  10  21  36  54  78 109 142 176 218 268 321
#     4   9  19  36  56  79 109 144 179 217 266 322
#     4  10  19  35  57  80 105 139 179 221 268 318
#     4  11  21  36  56  80 108 139 179 223 269 319
#
# _framework density 19.076930000000001
#
# number of rings (size 3 to 8) (size 9 to 14) (size 15 to 20)
#    0.000    2.000    0.000    5.400    0.000    3.200 
#    0.000    0.000    0.000    6.000    0.000    0.000 
#    0.000    0.000    0.000    0.000    0.000    0.000 
#
# Total GULP energy -496080.755249 kJ/mol
# GULP energy per Si atom -12402.018881 kJ/mol
# Density = 1.903351 g / cm^3
# Si number density = 19.076930 Si / 1000 Ang^3
#
#
#
# Elastic Constant Matrix: (Units=GPa)
#
#
# Indices 1 2 3 4 5 6 
#
# 1 64.7912 -0.0294 -1.7029 0.0000 0.0000 0.0000
# 2 -0.0294 86.9261 24.3027 0.0000 0.0000 0.0000
# 3 -1.7029 24.3027 101.1468 0.0000 0.0000 0.0000
# 4 0.0000 0.0000 0.0000 27.6869 0.0000 0.0000
# 5 0.0000 0.0000 0.0000 0.0000 16.8013 0.0000
# 6 0.0000 0.0000 0.0000 0.0000 0.0000 21.2224
#
#
#
# Elastic Compliance Matrix: (Units=1/GPa)
#
#
# Indices 1 2 3 4 5 6 
#
# 1 0.015441 -0.000072 0.000277 0.000000 0.000000 0.000000
# 2 -0.000072 0.012333 -0.002964 0.000000 0.000000 0.000000
# 3 0.000277 -0.002964 0.010604 0.000000 0.000000 0.000000
# 4 0.000000 0.000000 0.000000 0.036118 0.000000 0.000000
# 5 0.000000 0.000000 0.000000 0.000000 0.059519 0.000000
# 6 0.000000 0.000000 0.000000 0.000000 0.000000 0.047120
#
#
# Mechanical properties :
#
#
# Convention : Reuss Voigt Hill
#
# Bulk Modulus (GPa) = 30.43307 33.11166 31.77237
# Shear Modulus (GPa) = 25.30276 28.49504 26.89890
#
# Velocity S-wave (km/s) = 3.64586 3.86902 3.75910
# Velocity P-wave (km/s) = 5.80608 6.11177 5.96088
#
# Compressibility (1/GPa) = 0.03285899
#
# Stress axis : x y z
#
# Youngs Moduli (GPa) = 64.76074 81.08457 94.30795
#
# Poissons Ratio (x) = 0.00586 -0.02616
# Poissons Ratio (y) = 0.00468 0.27957
# Poissons Ratio (z) = -0.01796 0.24037
#
# Static dielectric constant tensor:
#      x y z
#    x 3.660680 0.000000 0.000000 
#    y 0.000000 3.714010 0.000000 
#    z 0.000000 0.000000 3.225730 
# 
# 
# High freq. dielectric constant tensor:
#      x y z
#    x 1.752620 0.000000 0.000000 
#    y 0.000000 1.746430 0.000000 
#    z 0.000000 0.000000 1.724640 
# 
# From -- ./inp_files/5016.got.cif
#   From: 2010.03.12/outbox.cif.g09.slc.cpg/sg62_3_cif.got.tgz:5016.got - 2010.04.10 19:12:36.
