data_PCOD8251838
_publ_section_title
;
Structure prediction by ZEFSAII (Michael W. Deem and Ramdas Pophale) SiO2 
 PCOD8251838
Probable space group: P N M A
;
_chemical_formula_sum "Si O2"
_cell_formula_units_Z 64
_cell_length_a 11.808986
_cell_length_b 9.164204
_cell_length_c 30.278434
_cell_angle_alpha 90.000000
_cell_angle_beta 90.000000
_cell_angle_gamma 90.000000
_cell_volume 3276.730818
_symmetry_space_group_name_H-M "P N M A"
_symmetry_group_IT_number 62
_symmetry_cell_setting 'orthorhombic'
loop_
_space_group_symop_operation_xyz
x,y,z
1/2-x,-y,1/2+z
1/2+x,1/2-y,1/2-z
-x,1/2+y,-z
-x,-y,-z
1/2+x,y,1/2-z
1/2-x,1/2+y,1/2+z
x,1/2-y,z
loop_
_atom_site_type_symbol
_atom_site_label
_atom_site_fract_x
_atom_site_fract_y
_atom_site_fract_z
Si Si1 0.622571 0.922789 0.637175
Si Si2 0.224388 0.080568 0.443565
Si Si3 0.219604 0.922321 0.703565
Si Si4 0.495636 0.916847 0.071826
Si Si5 0.489790 0.584441 0.173890
Si Si6 0.253836 0.919311 0.041581
Si Si7 0.735419 0.578858 0.208442
Si Si8 0.634156 0.420971 0.380803
O O1 0.635327 0.750000 0.644245
O O2 0.694042 0.979548 0.594921
O O3 0.493293 0.968874 0.629894
O O4 0.663666 0.004775 0.681016
O O5 0.203205 0.250000 0.436265
O O6 0.283531 0.051083 0.490980
O O7 0.101970 0.009262 0.443078
O O8 0.224585 0.750000 0.711446
O O9 0.286068 0.970450 0.659514
O O10 0.277935 0.004391 0.744109
O O11 0.089607 0.974064 0.700820
O O12 0.524941 0.750000 0.061194
O O13 0.466761 0.940312 0.122776
O O14 0.384302 0.971265 0.045972
O O15 0.461501 0.750000 0.188470
O O16 0.619687 0.546940 0.182841
O O17 0.245509 0.750000 0.054479
O O18 0.170806 0.005347 0.073663
O O19 0.760512 0.750000 0.213585
O O20 0.642837 0.250000 0.388488
#
# Coordination Sequence:
#
# PCOD8251838 Si02
#       8
#     8   8   8   8   8   8   8   8
#     4  10  22  41  60  83 119 156 195 243 291 345
#     4  10  21  36  58  87 118 154 196 240 291 348
#     4  11  24  40  61  88 117 151 195 240 292 350
#     4  10  19  35  58  85 120 152 188 239 292 345
#     4  10  21  39  62  89 120 154 192 240 293 346
#     4  10  21  37  58  86 118 154 194 241 294 346
#     4  11  24  41  62  89 118 151 195 239 291 350
#     4  10  23  41  59  83 115 154 196 241 290 344
#
# _framework density 19.531663000000002
#
# number of rings (size 3 to 8) (size 9 to 14) (size 15 to 20)
#    0.000    1.750    2.500    1.125    1.750    4.000 
#    0.000    0.000    0.000    0.000    0.000    0.000 
#    0.000    0.000    0.000    0.000    0.000    0.000 
#
# Total GULP energy -793852.728140 kJ/mol
# GULP energy per Si atom -12403.948877 kJ/mol
# Density = 1.948721 g / cm^3
# Si number density = 19.531663 Si / 1000 Ang^3
#
#
#
# Elastic Constant Matrix: (Units=GPa)
#
#
# Indices 1 2 3 4 5 6 
#
# 1 82.4677 30.5862 29.0426 0.0000 0.0000 0.0000
# 2 30.5862 52.8852 31.8189 0.0000 0.0000 0.0000
# 3 29.0426 31.8189 77.0806 0.0000 0.0000 0.0000
# 4 0.0000 0.0000 0.0000 33.7575 0.0000 0.0000
# 5 0.0000 0.0000 0.0000 0.0000 27.1650 0.0000
# 6 0.0000 0.0000 0.0000 0.0000 0.0000 30.6394
#
#
#
# Elastic Compliance Matrix: (Units=1/GPa)
#
#
# Indices 1 2 3 4 5 6 
#
# 1 0.015917 -0.007447 -0.002923 0.000000 0.000000 0.000000
# 2 -0.007447 0.028641 -0.009017 0.000000 0.000000 0.000000
# 3 -0.002923 -0.009017 0.017797 0.000000 0.000000 0.000000
# 4 0.000000 0.000000 0.000000 0.029623 0.000000 0.000000
# 5 0.000000 0.000000 0.000000 0.000000 0.036812 0.000000
# 6 0.000000 0.000000 0.000000 0.000000 0.000000 0.032638
#
#
# Mechanical properties :
#
#
# Convention : Reuss Voigt Hill
#
# Bulk Modulus (GPa) = 42.40739 43.92544 43.16642
# Shear Modulus (GPa) = 24.03108 26.37810 25.20459
#
# Velocity S-wave (km/s) = 3.51146 3.67894 3.59618
# Velocity P-wave (km/s) = 6.18059 6.37058 6.27631
#
# Compressibility (1/GPa) = 0.02358079
#
# Stress axis : x y z
#
# Youngs Moduli (GPa) = 62.82410 34.91476 56.18876
#
# Poissons Ratio (x) = 0.26001 0.16425
# Poissons Ratio (y) = 0.46786 0.50666
# Poissons Ratio (z) = 0.18365 0.31483
#
# Static dielectric constant tensor:
#      x y z
#    x 3.502590 0.000000 0.000000 
#    y 0.000000 3.480380 0.000000 
#    z 0.000000 0.000000 3.685960 
# 
# 
# High freq. dielectric constant tensor:
#      x y z
#    x 1.760610 0.000000 0.000000 
#    y 0.000000 1.754330 0.000000 
#    z 0.000000 0.000000 1.772940 
# 
# From -- ./inp_files/32460.got.cif
#   From: 2010.03.12/outbox.cif.g09.slc.cpg/sg62_17_cif.got.tgz:32460.got - 2010.04.10 19:12:36.
