data_PCOD8251921
_publ_section_title
;
Structure prediction by ZEFSAII (Michael W. Deem and Ramdas Pophale) SiO2 
 PCOD8251921
Probable space group: P N M A
;
_chemical_formula_sum "Si O2"
_cell_formula_units_Z 48
_cell_length_a 13.810032
_cell_length_b 19.375910
_cell_length_c 9.261680
_cell_angle_alpha 90.000000
_cell_angle_beta 90.000000
_cell_angle_gamma 90.000000
_cell_volume 2478.258275
_symmetry_space_group_name_H-M "P N M A"
_symmetry_group_IT_number 62
_symmetry_cell_setting 'orthorhombic'
loop_
_space_group_symop_operation_xyz
x,y,z
1/2-x,-y,1/2+z
1/2+x,1/2-y,1/2-z
-x,1/2+y,-z
-x,-y,-z
1/2+x,y,1/2-z
1/2-x,1/2+y,1/2+z
x,1/2-y,z
loop_
_atom_site_type_symbol
_atom_site_label
_atom_site_fract_x
_atom_site_fract_y
_atom_site_fract_z
Si Si1 0.072738 0.060870 0.343660
Si Si2 0.775966 0.040623 0.230818
Si Si3 0.058155 0.168999 0.870620
Si Si4 0.470174 0.428486 0.425460
Si Si5 0.750217 0.591876 0.060843
Si Si6 0.536397 0.901141 0.112139
O O1 0.187303 0.069956 0.365169
O O2 0.054458 0.090838 0.185528
O O3 0.013526 0.105118 0.457108
O O4 0.037384 0.981030 0.339814
O O5 0.871837 0.073878 0.165691
O O6 0.762741 0.053832 0.403406
O O7 0.778616 0.959598 0.191964
O O8 0.048764 0.250000 0.885069
O O9 0.163695 0.147573 0.933323
O O10 0.034668 0.145305 0.708506
O O11 0.970744 0.132700 0.958749
O O12 0.500000 0.500000 0.500000
O O13 0.646911 0.627048 0.100477
#
# Coordination Sequence:
#
# PCOD8251921 Si02
#       6
#     8   8   8   8   8   8
#     4  10  19  35  64  99 126 155 215 278 322 369
#     4  11  21  35  67 104 128 160 214 280 327 372
#     4  12  27  44  62  92 137 180 216 267 336 405
#     4  12  20  39  65  97 127 166 219 274 322 378
#     4  11  23  39  65  99 130 164 212 273 333 386
#     4  10  22  38  63  94 130 166 212 266 327 386
#
# _framework density 19.368442999999999
#
# number of rings (size 3 to 8) (size 9 to 14) (size 15 to 20)
#    0.000    1.000    6.667    0.000    7.000    0.667 
#    0.000    1.667    0.000    0.000    0.000    0.000 
#    0.000    0.000    0.000    0.000    0.000    0.000 
#
# Total GULP energy -594666.918518 kJ/mol
# GULP energy per Si atom -12388.894136 kJ/mol
# Density = 1.932436 g / cm^3
# Si number density = 19.368443 Si / 1000 Ang^3
#
#
#
# Elastic Constant Matrix: (Units=GPa)
#
#
# Indices 1 2 3 4 5 6 
#
# 1 113.9223 39.5324 35.1532 0.0000 0.0000 0.0000
# 2 39.5324 97.6251 52.7567 0.0000 0.0000 0.0000
# 3 35.1532 52.7567 112.6949 0.0000 0.0000 0.0000
# 4 0.0000 0.0000 0.0000 16.5885 0.0000 0.0000
# 5 0.0000 0.0000 0.0000 0.0000 36.6159 0.0000
# 6 0.0000 0.0000 0.0000 0.0000 0.0000 19.0831
#
#
#
# Elastic Compliance Matrix: (Units=1/GPa)
#
#
# Indices 1 2 3 4 5 6 
#
# 1 0.010454 -0.003308 -0.001712 0.000000 0.000000 0.000000
# 2 -0.003308 0.014759 -0.005877 0.000000 0.000000 0.000000
# 3 -0.001712 -0.005877 0.012159 0.000000 0.000000 0.000000
# 4 0.000000 0.000000 0.000000 0.060283 0.000000 0.000000
# 5 0.000000 0.000000 0.000000 0.000000 0.027311 0.000000
# 6 0.000000 0.000000 0.000000 0.000000 0.000000 0.052402
#
#
# Mechanical properties :
#
#
# Convention : Reuss Voigt Hill
#
# Bulk Modulus (GPa) = 64.19816 64.34743 64.27280
# Shear Modulus (GPa) = 24.46714 27.57750 26.02232
#
# Velocity S-wave (km/s) = 3.55808 3.77747 3.66941
# Velocity P-wave (km/s) = 7.07796 7.23330 7.15605
#
# Compressibility (1/GPa) = 0.01557677
#
# Stress axis : x y z
#
# Youngs Moduli (GPa) = 95.65519 67.75566 82.24301
#
# Poissons Ratio (x) = 0.22413 0.14084
# Poissons Ratio (y) = 0.31642 0.48337
# Poissons Ratio (z) = 0.16380 0.39822
#
# Static dielectric constant tensor:
#      x y z
#    x 4.831300 0.000000 0.000000 
#    y 0.000000 3.010030 0.000000 
#    z 0.000000 0.000000 3.779150 
# 
# 
# High freq. dielectric constant tensor:
#      x y z
#    x 1.778410 0.000000 0.000000 
#    y 0.000000 1.683910 0.000000 
#    z 0.000000 0.000000 1.774200 
# 
# From -- ./inp_files/6620.got.cif
#   From: 2010.03.12/outbox.cif.g09.slc.cpg/sg62_4_cif.got.tgz:6620.got - 2010.04.10 19:12:36.
