data_PCOD8251309
_publ_section_title
;
Structure prediction by ZEFSAII (Michael W. Deem and Ramdas Pophale) SiO2 
 PCOD8251309
Probable space group: P N M A
;
_chemical_formula_sum "Si O2"
_cell_formula_units_Z 48
_cell_length_a 24.033861
_cell_length_b 9.097438
_cell_length_c 11.914444
_cell_angle_alpha 90.000000
_cell_angle_beta 90.000000
_cell_angle_gamma 90.000000
_cell_volume 2605.052199
_symmetry_space_group_name_H-M "P N M A"
_symmetry_group_IT_number 62
_symmetry_cell_setting 'orthorhombic'
loop_
_space_group_symop_operation_xyz
x,y,z
1/2-x,-y,1/2+z
1/2+x,1/2-y,1/2-z
-x,1/2+y,-z
-x,-y,-z
1/2+x,y,1/2-z
1/2-x,1/2+y,1/2+z
x,1/2-y,z
loop_
_atom_site_type_symbol
_atom_site_label
_atom_site_fract_x
_atom_site_fract_y
_atom_site_fract_z
Si Si1 0.955672 0.578978 0.789042
Si Si2 0.289442 0.578126 0.650372
Si Si3 0.419051 0.423964 0.281646
Si Si4 0.165453 0.576098 0.598059
Si Si5 0.614467 0.924649 0.472541
Si Si6 0.355997 0.917746 0.869424
O O1 0.954169 0.750000 0.824424
O O2 0.917193 0.551880 0.680740
O O3 0.017668 0.525149 0.759150
O O4 0.934241 0.485503 0.893779
O O5 0.297257 0.750000 0.623657
O O6 0.226206 0.524702 0.638645
O O7 0.325627 0.487698 0.561343
O O8 0.309595 0.543652 0.776400
O O9 0.415018 0.250000 0.278264
O O10 0.379708 0.491025 0.184555
O O11 0.398175 0.480291 0.402065
O O12 0.161977 0.750000 0.596511
O O13 0.152815 0.521994 0.474017
O O14 0.615665 0.750000 0.463194
O O15 0.349993 0.750000 0.908959
#
# Coordination Sequence:
#
# PCOD8251309 Si02
#       6
#     8   8   8   8   8   8
#     4   9  18  36  57  76 107 144 174 210 265 320
#     4   9  20  37  55  74 105 144 175 212 267 319
#     4   9  19  34  54  80 107 140 177 215 261 313
#     4  10  21  36  54  77 105 140 180 217 257 310
#     4  10  19  32  56  84 106 134 177 224 262 303
#     4   9  19  35  54  75 103 139 174 212 263 316
#
# _framework density 18.425735
#
# number of rings (size 3 to 8) (size 9 to 14) (size 15 to 20)
#    0.000    2.667    0.000    2.000    2.333    4.000 
#    0.000    3.333    0.000    0.000    0.000    0.000 
#    0.000    0.000    0.000    0.000    0.000    0.000 
#
# Total GULP energy -595240.677798 kJ/mol
# GULP energy per Si atom -12400.847454 kJ/mol
# Density = 1.838380 g / cm^3
# Si number density = 18.425735 Si / 1000 Ang^3
#
#
#
# Elastic Constant Matrix: (Units=GPa)
#
#
# Indices 1 2 3 4 5 6 
#
# 1 176.3140 39.9593 92.9642 0.0000 0.0000 0.0000
# 2 39.9593 35.5737 32.3713 0.0000 0.0000 0.0000
# 3 92.9642 32.3713 127.9560 0.0000 0.0000 0.0000
# 4 0.0000 0.0000 0.0000 29.8451 0.0000 0.0000
# 5 0.0000 0.0000 0.0000 0.0000 22.1345 0.0000
# 6 0.0000 0.0000 0.0000 0.0000 0.0000 19.9519
#
#
#
# Elastic Compliance Matrix: (Units=1/GPa)
#
#
# Indices 1 2 3 4 5 6 
#
# 1 0.010111 -0.006070 -0.005810 0.000000 0.000000 0.000000
# 2 -0.006070 0.040162 -0.005750 0.000000 0.000000 0.000000
# 3 -0.005810 -0.005750 0.013491 0.000000 0.000000 0.000000
# 4 0.000000 0.000000 0.000000 0.033506 0.000000 0.000000
# 5 0.000000 0.000000 0.000000 0.000000 0.045178 0.000000
# 6 0.000000 0.000000 0.000000 0.000000 0.000000 0.050120
#
#
# Mechanical properties :
#
#
# Convention : Reuss Voigt Hill
#
# Bulk Modulus (GPa) = 35.08449 74.49257 54.78853
# Shear Modulus (GPa) = 21.06758 26.02292 23.54525
#
# Velocity S-wave (km/s) = 3.38506 3.76215 3.57858
# Velocity P-wave (km/s) = 5.86178 7.70636 6.84648
#
# Compressibility (1/GPa) = 0.02850263
#
# Stress axis : x y z
#
# Youngs Moduli (GPa) = 98.90221 24.89926 74.12209
#
# Poissons Ratio (x) = 0.15115 0.43067
# Poissons Ratio (y) = 0.60037 0.42622
# Poissons Ratio (z) = 0.57465 0.14318
#
# Static dielectric constant tensor:
#      x y z
#    x 3.808440 0.000000 0.000000 
#    y 0.000000 3.148030 0.000000 
#    z 0.000000 0.000000 3.367000 
# 
# 
# High freq. dielectric constant tensor:
#      x y z
#    x 1.728710 0.000000 0.000000 
#    y 0.000000 1.692720 0.000000 
#    z 0.000000 0.000000 1.713720 
# 
# From -- ./inp_files/15111.got.cif
#   From: 2010.03.12/outbox.cif.g09.slc.cpg/sg62_8_cif.got.tgz:15111.got - 2010.04.10 19:12:36.
