data_PCOD8251137
_publ_section_title
;
Structure prediction by ZEFSAII (Michael W. Deem and Ramdas Pophale) SiO2 
 PCOD8251137
Probable space group: P N M A
;
_chemical_formula_sum "Si O2"
_cell_formula_units_Z 56
_cell_length_a 21.707013
_cell_length_b 9.212377
_cell_length_c 14.766435
_cell_angle_alpha 90.000000
_cell_angle_beta 90.000000
_cell_angle_gamma 90.000000
_cell_volume 2952.891072
_symmetry_space_group_name_H-M "P N M A"
_symmetry_group_IT_number 62
_symmetry_cell_setting 'orthorhombic'
loop_
_space_group_symop_operation_xyz
x,y,z
1/2-x,-y,1/2+z
1/2+x,1/2-y,1/2-z
-x,1/2+y,-z
-x,-y,-z
1/2+x,y,1/2-z
1/2-x,1/2+y,1/2+z
x,1/2-y,z
loop_
_atom_site_type_symbol
_atom_site_label
_atom_site_fract_x
_atom_site_fract_y
_atom_site_fract_z
Si Si1 0.285222 0.577900 0.820330
Si Si2 0.621518 0.920753 0.302075
Si Si3 0.434177 0.422101 0.505642
Si Si4 0.854499 0.087715 0.530877
Si Si5 0.354461 0.422297 0.335462
Si Si6 0.590760 0.579893 0.849088
Si Si7 0.970421 0.089047 0.648374
O O1 0.290108 0.750000 0.809063
O O2 0.317458 0.504848 0.732574
O O3 0.316169 0.530707 0.914530
O O4 0.215452 0.522025 0.830313
O O5 0.635456 0.750000 0.292898
O O6 0.603025 0.965580 0.403639
O O7 0.564741 0.966571 0.238263
O O8 0.500000 0.500000 0.500000
O O9 0.445805 0.250000 0.501875
O O10 0.391036 0.478317 0.423717
O O11 0.826302 0.250000 0.544391
O O12 0.857281 0.044259 0.424899
O O13 0.924752 0.088326 0.563822
O O14 0.354382 0.250000 0.335540
O O15 0.388070 0.485553 0.246809
O O16 0.581312 0.750000 0.841801
O O17 0.525701 0.515099 0.876582
O O18 0.996565 0.250000 0.665914
#
# Coordination Sequence:
#
# PCOD8251137 Si02
#       7
#     8   8   8   8   8   8   8
#     4  10  20  35  54  75 100 133 175 217 257 307
#     4   9  19  35  54  76 105 140 172 211 262 308
#     4  10  20  36  57  80 110 144 178 219 268 319
#     4   9  19  34  51  73 103 135 164 203 253 301
#     4   9  20  36  52  75 106 135 168 217 265 302
#     4  10  19  32  51  73 100 134 166 199 248 303
#     4   9  17  30  47  72 104 129 160 206 248 292
#
# _framework density 18.964466000000002
#
# number of rings (size 3 to 8) (size 9 to 14) (size 15 to 20)
#    0.000    2.571    0.000    2.571    0.000    4.571 
#    0.000    2.857    0.000    0.000    0.000    0.000 
#    0.000    0.000    0.000    0.000    0.000    0.000 
#
# Total GULP energy -694255.026731 kJ/mol
# GULP energy per Si atom -12397.411192 kJ/mol
# Density = 1.892130 g / cm^3
# Si number density = 18.964466 Si / 1000 Ang^3
#
#
#
# Elastic Constant Matrix: (Units=GPa)
#
#
# Indices 1 2 3 4 5 6 
#
# 1 108.3685 38.7001 38.7499 0.0000 0.0000 0.0000
# 2 38.7001 45.5670 28.7117 0.0000 0.0000 0.0000
# 3 38.7499 28.7117 130.0060 0.0000 0.0000 0.0000
# 4 0.0000 0.0000 0.0000 22.2272 0.0000 0.0000
# 5 0.0000 0.0000 0.0000 0.0000 21.0777 0.0000
# 6 0.0000 0.0000 0.0000 0.0000 0.0000 25.1107
#
#
#
# Elastic Compliance Matrix: (Units=1/GPa)
#
#
# Indices 1 2 3 4 5 6 
#
# 1 0.013577 -0.010433 -0.001743 0.000000 0.000000 0.000000
# 2 -0.010433 0.033510 -0.004291 0.000000 0.000000 0.000000
# 3 -0.001743 -0.004291 0.009159 0.000000 0.000000 0.000000
# 4 0.000000 0.000000 0.000000 0.044990 0.000000 0.000000
# 5 0.000000 0.000000 0.000000 0.000000 0.047443 0.000000
# 6 0.000000 0.000000 0.000000 0.000000 0.000000 0.039824
#
#
# Mechanical properties :
#
#
# Convention : Reuss Voigt Hill
#
# Bulk Modulus (GPa) = 42.89463 55.14057 49.01760
# Shear Modulus (GPa) = 21.81444 25.53510 23.67477
#
# Velocity S-wave (km/s) = 3.39526 3.67341 3.53707
# Velocity P-wave (km/s) = 6.16749 6.86518 6.52567
#
# Compressibility (1/GPa) = 0.02331294
#
# Stress axis : x y z
#
# Youngs Moduli (GPa) = 73.65656 29.84197 109.18162
#
# Poissons Ratio (x) = 0.31133 0.19026
# Poissons Ratio (y) = 0.76842 0.46851
# Poissons Ratio (z) = 0.12836 0.12805
#
# Static dielectric constant tensor:
#      x y z
#    x 3.369890 0.000000 0.000000 
#    y 0.000000 3.266520 0.000000 
#    z 0.000000 0.000000 3.768740 
# 
# 
# High freq. dielectric constant tensor:
#      x y z
#    x 1.727710 0.000000 0.000000 
#    y 0.000000 1.715950 0.000000 
#    z 0.000000 0.000000 1.751540 
# 
# From -- ./inp_files/20361.got.cif
#   From: 2010.03.12/outbox.cif.g09.slc.cpg/sg62_11_cif.got.tgz:20361.got - 2010.04.10 19:12:36.
