data_PCOD8251035
_publ_section_title
;
Structure prediction by ZEFSAII (Michael W. Deem and Ramdas Pophale) SiO2 
 PCOD8251035
Probable space group: P N M A
;
_chemical_formula_sum "Si O2"
_cell_formula_units_Z 56
_cell_length_a 14.516960
_cell_length_b 9.224601
_cell_length_c 20.774981
_cell_angle_alpha 90.000000
_cell_angle_beta 90.000000
_cell_angle_gamma 90.000000
_cell_volume 2782.043432
_symmetry_space_group_name_H-M "P N M A"
_symmetry_group_IT_number 62
_symmetry_cell_setting 'orthorhombic'
loop_
_space_group_symop_operation_xyz
x,y,z
1/2-x,-y,1/2+z
1/2+x,1/2-y,1/2-z
-x,1/2+y,-z
-x,-y,-z
1/2+x,y,1/2-z
1/2-x,1/2+y,1/2+z
x,1/2-y,z
loop_
_atom_site_type_symbol
_atom_site_label
_atom_site_fract_x
_atom_site_fract_y
_atom_site_fract_z
Si Si1 0.348074 0.421986 0.340454
Si Si2 0.751940 0.082250 0.397541
Si Si3 0.496251 0.919450 0.265541
Si Si4 0.815540 0.577909 0.759426
Si Si5 0.918080 0.908007 0.366315
Si Si6 0.224124 0.079526 0.961365
Si Si7 0.570261 0.588963 0.041662
O O1 0.360781 0.250000 0.342488
O O2 0.446226 0.494233 0.322865
O O3 0.264591 0.464706 0.291686
O O4 0.333106 0.481718 0.412535
O O5 0.766152 0.250000 0.388023
O O6 0.707217 0.020888 0.332075
O O7 0.694820 0.050200 0.463556
O O8 0.855011 0.020062 0.405273
O O9 0.512588 0.750000 0.282590
O O10 0.420988 0.938936 0.209245
O O11 0.591095 0.993786 0.243005
O O12 0.832942 0.750000 0.757758
O O13 0.874896 0.750000 0.380157
O O14 0.024896 0.911122 0.387751
O O15 0.213738 0.250000 0.944036
O O16 0.328574 0.022406 0.953286
O O17 0.579198 0.750000 0.012255
O O18 0.500000 0.500000 0.000000
#
# Coordination Sequence:
#
# PCOD8251035 Si02
#       7
#     8   8   8   8   8   8   8
#     4  11  23  40  63  90 122 158 198 250 303 355
#     4  10  20  37  60  84 115 156 196 239 292 349
#     4  11  23  39  62  89 118 155 199 249 302 356
#     4  10  22  40  62  89 119 155 201 248 298 354
#     4  10  20  33  53  83 116 149 189 239 291 351
#     4  10  21  37  57  83 120 160 197 243 298 357
#     4  10  19  31  50  79 115 152 189 232 286 350
#
# _framework density 20.129087999999999
#
# number of rings (size 3 to 8) (size 9 to 14) (size 15 to 20)
#    0.000    1.714    2.857    1.714    0.000    4.571 
#    0.000    0.714    0.000    0.000    0.000    0.000 
#    0.000    0.000    0.000    0.000    0.000    0.000 
#
# Total GULP energy -693985.359633 kJ/mol
# GULP energy per Si atom -12392.595708 kJ/mol
# Density = 2.008327 g / cm^3
# Si number density = 20.129088 Si / 1000 Ang^3
#
#
#
# Elastic Constant Matrix: (Units=GPa)
#
#
# Indices 1 2 3 4 5 6 
#
# 1 44.8748 21.9610 1.5353 0.0000 0.0000 0.0000
# 2 21.9610 59.2943 27.0520 0.0000 0.0000 0.0000
# 3 1.5353 27.0520 92.5815 0.0000 0.0000 0.0000
# 4 0.0000 0.0000 0.0000 31.2763 0.0000 0.0000
# 5 0.0000 0.0000 0.0000 0.0000 25.2995 0.0000
# 6 0.0000 0.0000 0.0000 0.0000 0.0000 29.2155
#
#
#
# Elastic Compliance Matrix: (Units=1/GPa)
#
#
# Indices 1 2 3 4 5 6 
#
# 1 0.027899 -0.011679 0.002950 0.000000 0.000000 0.000000
# 2 -0.011679 0.024348 -0.006921 0.000000 0.000000 0.000000
# 3 0.002950 -0.006921 0.012775 0.000000 0.000000 0.000000
# 4 0.000000 0.000000 0.000000 0.031973 0.000000 0.000000
# 5 0.000000 0.000000 0.000000 0.000000 0.039527 0.000000
# 6 0.000000 0.000000 0.000000 0.000000 0.000000 0.034228
#
#
# Mechanical properties :
#
#
# Convention : Reuss Voigt Hill
#
# Bulk Modulus (GPa) = 29.65422 33.09413 31.37418
# Shear Modulus (GPa) = 23.44235 26.90508 25.17372
#
# Velocity S-wave (km/s) = 3.41633 3.65996 3.54024
# Velocity P-wave (km/s) = 5.50688 5.85978 5.68607
#
# Compressibility (1/GPa) = 0.03372201
#
# Stress axis : x y z
#
# Youngs Moduli (GPa) = 35.84397 41.07117 78.28045
#
# Poissons Ratio (x) = 0.47966 -0.23091
# Poissons Ratio (y) = 0.41861 0.54176
# Poissons Ratio (z) = -0.10573 0.28424
#
# Static dielectric constant tensor:
#      x y z
#    x 3.508740 0.000000 0.000000 
#    y 0.000000 3.550190 0.000000 
#    z 0.000000 0.000000 3.944910 
# 
# 
# High freq. dielectric constant tensor:
#      x y z
#    x 1.764090 0.000000 0.000000 
#    y 0.000000 1.781270 0.000000 
#    z 0.000000 0.000000 1.794870 
# 
# From -- ./inp_files/27075.got.cif
#   From: 2010.03.12/outbox.cif.g09.slc.cpg/sg62_14_cif.got.tgz:27075.got - 2010.04.10 19:12:36.
