data_PCOD8251970
_publ_section_title
;
Structure prediction by ZEFSAII (Michael W. Deem and Ramdas Pophale) SiO2 
 PCOD8251970
Probable space group: P N M A
;
_chemical_formula_sum "Si O2"
_cell_formula_units_Z 64
_cell_length_a 23.973501
_cell_length_b 8.799662
_cell_length_c 15.405504
_cell_angle_alpha 90.000000
_cell_angle_beta 90.000000
_cell_angle_gamma 90.000000
_cell_volume 3249.925185
_symmetry_space_group_name_H-M "P N M A"
_symmetry_group_IT_number 62
_symmetry_cell_setting 'orthorhombic'
loop_
_space_group_symop_operation_xyz
x,y,z
1/2-x,-y,1/2+z
1/2+x,1/2-y,1/2-z
-x,1/2+y,-z
-x,-y,-z
1/2+x,y,1/2-z
1/2-x,1/2+y,1/2+z
x,1/2-y,z
loop_
_atom_site_type_symbol
_atom_site_label
_atom_site_fract_x
_atom_site_fract_y
_atom_site_fract_z
Si Si1 0.135453 0.571032 0.597540
Si Si2 0.249221 0.575571 0.837345
Si Si3 0.140166 0.429879 0.088427
Si Si4 0.129838 0.571036 0.910637
Si Si5 0.249441 0.928580 0.154818
Si Si6 0.443831 0.069784 0.250915
Si Si7 0.634366 0.074395 0.080506
Si Si8 0.931097 0.930875 0.749200
O O1 0.145464 0.750000 0.604190
O O2 0.191812 0.486238 0.620916
O O3 0.088036 0.515861 0.664491
O O4 0.115550 0.524750 0.501647
O O5 0.245927 0.750000 0.804702
O O6 0.192722 0.526699 0.884649
O O7 0.259890 0.470877 0.754684
O O8 0.299650 0.553002 0.904311
O O9 0.144265 0.250000 0.090601
O O10 0.201690 0.498326 0.095858
O O11 0.101522 0.491870 0.166492
O O12 0.113013 0.484721 0.998392
O O13 0.123724 0.750000 0.925345
O O14 0.088653 0.510314 0.835767
O O15 0.246565 0.750000 0.142353
O O16 0.445914 0.250000 0.253629
O O17 0.506272 0.002231 0.250129
O O18 0.619973 0.250000 0.062700
O O19 0.600327 0.011538 0.163088
O O20 0.931522 0.750000 0.750393
#
# Coordination Sequence:
#
# PCOD8251970 Si02
#       8
#     8   8   8   8   8   8   8   8
#     4  11  22  38  60  87 118 153 194 238 287 344
#     4  10  19  36  59  84 114 154 191 229 288 349
#     4  11  22  38  60  87 118 153 194 238 287 344
#     4  10  20  36  59  86 119 155 193 236 287 344
#     4  12  23  36  59  88 118 150 189 237 292 349
#     4   9  19  37  60  84 115 158 199 235 284 344
#     4  10  20  36  59  86 119 155 193 236 287 344
#     4   9  19  37  60  84 115 158 199 235 284 344
#
# _framework density 19.692761999999998
#
# number of rings (size 3 to 8) (size 9 to 14) (size 15 to 20)
#    0.000    1.750    2.500    2.625    0.000    3.000 
#    0.000    0.000    0.000    5.250    0.000    0.000 
#    0.000    0.000    0.000    0.000    0.000    0.000 
#
# Total GULP energy -793854.063983 kJ/mol
# GULP energy per Si atom -12403.969750 kJ/mol
# Density = 1.964794 g / cm^3
# Si number density = 19.692762 Si / 1000 Ang^3
#
#
#
# Elastic Constant Matrix: (Units=GPa)
#
#
# Indices 1 2 3 4 5 6 
#
# 1 123.2273 15.5282 42.3853 0.0000 0.0000 0.0000
# 2 15.5282 54.6715 29.2778 0.0000 0.0000 0.0000
# 3 42.3853 29.2778 132.3979 0.0000 0.0000 0.0000
# 4 0.0000 0.0000 0.0000 36.4207 0.0000 0.0000
# 5 0.0000 0.0000 0.0000 0.0000 15.7741 0.0000
# 6 0.0000 0.0000 0.0000 0.0000 0.0000 6.0985
#
#
#
# Elastic Compliance Matrix: (Units=1/GPa)
#
#
# Indices 1 2 3 4 5 6 
#
# 1 0.009185 -0.001173 -0.002681 0.000000 0.000000 0.000000
# 2 -0.001173 0.020898 -0.004246 0.000000 0.000000 0.000000
# 3 -0.002681 -0.004246 0.009350 0.000000 0.000000 0.000000
# 4 0.000000 0.000000 0.000000 0.027457 0.000000 0.000000
# 5 0.000000 0.000000 0.000000 0.000000 0.063395 0.000000
# 6 0.000000 0.000000 0.000000 0.000000 0.000000 0.163976
#
#
# Mechanical properties :
#
#
# Convention : Reuss Voigt Hill
#
# Bulk Modulus (GPa) = 43.04129 53.85326 48.44728
# Shear Modulus (GPa) = 15.71314 26.53234 21.12274
#
# Velocity S-wave (km/s) = 2.82780 3.67456 3.27863
# Velocity P-wave (km/s) = 5.70665 6.73864 6.24400
#
# Compressibility (1/GPa) = 0.02323350
#
# Stress axis : x y z
#
# Youngs Moduli (GPa) = 108.87218 47.85162 106.94984
#
# Poissons Ratio (x) = 0.05613 0.28674
# Poissons Ratio (y) = 0.12771 0.45408
# Poissons Ratio (z) = 0.29189 0.20317
#
# Static dielectric constant tensor:
#      x y z
#    x 3.761130 0.000000 0.000000 
#    y 0.000000 3.295980 0.000000 
#    z 0.000000 0.000000 3.770390 
# 
# 
# High freq. dielectric constant tensor:
#      x y z
#    x 1.768160 0.000000 0.000000 
#    y 0.000000 1.737260 0.000000 
#    z 0.000000 0.000000 1.782360 
# 
# From -- ./inp_files/20805.got.cif
#   From: 2010.03.12/outbox.cif.g09.slc.cpg/sg62_11_cif.got.tgz:20805.got - 2010.04.10 19:12:36.
