data_PCOD8251746
_publ_section_title
;
Structure prediction by ZEFSAII (Michael W. Deem and Ramdas Pophale) SiO2 
 PCOD8251746
Probable space group: P N M A
;
_chemical_formula_sum "Si O2"
_cell_formula_units_Z 40
_cell_length_a 26.805433
_cell_length_b 8.391913
_cell_length_c 9.028367
_cell_angle_alpha 90.000000
_cell_angle_beta 90.000000
_cell_angle_gamma 90.000000
_cell_volume 2030.920879
_symmetry_space_group_name_H-M "P N M A"
_symmetry_group_IT_number 62
_symmetry_cell_setting 'orthorhombic'
loop_
_space_group_symop_operation_xyz
x,y,z
1/2-x,-y,1/2+z
1/2+x,1/2-y,1/2-z
-x,1/2+y,-z
-x,-y,-z
1/2+x,y,1/2-z
1/2-x,1/2+y,1/2+z
x,1/2-y,z
loop_
_atom_site_type_symbol
_atom_site_label
_atom_site_fract_x
_atom_site_fract_y
_atom_site_fract_z
Si Si1 0.665936 0.995522 0.314686
Si Si2 0.085303 0.750000 0.681172
Si Si3 0.441002 0.576499 0.614968
Si Si4 0.833216 0.250000 0.559410
Si Si5 0.463412 0.567091 0.283897
Si Si6 0.249898 0.250000 0.187329
Si Si7 0.168517 0.750000 0.928572
O O1 0.669896 0.902570 0.162318
O O2 0.665898 0.901130 0.466959
O O3 0.613140 0.085424 0.309965
O O4 0.714984 0.098870 0.320718
O O5 0.114928 0.750000 0.527832
O O6 0.054481 0.581106 0.680310
O O7 0.121983 0.750000 0.819693
O O8 0.466524 0.750000 0.634900
O O9 0.435912 0.540275 0.440398
O O10 0.476654 0.446860 0.693388
O O11 0.786622 0.250000 0.450674
O O12 0.452626 0.750000 0.223364
O O13 0.279723 0.250000 0.340594
#
# Coordination Sequence:
#
# PCOD8251746 Si02
#       7
#     8   4   8   4   8   4   4
#     4  11  21  39  62  88 116 159 203 248 309 368
#     4  11  20  43  58  88 132 162 196 257 303 356
#     4  10  19  34  60  94 120 157 207 259 295 359
#     4  10  26  40  60  89 128 155 200 254 314 373
#     4  10  21  34  62  97 123 158 212 253 298 358
#     4  11  22  41  62  87 117 155 205 257 303 369
#     4  10  22  36  64  82 117 160 195 246 314 354
#
# _framework density 19.695499999999999
#
# number of rings (size 3 to 8) (size 9 to 14) (size 15 to 20)
#    0.000    1.600    4.000    1.200    4.200    0.000 
#    1.800    1.000    4.400    0.000    0.000    0.000 
#    0.000    0.000    0.000    0.000    0.000    0.000 
#
# Total GULP energy -495671.800865 kJ/mol
# GULP energy per Si atom -12391.795022 kJ/mol
# Density = 1.965067 g / cm^3
# Si number density = 19.695500 Si / 1000 Ang^3
#
#
#
# Elastic Constant Matrix: (Units=GPa)
#
#
# Indices 1 2 3 4 5 6 
#
# 1 99.0026 30.7598 23.9794 0.0000 0.0000 0.0000
# 2 30.7598 110.5229 19.7278 0.0000 0.0000 0.0000
# 3 23.9794 19.7278 75.8818 0.0000 0.0000 0.0000
# 4 0.0000 0.0000 0.0000 25.6695 0.0000 0.0000
# 5 0.0000 0.0000 0.0000 0.0000 26.0994 0.0000
# 6 0.0000 0.0000 0.0000 0.0000 0.0000 36.2999
#
#
#
# Elastic Compliance Matrix: (Units=1/GPa)
#
#
# Indices 1 2 3 4 5 6 
#
# 1 0.011666 -0.002715 -0.002981 0.000000 0.000000 0.000000
# 2 -0.002715 0.010120 -0.001773 0.000000 0.000000 0.000000
# 3 -0.002981 -0.001773 0.014581 0.000000 0.000000 0.000000
# 4 0.000000 0.000000 0.000000 0.038957 0.000000 0.000000
# 5 0.000000 0.000000 0.000000 0.000000 0.038315 0.000000
# 6 0.000000 0.000000 0.000000 0.000000 0.000000 0.027548
#
#
# Mechanical properties :
#
#
# Convention : Reuss Voigt Hill
#
# Bulk Modulus (GPa) = 46.66343 48.26013 47.46178
# Shear Modulus (GPa) = 30.62444 31.67645 31.15045
#
# Velocity S-wave (km/s) = 3.94749 4.01472 3.98125
# Velocity P-wave (km/s) = 6.67239 6.78579 6.72933
#
# Compressibility (1/GPa) = 0.02143006
#
# Stress axis : x y z
#
# Youngs Moduli (GPa) = 85.71764 98.81478 68.58086
#
# Poissons Ratio (x) = 0.26826 0.20443
# Poissons Ratio (y) = 0.23270 0.12160
# Poissons Ratio (z) = 0.25551 0.17521
#
# Static dielectric constant tensor:
#      x y z
#    x 3.564630 0.000000 0.000000 
#    y 0.000000 3.584250 0.000000 
#    z 0.000000 0.000000 3.394630 
# 
# 
# High freq. dielectric constant tensor:
#      x y z
#    x 1.774700 0.000000 0.000000 
#    y 0.000000 1.778140 0.000000 
#    z 0.000000 0.000000 1.747510 
# 
# From -- ./inp_files/9169.got.cif
#   From: 2010.03.12/outbox.cif.g09.slc.cpg/sg62_5_cif.got.tgz:9169.got - 2010.04.10 19:12:36.
