data_PCOD8251255
_publ_section_title
;
Structure prediction by ZEFSAII (Michael W. Deem and Ramdas Pophale) SiO2 
 PCOD8251255
Probable space group: P N M A
;
_chemical_formula_sum "Si O2"
_cell_formula_units_Z 48
_cell_length_a 20.095849
_cell_length_b 8.983934
_cell_length_c 14.690417
_cell_angle_alpha 90.000000
_cell_angle_beta 90.000000
_cell_angle_gamma 90.000000
_cell_volume 2652.204669
_symmetry_space_group_name_H-M "P N M A"
_symmetry_group_IT_number 62
_symmetry_cell_setting 'orthorhombic'
loop_
_space_group_symop_operation_xyz
x,y,z
1/2-x,-y,1/2+z
1/2+x,1/2-y,1/2-z
-x,1/2+y,-z
-x,-y,-z
1/2+x,y,1/2-z
1/2-x,1/2+y,1/2+z
x,1/2-y,z
loop_
_atom_site_type_symbol
_atom_site_label
_atom_site_fract_x
_atom_site_fract_y
_atom_site_fract_z
Si Si1 0.983166 0.921680 0.238050
Si Si2 0.820166 0.575577 0.394451
Si Si3 0.164802 0.420064 0.810713
Si Si4 0.444443 0.076548 0.559645
Si Si5 0.695832 0.925962 0.511017
Si Si6 0.959366 0.426344 0.419710
O O1 0.981930 0.750000 0.270702
O O2 0.913303 0.960550 0.189654
O O3 0.042127 0.953179 0.166580
O O4 0.994053 0.025837 0.325094
O O5 0.834889 0.750000 0.410653
O O6 0.803927 0.546671 0.288247
O O7 0.758190 0.515497 0.452793
O O8 0.883934 0.482824 0.425207
O O9 0.175772 0.250000 0.838969
O O10 0.202314 0.519444 0.885270
O O11 0.448472 0.250000 0.537446
O O12 0.371835 0.011835 0.534967
O O13 0.500000 0.000000 0.500000
O O14 0.695693 0.750000 0.510100
O O15 0.961119 0.250000 0.429054
O O16 0.000000 0.500000 0.500000
#
# Coordination Sequence:
#
# PCOD8251255 Si02
#       6
#     8   8   8   8   8   8
#     4   9  18  34  54  79 112 146 181 222 270 323
#     4   9  20  39  56  76 112 148 182 225 277 327
#     4   9  17  32  54  75 103 145 183 221 271 325
#     4  10  19  32  53  82 114 146 181 221 271 323
#     4  10  20  34  55  80 110 145 181 228 274 321
#     4  11  22  38  61  84 107 140 184 229 277 331
#
# _framework density 18.09815
#
# number of rings (size 3 to 8) (size 9 to 14) (size 15 to 20)
#    0.000    2.333    1.667    2.500    0.000    4.000 
#    3.000    0.000    0.000    0.000    0.000    0.000 
#    0.000    0.000    0.000    0.000    0.000    0.000 
#
# Total GULP energy -595234.110408 kJ/mol
# GULP energy per Si atom -12400.710634 kJ/mol
# Density = 1.805696 g / cm^3
# Si number density = 18.098150 Si / 1000 Ang^3
#
#
#
# Elastic Constant Matrix: (Units=GPa)
#
#
# Indices 1 2 3 4 5 6 
#
# 1 88.6049 40.7521 71.0697 0.0000 0.0000 0.0000
# 2 40.7521 67.2803 47.7857 0.0000 0.0000 0.0000
# 3 71.0697 47.7857 127.3720 0.0000 0.0000 0.0000
# 4 0.0000 0.0000 0.0000 35.6049 0.0000 0.0000
# 5 0.0000 0.0000 0.0000 0.0000 34.6329 0.0000
# 6 0.0000 0.0000 0.0000 0.0000 0.0000 23.6010
#
#
#
# Elastic Compliance Matrix: (Units=1/GPa)
#
#
# Indices 1 2 3 4 5 6 
#
# 1 0.022258 -0.006354 -0.010035 0.000000 0.000000 0.000000
# 2 -0.006354 0.022076 -0.004737 0.000000 0.000000 0.000000
# 3 -0.010035 -0.004737 0.015228 0.000000 0.000000 0.000000
# 4 0.000000 0.000000 0.000000 0.028086 0.000000 0.000000
# 5 0.000000 0.000000 0.000000 0.000000 0.028874 0.000000
# 6 0.000000 0.000000 0.000000 0.000000 0.000000 0.042371
#
#
# Mechanical properties :
#
#
# Convention : Reuss Voigt Hill
#
# Bulk Modulus (GPa) = 57.77348 66.94137 62.35742
# Shear Modulus (GPa) = 24.16446 27.01107 25.58777
#
# Velocity S-wave (km/s) = 3.65799 3.86745 3.76418
# Velocity P-wave (km/s) = 7.05923 7.55057 7.30903
#
# Compressibility (1/GPa) = 0.01730898
#
# Stress axis : x y z
#
# Youngs Moduli (GPa) = 44.92795 45.29747 65.67038
#
# Poissons Ratio (x) = 0.28783 0.65903
# Poissons Ratio (y) = 0.28548 0.31107
# Poissons Ratio (z) = 0.45087 0.21457
#
# Static dielectric constant tensor:
#      x y z
#    x 3.530510 0.000000 0.000000 
#    y 0.000000 3.244000 0.000000 
#    z 0.000000 0.000000 3.504910 
# 
# 
# High freq. dielectric constant tensor:
#      x y z
#    x 1.687450 0.000000 0.000000 
#    y 0.000000 1.691980 0.000000 
#    z 0.000000 0.000000 1.708880 
# 
# From -- ./inp_files/19586.got.cif
#   From: 2010.03.12/outbox.cif.g09.slc.cpg/sg62_10_cif.got.tgz:19586.got - 2010.04.10 19:12:36.
