data_PCOD8251453
_publ_section_title
;
Structure prediction by ZEFSAII (Michael W. Deem and Ramdas Pophale) SiO2 
 PCOD8251453
Probable space group: P N M A
;
_chemical_formula_sum "Si O2"
_cell_formula_units_Z 48
_cell_length_a 11.414310
_cell_length_b 12.722982
_cell_length_c 18.921810
_cell_angle_alpha 90.000000
_cell_angle_beta 90.000000
_cell_angle_gamma 90.000000
_cell_volume 2747.902083
_symmetry_space_group_name_H-M "P N M A"
_symmetry_group_IT_number 62
_symmetry_cell_setting 'orthorhombic'
loop_
_space_group_symop_operation_xyz
x,y,z
1/2-x,-y,1/2+z
1/2+x,1/2-y,1/2-z
-x,1/2+y,-z
-x,-y,-z
1/2+x,y,1/2-z
1/2-x,1/2+y,1/2+z
x,1/2-y,z
loop_
_atom_site_type_symbol
_atom_site_label
_atom_site_fract_x
_atom_site_fract_y
_atom_site_fract_z
Si Si1 0.697393 0.123654 0.818424
Si Si2 0.601695 0.131472 0.029798
Si Si3 0.531344 0.932886 0.104912
Si Si4 0.771678 0.631745 0.162162
Si Si5 0.410491 0.869676 0.470144
Si Si6 0.832946 0.062357 0.950387
O O1 0.696688 0.250000 0.825432
O O2 0.573843 0.074355 0.840089
O O3 0.719513 0.079290 0.739527
O O4 0.799643 0.077303 0.868354
O O5 0.600193 0.250000 0.058951
O O6 0.569107 0.054429 0.094212
O O7 0.503807 0.119468 0.969251
O O8 0.729168 0.105443 0.999156
O O9 0.638917 0.868793 0.136101
O O10 0.814658 0.750000 0.172863
O O11 0.858204 0.581934 0.103286
O O12 0.368117 0.750000 0.482142
O O13 0.550672 0.872294 0.468197
O O14 0.357810 0.939340 0.533919
#
# Coordination Sequence:
#
# PCOD8251453 Si02
#       6
#     8   8   8   8   8   8
#     4  10  21  34  53  78 107 140 169 210 265 314
#     4  10  19  33  55  77 102 137 173 215 261 305
#     4  10  19  34  51  78 104 132 172 216 257 309
#     4  10  20  33  52  79 106 133 167 214 263 308
#     4  10  20  33  53  80 106 136 175 214 259 305
#     4  10  19  35  52  78 106 140 172 212 259 309
#
# _framework density 17.467870999999999
#
# number of rings (size 3 to 8) (size 9 to 14) (size 15 to 20)
#    0.000    2.000    1.667    4.000    2.333    0.000 
#    0.000    0.000    0.000    2.000    0.000    0.000 
#    0.000    0.000    0.000    0.000    0.000    0.000 
#
# Total GULP energy -595121.433710 kJ/mol
# GULP energy per Si atom -12398.363202 kJ/mol
# Density = 1.742811 g / cm^3
# Si number density = 17.467871 Si / 1000 Ang^3
#
#
#
# Elastic Constant Matrix: (Units=GPa)
#
#
# Indices 1 2 3 4 5 6 
#
# 1 87.4571 25.7989 37.8099 0.0000 0.0000 0.0000
# 2 25.7989 88.6525 36.1888 0.0000 0.0000 0.0000
# 3 37.8099 36.1888 91.5496 0.0000 0.0000 0.0000
# 4 0.0000 0.0000 0.0000 23.4357 0.0000 0.0000
# 5 0.0000 0.0000 0.0000 0.0000 18.7429 0.0000
# 6 0.0000 0.0000 0.0000 0.0000 0.0000 21.4870
#
#
#
# Elastic Compliance Matrix: (Units=1/GPa)
#
#
# Indices 1 2 3 4 5 6 
#
# 1 0.014233 -0.002078 -0.005057 0.000000 0.000000 0.000000
# 2 -0.002078 0.013754 -0.004579 0.000000 0.000000 0.000000
# 3 -0.005057 -0.004579 0.014821 0.000000 0.000000 0.000000
# 4 0.000000 0.000000 0.000000 0.042670 0.000000 0.000000
# 5 0.000000 0.000000 0.000000 0.000000 0.053353 0.000000
# 6 0.000000 0.000000 0.000000 0.000000 0.000000 0.046540
#
#
# Mechanical properties :
#
#
# Convention : Reuss Voigt Hill
#
# Bulk Modulus (GPa) = 51.59500 51.91716 51.75608
# Shear Modulus (GPa) = 23.22783 23.92391 23.57587
#
# Velocity S-wave (km/s) = 3.65052 3.70482 3.67777
# Velocity P-wave (km/s) = 6.88256 6.93448 6.90857
#
# Compressibility (1/GPa) = 0.01938172
#
# Stress axis : x y z
#
# Youngs Moduli (GPa) = 70.25733 72.70790 67.46963
#
# Poissons Ratio (x) = 0.15107 0.34120
# Poissons Ratio (y) = 0.14598 0.30892
# Poissons Ratio (z) = 0.35530 0.33290
#
# Static dielectric constant tensor:
#      x y z
#    x 3.335040 0.000000 0.000000 
#    y 0.000000 3.193990 0.000000 
#    z 0.000000 0.000000 3.319020 
# 
# 
# High freq. dielectric constant tensor:
#      x y z
#    x 1.691290 0.000000 0.000000 
#    y 0.000000 1.657240 0.000000 
#    z 0.000000 0.000000 1.657290 
# 
# From -- ./inp_files/26553.got.cif
#   From: 2010.03.12/outbox.cif.g09.slc.cpg/sg62_14_cif.got.tgz:26553.got - 2010.04.10 19:12:36.
