data_PCOD8251171
_publ_section_title
;
Structure prediction by ZEFSAII (Michael W. Deem and Ramdas Pophale) SiO2 
 PCOD8251171
Probable space group: P N M A
;
_chemical_formula_sum "Si O2"
_cell_formula_units_Z 64
_cell_length_a 19.022734
_cell_length_b 9.301697
_cell_length_c 20.353456
_cell_angle_alpha 90.000000
_cell_angle_beta 90.000000
_cell_angle_gamma 90.000000
_cell_volume 3601.415971
_symmetry_space_group_name_H-M "P N M A"
_symmetry_group_IT_number 62
_symmetry_cell_setting 'orthorhombic'
loop_
_space_group_symop_operation_xyz
x,y,z
1/2-x,-y,1/2+z
1/2+x,1/2-y,1/2-z
-x,1/2+y,-z
-x,-y,-z
1/2+x,y,1/2-z
1/2-x,1/2+y,1/2+z
x,1/2-y,z
loop_
_atom_site_type_symbol
_atom_site_label
_atom_site_fract_x
_atom_site_fract_y
_atom_site_fract_z
Si Si1 0.821182 0.918894 0.235416
Si Si2 0.686117 0.413779 0.239537
Si Si3 0.549720 0.916838 0.689033
Si Si4 0.963151 0.585550 0.681577
Si Si5 0.316078 0.583188 0.609415
Si Si6 0.679604 0.083401 0.886355
Si Si7 0.534784 0.418845 0.440130
Si Si8 0.028285 0.080429 0.563266
O O1 0.822004 0.750000 0.224059
O O2 0.835412 0.962403 0.311163
O O3 0.746236 0.980859 0.212817
O O4 0.879955 0.989414 0.189710
O O5 0.713159 0.250000 0.235292
O O6 0.619236 0.437252 0.193506
O O7 0.666810 0.451560 0.314684
O O8 0.570393 0.750000 0.687201
O O9 0.503535 0.953817 0.752239
O O10 0.505797 0.962900 0.625677
O O11 0.978719 0.750000 0.660106
O O12 0.986136 0.475656 0.625889
O O13 0.300770 0.750000 0.599056
O O14 0.246724 0.500184 0.584621
O O15 0.383615 0.534406 0.567048
O O16 0.698402 0.250000 0.889863
O O17 0.611044 0.045615 0.929051
O O18 0.500000 0.500000 0.500000
O O19 0.529229 0.250000 0.452655
O O20 0.015474 0.250000 0.556623
O O21 0.000000 0.000000 0.500000
#
# Coordination Sequence:
#
# PCOD8251171 Si02
#       8
#     8   8   8   8   8   8   8   8
#     4  10  19  32  51  81 114 141 176 225 277 324
#     4   9  17  32  54  81 109 140 179 225 275 326
#     4  10  19  34  56  80 108 142 181 222 269 326
#     4  10  19  34  58  83 107 139 181 226 274 326
#     4   9  17  32  55  80 106 138 180 224 264 321
#     4   9  19  34  52  78 110 139 173 222 272 322
#     4  10  21  37  55  81 113 145 183 226 270 321
#     4  11  23  39  56  80 114 147 184 227 273 327
#
# _framework density 17.770786999999999
#
# number of rings (size 3 to 8) (size 9 to 14) (size 15 to 20)
#    0.000    2.250    2.500    0.750    0.000    3.000 
#    0.000    1.250    0.000    1.500    0.000    0.000 
#    0.000    0.000    0.000    0.000    0.000    0.000 
#
# Total GULP energy -793717.335422 kJ/mol
# GULP energy per Si atom -12401.833366 kJ/mol
# Density = 1.773034 g / cm^3
# Si number density = 17.770787 Si / 1000 Ang^3
#
#
#
# Elastic Constant Matrix: (Units=GPa)
#
#
# Indices 1 2 3 4 5 6 
#
# 1 143.2562 71.3661 63.2608 0.0000 0.0000 0.0000
# 2 71.3661 79.8778 54.7571 0.0000 0.0000 0.0000
# 3 63.2608 54.7571 95.1614 0.0000 0.0000 0.0000
# 4 0.0000 0.0000 0.0000 30.0506 0.0000 0.0000
# 5 0.0000 0.0000 0.0000 0.0000 25.8118 0.0000
# 6 0.0000 0.0000 0.0000 0.0000 0.0000 32.9785
#
#
#
# Elastic Compliance Matrix: (Units=1/GPa)
#
#
# Indices 1 2 3 4 5 6 
#
# 1 0.013171 -0.009521 -0.003277 0.000000 0.000000 0.000000
# 2 -0.009521 0.027556 -0.009527 0.000000 0.000000 0.000000
# 3 -0.003277 -0.009527 0.018169 0.000000 0.000000 0.000000
# 4 0.000000 0.000000 0.000000 0.033277 0.000000 0.000000
# 5 0.000000 0.000000 0.000000 0.000000 0.038742 0.000000
# 6 0.000000 0.000000 0.000000 0.000000 0.000000 0.030323
#
#
# Mechanical properties :
#
#
# Convention : Reuss Voigt Hill
#
# Bulk Modulus (GPa) = 70.19509 77.45149 73.82329
# Shear Modulus (GPa) = 23.73760 26.36227 25.04993
#
# Velocity S-wave (km/s) = 3.65878 3.85575 3.75855
# Velocity P-wave (km/s) = 7.57858 7.96873 7.77610
#
# Compressibility (1/GPa) = 0.01424601
#
# Stress axis : x y z
#
# Youngs Moduli (GPa) = 75.92686 36.28951 55.03854
#
# Poissons Ratio (x) = 0.34550 0.18037
# Poissons Ratio (y) = 0.72287 0.52436
# Poissons Ratio (z) = 0.24883 0.34574
#
# Static dielectric constant tensor:
#      x y z
#    x 3.470150 0.000000 0.000000 
#    y 0.000000 3.267430 0.000000 
#    z 0.000000 0.000000 2.537170 
# 
# 
# High freq. dielectric constant tensor:
#      x y z
#    x 1.700040 0.000000 0.000000 
#    y 0.000000 1.686750 0.000000 
#    z 0.000000 0.000000 1.660770 
# 
# From -- ./inp_files/27714.got.cif
#   From: 2010.03.12/outbox.cif.g09.slc.cpg/sg62_14_cif.got.tgz:27714.got - 2010.04.10 19:12:36.
