data_PCOD8251547
_publ_section_title
;
Structure prediction by ZEFSAII (Michael W. Deem and Ramdas Pophale) SiO2 
 PCOD8251547
Probable space group: P N M A
;
_chemical_formula_sum "Si O2"
_cell_formula_units_Z 64
_cell_length_a 11.285094
_cell_length_b 8.735420
_cell_length_c 33.159065
_cell_angle_alpha 90.000000
_cell_angle_beta 90.000000
_cell_angle_gamma 90.000000
_cell_volume 3268.821816
_symmetry_space_group_name_H-M "P N M A"
_symmetry_group_IT_number 62
_symmetry_cell_setting 'orthorhombic'
loop_
_space_group_symop_operation_xyz
x,y,z
1/2-x,-y,1/2+z
1/2+x,1/2-y,1/2-z
-x,1/2+y,-z
-x,-y,-z
1/2+x,y,1/2-z
1/2-x,1/2+y,1/2+z
x,1/2-y,z
loop_
_atom_site_type_symbol
_atom_site_label
_atom_site_fract_x
_atom_site_fract_y
_atom_site_fract_z
Si Si1 0.905904 0.574632 0.283463
Si Si2 0.793893 0.426851 0.402906
Si Si3 0.333010 0.424958 0.669381
Si Si4 0.528457 0.072763 0.142716
Si Si5 0.931441 0.427988 0.198299
Si Si6 0.225754 0.428739 0.867888
Si Si7 0.669095 0.571703 0.472402
Si Si8 0.905791 0.927886 0.051212
O O1 0.933705 0.750000 0.272130
O O2 0.772667 0.554206 0.298984
O O3 0.921355 0.468491 0.245000
O O4 0.999031 0.522733 0.317241
O O5 0.760976 0.250000 0.397082
O O6 0.708757 0.527972 0.374898
O O7 0.771641 0.480174 0.448699
O O8 0.930608 0.457356 0.391781
O O9 0.377921 0.250000 0.667641
O O10 0.437938 0.533941 0.683046
O O11 0.533566 0.250000 0.154809
O O12 0.652655 0.018439 0.124738
O O13 0.906164 0.250000 0.192003
O O14 0.833185 0.522398 0.173990
O O15 0.253853 0.250000 0.866669
O O16 0.136876 0.471639 0.904137
O O17 0.696195 0.750000 0.469190
O O18 0.543198 0.526328 0.452528
O O19 0.671838 0.522153 0.519039
O O20 0.887552 0.750000 0.041624
#
# Coordination Sequence:
#
# PCOD8251547 Si02
#       8
#     8   8   8   8   8   8   8   8
#     4  10  22  40  61  83 111 149 193 238 287 343
#     4  10  20  36  59  85 115 151 191 237 290 346
#     4  10  21  38  59  83 112 145 189 239 285 339
#     4  10  22  40  60  84 116 153 194 242 294 347
#     4  12  25  38  58  85 116 151 190 238 290 346
#     4  11  23  40  61  84 116 156 197 239 291 352
#     4  10  19  33  59  89 118 151 190 239 291 348
#     4   9  20  37  56  84 119 153 189 238 292 346
#
# _framework density 19.57892
#
# number of rings (size 3 to 8) (size 9 to 14) (size 15 to 20)
#    0.000    1.750    0.000    4.125    1.750    5.500 
#    0.000    0.625    0.000    0.000    0.000    0.000 
#    0.000    0.000    0.000    0.000    0.000    0.000 
#
# Total GULP energy -794010.029268 kJ/mol
# GULP energy per Si atom -12406.406707 kJ/mol
# Density = 1.953436 g / cm^3
# Si number density = 19.578920 Si / 1000 Ang^3
#
#
#
# Elastic Constant Matrix: (Units=GPa)
#
#
# Indices 1 2 3 4 5 6 
#
# 1 68.0115 26.4804 20.1348 0.0000 0.0000 0.0000
# 2 26.4804 65.8253 21.5247 0.0000 0.0000 0.0000
# 3 20.1348 21.5247 63.1518 0.0000 0.0000 0.0000
# 4 0.0000 0.0000 0.0000 35.7219 0.0000 0.0000
# 5 0.0000 0.0000 0.0000 0.0000 16.9656 0.0000
# 6 0.0000 0.0000 0.0000 0.0000 0.0000 33.3357
#
#
#
# Elastic Compliance Matrix: (Units=1/GPa)
#
#
# Indices 1 2 3 4 5 6 
#
# 1 0.018178 -0.006097 -0.003718 0.000000 0.000000 0.000000
# 2 -0.006097 0.019142 -0.004581 0.000000 0.000000 0.000000
# 3 -0.003718 -0.004581 0.018581 0.000000 0.000000 0.000000
# 4 0.000000 0.000000 0.000000 0.027994 0.000000 0.000000
# 5 0.000000 0.000000 0.000000 0.000000 0.058943 0.000000
# 6 0.000000 0.000000 0.000000 0.000000 0.000000 0.029998
#
#
# Mechanical properties :
#
#
# Convention : Reuss Voigt Hill
#
# Bulk Modulus (GPa) = 36.88505 37.02983 36.95744
# Shear Modulus (GPa) = 23.73451 25.79454 24.76453
#
# Velocity S-wave (km/s) = 3.48551 3.63363 3.56034
# Velocity P-wave (km/s) = 5.92271 6.04636 5.98485
#
# Compressibility (1/GPa) = 0.02711126
#
# Stress axis : x y z
#
# Youngs Moduli (GPa) = 55.01188 52.24033 53.81728
#
# Poissons Ratio (x) = 0.31851 0.20007
# Poissons Ratio (y) = 0.33541 0.24651
# Poissons Ratio (z) = 0.20451 0.23929
#
# Static dielectric constant tensor:
#      x y z
#    x 3.526270 0.000000 0.000000 
#    y 0.000000 3.612550 0.000000 
#    z 0.000000 0.000000 3.553160 
# 
# 
# High freq. dielectric constant tensor:
#      x y z
#    x 1.755890 0.000000 0.000000 
#    y 0.000000 1.774910 0.000000 
#    z 0.000000 0.000000 1.762550 
# 
# From -- ./inp_files/32538.got.cif
#   From: 2010.03.12/outbox.cif.g09.slc.cpg/sg62_17_cif.got.tgz:32538.got - 2010.04.10 19:12:36.
