data_PCOD8251732
_publ_section_title
;
Structure prediction by ZEFSAII (Michael W. Deem and Ramdas Pophale) SiO2 
 PCOD8251732
Probable space group: P N M A
;
_chemical_formula_sum "Si O2"
_cell_formula_units_Z 48
_cell_length_a 20.326365
_cell_length_b 8.826097
_cell_length_c 14.082104
_cell_angle_alpha 90.000000
_cell_angle_beta 90.000000
_cell_angle_gamma 90.000000
_cell_volume 2526.364228
_symmetry_space_group_name_H-M "P N M A"
_symmetry_group_IT_number 62
_symmetry_cell_setting 'orthorhombic'
loop_
_space_group_symop_operation_xyz
x,y,z
1/2-x,-y,1/2+z
1/2+x,1/2-y,1/2-z
-x,1/2+y,-z
-x,-y,-z
1/2+x,y,1/2-z
1/2-x,1/2+y,1/2+z
x,1/2-y,z
loop_
_atom_site_type_symbol
_atom_site_label
_atom_site_fract_x
_atom_site_fract_y
_atom_site_fract_z
Si Si1 0.759797 0.570348 0.256853
Si Si2 0.435721 0.070868 0.545364
Si Si3 0.693372 0.429519 0.957460
Si Si4 0.313659 0.429381 0.420540
Si Si5 0.891217 0.070061 0.745712
Si Si6 0.561034 0.430424 0.054843
O O1 0.760436 0.750000 0.255756
O O2 0.788695 0.504646 0.354736
O O3 0.812000 0.506612 0.181763
O O4 0.684668 0.513311 0.242152
O O5 0.441576 0.250000 0.541204
O O6 0.375484 0.013319 0.480950
O O7 0.423617 0.019200 0.654121
O O8 0.500000 0.000000 0.500000
O O9 0.695386 0.250000 0.953710
O O10 0.748111 0.489781 0.029187
O O11 0.623317 0.487459 0.993973
O O12 0.314727 0.250000 0.409151
O O13 0.894944 0.250000 0.733716
O O14 0.933117 0.992016 0.662212
O O15 0.555296 0.250000 0.058536
O O16 0.500000 0.500000 0.000000
#
# Coordination Sequence:
#
# PCOD8251732 Si02
#       6
#     8   8   8   8   8   8
#     4  10  19  34  59  87 112 145 191 238 283 340
#     4  10  22  39  60  84 118 156 192 237 289 346
#     4   9  18  35  58  81 109 147 187 228 282 337
#     4  10  19  36  58  83 112 146 188 236 285 333
#     4  10  20  37  60  84 112 150 191 237 292 345
#     4  11  23  39  60  85 117 155 193 237 287 345
#
# _framework density 18.999635999999999
#
# number of rings (size 3 to 8) (size 9 to 14) (size 15 to 20)
#    0.000    2.000    3.333    0.500    0.000    2.667 
#    0.000    7.500    0.000    0.000    0.000    0.000 
#    0.000    0.000    0.000    0.000    0.000    0.000 
#
# Total GULP energy -595147.417882 kJ/mol
# GULP energy per Si atom -12398.904539 kJ/mol
# Density = 1.895639 g / cm^3
# Si number density = 18.999636 Si / 1000 Ang^3
#
#
#
# Elastic Constant Matrix: (Units=GPa)
#
#
# Indices 1 2 3 4 5 6 
#
# 1 140.4208 30.5916 66.2456 0.0000 0.0000 0.0000
# 2 30.5916 30.0520 31.1247 0.0000 0.0000 0.0000
# 3 66.2456 31.1247 153.8639 0.0000 0.0000 0.0000
# 4 0.0000 0.0000 0.0000 33.3046 0.0000 0.0000
# 5 0.0000 0.0000 0.0000 0.0000 40.2643 0.0000
# 6 0.0000 0.0000 0.0000 0.0000 0.0000 28.0515
#
#
#
# Elastic Compliance Matrix: (Units=1/GPa)
#
#
# Indices 1 2 3 4 5 6 
#
# 1 0.010054 -0.007276 -0.002857 0.000000 0.000000 0.000000
# 2 -0.007276 0.047360 -0.006448 0.000000 0.000000 0.000000
# 3 -0.002857 -0.006448 0.009034 0.000000 0.000000 0.000000
# 4 0.000000 0.000000 0.000000 0.030026 0.000000 0.000000
# 5 0.000000 0.000000 0.000000 0.000000 0.024836 0.000000
# 6 0.000000 0.000000 0.000000 0.000000 0.000000 0.035649
#
#
# Mechanical properties :
#
#
# Convention : Reuss Voigt Hill
#
# Bulk Modulus (GPa) = 30.04195 64.47337 47.25766
# Shear Modulus (GPa) = 24.84896 33.41574 29.13235
#
# Velocity S-wave (km/s) = 3.62037 4.19830 3.92000
# Velocity P-wave (km/s) = 5.77254 7.58345 6.73910
#
# Compressibility (1/GPa) = 0.03328679
#
# Stress axis : x y z
#
# Youngs Moduli (GPa) = 99.45875 21.11480 110.69718
#
# Poissons Ratio (x) = 0.15363 0.31627
# Poissons Ratio (y) = 0.72365 0.71375
# Poissons Ratio (z) = 0.28416 0.13614
#
# Static dielectric constant tensor:
#      x y z
#    x 3.619140 0.000000 0.000000 
#    y 0.000000 3.153000 0.000000 
#    z 0.000000 0.000000 4.068360 
# 
# 
# High freq. dielectric constant tensor:
#      x y z
#    x 1.740130 0.000000 0.000000 
#    y 0.000000 1.712790 0.000000 
#    z 0.000000 0.000000 1.757530 
# 
# From -- ./inp_files/19573.got.cif
#   From: 2010.03.12/outbox.cif.g09.slc.cpg/sg62_10_cif.got.tgz:19573.got - 2010.04.10 19:12:36.
