data_PCOD8251134
_publ_section_title
;
Structure prediction by ZEFSAII (Michael W. Deem and Ramdas Pophale) SiO2 
 PCOD8251134
Probable space group: P N M A
;
_chemical_formula_sum "Si O2"
_cell_formula_units_Z 64
_cell_length_a 18.945685
_cell_length_b 8.917392
_cell_length_c 23.105070
_cell_angle_alpha 90.000000
_cell_angle_beta 90.000000
_cell_angle_gamma 90.000000
_cell_volume 3903.511463
_symmetry_space_group_name_H-M "P N M A"
_symmetry_group_IT_number 62
_symmetry_cell_setting 'orthorhombic'
loop_
_space_group_symop_operation_xyz
x,y,z
1/2-x,-y,1/2+z
1/2+x,1/2-y,1/2-z
-x,1/2+y,-z
-x,-y,-z
1/2+x,y,1/2-z
1/2-x,1/2+y,1/2+z
x,1/2-y,z
loop_
_atom_site_type_symbol
_atom_site_label
_atom_site_fract_x
_atom_site_fract_y
_atom_site_fract_z
Si Si1 0.493944 0.426007 0.375990
Si Si2 0.728566 0.925346 0.657230
Si Si3 0.500995 0.923769 0.251731
Si Si4 0.712117 0.923576 0.332152
Si Si5 0.636457 0.074148 0.227019
Si Si6 0.344358 0.921330 0.239311
Si Si7 0.641491 0.423417 0.433009
Si Si8 0.640109 0.426169 0.566033
O O1 0.485189 0.250000 0.365041
O O2 0.500879 0.507958 0.315341
O O3 0.562217 0.463919 0.414303
O O4 0.427004 0.485629 0.410518
O O5 0.720500 0.750000 0.644529
O O6 0.808179 0.967282 0.676514
O O7 0.674531 0.968727 0.708167
O O8 0.710017 0.019298 0.599984
O O9 0.519317 0.750000 0.256770
O O10 0.425262 0.950642 0.221060
O O11 0.560537 0.002582 0.212016
O O12 0.692496 0.750000 0.328051
O O13 0.794084 0.952748 0.315680
O O14 0.661343 0.011474 0.288604
O O15 0.698729 0.982487 0.396680
O O16 0.628118 0.250000 0.234095
O O17 0.334649 0.750000 0.261291
O O18 0.657839 0.250000 0.422375
O O19 0.651545 0.468315 0.499466
O O20 0.627984 0.250000 0.575037
#
# Coordination Sequence:
#
# PCOD8251134 Si02
#       8
#     8   8   8   8   8   8   8   8
#     4  11  21  33  48  69 100 135 171 205 238 283
#     4  10  20  33  50  71  95 128 165 205 248 288
#     4  11  20  31  50  75 101 133 165 198 244 293
#     4  10  19  32  51  72  94 127 165 202 244 289
#     4  10  20  33  49  71 100 128 161 203 247 295
#     4   9  19  33  49  71  99 126 159 202 245 293
#     4  10  22  36  49  68  98 134 168 206 245 286
#     4  11  22  35  50  69  97 133 171 207 244 287
#
# _framework density 16.395495
#
# number of rings (size 3 to 8) (size 9 to 14) (size 15 to 20)
#    0.000    1.750    2.500    2.625    0.000    4.000 
#    0.000    0.000    0.000    0.000    0.000    0.875 
#    0.000    0.000    0.000    0.000    0.000    0.000 
#
# Total GULP energy -793725.279905 kJ/mol
# GULP energy per Si atom -12401.957499 kJ/mol
# Density = 1.635818 g / cm^3
# Si number density = 16.395495 Si / 1000 Ang^3
#
#
#
# Elastic Constant Matrix: (Units=GPa)
#
#
# Indices 1 2 3 4 5 6 
#
# 1 119.5133 48.0146 48.7364 0.0000 0.0000 0.0000
# 2 48.0146 70.9856 32.3545 0.0000 0.0000 0.0000
# 3 48.7364 32.3545 71.7898 0.0000 0.0000 0.0000
# 4 0.0000 0.0000 0.0000 25.0182 0.0000 0.0000
# 5 0.0000 0.0000 0.0000 0.0000 22.7473 0.0000
# 6 0.0000 0.0000 0.0000 0.0000 0.0000 27.9160
#
#
#
# Elastic Compliance Matrix: (Units=1/GPa)
#
#
# Indices 1 2 3 4 5 6 
#
# 1 0.013442 -0.006208 -0.006327 0.000000 0.000000 0.000000
# 2 -0.006208 0.020596 -0.005068 0.000000 0.000000 0.000000
# 3 -0.006327 -0.005068 0.020509 0.000000 0.000000 0.000000
# 4 0.000000 0.000000 0.000000 0.039971 0.000000 0.000000
# 5 0.000000 0.000000 0.000000 0.000000 0.043961 0.000000
# 6 0.000000 0.000000 0.000000 0.000000 0.000000 0.035822
#
#
# Mechanical properties :
#
#
# Convention : Reuss Voigt Hill
#
# Bulk Modulus (GPa) = 51.70515 57.83330 54.76923
# Shear Modulus (GPa) = 23.15305 24.01518 23.58411
#
# Velocity S-wave (km/s) = 3.76195 3.83135 3.79681
# Velocity P-wave (km/s) = 7.10453 7.41099 7.25938
#
# Compressibility (1/GPa) = 0.01934043
#
# Stress axis : x y z
#
# Youngs Moduli (GPa) = 74.39636 48.55228 48.75878
#
# Poissons Ratio (x) = 0.30141 0.30851
# Poissons Ratio (y) = 0.46184 0.24711
# Poissons Ratio (z) = 0.47073 0.24607
#
# Static dielectric constant tensor:
#      x y z
#    x 3.418880 0.000000 0.000000 
#    y 0.000000 3.246660 0.000000 
#    z 0.000000 0.000000 2.989320 
# 
# 
# High freq. dielectric constant tensor:
#      x y z
#    x 1.631450 0.000000 0.000000 
#    y 0.000000 1.648060 0.000000 
#    z 0.000000 0.000000 1.598460 
# 
# From -- ./inp_files/27645.got.cif
#   From: 2010.03.12/outbox.cif.g09.slc.cpg/sg62_14_cif.got.tgz:27645.got - 2010.04.10 19:12:36.
