data_PCOD8251670
_publ_section_title
;
Structure prediction by ZEFSAII (Michael W. Deem and Ramdas Pophale) SiO2 
 PCOD8251670
Probable space group: P N M A
;
_chemical_formula_sum "Si O2"
_cell_formula_units_Z 64
_cell_length_a 23.761554
_cell_length_b 13.709108
_cell_length_c 9.856306
_cell_angle_alpha 90.000000
_cell_angle_beta 90.000000
_cell_angle_gamma 90.000000
_cell_volume 3210.688822
_symmetry_space_group_name_H-M "P N M A"
_symmetry_group_IT_number 62
_symmetry_cell_setting 'orthorhombic'
loop_
_space_group_symop_operation_xyz
x,y,z
1/2-x,-y,1/2+z
1/2+x,1/2-y,1/2-z
-x,1/2+y,-z
-x,-y,-z
1/2+x,y,1/2-z
1/2-x,1/2+y,1/2+z
x,1/2-y,z
loop_
_atom_site_type_symbol
_atom_site_label
_atom_site_fract_x
_atom_site_fract_y
_atom_site_fract_z
Si Si1 0.296565 0.637231 0.173881
Si Si2 0.529132 0.363340 0.170048
Si Si3 0.350379 0.635766 0.460783
Si Si4 0.475672 0.864864 0.520857
Si Si5 0.860614 0.961142 0.557240
Si Si6 0.185608 0.986623 0.171587
Si Si7 0.425623 0.137890 0.666036
Si Si8 0.573500 0.639857 0.022091
O O1 0.279640 0.750000 0.169880
O O2 0.326783 0.609968 0.313504
O O3 0.241524 0.574437 0.148459
O O4 0.340432 0.614681 0.054570
O O5 0.544627 0.250000 0.160580
O O6 0.513948 0.393829 0.323123
O O7 0.582709 0.424129 0.126500
O O8 0.477965 0.391071 0.072697
O O9 0.345142 0.750000 0.495085
O O10 0.414789 0.599231 0.469564
O O11 0.313160 0.578253 0.570476
O O12 0.478625 0.750000 0.499560
O O13 0.525629 0.910787 0.428514
O O14 0.814091 0.973437 0.674497
O O15 0.874188 0.067586 0.492111
O O16 0.132014 0.919031 0.141929
O O17 0.414585 0.250000 0.625218
O O18 0.446109 0.130539 0.821624
O O19 0.593686 0.750000 0.989492
#
# Coordination Sequence:
#
# PCOD8251670 Si02
#       8
#     8   8   8   8   8   8   8   8
#     4  11  25  42  63  87 115 153 200 253 296 344
#     4  10  19  34  56  85 122 156 193 243 296 353
#     4  10  22  40  60  87 120 153 193 243 295 351
#     4   9  18  34  56  85 118 153 192 237 295 353
#     4  11  22  38  60  87 118 155 202 244 295 349
#     4  11  22  41  61  86 117 156 201 243 296 353
#     4   9  19  35  58  86 120 158 196 241 294 355
#     4   9  20  36  56  85 121 158 194 237 295 356
#
# _framework density 19.933416999999999
#
# number of rings (size 3 to 8) (size 9 to 14) (size 15 to 20)
#    0.000    2.000    1.250    1.875    1.750    2.500 
#    0.000    0.625    0.000    0.750    0.000    0.000 
#    0.000    0.000    0.000    0.000    0.000    0.000 
#
# Total GULP energy -793775.881264 kJ/mol
# GULP energy per Si atom -12402.748145 kJ/mol
# Density = 1.988805 g / cm^3
# Si number density = 19.933417 Si / 1000 Ang^3
#
#
#
# Elastic Constant Matrix: (Units=GPa)
#
#
# Indices 1 2 3 4 5 6 
#
# 1 48.2942 14.8520 32.3998 0.0000 0.0000 0.0000
# 2 14.8520 57.6967 32.2307 0.0000 0.0000 0.0000
# 3 32.3998 32.2307 84.9333 0.0000 0.0000 0.0000
# 4 0.0000 0.0000 0.0000 30.9910 0.0000 0.0000
# 5 0.0000 0.0000 0.0000 0.0000 25.8875 0.0000
# 6 0.0000 0.0000 0.0000 0.0000 0.0000 30.6587
#
#
#
# Elastic Compliance Matrix: (Units=1/GPa)
#
#
# Indices 1 2 3 4 5 6 
#
# 1 0.027940 -0.001571 -0.010062 0.000000 0.000000 0.000000
# 2 -0.001571 0.022083 -0.007781 0.000000 0.000000 0.000000
# 3 -0.010062 -0.007781 0.018565 0.000000 0.000000 0.000000
# 4 0.000000 0.000000 0.000000 0.032267 0.000000 0.000000
# 5 0.000000 0.000000 0.000000 0.000000 0.038629 0.000000
# 6 0.000000 0.000000 0.000000 0.000000 0.000000 0.032617
#
#
# Mechanical properties :
#
#
# Convention : Reuss Voigt Hill
#
# Bulk Modulus (GPa) = 33.60224 38.87656 36.23940
# Shear Modulus (GPa) = 22.63982 24.93688 23.78835
#
# Velocity S-wave (km/s) = 3.37378 3.54080 3.45830
# Velocity P-wave (km/s) = 5.66307 6.02178 5.84518
#
# Compressibility (1/GPa) = 0.02975992
#
# Stress axis : x y z
#
# Youngs Moduli (GPa) = 35.79070 45.28375 53.86464
#
# Poissons Ratio (x) = 0.07115 0.54200
# Poissons Ratio (y) = 0.05624 0.41911
# Poissons Ratio (z) = 0.36013 0.35234
#
# Static dielectric constant tensor:
#      x y z
#    x 3.526260 0.000000 0.000000 
#    y 0.000000 3.851320 0.000000 
#    z 0.000000 0.000000 3.736980 
# 
# 
# High freq. dielectric constant tensor:
#      x y z
#    x 1.762420 0.000000 0.000000 
#    y 0.000000 1.793880 0.000000 
#    z 0.000000 0.000000 1.781430 
# 
# From -- ./inp_files/9481.got.cif
#   From: 2010.03.12/outbox.cif.g09.slc.cpg/sg62_5_cif.got.tgz:9481.got - 2010.04.10 19:12:36.
