data_PCOD8251317
_publ_section_title
;
Structure prediction by ZEFSAII (Michael W. Deem and Ramdas Pophale) SiO2 
 PCOD8251317
Probable space group: P N M A
;
_chemical_formula_sum "Si O2"
_cell_formula_units_Z 48
_cell_length_a 14.775674
_cell_length_b 19.363523
_cell_length_c 8.989888
_cell_angle_alpha 90.000000
_cell_angle_beta 90.000000
_cell_angle_gamma 90.000000
_cell_volume 2572.088795
_symmetry_space_group_name_H-M "P N M A"
_symmetry_group_IT_number 62
_symmetry_cell_setting 'orthorhombic'
loop_
_space_group_symop_operation_xyz
x,y,z
1/2-x,-y,1/2+z
1/2+x,1/2-y,1/2-z
-x,1/2+y,-z
-x,-y,-z
1/2+x,y,1/2-z
1/2-x,1/2+y,1/2+z
x,1/2-y,z
loop_
_atom_site_type_symbol
_atom_site_label
_atom_site_fract_x
_atom_site_fract_y
_atom_site_fract_z
Si Si1 0.289088 0.046511 0.378527
Si Si2 0.057819 0.928693 0.365317
Si Si3 0.592346 0.414577 0.084084
Si Si4 0.104294 0.331158 0.127750
Si Si5 0.234345 0.580944 0.546286
Si Si6 0.035400 0.577189 0.028372
O O1 0.199360 0.081791 0.448528
O O2 0.287672 0.041326 0.200171
O O3 0.375906 0.090165 0.427962
O O4 0.295719 0.969039 0.444014
O O5 0.142320 0.899444 0.460605
O O6 0.064136 0.905343 0.196235
O O7 0.965455 0.897684 0.436427
O O8 0.056817 0.011668 0.357752
O O9 0.575337 0.357108 0.208918
O O10 0.093788 0.250000 0.120776
O O11 0.207710 0.351175 0.086087
O O12 0.038386 0.365810 0.009541
O O13 0.000000 0.500000 0.000000
#
# Coordination Sequence:
#
# PCOD8251317 Si02
#       6
#     8   8   8   8   8   8
#     4  10  19  32  57  85 118 147 204 251 298 332
#     4  10  20  34  62  88 116 146 204 259 298 338
#     4   9  19  36  57  88 115 154 198 251 295 352
#     4  11  23  40  58  85 124 163 195 243 315 371
#     4  10  20  35  58  88 115 156 198 256 298 357
#     4  12  21  35  58  91 122 157 200 252 300 360
#
# _framework density 18.661874000000001
#
# number of rings (size 3 to 8) (size 9 to 14) (size 15 to 20)
#    0.000    1.667    3.333    3.000    4.667    1.333 
#    0.000    9.167    0.000    0.000    0.000    0.000 
#    0.000    0.000    0.000    0.000    0.000    0.000 
#
# Total GULP energy -595155.759311 kJ/mol
# GULP energy per Si atom -12399.078319 kJ/mol
# Density = 1.861940 g / cm^3
# Si number density = 18.661874 Si / 1000 Ang^3
#
#
#
# Elastic Constant Matrix: (Units=GPa)
#
#
# Indices 1 2 3 4 5 6 
#
# 1 110.2953 38.0777 54.7475 0.0000 0.0000 0.0000
# 2 38.0777 100.0398 45.0351 0.0000 0.0000 0.0000
# 3 54.7475 45.0351 122.1194 0.0000 0.0000 0.0000
# 4 0.0000 0.0000 0.0000 19.3698 0.0000 0.0000
# 5 0.0000 0.0000 0.0000 0.0000 36.5501 0.0000
# 6 0.0000 0.0000 0.0000 0.0000 0.0000 17.4417
#
#
#
# Elastic Compliance Matrix: (Units=1/GPa)
#
#
# Indices 1 2 3 4 5 6 
#
# 1 0.012208 -0.002617 -0.004508 0.000000 0.000000 0.000000
# 2 -0.002617 0.012547 -0.003454 0.000000 0.000000 0.000000
# 3 -0.004508 -0.003454 0.011483 0.000000 0.000000 0.000000
# 4 0.000000 0.000000 0.000000 0.051627 0.000000 0.000000
# 5 0.000000 0.000000 0.000000 0.000000 0.027360 0.000000
# 6 0.000000 0.000000 0.000000 0.000000 0.000000 0.057334
#
#
# Mechanical properties :
#
#
# Convention : Reuss Voigt Hill
#
# Bulk Modulus (GPa) = 66.31064 67.57500 66.94282
# Shear Modulus (GPa) = 25.15823 27.64526 26.40174
#
# Velocity S-wave (km/s) = 3.67564 3.85304 3.76539
# Velocity P-wave (km/s) = 7.32282 7.48888 7.40631
#
# Compressibility (1/GPa) = 0.01508054
#
# Stress axis : x y z
#
# Youngs Moduli (GPa) = 81.91614 79.70026 87.08398
#
# Poissons Ratio (x) = 0.20860 0.39254
# Poissons Ratio (y) = 0.21440 0.30076
# Poissons Ratio (z) = 0.36924 0.27526
#
# Static dielectric constant tensor:
#      x y z
#    x 3.699990 0.000000 0.000000 
#    y 0.000000 2.915250 0.000000 
#    z 0.000000 0.000000 3.572480 
# 
# 
# High freq. dielectric constant tensor:
#      x y z
#    x 1.744630 0.000000 0.000000 
#    y 0.000000 1.659920 0.000000 
#    z 0.000000 0.000000 1.736130 
# 
# From -- ./inp_files/6426.got.cif
#   From: 2010.03.12/outbox.cif.g09.slc.cpg/sg62_4_cif.got.tgz:6426.got - 2010.04.10 19:12:36.
