data_PCOD8251918
_publ_section_title
;
Structure prediction by ZEFSAII (Michael W. Deem and Ramdas Pophale) SiO2 
 PCOD8251918
Probable space group: P N M A
;
_chemical_formula_sum "Si O2"
_cell_formula_units_Z 24
_cell_length_a 15.679884
_cell_length_b 5.163963
_cell_length_c 13.198729
_cell_angle_alpha 90.000000
_cell_angle_beta 90.000000
_cell_angle_gamma 90.000000
_cell_volume 1068.705586
_symmetry_space_group_name_H-M "P N M A"
_symmetry_group_IT_number 62
_symmetry_cell_setting 'orthorhombic'
loop_
_space_group_symop_operation_xyz
x,y,z
1/2-x,-y,1/2+z
1/2+x,1/2-y,1/2-z
-x,1/2+y,-z
-x,-y,-z
1/2+x,y,1/2-z
1/2-x,1/2+y,1/2+z
x,1/2-y,z
loop_
_atom_site_type_symbol
_atom_site_label
_atom_site_fract_x
_atom_site_fract_y
_atom_site_fract_z
Si Si1 0.234275 0.250000 0.673981
Si Si2 0.349802 0.250000 0.095014
Si Si3 0.996649 0.750000 0.870511
Si Si4 0.851326 0.250000 0.629173
Si Si5 0.399842 0.250000 0.557523
Si Si6 0.531783 0.250000 0.148025
O O1 0.175941 0.501540 0.661092
O O2 0.279029 0.250000 0.784021
O O3 0.300381 0.250000 0.580718
O O4 0.452080 0.250000 0.070544
O O5 0.307256 0.250000 0.982417
O O6 0.940175 0.500934 0.892478
O O7 0.020391 0.750000 0.753609
O O8 0.083379 0.750000 0.936646
O O9 0.909116 0.502164 0.638933
#
# Coordination Sequence:
#
# PCOD8251918 Si02
#       6
#     4   4   4   4   4   4
#     4  12  24  45  66  98 139 179 214 281 352 392
#     4  12  28  42  68 103 134 173 230 279 335 400
#     4  10  19  35  63  94 120 169 217 268 312 378
#     4  12  25  46  72  93 135 183 223 274 339 402
#     4  10  20  36  60  94 129 163 217 262 322 391
#     4  12  22  44  69  98 131 181 229 276 322 407
#
# _framework density 22.457073000000001
#
# number of rings (size 3 to 8) (size 9 to 14) (size 15 to 20)
#    0.000    0.667    3.333    5.000    0.000    2.667 
#    0.000    0.000    0.000    0.000    0.000    0.000 
#    0.000    0.000    0.000    0.000    0.000    0.000 
#
# Total GULP energy -297606.591838 kJ/mol
# GULP energy per Si atom -12400.274660 kJ/mol
# Density = 2.240596 g / cm^3
# Si number density = 22.457073 Si / 1000 Ang^3
#
#
#
# Elastic Constant Matrix: (Units=GPa)
#
#
# Indices 1 2 3 4 5 6 
#
# 1 84.7381 51.9560 23.0757 0.0000 0.0000 0.0000
# 2 51.9560 207.6417 37.2847 0.0000 0.0000 0.0000
# 3 23.0757 37.2847 121.5285 0.0000 0.0000 0.0000
# 4 0.0000 0.0000 0.0000 18.8526 0.0000 0.0000
# 5 0.0000 0.0000 0.0000 0.0000 40.0016 0.0000
# 6 0.0000 0.0000 0.0000 0.0000 0.0000 41.3859
#
#
#
# Elastic Compliance Matrix: (Units=1/GPa)
#
#
# Indices 1 2 3 4 5 6 
#
# 1 0.014267 -0.003263 -0.001708 0.000000 0.000000 0.000000
# 2 -0.003263 0.005843 -0.001173 0.000000 0.000000 0.000000
# 3 -0.001708 -0.001173 0.008913 0.000000 0.000000 0.000000
# 4 0.000000 0.000000 0.000000 0.053043 0.000000 0.000000
# 5 0.000000 0.000000 0.000000 0.000000 0.024999 0.000000
# 6 0.000000 0.000000 0.000000 0.000000 0.000000 0.024163
#
#
# Mechanical properties :
#
#
# Convention : Reuss Voigt Hill
#
# Bulk Modulus (GPa) = 59.75652 70.94900 65.35276
# Shear Modulus (GPa) = 33.53588 40.15415 36.84502
#
# Velocity S-wave (km/s) = 3.86856 4.23311 4.05493
# Velocity P-wave (km/s) = 6.82798 7.45346 7.14756
#
# Compressibility (1/GPa) = 0.01673458
#
# Stress axis : x y z
#
# Youngs Moduli (GPa) = 70.09219 171.14088 112.19949
#
# Poissons Ratio (x) = 0.55847 0.19162
# Poissons Ratio (y) = 0.22872 0.13162
# Poissons Ratio (z) = 0.11971 0.20076
#
# Static dielectric constant tensor:
#      x y z
#    x 3.825030 0.000000 0.000000 
#    y 0.000000 4.213310 0.000000 
#    z 0.000000 0.000000 4.420530 
# 
# 
# High freq. dielectric constant tensor:
#      x y z
#    x 1.870110 0.000000 0.000000 
#    y 0.000000 1.911620 0.000000 
#    z 0.000000 0.000000 1.897240 
# 
# From -- ./inp_files/12644.got.cif
#   From: 2010.03.12/outbox.cif.g09.slc.cpg/sg62_7_cif.got.tgz:12644.got - 2010.04.10 19:12:36.
