data_PCOD8251288
_publ_section_title
;
Structure prediction by ZEFSAII (Michael W. Deem and Ramdas Pophale) SiO2 
 PCOD8251288
Probable space group: P N M A
;
_chemical_formula_sum "Si O2"
_cell_formula_units_Z 56
_cell_length_a 14.511747
_cell_length_b 9.037985
_cell_length_c 21.403393
_cell_angle_alpha 90.000000
_cell_angle_beta 90.000000
_cell_angle_gamma 90.000000
_cell_volume 2807.203782
_symmetry_space_group_name_H-M "P N M A"
_symmetry_group_IT_number 62
_symmetry_cell_setting 'orthorhombic'
loop_
_space_group_symop_operation_xyz
x,y,z
1/2-x,-y,1/2+z
1/2+x,1/2-y,1/2-z
-x,1/2+y,-z
-x,-y,-z
1/2+x,y,1/2-z
1/2-x,1/2+y,1/2+z
x,1/2-y,z
loop_
_atom_site_type_symbol
_atom_site_label
_atom_site_fract_x
_atom_site_fract_y
_atom_site_fract_z
Si Si1 0.690254 0.425278 0.886164
Si Si2 0.678696 0.576579 0.273891
Si Si3 0.530891 0.415284 0.345879
Si Si4 0.330392 0.582231 0.853970
Si Si5 0.508390 0.926507 0.932031
Si Si6 0.640150 0.918157 0.582286
Si Si7 0.338415 0.582985 0.538498
O O1 0.673562 0.250000 0.889527
O O2 0.739958 0.474586 0.821296
O O3 0.594416 0.511033 0.892885
O O4 0.754995 0.473863 0.943410
O O5 0.676382 0.750000 0.270434
O O6 0.578090 0.524107 0.296702
O O7 0.695699 0.515095 0.205491
O O8 0.537980 0.250000 0.317889
O O9 0.424571 0.460809 0.358309
O O10 0.579979 0.425702 0.412388
O O11 0.343687 0.750000 0.831068
O O12 0.420202 0.526876 0.890904
O O13 0.246540 0.566213 0.901301
O O14 0.515786 0.750000 0.940059
O O15 0.500000 0.000000 0.000000
O O16 0.616066 0.750000 0.562209
O O17 0.618373 0.029429 0.526335
O O18 0.300050 0.750000 0.532523
#
# Coordination Sequence:
#
# PCOD8251288 Si02
#       7
#     8   8   8   8   8   8   8
#     4  10  21  38  59  83 113 150 190 236 286 338
#     4  10  22  39  59  82 109 144 188 236 285 333
#     4   9  19  35  56  82 113 147 182 220 271 334
#     4  10  23  40  57  79 111 148 186 230 282 339
#     4  11  23  39  61  89 118 154 196 240 292 347
#     4  10  20  35  55  80 111 147 181 220 273 330
#     4  10  19  32  54  85 116 146 181 224 272 329
#
# _framework density 19.948675999999999
#
# number of rings (size 3 to 8) (size 9 to 14) (size 15 to 20)
#    0.000    2.000    0.000    3.000    0.000    6.857 
#    0.000    4.286    0.000    0.000    0.000    0.000 
#    0.000    0.000    0.000    0.000    0.000    0.000 
#
# Total GULP energy -694473.745117 kJ/mol
# GULP energy per Si atom -12401.316877 kJ/mol
# Density = 1.990327 g / cm^3
# Si number density = 19.948676 Si / 1000 Ang^3
#
#
#
# Elastic Constant Matrix: (Units=GPa)
#
#
# Indices 1 2 3 4 5 6 
#
# 1 103.2337 29.7823 13.4398 0.0000 0.0000 0.0000
# 2 29.7823 77.1263 38.5678 0.0000 0.0000 0.0000
# 3 13.4398 38.5678 80.2900 0.0000 0.0000 0.0000
# 4 0.0000 0.0000 0.0000 37.0657 0.0000 0.0000
# 5 0.0000 0.0000 0.0000 0.0000 19.1789 0.0000
# 6 0.0000 0.0000 0.0000 0.0000 0.0000 29.7915
#
#
#
# Elastic Compliance Matrix: (Units=1/GPa)
#
#
# Indices 1 2 3 4 5 6 
#
# 1 0.010905 -0.004341 0.000260 0.000000 0.000000 0.000000
# 2 -0.004341 0.018793 -0.008301 0.000000 0.000000 0.000000
# 3 0.000260 -0.008301 0.016399 0.000000 0.000000 0.000000
# 4 0.000000 0.000000 0.000000 0.026979 0.000000 0.000000
# 5 0.000000 0.000000 0.000000 0.000000 0.052141 0.000000
# 6 0.000000 0.000000 0.000000 0.000000 0.000000 0.033567
#
#
# Mechanical properties :
#
#
# Convention : Reuss Voigt Hill
#
# Bulk Modulus (GPa) = 46.87555 47.13667 47.00611
# Shear Modulus (GPa) = 26.22500 29.13122 27.67811
#
# Velocity S-wave (km/s) = 3.62971 3.82554 3.72891
# Velocity P-wave (km/s) = 6.41213 6.57216 6.49264
#
# Compressibility (1/GPa) = 0.02133308
#
# Stress axis : x y z
#
# Youngs Moduli (GPa) = 91.69865 53.21176 60.98070
#
# Poissons Ratio (x) = 0.23099 -0.01584
# Poissons Ratio (y) = 0.39806 0.50618
# Poissons Ratio (z) = -0.02382 0.44169
#
# Static dielectric constant tensor:
#      x y z
#    x 3.762350 0.000000 0.000000 
#    y 0.000000 3.657680 0.000000 
#    z 0.000000 0.000000 3.474480 
# 
# 
# High freq. dielectric constant tensor:
#      x y z
#    x 1.786000 0.000000 0.000000 
#    y 0.000000 1.779560 0.000000 
#    z 0.000000 0.000000 1.770220 
# 
# From -- ./inp_files/27305.got.cif
#   From: 2010.03.12/outbox.cif.g09.slc.cpg/sg62_14_cif.got.tgz:27305.got - 2010.04.10 19:12:36.
