data_PCOD8251358
_publ_section_title
;
Structure prediction by ZEFSAII (Michael W. Deem and Ramdas Pophale) SiO2 
 PCOD8251358
Probable space group: P N M A
;
_chemical_formula_sum "Si O2"
_cell_formula_units_Z 64
_cell_length_a 12.125435
_cell_length_b 8.774206
_cell_length_c 29.422986
_cell_angle_alpha 90.000000
_cell_angle_beta 90.000000
_cell_angle_gamma 90.000000
_cell_volume 3130.342802
_symmetry_space_group_name_H-M "P N M A"
_symmetry_group_IT_number 62
_symmetry_cell_setting 'orthorhombic'
loop_
_space_group_symop_operation_xyz
x,y,z
1/2-x,-y,1/2+z
1/2+x,1/2-y,1/2-z
-x,1/2+y,-z
-x,-y,-z
1/2+x,y,1/2-z
1/2-x,1/2+y,1/2+z
x,1/2-y,z
loop_
_atom_site_type_symbol
_atom_site_label
_atom_site_fract_x
_atom_site_fract_y
_atom_site_fract_z
Si Si1 0.746009 0.430538 0.971962
Si Si2 0.460040 0.929665 0.278880
Si Si3 0.486227 0.429442 0.820637
Si Si4 0.469647 0.575502 0.562632
Si Si5 0.374813 0.578081 0.658431
Si Si6 0.739248 0.429847 0.661056
Si Si7 0.651729 0.930239 0.887033
Si Si8 0.801224 0.569822 0.059705
O O1 0.748628 0.250000 0.970684
O O2 0.863190 0.500176 0.958993
O O3 0.654292 0.491133 0.936595
O O4 0.719493 0.490282 0.023028
O O5 0.456696 0.750000 0.280706
O O6 0.457862 0.983302 0.226494
O O7 0.355039 0.000349 0.305789
O O8 0.576119 0.979244 0.300735
O O9 0.501280 0.250000 0.829231
O O10 0.357744 0.474637 0.818924
O O11 0.540630 0.520697 0.861972
O O12 0.480507 0.750000 0.545806
O O13 0.460775 0.569276 0.617025
O O14 0.574320 0.478018 0.547074
O O15 0.360937 0.750000 0.675907
O O16 0.256108 0.512480 0.642914
O O17 0.722445 0.250000 0.659374
O O18 0.728517 0.493517 0.609767
O O19 0.658028 0.750000 0.894256
O O20 0.787309 0.750000 0.056391
#
# Coordination Sequence:
#
# PCOD8251358 Si02
#       8
#     8   8   8   8   8   8   8   8
#     4  11  22  36  57  85 116 152 200 245 300 361
#     4  10  20  35  60  89 117 151 194 241 292 350
#     4  10  22  39  62  87 117 154 199 247 293 347
#     4  10  19  33  52  81 120 156 194 241 294 351
#     4   9  19  34  54  81 116 151 186 236 287 342
#     4   9  20  38  57  87 123 154 195 247 294 345
#     4  10  22  41  60  84 119 154 197 245 297 353
#     4  11  20  34  56  81 118 160 200 246 302 355
#
# _framework density 20.445043999999999
#
# number of rings (size 3 to 8) (size 9 to 14) (size 15 to 20)
#    0.000    2.000    1.250    3.375    1.750    3.000 
#    0.000    2.500    0.000    0.000    0.000    0.000 
#    0.000    0.000    0.000    0.000    0.000    0.000 
#
# Total GULP energy -793632.771127 kJ/mol
# GULP energy per Si atom -12400.512049 kJ/mol
# Density = 2.039851 g / cm^3
# Si number density = 20.445044 Si / 1000 Ang^3
#
#
#
# Elastic Constant Matrix: (Units=GPa)
#
#
# Indices 1 2 3 4 5 6 
#
# 1 58.4661 4.8607 31.5040 0.0000 0.0000 0.0000
# 2 4.8607 46.7445 28.5635 0.0000 0.0000 0.0000
# 3 31.5040 28.5635 122.3985 0.0000 0.0000 0.0000
# 4 0.0000 0.0000 0.0000 28.2683 0.0000 0.0000
# 5 0.0000 0.0000 0.0000 0.0000 16.8645 0.0000
# 6 0.0000 0.0000 0.0000 0.0000 0.0000 22.9812
#
#
#
# Elastic Compliance Matrix: (Units=1/GPa)
#
#
# Indices 1 2 3 4 5 6 
#
# 1 0.019919 0.001238 -0.005416 0.000000 0.000000 0.000000
# 2 0.001238 0.025028 -0.006159 0.000000 0.000000 0.000000
# 3 -0.005416 -0.006159 0.011001 0.000000 0.000000 0.000000
# 4 0.000000 0.000000 0.000000 0.035375 0.000000 0.000000
# 5 0.000000 0.000000 0.000000 0.000000 0.059296 0.000000
# 6 0.000000 0.000000 0.000000 0.000000 0.000000 0.043514
#
#
# Mechanical properties :
#
#
# Convention : Reuss Voigt Hill
#
# Bulk Modulus (GPa) = 28.34919 39.71838 34.03378
# Shear Modulus (GPa) = 22.06862 24.46821 23.26841
#
# Velocity S-wave (km/s) = 3.28900 3.46320 3.37723
# Velocity P-wave (km/s) = 5.32161 5.95489 5.64714
#
# Compressibility (1/GPa) = 0.03527438
#
# Stress axis : x y z
#
# Youngs Moduli (GPa) = 50.20245 39.95556 90.89748
#
# Poissons Ratio (x) = -0.04947 0.49230
# Poissons Ratio (y) = -0.06216 0.55987
# Poissons Ratio (z) = 0.27189 0.24610
#
# Static dielectric constant tensor:
#      x y z
#    x 3.531730 0.000000 0.000000 
#    y 0.000000 3.478940 0.000000 
#    z 0.000000 0.000000 4.099320 
# 
# 
# High freq. dielectric constant tensor:
#      x y z
#    x 1.777520 0.000000 0.000000 
#    y 0.000000 1.782020 0.000000 
#    z 0.000000 0.000000 1.811810 
# 
# From -- ./inp_files/32521.got.cif
#   From: 2010.03.12/outbox.cif.g09.slc.cpg/sg62_17_cif.got.tgz:32521.got - 2010.04.10 19:12:36.
