data_PCOD8251459
_publ_section_title
;
Structure prediction by ZEFSAII (Michael W. Deem and Ramdas Pophale) SiO2 
 PCOD8251459
Probable space group: P N M A
;
_chemical_formula_sum "Si O2"
_cell_formula_units_Z 40
_cell_length_a 13.991457
_cell_length_b 13.041404
_cell_length_c 12.150937
_cell_angle_alpha 90.000000
_cell_angle_beta 90.000000
_cell_angle_gamma 90.000000
_cell_volume 2217.160129
_symmetry_space_group_name_H-M "P N M A"
_symmetry_group_IT_number 62
_symmetry_cell_setting 'orthorhombic'
loop_
_space_group_symop_operation_xyz
x,y,z
1/2-x,-y,1/2+z
1/2+x,1/2-y,1/2-z
-x,1/2+y,-z
-x,-y,-z
1/2+x,y,1/2-z
1/2-x,1/2+y,1/2+z
x,1/2-y,z
loop_
_atom_site_type_symbol
_atom_site_label
_atom_site_fract_x
_atom_site_fract_y
_atom_site_fract_z
Si Si1 0.103022 0.530339 0.041123
Si Si2 0.505545 0.634454 0.273446
Si Si3 0.169005 0.634404 0.380849
Si Si4 0.247528 0.631928 0.613348
Si Si5 0.171902 0.986878 0.811942
O O1 0.086958 0.618701 0.131675
O O2 0.155822 0.432936 0.096290
O O3 0.161088 0.566777 0.932222
O O4 0.000000 0.500000 0.000000
O O5 0.465077 0.750000 0.284084
O O6 0.559301 0.617893 0.156901
O O7 0.420948 0.553386 0.281641
O O8 0.202022 0.750000 0.354212
O O9 0.176080 0.613452 0.511094
O O10 0.237335 0.560951 0.311232
O O11 0.278763 0.750000 0.624284
O O12 0.188879 0.600248 0.721721
#
# Coordination Sequence:
#
# PCOD8251459 Si02
#       5
#     8   8   8   8   8
#     4   9  19  34  54  82 107 141 183 229 271 320
#     4  10  19  33  55  80 105 137 180 227 273 321
#     4   9  18  33  53  76 105 140 178 221 273 322
#     4  10  20  35  54  77 110 148 179 219 275 328
#     4  10  19  33  55  79 108 141 183 224 271 324
#
# _framework density 18.041097000000001
#
# number of rings (size 3 to 8) (size 9 to 14) (size 15 to 20)
#    0.000    2.400    2.000    0.600    0.000    6.400 
#    0.000    3.000    0.000    0.000    0.000    0.000 
#    0.000    0.000    0.000    0.000    0.000    0.000 
#
# Total GULP energy -495743.243485 kJ/mol
# GULP energy per Si atom -12393.581087 kJ/mol
# Density = 1.800003 g / cm^3
# Si number density = 18.041097 Si / 1000 Ang^3
#
#
#
# Elastic Constant Matrix: (Units=GPa)
#
#
# Indices 1 2 3 4 5 6 
#
# 1 59.1693 25.8695 27.6392 0.0000 0.0000 0.0000
# 2 25.8695 61.2053 34.7789 0.0000 0.0000 0.0000
# 3 27.6392 34.7789 87.8524 0.0000 0.0000 0.0000
# 4 0.0000 0.0000 0.0000 28.5862 0.0000 0.0000
# 5 0.0000 0.0000 0.0000 0.0000 27.5328 0.0000
# 6 0.0000 0.0000 0.0000 0.0000 0.0000 24.0318
#
#
#
# Elastic Compliance Matrix: (Units=1/GPa)
#
#
# Indices 1 2 3 4 5 6 
#
# 1 0.021845 -0.006874 -0.004151 0.000000 0.000000 0.000000
# 2 -0.006874 0.023244 -0.007039 0.000000 0.000000 0.000000
# 3 -0.004151 -0.007039 0.015475 0.000000 0.000000 0.000000
# 4 0.000000 0.000000 0.000000 0.034982 0.000000 0.000000
# 5 0.000000 0.000000 0.000000 0.000000 0.036320 0.000000
# 6 0.000000 0.000000 0.000000 0.000000 0.000000 0.041612
#
#
# Mechanical properties :
#
#
# Convention : Reuss Voigt Hill
#
# Bulk Modulus (GPa) = 40.92470 42.75581 41.84026
# Shear Modulus (GPa) = 22.96179 24.02610 23.49395
#
# Velocity S-wave (km/s) = 3.57143 3.65326 3.61258
# Velocity P-wave (km/s) = 6.30399 6.44559 6.37518
#
# Compressibility (1/GPa) = 0.02443512
#
# Stress axis : x y z
#
# Youngs Moduli (GPa) = 45.77619 43.02213 64.61888
#
# Poissons Ratio (x) = 0.29575 0.26825
# Poissons Ratio (y) = 0.31469 0.45485
# Poissons Ratio (z) = 0.19003 0.30283
#
# Static dielectric constant tensor:
#      x y z
#    x 3.219720 0.000000 0.000000 
#    y 0.000000 3.229630 0.000000 
#    z 0.000000 0.000000 3.823320 
# 
# 
# High freq. dielectric constant tensor:
#      x y z
#    x 1.689920 0.000000 0.000000 
#    y 0.000000 1.681970 0.000000 
#    z 0.000000 0.000000 1.709080 
# 
# From -- ./inp_files/12039.got.cif
#   From: 2010.03.12/outbox.cif.g09.slc.cpg/sg62_7_cif.got.tgz:12039.got - 2010.04.10 19:12:36.
