data_PCOD8251244
_publ_section_title
;
Structure prediction by ZEFSAII (Michael W. Deem and Ramdas Pophale) SiO2 
 PCOD8251244
Probable space group: P N M A
;
_chemical_formula_sum "Si O2"
_cell_formula_units_Z 40
_cell_length_a 20.618158
_cell_length_b 8.697377
_cell_length_c 12.488110
_cell_angle_alpha 90.000000
_cell_angle_beta 90.000000
_cell_angle_gamma 90.000000
_cell_volume 2239.416504
_symmetry_space_group_name_H-M "P N M A"
_symmetry_group_IT_number 62
_symmetry_cell_setting 'orthorhombic'
loop_
_space_group_symop_operation_xyz
x,y,z
1/2-x,-y,1/2+z
1/2+x,1/2-y,1/2-z
-x,1/2+y,-z
-x,-y,-z
1/2+x,y,1/2-z
1/2-x,1/2+y,1/2+z
x,1/2-y,z
loop_
_atom_site_type_symbol
_atom_site_label
_atom_site_fract_x
_atom_site_fract_y
_atom_site_fract_z
Si Si1 0.808937 0.072043 0.407963
Si Si2 0.340289 0.931181 0.309069
Si Si3 0.292978 0.928250 0.877111
Si Si4 0.660756 0.075343 0.349908
Si Si5 0.429843 0.430126 0.484872
O O1 0.826141 0.250000 0.419952
O O2 0.733131 0.043060 0.389758
O O3 0.848709 0.004985 0.308154
O O4 0.829808 0.983239 0.515956
O O5 0.344438 0.750000 0.298307
O O6 0.272443 0.974699 0.363787
O O7 0.398558 0.990565 0.381785
O O8 0.272723 0.750000 0.883673
O O9 0.341691 0.955199 0.777668
O O10 0.640436 0.250000 0.377371
O O11 0.612093 0.960502 0.408365
O O12 0.500000 0.500000 0.500000
O O13 0.434492 0.250000 0.464592
#
# Coordination Sequence:
#
# PCOD8251244 Si02
#       5
#     8   8   8   8   8
#     4  10  19  32  53  80 112 143 176 221 272 323
#     4  11  21  34  52  77 110 143 182 223 269 322
#     4  10  19  32  53  80 111 143 176 220 273 323
#     4   9  19  34  51  77 110 141 179 221 267 319
#     4  12  24  38  57  78 107 144 186 226 271 322
#
# _framework density 17.861794
#
# number of rings (size 3 to 8) (size 9 to 14) (size 15 to 20)
#    0.000    1.600    2.000    6.000    0.000    4.000 
#    0.000    0.000    0.000    1.200    0.000    0.000 
#    0.000    0.000    0.000    0.000    0.000    0.000 
#
# Total GULP energy -496129.049227 kJ/mol
# GULP energy per Si atom -12403.226231 kJ/mol
# Density = 1.782114 g / cm^3
# Si number density = 17.861794 Si / 1000 Ang^3
#
#
#
# Elastic Constant Matrix: (Units=GPa)
#
#
# Indices 1 2 3 4 5 6 
#
# 1 55.3158 28.4878 25.4998 0.0000 0.0000 0.0000
# 2 28.4878 101.8421 40.6257 0.0000 0.0000 0.0000
# 3 25.4998 40.6257 142.2137 0.0000 0.0000 0.0000
# 4 0.0000 0.0000 0.0000 36.0401 0.0000 0.0000
# 5 0.0000 0.0000 0.0000 0.0000 18.9653 0.0000
# 6 0.0000 0.0000 0.0000 0.0000 0.0000 25.2126
#
#
#
# Elastic Compliance Matrix: (Units=1/GPa)
#
#
# Indices 1 2 3 4 5 6 
#
# 1 0.021853 -0.005135 -0.002451 0.000000 0.000000 0.000000
# 2 -0.005135 0.012289 -0.002590 0.000000 0.000000 0.000000
# 3 -0.002451 -0.002590 0.008211 0.000000 0.000000 0.000000
# 4 0.000000 0.000000 0.000000 0.027747 0.000000 0.000000
# 5 0.000000 0.000000 0.000000 0.000000 0.052728 0.000000
# 6 0.000000 0.000000 0.000000 0.000000 0.000000 0.039663
#
#
# Mechanical properties :
#
#
# Convention : Reuss Voigt Hill
#
# Bulk Modulus (GPa) = 45.45425 54.28869 49.87147
# Shear Modulus (GPa) = 26.29158 29.69414 27.99286
#
# Velocity S-wave (km/s) = 3.84076 4.08172 3.96307
# Velocity P-wave (km/s) = 6.72098 7.25767 6.99447
#
# Compressibility (1/GPa) = 0.02200014
#
# Stress axis : x y z
#
# Youngs Moduli (GPa) = 45.76124 81.37673 121.78737
#
# Poissons Ratio (x) = 0.41785 0.29856
# Poissons Ratio (y) = 0.23498 0.31540
# Poissons Ratio (z) = 0.11218 0.21074
#
# Static dielectric constant tensor:
#      x y z
#    x 2.911700 0.000000 0.000000 
#    y 0.000000 3.425200 0.000000 
#    z 0.000000 0.000000 3.669930 
# 
# 
# High freq. dielectric constant tensor:
#      x y z
#    x 1.638480 0.000000 0.000000 
#    y 0.000000 1.707890 0.000000 
#    z 0.000000 0.000000 1.711250 
# 
# From -- ./inp_files/13835.got.cif
#   From: 2010.03.12/outbox.cif.g09.slc.cpg/sg62_7_cif.got.tgz:13835.got - 2010.04.10 19:12:36.
