data_PCOD8251429
_publ_section_title
;
Structure prediction by ZEFSAII (Michael W. Deem and Ramdas Pophale) SiO2 
 PCOD8251429
Probable space group: P N M A
;
_chemical_formula_sum "Si O2"
_cell_formula_units_Z 64
_cell_length_a 19.321605
_cell_length_b 8.933180
_cell_length_c 20.524831
_cell_angle_alpha 90.000000
_cell_angle_beta 90.000000
_cell_angle_gamma 90.000000
_cell_volume 3542.655109
_symmetry_space_group_name_H-M "P N M A"
_symmetry_group_IT_number 62
_symmetry_cell_setting 'orthorhombic'
loop_
_space_group_symop_operation_xyz
x,y,z
1/2-x,-y,1/2+z
1/2+x,1/2-y,1/2-z
-x,1/2+y,-z
-x,-y,-z
1/2+x,y,1/2-z
1/2-x,1/2+y,1/2+z
x,1/2-y,z
loop_
_atom_site_type_symbol
_atom_site_label
_atom_site_fract_x
_atom_site_fract_y
_atom_site_fract_z
Si Si1 0.786595 0.925480 0.196577
Si Si2 0.071971 0.421501 0.242691
Si Si3 0.076111 0.578232 0.616244
Si Si4 0.790620 0.422153 0.565921
Si Si5 0.063808 0.577893 0.375326
Si Si6 0.919031 0.080051 0.230376
Si Si7 0.785741 0.922818 0.818344
Si Si8 0.290027 0.573553 0.065434
O O1 0.777340 0.750000 0.209643
O O2 0.750814 0.975224 0.129650
O O3 0.867675 0.968410 0.192737
O O4 0.752650 0.016378 0.255056
O O5 0.068648 0.250000 0.268257
O O6 0.088275 0.526022 0.303967
O O7 0.131652 0.443031 0.189197
O O8 0.997818 0.462683 0.210720
O O9 0.080366 0.750000 0.594316
O O10 0.090225 0.557873 0.692502
O O11 0.133083 0.486896 0.577066
O O12 0.000460 0.517054 0.597695
O O13 0.773491 0.250000 0.550426
O O14 0.872521 0.445161 0.575879
O O15 0.765128 0.522802 0.505963
O O16 0.041366 0.750000 0.370570
O O17 0.901761 0.250000 0.210180
O O18 0.764509 0.750000 0.826497
O O19 0.764065 0.010811 0.882428
O O20 0.290341 0.750000 0.070617
#
# Coordination Sequence:
#
# PCOD8251429 Si02
#       8
#     8   8   8   8   8   8   8   8
#     4  11  21  35  57  85 112 144 185 230 275 328
#     4   9  19  34  55  82 112 146 184 223 275 333
#     4  10  20  35  54  78 112 151 186 225 272 330
#     4  10  23  40  55  77 113 151 186 229 282 331
#     4  10  19  33  54  80 111 148 186 229 272 320
#     4   9  18  33  54  82 112 144 180 224 272 325
#     4  11  21  36  59  83 111 148 184 229 281 331
#     4  12  25  38  56  81 109 146 191 235 279 333
#
# _framework density 18.065546000000001
#
# number of rings (size 3 to 8) (size 9 to 14) (size 15 to 20)
#    0.000    1.750    2.500    3.375    0.000    5.000 
#    0.000    0.000    0.000    0.750    0.000    0.000 
#    0.000    0.000    0.000    0.000    0.000    0.000 
#
# Total GULP energy -793822.773443 kJ/mol
# GULP energy per Si atom -12403.480835 kJ/mol
# Density = 1.802443 g / cm^3
# Si number density = 18.065546 Si / 1000 Ang^3
#
#
#
# Elastic Constant Matrix: (Units=GPa)
#
#
# Indices 1 2 3 4 5 6 
#
# 1 96.4816 45.5890 47.6211 0.0000 0.0000 0.0000
# 2 45.5890 112.3329 52.4260 0.0000 0.0000 0.0000
# 3 47.6211 52.4260 90.5092 0.0000 0.0000 0.0000
# 4 0.0000 0.0000 0.0000 29.1628 0.0000 0.0000
# 5 0.0000 0.0000 0.0000 0.0000 19.9783 0.0000
# 6 0.0000 0.0000 0.0000 0.0000 0.0000 28.8190
#
#
#
# Elastic Compliance Matrix: (Units=1/GPa)
#
#
# Indices 1 2 3 4 5 6 
#
# 1 0.014821 -0.003256 -0.005912 0.000000 0.000000 0.000000
# 2 -0.003256 0.012915 -0.005768 0.000000 0.000000 0.000000
# 3 -0.005912 -0.005768 0.017500 0.000000 0.000000 0.000000
# 4 0.000000 0.000000 0.000000 0.034290 0.000000 0.000000
# 5 0.000000 0.000000 0.000000 0.000000 0.050054 0.000000
# 6 0.000000 0.000000 0.000000 0.000000 0.000000 0.034699
#
#
# Mechanical properties :
#
#
# Convention : Reuss Voigt Hill
#
# Bulk Modulus (GPa) = 65.08365 65.62175 65.35270
# Shear Modulus (GPa) = 25.09102 25.83788 25.46445
#
# Velocity S-wave (km/s) = 3.73082 3.78594 3.75848
# Velocity P-wave (km/s) = 7.39346 7.45079 7.42218
#
# Compressibility (1/GPa) = 0.01536484
#
# Stress axis : x y z
#
# Youngs Moduli (GPa) = 67.47077 77.42715 57.14164
#
# Poissons Ratio (x) = 0.25208 0.33784
# Poissons Ratio (y) = 0.21967 0.32959
# Poissons Ratio (z) = 0.39891 0.44660
#
# Static dielectric constant tensor:
#      x y z
#    x 3.556180 0.000000 0.000000 
#    y 0.000000 3.396890 0.000000 
#    z 0.000000 0.000000 3.122980 
# 
# 
# High freq. dielectric constant tensor:
#      x y z
#    x 1.705000 0.000000 0.000000 
#    y 0.000000 1.708530 0.000000 
#    z 0.000000 0.000000 1.671820 
# 
# From -- ./inp_files/24804.got.cif
#   From: 2010.03.12/outbox.cif.g09.slc.cpg/sg62_13_cif.got.tgz:24804.got - 2010.04.10 19:12:36.
