data_PCOD8251947
_publ_section_title
;
Structure prediction by ZEFSAII (Michael W. Deem and Ramdas Pophale) SiO2 
 PCOD8251947
Probable space group: P N M A
;
_chemical_formula_sum "Si O2"
_cell_formula_units_Z 64
_cell_length_a 30.478998
_cell_length_b 9.276873
_cell_length_c 11.910090
_cell_angle_alpha 90.000000
_cell_angle_beta 90.000000
_cell_angle_gamma 90.000000
_cell_volume 3367.575489
_symmetry_space_group_name_H-M "P N M A"
_symmetry_group_IT_number 62
_symmetry_cell_setting 'orthorhombic'
loop_
_space_group_symop_operation_xyz
x,y,z
1/2-x,-y,1/2+z
1/2+x,1/2-y,1/2-z
-x,1/2+y,-z
-x,-y,-z
1/2+x,y,1/2-z
1/2-x,1/2+y,1/2+z
x,1/2-y,z
loop_
_atom_site_type_symbol
_atom_site_label
_atom_site_fract_x
_atom_site_fract_y
_atom_site_fract_z
Si Si1 0.703043 0.082437 0.711006
Si Si2 0.833123 0.079524 0.011359
Si Si3 0.078827 0.084739 0.990953
Si Si4 0.876097 0.578935 0.365528
Si Si5 0.868203 0.579242 0.619313
Si Si6 0.801827 0.083759 0.766526
Si Si7 0.048524 0.418651 0.236061
Si Si8 0.537381 0.084308 0.741643
O O1 0.695129 0.250000 0.682551
O O2 0.666246 0.023528 0.797161
O O3 0.750001 0.056284 0.767001
O O4 0.701338 0.991340 0.596708
O O5 0.832710 0.250000 0.027452
O O6 0.880915 0.018084 0.038263
O O7 0.819628 0.032996 0.886636
O O8 0.095700 0.250000 0.997546
O O9 0.043592 0.066348 0.892056
O O10 0.056826 0.037124 0.107260
O O11 0.876545 0.750000 0.363750
O O12 0.873694 0.521785 0.492668
O O13 0.920451 0.520798 0.307259
O O14 0.862310 0.750000 0.623934
O O15 0.824601 0.509430 0.670109
O O16 0.910487 0.528966 0.689902
O O17 0.813125 0.250000 0.744058
O O18 0.040571 0.250000 0.249636
O O19 0.005285 0.497629 0.280899
O O20 0.529941 0.250000 0.774293
#
# Coordination Sequence:
#
# PCOD8251947 Si02
#       8
#     8   8   8   8   8   8   8   8
#     4  10  21  40  61  81 115 155 187 226 281 341
#     4  11  22  36  59  90 118 144 187 239 283 327
#     4  10  19  36  58  82 113 152 190 226 284 346
#     4   9  19  37  60  82 108 149 195 230 274 339
#     4  10  21  38  61  83 111 152 194 234 278 338
#     4  10  23  39  58  87 118 149 186 233 285 333
#     4  10  21  35  54  84 115 145 188 236 284 336
#     4  10  20  35  57  81 109 149 191 230 282 342
#
# _framework density 19.004770000000001
#
# number of rings (size 3 to 8) (size 9 to 14) (size 15 to 20)
#    0.000    2.000    2.500    0.750    1.750    3.000 
#    0.000    1.250    0.000    0.000    0.000    0.000 
#    0.000    0.000    0.000    0.000    0.000    0.000 
#
# Total GULP energy -793849.010286 kJ/mol
# GULP energy per Si atom -12403.890786 kJ/mol
# Density = 1.896151 g / cm^3
# Si number density = 19.004770 Si / 1000 Ang^3
#
#
#
# Elastic Constant Matrix: (Units=GPa)
#
#
# Indices 1 2 3 4 5 6 
#
# 1 114.1355 33.0729 39.4370 0.0000 0.0000 0.0000
# 2 33.0729 43.6189 27.3036 0.0000 0.0000 0.0000
# 3 39.4370 27.3036 116.7280 0.0000 0.0000 0.0000
# 4 0.0000 0.0000 0.0000 19.5847 0.0000 0.0000
# 5 0.0000 0.0000 0.0000 0.0000 24.2202 0.0000
# 6 0.0000 0.0000 0.0000 0.0000 0.0000 32.4642
#
#
#
# Elastic Compliance Matrix: (Units=1/GPa)
#
#
# Indices 1 2 3 4 5 6 
#
# 1 0.011691 -0.007488 -0.002198 0.000000 0.000000 0.000000
# 2 -0.007488 0.031655 -0.004874 0.000000 0.000000 0.000000
# 3 -0.002198 -0.004874 0.010450 0.000000 0.000000 0.000000
# 4 0.000000 0.000000 0.000000 0.051060 0.000000 0.000000
# 5 0.000000 0.000000 0.000000 0.000000 0.041288 0.000000
# 6 0.000000 0.000000 0.000000 0.000000 0.000000 0.030803
#
#
# Mechanical properties :
#
#
# Convention : Reuss Voigt Hill
#
# Bulk Modulus (GPa) = 40.52910 52.67884 46.60397
# Shear Modulus (GPa) = 23.33249 26.89839 25.11544
#
# Velocity S-wave (km/s) = 3.50768 3.76619 3.63923
# Velocity P-wave (km/s) = 6.14631 6.83310 6.49878
#
# Compressibility (1/GPa) = 0.02467363
#
# Stress axis : x y z
#
# Youngs Moduli (GPa) = 85.53613 31.59080 95.69599
#
# Poissons Ratio (x) = 0.23656 0.21036
# Poissons Ratio (y) = 0.64052 0.46645
# Poissons Ratio (z) = 0.18803 0.15398
#
# Static dielectric constant tensor:
#      x y z
#    x 3.444070 0.000000 0.000000 
#    y 0.000000 3.249810 0.000000 
#    z 0.000000 0.000000 3.654090 
# 
# 
# High freq. dielectric constant tensor:
#      x y z
#    x 1.744480 0.000000 0.000000 
#    y 0.000000 1.716480 0.000000 
#    z 0.000000 0.000000 1.744990 
# 
# From -- ./inp_files/15856.got.cif
#   From: 2010.03.12/outbox.cif.g09.slc.cpg/sg62_8_cif.got.tgz:15856.got - 2010.04.10 19:12:36.
