data_PCOD8251214
_publ_section_title
;
Structure prediction by ZEFSAII (Michael W. Deem and Ramdas Pophale) SiO2 
 PCOD8251214
Probable space group: P N M A
;
_chemical_formula_sum "Si O2"
_cell_formula_units_Z 64
_cell_length_a 16.739867
_cell_length_b 8.981360
_cell_length_c 21.572017
_cell_angle_alpha 90.000000
_cell_angle_beta 90.000000
_cell_angle_gamma 90.000000
_cell_volume 3243.283119
_symmetry_space_group_name_H-M "P N M A"
_symmetry_group_IT_number 62
_symmetry_cell_setting 'orthorhombic'
loop_
_space_group_symop_operation_xyz
x,y,z
1/2-x,-y,1/2+z
1/2+x,1/2-y,1/2-z
-x,1/2+y,-z
-x,-y,-z
1/2+x,y,1/2-z
1/2-x,1/2+y,1/2+z
x,1/2-y,z
loop_
_atom_site_type_symbol
_atom_site_label
_atom_site_fract_x
_atom_site_fract_y
_atom_site_fract_z
Si Si1 0.216114 0.079544 0.663121
Si Si2 0.642806 0.074805 0.398860
Si Si3 0.530518 0.074681 0.132118
Si Si4 0.095366 0.421634 0.551942
Si Si5 0.661118 0.576351 0.068668
Si Si6 0.838803 0.921595 0.039776
Si Si7 0.912044 0.425595 0.259821
Si Si8 0.036027 0.573975 0.874693
O O1 0.229971 0.250000 0.681003
O O2 0.165239 0.059098 0.601380
O O3 0.301399 0.003493 0.651893
O O4 0.170513 0.002278 0.720227
O O5 0.650498 0.250000 0.388277
O O6 0.669341 0.029490 0.468197
O O7 0.553303 0.016659 0.387051
O O8 0.545035 0.250000 0.128203
O O9 0.484884 0.028664 0.194859
O O10 0.480187 0.020284 0.072467
O O11 0.615791 0.988090 0.129648
O O12 0.068922 0.250000 0.545492
O O13 0.128150 0.481759 0.488039
O O14 0.642868 0.750000 0.058763
O O15 0.755633 0.548748 0.075261
O O16 0.864211 0.750000 0.043484
O O17 0.907662 0.016323 0.071134
O O18 0.898444 0.250000 0.261987
O O19 0.934210 0.485041 0.191829
O O20 0.038226 0.750000 0.876195
#
# Coordination Sequence:
#
# PCOD8251214 Si02
#       8
#     8   8   8   8   8   8   8   8
#     4  10  20  34  58  89 116 149 192 237 283 338
#     4  10  20  38  62  88 118 151 191 236 289 345
#     4  10  20  34  54  78 109 149 190 234 283 338
#     4  10  19  32  52  80 113 146 187 235 282 338
#     4  11  21  34  52  78 115 152 187 227 284 345
#     4  10  22  38  58  85 119 155 186 234 296 346
#     4   9  20  40  60  81 112 151 192 234 286 339
#     4  10  22  40  63  87 112 148 194 241 285 339
#
# _framework density 19.733090000000001
#
# number of rings (size 3 to 8) (size 9 to 14) (size 15 to 20)
#    0.000    2.000    1.250    2.250    0.000    4.000 
#    2.250    0.000    0.000    0.000    0.000    0.000 
#    0.000    0.000    0.000    0.000    0.000    0.000 
#
# Total GULP energy -793773.707881 kJ/mol
# GULP energy per Si atom -12402.714186 kJ/mol
# Density = 1.968818 g / cm^3
# Si number density = 19.733090 Si / 1000 Ang^3
#
#
#
# Elastic Constant Matrix: (Units=GPa)
#
#
# Indices 1 2 3 4 5 6 
#
# 1 128.0649 42.4570 32.6854 0.0000 0.0000 0.0000
# 2 42.4570 51.7436 23.0283 0.0000 0.0000 0.0000
# 3 32.6854 23.0283 58.0174 0.0000 0.0000 0.0000
# 4 0.0000 0.0000 0.0000 23.7232 0.0000 0.0000
# 5 0.0000 0.0000 0.0000 0.0000 20.0543 0.0000
# 6 0.0000 0.0000 0.0000 0.0000 0.0000 35.5264
#
#
#
# Elastic Compliance Matrix: (Units=1/GPa)
#
#
# Indices 1 2 3 4 5 6 
#
# 1 0.011205 -0.007754 -0.003235 0.000000 0.000000 0.000000
# 2 -0.007754 0.028839 -0.007078 0.000000 0.000000 0.000000
# 3 -0.003235 -0.007078 0.021868 0.000000 0.000000 0.000000
# 4 0.000000 0.000000 0.000000 0.042153 0.000000 0.000000
# 5 0.000000 0.000000 0.000000 0.000000 0.049865 0.000000
# 6 0.000000 0.000000 0.000000 0.000000 0.000000 0.028148
#
#
# Mechanical properties :
#
#
# Convention : Reuss Voigt Hill
#
# Bulk Modulus (GPa) = 38.79365 48.24079 43.51722
# Shear Modulus (GPa) = 22.04548 25.17113 23.60830
#
# Velocity S-wave (km/s) = 3.34606 3.57540 3.46263
# Velocity P-wave (km/s) = 5.88472 6.44549 6.17148
#
# Compressibility (1/GPa) = 0.02577742
#
# Stress axis : x y z
#
# Youngs Moduli (GPa) = 89.24684 34.67552 45.72900
#
# Poissons Ratio (x) = 0.26889 0.14792
# Poissons Ratio (y) = 0.69205 0.32367
# Poissons Ratio (z) = 0.28868 0.24544
#
# Static dielectric constant tensor:
#      x y z
#    x 3.767320 0.000000 0.000000 
#    y 0.000000 3.529930 0.000000 
#    z 0.000000 0.000000 3.545380 
# 
# 
# High freq. dielectric constant tensor:
#      x y z
#    x 1.776780 0.000000 0.000000 
#    y 0.000000 1.766760 0.000000 
#    z 0.000000 0.000000 1.754790 
# 
# From -- ./inp_files/29795.got.cif
#   From: 2010.03.12/outbox.cif.g09.slc.cpg/sg62_15_cif.got.tgz:29795.got - 2010.04.10 19:12:36.
