data_PCOD8251622
_publ_section_title
;
Structure prediction by ZEFSAII (Michael W. Deem and Ramdas Pophale) SiO2 
 PCOD8251622
Probable space group: P N M A
;
_chemical_formula_sum "Si O2"
_cell_formula_units_Z 64
_cell_length_a 30.343912
_cell_length_b 9.258345
_cell_length_c 11.916432
_cell_angle_alpha 90.000000
_cell_angle_beta 90.000000
_cell_angle_gamma 90.000000
_cell_volume 3347.735745
_symmetry_space_group_name_H-M "P N M A"
_symmetry_group_IT_number 62
_symmetry_cell_setting 'orthorhombic'
loop_
_space_group_symop_operation_xyz
x,y,z
1/2-x,-y,1/2+z
1/2+x,1/2-y,1/2-z
-x,1/2+y,-z
-x,-y,-z
1/2+x,y,1/2-z
1/2-x,1/2+y,1/2+z
x,1/2-y,z
loop_
_atom_site_type_symbol
_atom_site_label
_atom_site_fract_x
_atom_site_fract_y
_atom_site_fract_z
Si Si1 0.626689 0.422389 0.886218
Si Si2 0.456839 0.583742 0.715721
Si Si3 0.429834 0.415144 0.508248
Si Si4 0.055324 0.916948 0.755754
Si Si5 0.671300 0.914645 0.493325
Si Si6 0.624871 0.421421 0.141669
Si Si7 0.695554 0.581552 0.740589
Si Si8 0.705057 0.418227 0.291403
O O1 0.627093 0.250000 0.876016
O O2 0.583305 0.483937 0.826728
O O3 0.671161 0.486186 0.833407
O O4 0.625430 0.477014 0.014427
O O5 0.446861 0.750000 0.689506
O O6 0.458726 0.505181 0.595732
O O7 0.503966 0.565064 0.776428
O O8 0.419056 0.518632 0.796692
O O9 0.445364 0.250000 0.515429
O O10 0.437176 0.472346 0.382477
O O11 0.379083 0.433798 0.542993
O O12 0.070783 0.750000 0.744977
O O13 0.687193 0.750000 0.483879
O O14 0.677075 0.967954 0.620514
O O15 0.701821 0.007639 0.412216
O O16 0.624451 0.250000 0.141814
O O17 0.668288 0.480040 0.205747
O O18 0.685765 0.750000 0.763800
O O19 0.747294 0.547659 0.740984
O O20 0.697455 0.250000 0.310931
#
# Coordination Sequence:
#
# PCOD8251622 Si02
#       8
#     8   8   8   8   8   8   8   8
#     4  11  23  38  59  82 111 149 189 236 277 326
#     4  10  20  36  60  83 110 149 188 230 278 336
#     4  10  19  34  55  82 116 146 178 228 285 334
#     4  10  21  38  58  82 114 150 184 227 286 339
#     4  10  20  36  59  83 114 148 180 229 285 328
#     4   9  20  38  56  81 113 145 185 230 281 329
#     4  10  22  40  60  83 115 153 186 227 285 335
#     4  10  21  38  61  84 112 150 188 229 277 334
#
# _framework density 19.1174
#
# number of rings (size 3 to 8) (size 9 to 14) (size 15 to 20)
#    0.000    2.000    2.500    0.750    1.750    2.500 
#    0.000    2.500    0.000    0.000    0.000    0.000 
#    0.000    0.000    0.000    0.000    0.000    0.000 
#
# Total GULP energy -793790.745122 kJ/mol
# GULP energy per Si atom -12402.980393 kJ/mol
# Density = 1.907389 g / cm^3
# Si number density = 19.117400 Si / 1000 Ang^3
#
#
#
# Elastic Constant Matrix: (Units=GPa)
#
#
# Indices 1 2 3 4 5 6 
#
# 1 110.7873 34.3942 49.0767 0.0000 0.0000 0.0000
# 2 34.3942 52.2583 44.5023 0.0000 0.0000 0.0000
# 3 49.0767 44.5023 131.1305 0.0000 0.0000 0.0000
# 4 0.0000 0.0000 0.0000 28.0783 0.0000 0.0000
# 5 0.0000 0.0000 0.0000 0.0000 27.5934 0.0000
# 6 0.0000 0.0000 0.0000 0.0000 0.0000 25.5628
#
#
#
# Elastic Compliance Matrix: (Units=1/GPa)
#
#
# Indices 1 2 3 4 5 6 
#
# 1 0.011912 -0.005687 -0.002528 0.000000 0.000000 0.000000
# 2 -0.005687 0.029629 -0.007927 0.000000 0.000000 0.000000
# 3 -0.002528 -0.007927 0.011262 0.000000 0.000000 0.000000
# 4 0.000000 0.000000 0.000000 0.035615 0.000000 0.000000
# 5 0.000000 0.000000 0.000000 0.000000 0.036241 0.000000
# 6 0.000000 0.000000 0.000000 0.000000 0.000000 0.039119
#
#
# Mechanical properties :
#
#
# Convention : Reuss Voigt Hill
#
# Bulk Modulus (GPa) = 48.73476 61.12473 54.92974
# Shear Modulus (GPa) = 24.64252 27.32710 25.98481
#
# Velocity S-wave (km/s) = 3.59417 3.78489 3.69076
# Velocity P-wave (km/s) = 6.54002 7.15145 6.85256
#
# Compressibility (1/GPa) = 0.02051924
#
# Stress axis : x y z
#
# Youngs Moduli (GPa) = 83.95100 33.75062 88.79143
#
# Poissons Ratio (x) = 0.19194 0.22447
# Poissons Ratio (y) = 0.47742 0.70385
# Poissons Ratio (z) = 0.21223 0.26754
#
# Static dielectric constant tensor:
#      x y z
#    x 3.613630 0.000000 0.000000 
#    y 0.000000 3.267410 0.000000 
#    z 0.000000 0.000000 3.547340 
# 
# 
# High freq. dielectric constant tensor:
#      x y z
#    x 1.756600 0.000000 0.000000 
#    y 0.000000 1.721200 0.000000 
#    z 0.000000 0.000000 1.743820 
# 
# From -- ./inp_files/15858.got.cif
#   From: 2010.03.12/outbox.cif.g09.slc.cpg/sg62_8_cif.got.tgz:15858.got - 2010.04.10 19:12:36.
