data_PCOD8251719
_publ_section_title
;
Structure prediction by ZEFSAII (Michael W. Deem and Ramdas Pophale) SiO2 
 PCOD8251719
Probable space group: P N M A
;
_chemical_formula_sum "Si O2"
_cell_formula_units_Z 56
_cell_length_a 20.279640
_cell_length_b 13.583557
_cell_length_c 10.236349
_cell_angle_alpha 90.000000
_cell_angle_beta 90.000000
_cell_angle_gamma 90.000000
_cell_volume 2819.803434
_symmetry_space_group_name_H-M "P N M A"
_symmetry_group_IT_number 62
_symmetry_cell_setting 'orthorhombic'
loop_
_space_group_symop_operation_xyz
x,y,z
1/2-x,-y,1/2+z
1/2+x,1/2-y,1/2-z
-x,1/2+y,-z
-x,-y,-z
1/2+x,y,1/2-z
1/2-x,1/2+y,1/2+z
x,1/2-y,z
loop_
_atom_site_type_symbol
_atom_site_label
_atom_site_fract_x
_atom_site_fract_y
_atom_site_fract_z
Si Si1 0.462621 0.360291 0.016901
Si Si2 0.336462 0.364262 0.661789
Si Si3 0.433327 0.862275 0.201571
Si Si4 0.028749 0.363899 0.216377
Si Si5 0.978177 0.133023 0.936602
Si Si6 0.693812 0.134706 0.933716
Si Si7 0.872906 0.505773 0.631926
O O1 0.434816 0.250000 0.985060
O O2 0.472599 0.371650 0.172131
O O3 0.531713 0.374309 0.939933
O O4 0.416364 0.449276 0.975557
O O5 0.339425 0.250000 0.695444
O O6 0.401671 0.397434 0.581989
O O7 0.269438 0.392329 0.589118
O O8 0.332170 0.420522 0.797940
O O9 0.430031 0.750000 0.244879
O O10 0.476596 0.913339 0.317877
O O11 0.357709 0.900293 0.181329
O O12 0.051499 0.250000 0.202896
O O13 0.088513 0.432566 0.258677
O O14 0.002740 0.406277 0.077345
O O15 0.982706 0.250000 0.935096
O O16 0.683128 0.250000 0.956994
O O17 0.678000 0.079301 0.066650
#
# Coordination Sequence:
#
# PCOD8251719 Si02
#       7
#     8   8   8   8   8   8   8
#     4  10  19  34  58  87 117 149 192 248 302 350
#     4  10  22  42  61  81 119 165 200 239 301 366
#     4   9  16  33  61  85 108 151 198 234 284 351
#     4  10  21  35  56  90 124 149 185 248 312 352
#     4   9  18  36  60  85 117 155 195 241 295 354
#     4  10  22  40  61  83 118 163 200 242 301 363
#     4  12  21  36  60  88 112 150 203 255 288 356
#
# _framework density 19.859541
#
# number of rings (size 3 to 8) (size 9 to 14) (size 15 to 20)
#    0.000    2.000    2.857    1.286    0.000    0.571 
#    5.143    0.000    0.000    1.714    0.000    0.000 
#    0.000    0.000    0.000    0.000    0.000    0.000 
#
# Total GULP energy -694019.768335 kJ/mol
# GULP energy per Si atom -12393.210149 kJ/mol
# Density = 1.981434 g / cm^3
# Si number density = 19.859541 Si / 1000 Ang^3
#
#
#
# Elastic Constant Matrix: (Units=GPa)
#
#
# Indices 1 2 3 4 5 6 
#
# 1 140.6034 42.1888 72.5831 0.0000 0.0000 0.0000
# 2 42.1888 35.7880 31.6725 0.0000 0.0000 0.0000
# 3 72.5831 31.6725 139.9084 0.0000 0.0000 0.0000
# 4 0.0000 0.0000 0.0000 31.9375 0.0000 0.0000
# 5 0.0000 0.0000 0.0000 0.0000 24.9319 0.0000
# 6 0.0000 0.0000 0.0000 0.0000 0.0000 16.4063
#
#
#
# Elastic Compliance Matrix: (Units=1/GPa)
#
#
# Indices 1 2 3 4 5 6 
#
# 1 0.012537 -0.011284 -0.003950 0.000000 0.000000 0.000000
# 2 -0.011284 0.045099 -0.004356 0.000000 0.000000 0.000000
# 3 -0.003950 -0.004356 0.010183 0.000000 0.000000 0.000000
# 4 0.000000 0.000000 0.000000 0.031311 0.000000 0.000000
# 5 0.000000 0.000000 0.000000 0.000000 0.040109 0.000000
# 6 0.000000 0.000000 0.000000 0.000000 0.000000 0.060952
#
#
# Mechanical properties :
#
#
# Convention : Reuss Voigt Hill
#
# Bulk Modulus (GPa) = 34.91562 67.68763 51.30162
# Shear Modulus (GPa) = 20.08715 25.97883 23.03299
#
# Velocity S-wave (km/s) = 3.18380 3.62073 3.40927
# Velocity P-wave (km/s) = 5.57986 7.18587 6.43318
#
# Compressibility (1/GPa) = 0.02864048
#
# Stress axis : x y z
#
# Youngs Moduli (GPa) = 79.76523 22.17349 98.20712
#
# Poissons Ratio (x) = 0.25020 0.38787
# Poissons Ratio (y) = 0.90004 0.42776
# Poissons Ratio (z) = 0.31504 0.09658
#
# Static dielectric constant tensor:
#      x y z
#    x 3.517820 0.000000 0.000000 
#    y 0.000000 3.786950 0.000000 
#    z 0.000000 0.000000 3.721630 
# 
# 
# High freq. dielectric constant tensor:
#      x y z
#    x 1.746020 0.000000 0.000000 
#    y 0.000000 1.791360 0.000000 
#    z 0.000000 0.000000 1.767970 
# 
# From -- ./inp_files/8709.got.cif
#   From: 2010.03.12/outbox.cif.g09.slc.cpg/sg62_5_cif.got.tgz:8709.got - 2010.04.10 19:12:36.
