data_PCOD8251963
_publ_section_title
;
Structure prediction by ZEFSAII (Michael W. Deem and Ramdas Pophale) SiO2 
 PCOD8251963
Probable space group: P N M A
;
_chemical_formula_sum "Si O2"
_cell_formula_units_Z 56
_cell_length_a 14.806896
_cell_length_b 11.460208
_cell_length_c 16.891410
_cell_angle_alpha 90.000000
_cell_angle_beta 90.000000
_cell_angle_gamma 90.000000
_cell_volume 2866.305187
_symmetry_space_group_name_H-M "P N M A"
_symmetry_group_IT_number 62
_symmetry_cell_setting 'orthorhombic'
loop_
_space_group_symop_operation_xyz
x,y,z
1/2-x,-y,1/2+z
1/2+x,1/2-y,1/2-z
-x,1/2+y,-z
-x,-y,-z
1/2+x,y,1/2-z
1/2-x,1/2+y,1/2+z
x,1/2-y,z
loop_
_atom_site_type_symbol
_atom_site_label
_atom_site_fract_x
_atom_site_fract_y
_atom_site_fract_z
Si Si1 0.055453 0.618287 0.518735
Si Si2 0.453260 0.003192 0.316810
Si Si3 0.181905 0.524699 0.399301
Si Si4 0.473149 0.876843 0.825067
Si Si5 0.633253 0.612962 0.365770
Si Si6 0.655323 0.887310 0.543966
Si Si7 0.280739 0.882464 0.256013
O O1 0.018049 0.750000 0.492233
O O2 0.151437 0.599884 0.475924
O O3 0.000000 0.500000 0.500000
O O4 0.058937 0.619806 0.614295
O O5 0.492571 0.107669 0.264131
O O6 0.417680 0.050441 0.400176
O O7 0.533839 0.913149 0.332883
O O8 0.376498 0.946737 0.261214
O O9 0.098220 0.474394 0.350146
O O10 0.244116 0.417925 0.427624
O O11 0.234859 0.612294 0.342239
O O12 0.426121 0.750000 0.828805
O O13 0.645978 0.750000 0.365469
O O14 0.642440 0.564235 0.454954
O O15 0.713565 0.560403 0.310069
O O16 0.640495 0.750000 0.548988
O O17 0.301327 0.750000 0.233626
#
# Coordination Sequence:
#
# PCOD8251963 Si02
#       7
#     8   8   8   8   8   8   8
#     4   9  19  34  54  83 117 157 197 248 303 362
#     4  11  21  37  60  84 114 155 195 239 297 356
#     4  10  19  36  59  82 115 152 196 241 298 360
#     4  10  20  35  56  83 118 151 193 243 295 356
#     4  10  21  39  59  84 118 150 195 247 294 355
#     4  10  22  37  58  84 116 157 197 245 298 358
#     4  10  21  36  57  86 114 148 193 244 293 349
#
# _framework density 19.537348000000001
#
# number of rings (size 3 to 8) (size 9 to 14) (size 15 to 20)
#    0.000    2.000    1.429    2.143    2.000    0.571 
#    0.000    0.714    0.000    2.571    0.000    0.000 
#    0.000    0.000    0.000    0.000    0.000    0.000 
#
# Total GULP energy -693765.159252 kJ/mol
# GULP energy per Si atom -12388.663558 kJ/mol
# Density = 1.949288 g / cm^3
# Si number density = 19.537348 Si / 1000 Ang^3
#
#
#
# Elastic Constant Matrix: (Units=GPa)
#
#
# Indices 1 2 3 4 5 6 
#
# 1 100.7968 20.3371 45.8563 0.0000 0.0000 0.0000
# 2 20.3371 73.2691 16.1711 0.0000 0.0000 0.0000
# 3 45.8563 16.1711 109.7513 0.0000 0.0000 0.0000
# 4 0.0000 0.0000 0.0000 26.4554 0.0000 0.0000
# 5 0.0000 0.0000 0.0000 0.0000 31.5185 0.0000
# 6 0.0000 0.0000 0.0000 0.0000 0.0000 21.5551
#
#
#
# Elastic Compliance Matrix: (Units=1/GPa)
#
#
# Indices 1 2 3 4 5 6 
#
# 1 0.012653 -0.002424 -0.004929 0.000000 0.000000 0.000000
# 2 -0.002424 0.014571 -0.001134 0.000000 0.000000 0.000000
# 3 -0.004929 -0.001134 0.011338 0.000000 0.000000 0.000000
# 4 0.000000 0.000000 0.000000 0.037800 0.000000 0.000000
# 5 0.000000 0.000000 0.000000 0.000000 0.031727 0.000000
# 6 0.000000 0.000000 0.000000 0.000000 0.000000 0.046393
#
#
# Mechanical properties :
#
#
# Convention : Reuss Voigt Hill
#
# Bulk Modulus (GPa) = 46.32384 49.83846 48.08115
# Shear Modulus (GPa) = 27.98725 29.33596 28.66161
#
# Velocity S-wave (km/s) = 3.78894 3.87916 3.83432
# Velocity P-wave (km/s) = 6.55006 6.75489 6.65327
#
# Compressibility (1/GPa) = 0.02158716
#
# Stress axis : x y z
#
# Youngs Moduli (GPa) = 79.03536 68.62725 88.19734
#
# Poissons Ratio (x) = 0.16635 0.43475
# Poissons Ratio (y) = 0.19158 0.10004
# Poissons Ratio (z) = 0.38959 0.07784
#
# Static dielectric constant tensor:
#      x y z
#    x 3.480770 0.000000 0.000000 
#    y 0.000000 3.468820 0.000000 
#    z 0.000000 0.000000 3.896170 
# 
# 
# High freq. dielectric constant tensor:
#      x y z
#    x 1.747280 0.000000 0.000000 
#    y 0.000000 1.753700 0.000000 
#    z 0.000000 0.000000 1.772620 
# 
# From -- ./inp_files/19028.got.cif
#   From: 2010.03.12/outbox.cif.g09.slc.cpg/sg62_10_cif.got.tgz:19028.got - 2010.04.10 19:12:36.
