data_PCOD8251058
_publ_section_title
;
Structure prediction by ZEFSAII (Michael W. Deem and Ramdas Pophale) SiO2 
 PCOD8251058
Probable space group: P N M A
;
_chemical_formula_sum "Si O2"
_cell_formula_units_Z 64
_cell_length_a 22.354077
_cell_length_b 8.693038
_cell_length_c 17.026567
_cell_angle_alpha 90.000000
_cell_angle_beta 90.000000
_cell_angle_gamma 90.000000
_cell_volume 3308.684922
_symmetry_space_group_name_H-M "P N M A"
_symmetry_group_IT_number 62
_symmetry_cell_setting 'orthorhombic'
loop_
_space_group_symop_operation_xyz
x,y,z
1/2-x,-y,1/2+z
1/2+x,1/2-y,1/2-z
-x,1/2+y,-z
-x,-y,-z
1/2+x,y,1/2-z
1/2-x,1/2+y,1/2+z
x,1/2-y,z
loop_
_atom_site_type_symbol
_atom_site_label
_atom_site_fract_x
_atom_site_fract_y
_atom_site_fract_z
Si Si1 0.888033 0.075203 0.277115
Si Si2 0.372532 0.931162 0.468671
Si Si3 0.341319 0.932972 0.784701
Si Si4 0.895423 0.431870 0.868146
Si Si5 0.287874 0.427974 0.344210
Si Si6 0.561362 0.428692 0.917105
Si Si7 0.563222 0.068730 0.091586
Si Si8 0.027095 0.930974 0.863555
O O1 0.893789 0.250000 0.305378
O O2 0.825812 0.044937 0.234248
O O3 0.942848 0.031644 0.219953
O O4 0.887351 0.967956 0.354304
O O5 0.374574 0.750000 0.482220
O O6 0.363989 0.015837 0.551537
O O7 0.315466 0.973335 0.415066
O O8 0.435527 0.983869 0.431313
O O9 0.344434 0.750000 0.772072
O O10 0.278468 0.982654 0.822982
O O11 0.390354 0.997777 0.845627
O O12 0.351823 0.015452 0.701896
O O13 0.903910 0.250000 0.866499
O O14 0.959625 0.512135 0.860306
O O15 0.290328 0.250000 0.370123
O O16 0.547707 0.250000 0.920530
O O17 0.502465 0.513404 0.885637
O O18 0.580002 0.488760 0.003585
O O19 0.565583 0.250000 0.096161
O O20 0.029340 0.750000 0.881843
#
# Coordination Sequence:
#
# PCOD8251058 Si02
#       8
#     8   8   8   8   8   8   8   8
#     4   9  18  33  54  79 108 145 181 221 274 330
#     4  11  22  38  60  85 115 150 190 232 281 338
#     4  10  21  40  61  79 109 150 192 235 284 337
#     4  12  24  37  56  86 119 148 186 233 286 341
#     4   9  20  40  61  79 108 148 190 233 282 332
#     4  10  19  31  51  81 112 140 179 226 272 327
#     4   9  19  35  54  77 108 145 179 221 278 331
#     4  10  20  36  58  85 118 152 188 229 285 341
#
# _framework density 19.343032000000001
#
# number of rings (size 3 to 8) (size 9 to 14) (size 15 to 20)
#    0.000    2.000    0.000    4.875    0.000    7.000 
#    2.250    0.000    0.000    0.000    0.000    0.000 
#    0.000    0.000    0.000    0.000    0.000    0.000 
#
# Total GULP energy -793713.041312 kJ/mol
# GULP energy per Si atom -12401.766270 kJ/mol
# Density = 1.929901 g / cm^3
# Si number density = 19.343032 Si / 1000 Ang^3
#
#
#
# Elastic Constant Matrix: (Units=GPa)
#
#
# Indices 1 2 3 4 5 6 
#
# 1 75.0502 7.2561 30.3282 0.0000 0.0000 0.0000
# 2 7.2561 36.6515 21.4018 0.0000 0.0000 0.0000
# 3 30.3282 21.4018 101.8893 0.0000 0.0000 0.0000
# 4 0.0000 0.0000 0.0000 32.9861 0.0000 0.0000
# 5 0.0000 0.0000 0.0000 0.0000 15.7573 0.0000
# 6 0.0000 0.0000 0.0000 0.0000 0.0000 25.4740
#
#
#
# Elastic Compliance Matrix: (Units=1/GPa)
#
#
# Indices 1 2 3 4 5 6 
#
# 1 0.015152 -0.000417 -0.004422 0.000000 0.000000 0.000000
# 2 -0.000417 0.031110 -0.006410 0.000000 0.000000 0.000000
# 3 -0.004422 -0.006410 0.012477 0.000000 0.000000 0.000000
# 4 0.000000 0.000000 0.000000 0.030316 0.000000 0.000000
# 5 0.000000 0.000000 0.000000 0.000000 0.063463 0.000000
# 6 0.000000 0.000000 0.000000 0.000000 0.000000 0.039256
#
#
# Mechanical properties :
#
#
# Convention : Reuss Voigt Hill
#
# Bulk Modulus (GPa) = 27.59465 36.84037 32.21751
# Shear Modulus (GPa) = 22.08935 25.15047 23.61991
#
# Velocity S-wave (km/s) = 3.38299 3.60979 3.49823
# Velocity P-wave (km/s) = 5.43658 6.03831 5.74533
#
# Compressibility (1/GPa) = 0.03623891
#
# Stress axis : x y z
#
# Youngs Moduli (GPa) = 65.99840 32.14413 80.14459
#
# Poissons Ratio (x) = 0.01341 0.35443
# Poissons Ratio (y) = 0.02754 0.51376
# Poissons Ratio (z) = 0.29187 0.20606
#
# Static dielectric constant tensor:
#      x y z
#    x 3.487480 0.000000 0.000000 
#    y 0.000000 3.446450 0.000000 
#    z 0.000000 0.000000 3.920970 
# 
# 
# High freq. dielectric constant tensor:
#      x y z
#    x 1.738680 0.000000 0.000000 
#    y 0.000000 1.749000 0.000000 
#    z 0.000000 0.000000 1.764940 
# 
# From -- ./inp_files/24837.got.cif
#   From: 2010.03.12/outbox.cif.g09.slc.cpg/sg62_13_cif.got.tgz:24837.got - 2010.04.10 19:12:36.
