data_PCOD8251151
_publ_section_title
;
Structure prediction by ZEFSAII (Michael W. Deem and Ramdas Pophale) SiO2 
 PCOD8251151
Probable space group: P N M A
;
_chemical_formula_sum "Si O2"
_cell_formula_units_Z 40
_cell_length_a 28.113088
_cell_length_b 8.923036
_cell_length_c 9.333577
_cell_angle_alpha 90.000000
_cell_angle_beta 90.000000
_cell_angle_gamma 90.000000
_cell_volume 2341.366024
_symmetry_space_group_name_H-M "P N M A"
_symmetry_group_IT_number 62
_symmetry_cell_setting 'orthorhombic'
loop_
_space_group_symop_operation_xyz
x,y,z
1/2-x,-y,1/2+z
1/2+x,1/2-y,1/2-z
-x,1/2+y,-z
-x,-y,-z
1/2+x,y,1/2-z
1/2-x,1/2+y,1/2+z
x,1/2-y,z
loop_
_atom_site_type_symbol
_atom_site_label
_atom_site_fract_x
_atom_site_fract_y
_atom_site_fract_z
Si Si1 0.698379 0.426601 0.390125
Si Si2 0.719733 0.425505 0.711971
Si Si3 0.547141 0.080604 0.049683
Si Si4 0.644207 0.418464 0.940827
Si Si5 0.623913 0.573921 0.210780
O O1 0.691445 0.250000 0.380332
O O2 0.712762 0.477607 0.549240
O O3 0.738313 0.479190 0.279874
O O4 0.648265 0.505145 0.351953
O O5 0.732379 0.250000 0.722290
O O6 0.670855 0.465029 0.796003
O O7 0.534400 0.250000 0.093491
O O8 0.586483 0.076025 0.920572
O O9 0.571171 0.997384 0.187270
O O10 0.500000 0.000000 0.000000
O O11 0.659406 0.250000 0.986780
O O12 0.657308 0.529876 0.072963
O O13 0.619393 0.750000 0.226859
#
# Coordination Sequence:
#
# PCOD8251151 Si02
#       5
#     8   8   8   8   8
#     4  11  22  34  50  73 102 136 173 214 257 305
#     4  10  21  36  52  72 101 138 175 212 258 310
#     4   9  17  31  54  81 107 135 170 217 261 306
#     4   8  17  33  52  74 103 133 168 212 258 304
#     4  10  19  32  51  75 103 134 171 211 253 306
#
# _framework density 17.084043999999999
#
# number of rings (size 3 to 8) (size 9 to 14) (size 15 to 20)
#    1.200    1.200    0.000    3.600    0.000    5.600 
#    0.000    0.000    0.000    1.200    0.000    0.000 
#    0.000    0.000    0.000    0.000    0.000    0.000 
#
# Total GULP energy -495617.000228 kJ/mol
# GULP energy per Si atom -12390.425006 kJ/mol
# Density = 1.704516 g / cm^3
# Si number density = 17.084044 Si / 1000 Ang^3
#
#
#
# Elastic Constant Matrix: (Units=GPa)
#
#
# Indices 1 2 3 4 5 6 
#
# 1 58.7345 20.1176 6.5558 0.0000 0.0000 0.0000
# 2 20.1176 93.9978 20.6728 0.0000 0.0000 0.0000
# 3 6.5558 20.6728 60.9338 0.0000 0.0000 0.0000
# 4 0.0000 0.0000 0.0000 22.5749 0.0000 0.0000
# 5 0.0000 0.0000 0.0000 0.0000 25.2910 0.0000
# 6 0.0000 0.0000 0.0000 0.0000 0.0000 30.9286
#
#
#
# Elastic Compliance Matrix: (Units=1/GPa)
#
#
# Indices 1 2 3 4 5 6 
#
# 1 0.018400 -0.003785 -0.000695 0.000000 0.000000 0.000000
# 2 -0.003785 0.012275 -0.003757 0.000000 0.000000 0.000000
# 3 -0.000695 -0.003757 0.017761 0.000000 0.000000 0.000000
# 4 0.000000 0.000000 0.000000 0.044297 0.000000 0.000000
# 5 0.000000 0.000000 0.000000 0.000000 0.039540 0.000000
# 6 0.000000 0.000000 0.000000 0.000000 0.000000 0.032333
#
#
# Mechanical properties :
#
#
# Convention : Reuss Voigt Hill
#
# Bulk Modulus (GPa) = 31.28906 34.26206 32.77556
# Shear Modulus (GPa) = 26.07785 26.84691 26.46238
#
# Velocity S-wave (km/s) = 3.91121 3.96847 3.93994
# Velocity P-wave (km/s) = 6.22506 6.41068 6.31855
#
# Compressibility (1/GPa) = 0.03196006
#
# Stress axis : x y z
#
# Youngs Moduli (GPa) = 54.34834 81.46674 56.30377
#
# Poissons Ratio (x) = 0.30835 0.03916
# Poissons Ratio (y) = 0.20571 0.21155
# Poissons Ratio (z) = 0.03780 0.30609
#
# Static dielectric constant tensor:
#      x y z
#    x 3.108540 0.000000 0.000000 
#    y 0.000000 3.178930 0.000000 
#    z 0.000000 0.000000 3.099690 
# 
# 
# High freq. dielectric constant tensor:
#      x y z
#    x 1.649450 0.000000 0.000000 
#    y 0.000000 1.668700 0.000000 
#    z 0.000000 0.000000 1.631050 
# 
# From -- ./inp_files/10006.got.cif
#   From: 2010.03.12/outbox.cif.g09.slc.cpg/sg62_6_cif.got.tgz:10006.got - 2010.04.10 19:12:36.
