data_PCOD8251270
_publ_section_title
;
Structure prediction by ZEFSAII (Michael W. Deem and Ramdas Pophale) SiO2 
 PCOD8251270
Probable space group: P N M A
;
_chemical_formula_sum "Si O2"
_cell_formula_units_Z 48
_cell_length_a 15.189541
_cell_length_b 8.721215
_cell_length_c 19.161270
_cell_angle_alpha 90.000000
_cell_angle_beta 90.000000
_cell_angle_gamma 90.000000
_cell_volume 2538.317442
_symmetry_space_group_name_H-M "P N M A"
_symmetry_group_IT_number 62
_symmetry_cell_setting 'orthorhombic'
loop_
_space_group_symop_operation_xyz
x,y,z
1/2-x,-y,1/2+z
1/2+x,1/2-y,1/2-z
-x,1/2+y,-z
-x,-y,-z
1/2+x,y,1/2-z
1/2-x,1/2+y,1/2+z
x,1/2-y,z
loop_
_atom_site_type_symbol
_atom_site_label
_atom_site_fract_x
_atom_site_fract_y
_atom_site_fract_z
Si Si1 0.631161 0.431960 0.670928
Si Si2 0.780757 0.568297 0.577807
Si Si3 0.531496 0.931706 0.072626
Si Si4 0.973583 0.069336 0.926876
Si Si5 0.875549 0.568158 0.328757
Si Si6 0.222231 0.932076 0.073999
O O1 0.645183 0.250000 0.666748
O O2 0.713587 0.515434 0.636780
O O3 0.541472 0.483270 0.632549
O O4 0.623942 0.493152 0.749878
O O5 0.790063 0.750000 0.578266
O O6 0.874220 0.494220 0.595311
O O7 0.747455 0.506953 0.502860
O O8 0.533923 0.750000 0.065637
O O9 0.463871 0.985911 0.132446
O O10 0.500000 0.000000 0.000000
O O11 0.973808 0.250000 0.936070
O O12 0.875854 0.011458 0.906049
O O13 0.000000 0.000000 0.000000
O O14 0.870385 0.750000 0.328435
O O15 0.790621 0.500265 0.369529
O O16 0.227626 0.750000 0.073678
#
# Coordination Sequence:
#
# PCOD8251270 Si02
#       6
#     8   8   8   8   8   8
#     4  10  21  36  57  86 114 144 189 238 283 338
#     4  11  21  36  58  83 113 153 193 233 285 340
#     4  11  21  36  60  89 116 150 194 240 286 342
#     4  10  19  32  54  82 107 140 182 228 277 330
#     4   9  19  36  57  83 114 146 183 230 286 341
#     4   9  17  32  55  79 107 146 185 224 278 340
#
# _framework density 18.910164000000002
#
# number of rings (size 3 to 8) (size 9 to 14) (size 15 to 20)
#    0.000    2.000    3.333    1.000    0.000    1.333 
#    0.000    6.667    0.000    2.000    0.000    0.000 
#    0.000    0.000    0.000    0.000    0.000    0.000 
#
# Total GULP energy -595233.911397 kJ/mol
# GULP energy per Si atom -12400.706487 kJ/mol
# Density = 1.886712 g / cm^3
# Si number density = 18.910164 Si / 1000 Ang^3
#
#
#
# Elastic Constant Matrix: (Units=GPa)
#
#
# Indices 1 2 3 4 5 6 
#
# 1 208.2847 36.4210 101.1771 0.0000 0.0000 0.0000
# 2 36.4210 36.4688 29.3652 0.0000 0.0000 0.0000
# 3 101.1771 29.3652 179.1510 0.0000 0.0000 0.0000
# 4 0.0000 0.0000 0.0000 24.2486 0.0000 0.0000
# 5 0.0000 0.0000 0.0000 0.0000 37.1376 0.0000
# 6 0.0000 0.0000 0.0000 0.0000 0.0000 26.2986
#
#
#
# Elastic Compliance Matrix: (Units=1/GPa)
#
#
# Indices 1 2 3 4 5 6 
#
# 1 0.007209 -0.004518 -0.003331 0.000000 0.000000 0.000000
# 2 -0.004518 0.034421 -0.003091 0.000000 0.000000 0.000000
# 3 -0.003331 -0.003091 0.007970 0.000000 0.000000 0.000000
# 4 0.000000 0.000000 0.000000 0.041240 0.000000 0.000000
# 5 0.000000 0.000000 0.000000 0.000000 0.026927 0.000000
# 6 0.000000 0.000000 0.000000 0.000000 0.000000 0.038025
#
#
# Mechanical properties :
#
#
# Convention : Reuss Voigt Hill
#
# Bulk Modulus (GPa) = 36.07318 84.20344 60.13831
# Shear Modulus (GPa) = 26.75082 34.66635 30.70858
#
# Velocity S-wave (km/s) = 3.76523 4.28625 4.03416
# Velocity P-wave (km/s) = 6.16605 8.31389 7.31918
#
# Compressibility (1/GPa) = 0.02772143
#
# Stress axis : x y z
#
# Youngs Moduli (GPa) = 138.71343 29.05195 125.47584
#
# Poissons Ratio (x) = 0.13124 0.41795
# Poissons Ratio (y) = 0.62665 0.38781
# Poissons Ratio (z) = 0.46204 0.08979
#
# Static dielectric constant tensor:
#      x y z
#    x 3.819600 0.000000 0.000000 
#    y 0.000000 3.206530 0.000000 
#    z 0.000000 0.000000 3.601720 
# 
# 
# High freq. dielectric constant tensor:
#      x y z
#    x 1.755910 0.000000 0.000000 
#    y 0.000000 1.702470 0.000000 
#    z 0.000000 0.000000 1.735010 
# 
# From -- ./inp_files/23697.got.cif
#   From: 2010.03.12/outbox.cif.g09.slc.cpg/sg62_12_cif.got.tgz:23697.got - 2010.04.10 19:12:36.
