data_PCOD8251065
_publ_section_title
;
Structure prediction by ZEFSAII (Michael W. Deem and Ramdas Pophale) SiO2 
 PCOD8251065
Probable space group: P N M A
;
_chemical_formula_sum "Si O2"
_cell_formula_units_Z 64
_cell_length_a 27.367170
_cell_length_b 9.578174
_cell_length_c 13.161258
_cell_angle_alpha 90.000000
_cell_angle_beta 90.000000
_cell_angle_gamma 90.000000
_cell_volume 3449.927869
_symmetry_space_group_name_H-M "P N M A"
_symmetry_group_IT_number 62
_symmetry_cell_setting 'orthorhombic'
loop_
_space_group_symop_operation_xyz
x,y,z
1/2-x,-y,1/2+z
1/2+x,1/2-y,1/2-z
-x,1/2+y,-z
-x,-y,-z
1/2+x,y,1/2-z
1/2-x,1/2+y,1/2+z
x,1/2-y,z
loop_
_atom_site_type_symbol
_atom_site_label
_atom_site_fract_x
_atom_site_fract_y
_atom_site_fract_z
Si Si1 0.809139 0.414326 0.339091
Si Si2 0.719240 0.907168 0.269809
Si Si3 0.882477 0.407109 0.855211
Si Si4 0.589533 0.584073 0.749180
Si Si5 0.089781 0.404831 0.324818
Si Si6 0.013834 0.596337 0.591319
Si Si7 0.838002 0.088248 0.564877
Si Si8 0.453099 0.087282 0.462814
O O1 0.801573 0.250000 0.329165
O O2 0.761784 0.486654 0.294383
O O3 0.855072 0.464905 0.270673
O O4 0.815376 0.456928 0.457147
O O5 0.739883 0.750000 0.273930
O O6 0.676312 0.926463 0.353809
O O7 0.699701 0.940790 0.156465
O O8 0.894322 0.250000 0.815546
O O9 0.905343 0.520938 0.782417
O O10 0.906024 0.431602 0.964870
O O11 0.586753 0.750000 0.746135
O O12 0.557497 0.528224 0.843540
O O13 0.566785 0.526466 0.644219
O O14 0.113854 0.250000 0.322460
O O15 0.032403 0.390170 0.336423
O O16 0.113874 0.495205 0.415533
O O17 0.029128 0.750000 0.550893
O O18 0.000000 0.500000 0.500000
O O19 0.853946 0.250000 0.562416
O O20 0.468556 0.250000 0.456236
O O21 0.500000 0.000000 0.500000
#
# Coordination Sequence:
#
# PCOD8251065 Si02
#       8
#     8   8   8   8   8   8   8   8
#     4  10  20  35  56  78 101 137 181 219 261 316
#     4   9  19  35  53  76 106 138 174 220 269 316
#     4   9  19  35  54  75 103 142 178 209 261 326
#     4   9  19  35  53  75 105 138 173 214 261 315
#     4  10  19  31  52  80 103 127 169 219 255 291
#     4  10  20  33  50  73 101 133 167 206 253 305
#     4   9  19  36  55  75 104 140 172 207 263 325
#     4  10  20  36  57  80 109 145 181 218 266 324
#
# _framework density 18.551113999999998
#
# number of rings (size 3 to 8) (size 9 to 14) (size 15 to 20)
#    0.000    2.500    0.000    2.625    0.000    7.000 
#    0.000    3.125    0.000    0.000    0.000    0.000 
#    0.000    0.000    0.000    0.000    0.000    0.000 
#
# Total GULP energy -793362.832879 kJ/mol
# GULP energy per Si atom -12396.294264 kJ/mol
# Density = 1.850889 g / cm^3
# Si number density = 18.551114 Si / 1000 Ang^3
#
#
#
# Elastic Constant Matrix: (Units=GPa)
#
#
# Indices 1 2 3 4 5 6 
#
# 1 118.8674 41.9293 53.7884 0.0000 0.0000 0.0000
# 2 41.9293 69.6748 36.4676 0.0000 0.0000 0.0000
# 3 53.7884 36.4676 106.8707 0.0000 0.0000 0.0000
# 4 0.0000 0.0000 0.0000 23.9284 0.0000 0.0000
# 5 0.0000 0.0000 0.0000 0.0000 28.8169 0.0000
# 6 0.0000 0.0000 0.0000 0.0000 0.0000 31.4500
#
#
#
# Elastic Compliance Matrix: (Units=1/GPa)
#
#
# Indices 1 2 3 4 5 6 
#
# 1 0.012183 -0.005018 -0.004419 0.000000 0.000000 0.000000
# 2 -0.005018 0.019540 -0.004142 0.000000 0.000000 0.000000
# 3 -0.004419 -0.004142 0.012995 0.000000 0.000000 0.000000
# 4 0.000000 0.000000 0.000000 0.041791 0.000000 0.000000
# 5 0.000000 0.000000 0.000000 0.000000 0.034702 0.000000
# 6 0.000000 0.000000 0.000000 0.000000 0.000000 0.031797
#
#
# Mechanical properties :
#
#
# Convention : Reuss Voigt Hill
#
# Bulk Modulus (GPa) = 56.95224 62.19816 59.57520
# Shear Modulus (GPa) = 26.87898 27.72090 27.29994
#
# Velocity S-wave (km/s) = 3.81059 3.86981 3.84031
# Velocity P-wave (km/s) = 7.08009 7.31902 7.20054
#
# Compressibility (1/GPa) = 0.01755857
#
# Stress axis : x y z
#
# Youngs Moduli (GPa) = 82.08419 51.17635 76.95480
#
# Poissons Ratio (x) = 0.25682 0.34007
# Poissons Ratio (y) = 0.41193 0.31875
# Poissons Ratio (z) = 0.36274 0.21197
#
# Static dielectric constant tensor:
#      x y z
#    x 3.466800 0.000000 0.000000 
#    y 0.000000 3.364550 0.000000 
#    z 0.000000 0.000000 3.519020 
# 
# 
# High freq. dielectric constant tensor:
#      x y z
#    x 1.720270 0.000000 0.000000 
#    y 0.000000 1.706740 0.000000 
#    z 0.000000 0.000000 1.721250 
# 
# From -- ./inp_files/15895.got.cif
#   From: 2010.03.12/outbox.cif.g09.slc.cpg/sg62_8_cif.got.tgz:15895.got - 2010.04.10 19:12:36.
