data_PCOD8251894
_publ_section_title
;
Structure prediction by ZEFSAII (Michael W. Deem and Ramdas Pophale) SiO2 
 PCOD8251894
Probable space group: P N M A
;
_chemical_formula_sum "Si O2"
_cell_formula_units_Z 48
_cell_length_a 19.108292
_cell_length_b 18.624088
_cell_length_c 7.102271
_cell_angle_alpha 90.000000
_cell_angle_beta 90.000000
_cell_angle_gamma 90.000000
_cell_volume 2527.517224
_symmetry_space_group_name_H-M "P N M A"
_symmetry_group_IT_number 62
_symmetry_cell_setting 'orthorhombic'
loop_
_space_group_symop_operation_xyz
x,y,z
1/2-x,-y,1/2+z
1/2+x,1/2-y,1/2-z
-x,1/2+y,-z
-x,-y,-z
1/2+x,y,1/2-z
1/2-x,1/2+y,1/2+z
x,1/2-y,z
loop_
_atom_site_type_symbol
_atom_site_label
_atom_site_fract_x
_atom_site_fract_y
_atom_site_fract_z
Si Si1 0.509224 0.883177 0.442034
Si Si2 0.318004 0.942851 0.722674
Si Si3 0.905193 0.003404 0.119901
Si Si4 0.558304 0.668295 0.056199
Si Si5 0.432207 0.668225 0.790418
Si Si6 0.675810 0.556066 0.957143
O O1 0.571289 0.915168 0.571595
O O2 0.538803 0.833714 0.276563
O O3 0.458215 0.836638 0.574230
O O4 0.471303 0.951564 0.346433
O O5 0.362812 0.879622 0.820771
O O6 0.244791 0.911603 0.644081
O O7 0.360189 0.974620 0.550538
O O8 0.302218 0.006978 0.867319
O O9 0.863071 0.003577 0.312798
O O10 0.576166 0.750000 0.000321
O O11 0.492885 0.640482 0.931472
O O12 0.626936 0.621214 0.021252
O O13 0.411894 0.750000 0.837072
#
# Coordination Sequence:
#
# PCOD8251894 Si02
#       6
#     8   8   8   8   8   8
#     4  10  19  35  60  87 115 144 191 241 292 337
#     4  11  23  37  60  84 117 156 192 243 288 343
#     4  10  20  34  58  90 111 146 192 243 291 336
#     4  11  23  37  59  88 119 152 192 242 290 343
#     4  10  22  39  58  85 118 154 191 233 291 352
#     4  12  22  38  59  86 118 150 199 240 288 340
#
# _framework density 18.990967999999999
#
# number of rings (size 3 to 8) (size 9 to 14) (size 15 to 20)
#    0.000    1.333    5.000    1.500    0.000    2.000 
#    0.000    0.000    0.000    1.000    0.000    0.000 
#    0.000    0.000    0.000    0.000    0.000    0.000 
#
# Total GULP energy -595293.824367 kJ/mol
# GULP energy per Si atom -12401.954674 kJ/mol
# Density = 1.894774 g / cm^3
# Si number density = 18.990968 Si / 1000 Ang^3
#
#
#
# Elastic Constant Matrix: (Units=GPa)
#
#
# Indices 1 2 3 4 5 6 
#
# 1 110.8011 42.2930 27.9285 0.0000 0.0000 0.0000
# 2 42.2930 76.9838 21.3572 0.0000 0.0000 0.0000
# 3 27.9285 21.3572 73.6421 0.0000 0.0000 0.0000
# 4 0.0000 0.0000 0.0000 24.6889 0.0000 0.0000
# 5 0.0000 0.0000 0.0000 0.0000 29.7318 0.0000
# 6 0.0000 0.0000 0.0000 0.0000 0.0000 0.2609
#
#
#
# Elastic Compliance Matrix: (Units=1/GPa)
#
#
# Indices 1 2 3 4 5 6 
#
# 1 0.011948 -0.005771 -0.002858 0.000000 0.000000 0.000000
# 2 -0.005771 0.016914 -0.002717 0.000000 0.000000 0.000000
# 3 -0.002858 -0.002717 0.015451 0.000000 0.000000 0.000000
# 4 0.000000 0.000000 0.000000 0.040504 0.000000 0.000000
# 5 0.000000 0.000000 0.000000 0.000000 0.033634 0.000000
# 6 0.000000 0.000000 0.000000 0.000000 0.000000 3.833121
#
#
# Mechanical properties :
#
#
# Convention : Reuss Voigt Hill
#
# Bulk Modulus (GPa) = 46.24885 49.39827 47.82356
# Shear Modulus (GPa) = 1.25582 22.25955 11.75768
#
# Velocity S-wave (km/s) = 0.81407 3.42733 2.49091
# Velocity P-wave (km/s) = 5.02887 6.45988 5.78876
#
# Compressibility (1/GPa) = 0.02162216
#
# Stress axis : x y z
#
# Youngs Moduli (GPa) = 83.69305 59.12253 64.72174
#
# Poissons Ratio (x) = 0.34122 0.18495
# Poissons Ratio (y) = 0.48303 0.17582
# Poissons Ratio (z) = 0.23916 0.16061
#
# Static dielectric constant tensor:
#      x y z
#    x 3.558440 0.000000 0.000000 
#    y 0.000000 3.299600 0.000000 
#    z 0.000000 0.000000 3.501790 
# 
# 
# High freq. dielectric constant tensor:
#      x y z
#    x 1.733680 0.000000 0.000000 
#    y 0.000000 1.721860 0.000000 
#    z 0.000000 0.000000 1.748780 
# 
# From -- ./inp_files/2195.got.cif
#   From: 2010.03.12/outbox.cif.g09.slc.cpg/sg62_2_cif.got.tgz:2195.got - 2010.04.10 19:12:36.
