data_PCOD8251533
_publ_section_title
;
Structure prediction by ZEFSAII (Michael W. Deem and Ramdas Pophale) SiO2 
 PCOD8251533
Probable space group: P N M A
;
_chemical_formula_sum "Si O2"
_cell_formula_units_Z 56
_cell_length_a 21.322933
_cell_length_b 9.246439
_cell_length_c 14.412030
_cell_angle_alpha 90.000000
_cell_angle_beta 90.000000
_cell_angle_gamma 90.000000
_cell_volume 2841.493119
_symmetry_space_group_name_H-M "P N M A"
_symmetry_group_IT_number 62
_symmetry_cell_setting 'orthorhombic'
loop_
_space_group_symop_operation_xyz
x,y,z
1/2-x,-y,1/2+z
1/2+x,1/2-y,1/2-z
-x,1/2+y,-z
-x,-y,-z
1/2+x,y,1/2-z
1/2-x,1/2+y,1/2+z
x,1/2-y,z
loop_
_atom_site_type_symbol
_atom_site_label
_atom_site_fract_x
_atom_site_fract_y
_atom_site_fract_z
Si Si1 0.819477 0.921257 0.199117
Si Si2 0.933147 0.583722 0.905457
Si Si3 0.164511 0.920072 0.620061
Si Si4 0.976498 0.415722 0.411775
Si Si5 0.079436 0.917955 0.914421
Si Si6 0.096271 0.084724 0.298337
Si Si7 0.802014 0.081605 0.585028
O O1 0.828969 0.750000 0.207105
O O2 0.764385 0.963189 0.127896
O O3 0.801855 0.987793 0.299353
O O4 0.882760 0.995923 0.163568
O O5 0.920644 0.750000 0.933693
O O6 0.898063 0.543852 0.809973
O O7 0.006827 0.556846 0.892359
O O8 0.904190 0.481377 0.984196
O O9 0.172230 0.750000 0.641073
O O10 0.091931 0.968959 0.618934
O O11 0.196919 0.963951 0.522865
O O12 0.972159 0.250000 0.442303
O O13 0.000000 0.500000 0.500000
O O14 0.024072 0.440364 0.327069
O O15 0.098145 0.750000 0.911170
O O16 0.115707 0.250000 0.314574
O O17 0.141588 0.989779 0.359735
O O18 0.814525 0.250000 0.594542
#
# Coordination Sequence:
#
# PCOD8251533 Si02
#       7
#     8   8   8   8   8   8   8
#     4  11  24  40  59  84 115 152 197 242 284 340
#     4   9  19  36  58  85 118 150 185 234 286 340
#     4  10  21  40  62  83 114 154 192 235 292 350
#     4  10  19  33  57  87 117 150 187 233 290 348
#     4  10  20  37  60  85 114 150 191 234 284 340
#     4  10  20  34  56  86 117 148 187 235 288 346
#     4  10  23  41  58  80 113 151 192 239 285 338
#
# _framework density 19.70795
#
# number of rings (size 3 to 8) (size 9 to 14) (size 15 to 20)
#    0.000    2.000    1.429    1.714    0.000    6.857 
#    0.000    5.714    0.000    0.000    0.000    0.000 
#    0.000    0.000    0.000    0.000    0.000    0.000 
#
# Total GULP energy -694563.397836 kJ/mol
# GULP energy per Si atom -12402.917818 kJ/mol
# Density = 1.966309 g / cm^3
# Si number density = 19.707950 Si / 1000 Ang^3
#
#
#
# Elastic Constant Matrix: (Units=GPa)
#
#
# Indices 1 2 3 4 5 6 
#
# 1 59.0721 38.9241 42.1100 0.0000 0.0000 0.0000
# 2 38.9241 72.4585 60.0095 0.0000 0.0000 0.0000
# 3 42.1100 60.0095 145.1666 0.0000 0.0000 0.0000
# 4 0.0000 0.0000 0.0000 40.5883 0.0000 0.0000
# 5 0.0000 0.0000 0.0000 0.0000 26.8393 0.0000
# 6 0.0000 0.0000 0.0000 0.0000 0.0000 23.9577
#
#
#
# Elastic Compliance Matrix: (Units=1/GPa)
#
#
# Indices 1 2 3 4 5 6 
#
# 1 0.026924 -0.012157 -0.002785 0.000000 0.000000 0.000000
# 2 -0.012157 0.026475 -0.007418 0.000000 0.000000 0.000000
# 3 -0.002785 -0.007418 0.010763 0.000000 0.000000 0.000000
# 4 0.000000 0.000000 0.000000 0.024638 0.000000 0.000000
# 5 0.000000 0.000000 0.000000 0.000000 0.037259 0.000000
# 6 0.000000 0.000000 0.000000 0.000000 0.000000 0.041740
#
#
# Mechanical properties :
#
#
# Convention : Reuss Voigt Hill
#
# Bulk Modulus (GPa) = 51.43283 62.08713 56.75998
# Shear Modulus (GPa) = 22.83114 27.32064 25.07589
#
# Velocity S-wave (km/s) = 3.40733 3.72731 3.57091
# Velocity P-wave (km/s) = 6.45244 7.07784 6.77236
#
# Compressibility (1/GPa) = 0.01944283
#
# Stress axis : x y z
#
# Youngs Moduli (GPa) = 37.14125 37.77124 92.91277
#
# Poissons Ratio (x) = 0.45920 0.25872
# Poissons Ratio (y) = 0.45154 0.68921
# Poissons Ratio (z) = 0.10342 0.28018
#
# Static dielectric constant tensor:
#      x y z
#    x 3.550950 0.000000 0.000000 
#    y 0.000000 3.582960 0.000000 
#    z 0.000000 0.000000 4.092120 
# 
# 
# High freq. dielectric constant tensor:
#      x y z
#    x 1.758580 0.000000 0.000000 
#    y 0.000000 1.762720 0.000000 
#    z 0.000000 0.000000 1.782620 
# 
# From -- ./inp_files/20276.got.cif
#   From: 2010.03.12/outbox.cif.g09.slc.cpg/sg62_11_cif.got.tgz:20276.got - 2010.04.10 19:12:36.
