data_PCOD8251734
_publ_section_title
;
Structure prediction by ZEFSAII (Michael W. Deem and Ramdas Pophale) SiO2 
 PCOD8251734
Probable space group: P N M A
;
_chemical_formula_sum "Si O2"
_cell_formula_units_Z 48
_cell_length_a 10.140627
_cell_length_b 8.549981
_cell_length_c 28.008421
_cell_angle_alpha 90.000000
_cell_angle_beta 90.000000
_cell_angle_gamma 90.000000
_cell_volume 2428.390828
_symmetry_space_group_name_H-M "P N M A"
_symmetry_group_IT_number 62
_symmetry_cell_setting 'orthorhombic'
loop_
_space_group_symop_operation_xyz
x,y,z
1/2-x,-y,1/2+z
1/2+x,1/2-y,1/2-z
-x,1/2+y,-z
-x,-y,-z
1/2+x,y,1/2-z
1/2-x,1/2+y,1/2+z
x,1/2-y,z
loop_
_atom_site_type_symbol
_atom_site_label
_atom_site_fract_x
_atom_site_fract_y
_atom_site_fract_z
Si Si1 0.871270 0.430235 0.551695
Si Si2 0.650199 0.930077 0.945355
Si Si3 0.007488 0.430991 0.302266
Si Si4 0.008880 0.070068 0.191793
Si Si5 0.761191 0.570426 0.353028
Si Si6 0.243766 0.071214 0.851679
O O1 0.919535 0.250000 0.551440
O O2 0.812073 0.475110 0.499856
O O3 0.759820 0.457900 0.591541
O O4 0.995847 0.538049 0.563932
O O5 0.679616 0.750000 0.934608
O O6 0.738413 0.032598 0.909533
O O7 0.044170 0.250000 0.309382
O O8 0.997218 0.475946 0.246951
O O9 0.866629 0.463026 0.326030
O O10 0.118380 0.537647 0.325917
O O11 0.049407 0.250000 0.185308
O O12 0.868098 0.043074 0.167382
O O13 0.116512 0.961488 0.166999
O O14 0.798073 0.750000 0.344580
O O15 0.203965 0.250000 0.841241
#
# Coordination Sequence:
#
# PCOD8251734 Si02
#       6
#     8   8   8   8   8   8
#     4   9  19  35  57  88 119 149 190 242 291 346
#     4  10  19  34  59  87 117 152 192 238 292 347
#     4  11  23  40  62  87 115 154 200 243 289 346
#     4  11  25  42  59  83 119 158 198 241 291 352
#     4  12  24  39  60  88 120 154 197 244 293 346
#     4  11  22  38  61  90 121 152 192 241 293 348
#
# _framework density 19.766176000000002
#
# number of rings (size 3 to 8) (size 9 to 14) (size 15 to 20)
#    0.000    1.333    1.667    4.500    0.000    8.000 
#    0.000    0.833    0.000    0.000    0.000    0.000 
#    0.000    0.000    0.000    0.000    0.000    0.000 
#
# Total GULP energy -595482.164122 kJ/mol
# GULP energy per Si atom -12405.878419 kJ/mol
# Density = 1.972119 g / cm^3
# Si number density = 19.766176 Si / 1000 Ang^3
#
#
#
# Elastic Constant Matrix: (Units=GPa)
#
#
# Indices 1 2 3 4 5 6 
#
# 1 77.3924 8.3706 43.8688 0.0000 0.0000 0.0000
# 2 8.3706 62.1692 36.8401 0.0000 0.0000 0.0000
# 3 43.8688 36.8401 141.2628 0.0000 0.0000 0.0000
# 4 0.0000 0.0000 0.0000 23.3101 0.0000 0.0000
# 5 0.0000 0.0000 0.0000 0.0000 -27.6943 0.0000
# 6 0.0000 0.0000 0.0000 0.0000 0.0000 33.3689
#
#
#
# Elastic Compliance Matrix: (Units=1/GPa)
#
#
# Indices 1 2 3 4 5 6 
#
# 1 0.015726 0.000919 -0.005123 0.000000 0.000000 0.000000
# 2 0.000919 0.019079 -0.005261 0.000000 0.000000 0.000000
# 3 -0.005123 -0.005261 0.010042 0.000000 0.000000 0.000000
# 4 0.000000 0.000000 0.000000 0.042900 0.000000 0.000000
# 5 0.000000 0.000000 0.000000 0.000000 -0.036109 0.000000
# 6 0.000000 0.000000 0.000000 0.000000 0.000000 0.029968
#
#
# Mechanical properties :
#
#
# Convention : Reuss Voigt Hill
#
# Bulk Modulus (GPa) = 38.58660 50.99816 44.79238
# Shear Modulus (GPa) = 45.79774 18.57993 32.18883
#
# Velocity S-wave (km/s) = 4.81872 3.06925 4.03982
# Velocity P-wave (km/s) = 7.10802 6.19815 6.66862
#
# Compressibility (1/GPa) = 0.02591573
#
# Stress axis : x y z
#
# Youngs Moduli (GPa) = 63.58968 52.41378 99.58191
#
# Poissons Ratio (x) = -0.04814 0.51017
# Poissons Ratio (y) = -0.05841 0.52389
# Poissons Ratio (z) = 0.32578 0.27574
#
# Static dielectric constant tensor:
#      x y z
#    x 3.295960 0.000000 0.000000 
#    y 0.000000 3.585890 0.000000 
#    z 0.000000 0.000000 3.948000 
# 
# 
# High freq. dielectric constant tensor:
#      x y z
#    x 1.744160 0.000000 0.000000 
#    y 0.000000 1.778350 0.000000 
#    z 0.000000 0.000000 1.789940 
# 
# From -- ./inp_files/31919.got.cif
#   From: 2010.03.12/outbox.cif.g09.slc.cpg/sg62_16_cif.got.tgz:31919.got - 2010.04.10 19:12:36.
