data_PCOD8251929
_publ_section_title
;
Structure prediction by ZEFSAII (Michael W. Deem and Ramdas Pophale) SiO2 
 PCOD8251929
Probable space group: P N M A
;
_chemical_formula_sum "Si O2"
_cell_formula_units_Z 64
_cell_length_a 7.768198
_cell_length_b 17.115649
_cell_length_c 23.405020
_cell_angle_alpha 90.000000
_cell_angle_beta 90.000000
_cell_angle_gamma 90.000000
_cell_volume 3111.878806
_symmetry_space_group_name_H-M "P N M A"
_symmetry_group_IT_number 62
_symmetry_cell_setting 'orthorhombic'
loop_
_space_group_symop_operation_xyz
x,y,z
1/2-x,-y,1/2+z
1/2+x,1/2-y,1/2-z
-x,1/2+y,-z
-x,-y,-z
1/2+x,y,1/2-z
1/2-x,1/2+y,1/2+z
x,1/2-y,z
loop_
_atom_site_type_symbol
_atom_site_label
_atom_site_fract_x
_atom_site_fract_y
_atom_site_fract_z
Si Si1 0.398272 0.157511 0.931709
Si Si2 0.299170 0.874361 0.869852
Si Si3 0.787124 0.838329 0.503751
Si Si4 0.594462 0.156882 0.483687
Si Si5 0.897470 0.165420 0.286190
Si Si6 0.973977 0.490523 0.225986
Si Si7 0.595296 0.383189 0.359495
Si Si8 0.832901 0.456463 0.666110
O O1 0.406854 0.250000 0.923536
O O2 0.568852 0.122647 0.962741
O O3 0.229862 0.133962 0.967821
O O4 0.384015 0.119367 0.869442
O O5 0.424030 0.841673 0.821165
O O6 0.100714 0.850016 0.857651
O O7 0.320401 0.968014 0.874420
O O8 0.354737 0.841440 0.931257
O O9 0.775313 0.750000 0.483234
O O10 0.595129 0.874533 0.497119
O O11 0.591482 0.250000 0.471313
O O12 0.649443 0.110937 0.425932
O O13 0.906503 0.250000 0.254641
O O14 0.879868 0.093230 0.241585
O O15 0.732719 0.171325 0.327769
O O16 0.848356 0.554043 0.198041
O O17 0.108379 0.466423 0.175480
O O18 0.033655 0.531392 0.282975
#
# Coordination Sequence:
#
# PCOD8251929 Si02
#       8
#     8   8   8   8   8   8   8   8
#     4  10  21  39  62  88 114 145 193 250 303 352
#     4   9  20  35  55  83 118 153 191 227 283 344
#     4   9  17  33  55  84 120 149 180 229 286 345
#     4   9  18  33  56  86 119 149 182 234 294 350
#     4  11  21  32  53  82 113 156 201 232 270 330
#     4  10  21  41  55  79 117 157 198 240 289 338
#     4  10  19  36  55  80 116 156 196 230 282 342
#     4  10  21  41  61  79 116 156 194 248 294 346
#
# _framework density 20.566355000000001
#
# number of rings (size 3 to 8) (size 9 to 14) (size 15 to 20)
#    0.000    2.250    1.250    1.500    0.000    4.000 
#    2.250    8.125    0.000    0.000    0.000    0.000 
#    0.000    0.000    0.000    0.000    0.000    0.000 
#
# Total GULP energy -792886.096367 kJ/mol
# GULP energy per Si atom -12388.845256 kJ/mol
# Density = 2.051955 g / cm^3
# Si number density = 20.566355 Si / 1000 Ang^3
#
#
#
# Elastic Constant Matrix: (Units=GPa)
#
#
# Indices 1 2 3 4 5 6 
#
# 1 77.9902 18.2063 39.1614 0.0000 0.0000 0.0000
# 2 18.2063 38.8671 38.1606 0.0000 0.0000 0.0000
# 3 39.1614 38.1606 124.8613 0.0000 0.0000 0.0000
# 4 0.0000 0.0000 0.0000 35.2338 0.0000 0.0000
# 5 0.0000 0.0000 0.0000 0.0000 30.9258 0.0000
# 6 0.0000 0.0000 0.0000 0.0000 0.0000 0.6334
#
#
#
# Elastic Compliance Matrix: (Units=1/GPa)
#
#
# Indices 1 2 3 4 5 6 
#
# 1 0.015558 -0.003567 -0.003789 0.000000 0.000000 0.000000
# 2 -0.003567 0.037577 -0.010366 0.000000 0.000000 0.000000
# 3 -0.003789 -0.010366 0.012365 0.000000 0.000000 0.000000
# 4 0.000000 0.000000 0.000000 0.028382 0.000000 0.000000
# 5 0.000000 0.000000 0.000000 0.000000 0.032335 0.000000
# 6 0.000000 0.000000 0.000000 0.000000 0.000000 1.578748
#
#
# Mechanical properties :
#
#
# Convention : Reuss Voigt Hill
#
# Bulk Modulus (GPa) = 33.27157 48.08615 40.67886
# Shear Modulus (GPa) = 2.85644 23.10462 12.98053
#
# Velocity S-wave (km/s) = 1.17979 3.35538 2.51500
# Velocity P-wave (km/s) = 4.25073 6.20026 5.31563
#
# Compressibility (1/GPa) = 0.03005569
#
# Stress axis : x y z
#
# Youngs Moduli (GPa) = 64.27737 26.61216 80.87147
#
# Poissons Ratio (x) = 0.09493 0.30644
# Poissons Ratio (y) = 0.22929 0.83828
# Poissons Ratio (z) = 0.24356 0.27585
#
# Static dielectric constant tensor:
#      x y z
#    x 4.007700 0.000000 0.000000 
#    y 0.000000 3.230070 0.000000 
#    z 0.000000 0.000000 3.675270 
# 
# 
# High freq. dielectric constant tensor:
#      x y z
#    x 1.820420 0.000000 0.000000 
#    y 0.000000 1.748170 0.000000 
#    z 0.000000 0.000000 1.800570 
# 
# From -- ./inp_files/26151.got.cif
#   From: 2010.03.12/outbox.cif.g09.slc.cpg/sg62_14_cif.got.tgz:26151.got - 2010.04.10 19:12:36.
