data_PCOD8251103
_publ_section_title
;
Structure prediction by ZEFSAII (Michael W. Deem and Ramdas Pophale) SiO2 
 PCOD8251103
Probable space group: P N M A
;
_chemical_formula_sum "Si O2"
_cell_formula_units_Z 56
_cell_length_a 17.540226
_cell_length_b 8.930726
_cell_length_c 19.696650
_cell_angle_alpha 90.000000
_cell_angle_beta 90.000000
_cell_angle_gamma 90.000000
_cell_volume 3085.420195
_symmetry_space_group_name_H-M "P N M A"
_symmetry_group_IT_number 62
_symmetry_cell_setting 'orthorhombic'
loop_
_space_group_symop_operation_xyz
x,y,z
1/2-x,-y,1/2+z
1/2+x,1/2-y,1/2-z
-x,1/2+y,-z
-x,-y,-z
1/2+x,y,1/2-z
1/2-x,1/2+y,1/2+z
x,1/2-y,z
loop_
_atom_site_type_symbol
_atom_site_label
_atom_site_fract_x
_atom_site_fract_y
_atom_site_fract_z
Si Si1 0.184777 0.922977 0.963371
Si Si2 0.285261 0.427891 0.614702
Si Si3 0.120268 0.428141 0.593332
Si Si4 0.569259 0.571966 0.310647
Si Si5 0.468083 0.072040 0.837832
Si Si6 0.464357 0.572941 0.433498
Si Si7 0.857367 0.923007 0.559581
O O1 0.160084 0.750000 0.960142
O O2 0.267233 0.946623 0.929605
O O3 0.122955 0.021654 0.923293
O O4 0.186095 0.980490 0.040915
O O5 0.282458 0.250000 0.614009
O O6 0.199061 0.488175 0.627866
O O7 0.345283 0.486864 0.670810
O O8 0.119892 0.250000 0.595262
O O9 0.117134 0.479919 0.514936
O O10 0.048004 0.494055 0.633822
O O11 0.569686 0.750000 0.308014
O O12 0.545099 0.506478 0.237629
O O13 0.510081 0.516188 0.367413
O O14 0.470723 0.250000 0.836888
O O15 0.398965 0.022356 0.884914
O O16 0.500000 0.500000 0.500000
O O17 0.469554 0.750000 0.440796
O O18 0.879676 0.750000 0.569284
#
# Coordination Sequence:
#
# PCOD8251103 Si02
#       7
#     8   8   8   8   8   8   8
#     4   9  17  32  53  74  97 128 170 208 246 301
#     4   8  13  27  49  69  92 128 166 197 239 296
#     4   8  15  28  50  74  95 127 170 205 240 294
#     4   9  18  31  47  71 103 134 164 202 249 303
#     4  10  19  32  49  76 104 127 166 214 252 289
#     4  11  20  32  52  76 102 132 170 213 257 302
#     4   9  18  33  53  74  98 135 170 202 251 308
#
# _framework density 18.149877
#
# number of rings (size 3 to 8) (size 9 to 14) (size 15 to 20)
#    0.000    2.857    1.429    2.571    0.000    0.571 
#    2.571    1.429    0.000    0.857    0.000    0.000 
#    0.000    0.000    0.000    0.000    0.000    0.000 
#
# Total GULP energy -694132.138453 kJ/mol
# GULP energy per Si atom -12395.216758 kJ/mol
# Density = 1.810857 g / cm^3
# Si number density = 18.149877 Si / 1000 Ang^3
#
#
#
# Elastic Constant Matrix: (Units=GPa)
#
#
# Indices 1 2 3 4 5 6 
#
# 1 146.0329 23.2755 83.2020 0.0000 0.0000 0.0000
# 2 23.2755 22.5932 19.2307 0.0000 0.0000 0.0000
# 3 83.2020 19.2307 130.2011 0.0000 0.0000 0.0000
# 4 0.0000 0.0000 0.0000 17.1586 0.0000 0.0000
# 5 0.0000 0.0000 0.0000 0.0000 24.3726 0.0000
# 6 0.0000 0.0000 0.0000 0.0000 0.0000 26.0842
#
#
#
# Elastic Compliance Matrix: (Units=1/GPa)
#
#
# Indices 1 2 3 4 5 6 
#
# 1 0.011527 -0.006411 -0.006419 0.000000 0.000000 0.000000
# 2 -0.006411 0.054191 -0.003907 0.000000 0.000000 0.000000
# 3 -0.006419 -0.003907 0.012359 0.000000 0.000000 0.000000
# 4 0.000000 0.000000 0.000000 0.058280 0.000000 0.000000
# 5 0.000000 0.000000 0.000000 0.000000 0.041030 0.000000
# 6 0.000000 0.000000 0.000000 0.000000 0.000000 0.038337
#
#
# Mechanical properties :
#
#
# Convention : Reuss Voigt Hill
#
# Bulk Modulus (GPa) = 22.42002 61.13817 41.77910
# Shear Modulus (GPa) = 18.93458 25.06435 21.99946
#
# Velocity S-wave (km/s) = 3.23342 3.72017 3.48530
# Velocity P-wave (km/s) = 5.13026 7.22573 6.26621
#
# Compressibility (1/GPa) = 0.04460299
#
# Stress axis : x y z
#
# Youngs Moduli (GPa) = 86.75387 18.45310 80.90982
#
# Poissons Ratio (x) = 0.11831 0.51936
# Poissons Ratio (y) = 0.55620 0.31612
# Poissons Ratio (z) = 0.55688 0.07210
#
# Static dielectric constant tensor:
#      x y z
#    x 3.812340 0.000000 0.000000 
#    y 0.000000 2.878050 0.000000 
#    z 0.000000 0.000000 3.389310 
# 
# 
# High freq. dielectric constant tensor:
#      x y z
#    x 1.723090 0.000000 0.000000 
#    y 0.000000 1.654510 0.000000 
#    z 0.000000 0.000000 1.687250 
# 
# From -- ./inp_files/27569.got.cif
#   From: 2010.03.12/outbox.cif.g09.slc.cpg/sg62_14_cif.got.tgz:27569.got - 2010.04.10 19:12:36.
