data_PCOD8251728
_publ_section_title
;
Structure prediction by ZEFSAII (Michael W. Deem and Ramdas Pophale) SiO2 
 PCOD8251728
Probable space group: P N M A
;
_chemical_formula_sum "Si O2"
_cell_formula_units_Z 64
_cell_length_a 12.837252
_cell_length_b 8.757866
_cell_length_c 29.151857
_cell_angle_alpha 90.000000
_cell_angle_beta 90.000000
_cell_angle_gamma 90.000000
_cell_volume 3277.453869
_symmetry_space_group_name_H-M "P N M A"
_symmetry_group_IT_number 62
_symmetry_cell_setting 'orthorhombic'
loop_
_space_group_symop_operation_xyz
x,y,z
1/2-x,-y,1/2+z
1/2+x,1/2-y,1/2-z
-x,1/2+y,-z
-x,-y,-z
1/2+x,y,1/2-z
1/2-x,1/2+y,1/2+z
x,1/2-y,z
loop_
_atom_site_type_symbol
_atom_site_label
_atom_site_fract_x
_atom_site_fract_y
_atom_site_fract_z
Si Si1 0.120579 0.929075 0.890590
Si Si2 0.965662 0.425002 0.205900
Si Si3 0.287060 0.572140 0.035478
Si Si4 0.133690 0.573141 0.696054
Si Si5 0.660038 0.926492 0.328173
Si Si6 0.600316 0.070948 0.420608
Si Si7 0.834981 0.930280 0.567525
Si Si8 0.540929 0.068878 0.891460
O O1 0.123233 0.750000 0.898866
O O2 0.110817 0.968459 0.836456
O O3 0.228305 0.996391 0.910062
O O4 0.018907 0.993662 0.918381
O O5 0.002538 0.250000 0.199743
O O6 0.912904 0.452371 0.254051
O O7 0.065108 0.535123 0.205433
O O8 0.269956 0.750000 0.040967
O O9 0.171497 0.499307 0.039259
O O10 0.367944 0.512420 0.073957
O O11 0.334227 0.530895 0.986227
O O12 0.160282 0.750000 0.687346
O O13 0.234915 0.468313 0.697699
O O14 0.054652 0.514454 0.657178
O O15 0.659601 0.750000 0.342290
O O16 0.656530 0.029546 0.373282
O O17 0.598558 0.250000 0.427430
O O18 0.848872 0.750000 0.576679
O O19 0.929373 0.022273 0.589267
O O20 0.545727 0.250000 0.884872
#
# Coordination Sequence:
#
# PCOD8251728 Si02
#       8
#     8   8   8   8   8   8   8   8
#     4   8  17  36  58  82 112 147 188 240 287 337
#     4   9  20  38  59  83 111 146 191 235 283 343
#     4  10  21  36  56  84 116 152 192 243 297 348
#     4  11  22  37  60  86 111 150 199 240 284 343
#     4  11  21  35  56  83 116 148 182 233 291 340
#     4  10  19  34  59  84 110 148 195 239 284 340
#     4  10  21  38  59  82 115 157 196 235 295 360
#     4  11  23  38  55  81 118 152 193 246 295 343
#
# _framework density 19.527353999999999
#
# number of rings (size 3 to 8) (size 9 to 14) (size 15 to 20)
#    0.000    2.000    1.250    3.375    0.000    3.500 
#    0.000    5.625    0.000    0.000    0.000    0.000 
#    0.000    0.000    0.000    0.000    0.000    0.000 
#
# Total GULP energy -793528.156696 kJ/mol
# GULP energy per Si atom -12398.877448 kJ/mol
# Density = 1.948291 g / cm^3
# Si number density = 19.527354 Si / 1000 Ang^3
#
#
#
# Elastic Constant Matrix: (Units=GPa)
#
#
# Indices 1 2 3 4 5 6 
#
# 1 126.6271 27.8905 45.6254 0.0000 0.0000 0.0000
# 2 27.8905 30.1081 20.8680 0.0000 0.0000 0.0000
# 3 45.6254 20.8680 66.6852 0.0000 0.0000 0.0000
# 4 0.0000 0.0000 0.0000 21.9982 0.0000 0.0000
# 5 0.0000 0.0000 0.0000 0.0000 18.8745 0.0000
# 6 0.0000 0.0000 0.0000 0.0000 0.0000 26.1148
#
#
#
# Elastic Compliance Matrix: (Units=1/GPa)
#
#
# Indices 1 2 3 4 5 6 
#
# 1 0.011422 -0.006595 -0.005751 0.000000 0.000000 0.000000
# 2 -0.006595 0.046220 -0.009952 0.000000 0.000000 0.000000
# 3 -0.005751 -0.009952 0.022045 0.000000 0.000000 0.000000
# 4 0.000000 0.000000 0.000000 0.045458 0.000000 0.000000
# 5 0.000000 0.000000 0.000000 0.000000 0.052982 0.000000
# 6 0.000000 0.000000 0.000000 0.000000 0.000000 0.038292
#
#
# Mechanical properties :
#
#
# Convention : Reuss Voigt Hill
#
# Bulk Modulus (GPa) = 28.49656 45.79870 37.14763
# Shear Modulus (GPa) = 18.33439 21.99993 20.16716
#
# Velocity S-wave (km/s) = 3.06749 3.36016 3.21715
# Velocity P-wave (km/s) = 5.21256 6.20957 5.73278
#
# Compressibility (1/GPa) = 0.03509195
#
# Stress axis : x y z
#
# Youngs Moduli (GPa) = 87.55107 21.63562 45.36189
#
# Poissons Ratio (x) = 0.14268 0.26088
# Poissons Ratio (y) = 0.57736 0.45143
# Poissons Ratio (z) = 0.50352 0.21531
#
# Static dielectric constant tensor:
#      x y z
#    x 3.841650 0.000000 0.000000 
#    y 0.000000 3.458410 0.000000 
#    z 0.000000 0.000000 3.599030 
# 
# 
# High freq. dielectric constant tensor:
#      x y z
#    x 1.769550 0.000000 0.000000 
#    y 0.000000 1.746320 0.000000 
#    z 0.000000 0.000000 1.758380 
# 
# From -- ./inp_files/32573.got.cif
#   From: 2010.03.12/outbox.cif.g09.slc.cpg/sg62_17_cif.got.tgz:32573.got - 2010.04.10 19:12:36.
