data_PCOD8251454
_publ_section_title
;
Structure prediction by ZEFSAII (Michael W. Deem and Ramdas Pophale) SiO2 
 PCOD8251454
Probable space group: P N M A
;
_chemical_formula_sum "Si O2"
_cell_formula_units_Z 56
_cell_length_a 18.307748
_cell_length_b 9.286526
_cell_length_c 18.736952
_cell_angle_alpha 90.000000
_cell_angle_beta 90.000000
_cell_angle_gamma 90.000000
_cell_volume 3185.569973
_symmetry_space_group_name_H-M "P N M A"
_symmetry_group_IT_number 62
_symmetry_cell_setting 'orthorhombic'
loop_
_space_group_symop_operation_xyz
x,y,z
1/2-x,-y,1/2+z
1/2+x,1/2-y,1/2-z
-x,1/2+y,-z
-x,-y,-z
1/2+x,y,1/2-z
1/2-x,1/2+y,1/2+z
x,1/2-y,z
loop_
_atom_site_type_symbol
_atom_site_label
_atom_site_fract_x
_atom_site_fract_y
_atom_site_fract_z
Si Si1 0.182940 0.917146 0.107134
Si Si2 0.460179 0.584645 0.561817
Si Si3 0.144909 0.915143 0.260570
Si Si4 0.490038 0.911225 0.715890
Si Si5 0.882415 0.582351 0.607136
Si Si6 0.838091 0.580509 0.452317
Si Si7 0.449793 0.411993 0.140986
O O1 0.162880 0.750000 0.092536
O O2 0.197807 0.940286 0.192249
O O3 0.255821 0.964688 0.066187
O O4 0.118751 0.017161 0.077493
O O5 0.500000 0.500000 0.500000
O O6 0.449298 0.750000 0.538595
O O7 0.511948 0.574441 0.632654
O O8 0.142625 0.750000 0.283958
O O9 0.065973 0.962680 0.232860
O O10 0.166012 0.006340 0.330910
O O11 0.455270 0.750000 0.728325
O O12 0.556726 0.927507 0.772248
O O13 0.865410 0.750000 0.612461
O O14 0.857267 0.520421 0.530758
O O15 0.967869 0.547501 0.617402
O O16 0.848705 0.750000 0.449150
O O17 0.893034 0.517919 0.394384
O O18 0.431342 0.250000 0.116526
#
# Coordination Sequence:
#
# PCOD8251454 Si02
#       7
#     8   8   8   8   8   8   8
#     4   9  19  35  51  70  98 130 165 203 247 297
#     4  10  19  33  55  78 100 128 164 207 251 293
#     4   9  16  28  49  71  90 117 156 202 243 281
#     4   8  16  31  49  70  96 124 155 193 238 290
#     4   9  18  32  49  70  97 130 166 200 239 292
#     4  10  20  33  49  70 100 135 164 198 248 299
#     4   9  17  30  48  71  98 126 162 205 241 284
#
# _framework density 17.579272
#
# number of rings (size 3 to 8) (size 9 to 14) (size 15 to 20)
#    0.000    2.857    0.000    2.143    0.000    4.571 
#    0.000    1.429    0.000    5.143    0.000    0.000 
#    0.000    0.000    0.000    0.000    0.000    0.000 
#
# Total GULP energy -693956.583571 kJ/mol
# GULP energy per Si atom -12392.081849 kJ/mol
# Density = 1.753926 g / cm^3
# Si number density = 17.579272 Si / 1000 Ang^3
#
#
#
# Elastic Constant Matrix: (Units=GPa)
#
#
# Indices 1 2 3 4 5 6 
#
# 1 65.5583 40.7813 61.5207 0.0000 0.0000 0.0000
# 2 40.7813 71.5578 58.6166 0.0000 0.0000 0.0000
# 3 61.5207 58.6166 153.9949 0.0000 0.0000 0.0000
# 4 0.0000 0.0000 0.0000 32.9162 0.0000 0.0000
# 5 0.0000 0.0000 0.0000 0.0000 17.1151 0.0000
# 6 0.0000 0.0000 0.0000 0.0000 0.0000 20.1127
#
#
#
# Elastic Compliance Matrix: (Units=1/GPa)
#
#
# Indices 1 2 3 4 5 6 
#
# 1 0.028687 -0.010115 -0.007610 0.000000 0.000000 0.000000
# 2 -0.010115 0.023873 -0.005046 0.000000 0.000000 0.000000
# 3 -0.007610 -0.005046 0.011455 0.000000 0.000000 0.000000
# 4 0.000000 0.000000 0.000000 0.030380 0.000000 0.000000
# 5 0.000000 0.000000 0.000000 0.000000 0.058428 0.000000
# 6 0.000000 0.000000 0.000000 0.000000 0.000000 0.049720
#
#
# Mechanical properties :
#
#
# Convention : Reuss Voigt Hill
#
# Bulk Modulus (GPa) = 54.13578 68.10534 61.12056
# Shear Modulus (GPa) = 19.66621 22.70831 21.18726
#
# Velocity S-wave (km/s) = 3.34835 3.59801 3.47542
# Velocity P-wave (km/s) = 6.76836 7.48912 7.13784
#
# Compressibility (1/GPa) = 0.01847207
#
# Stress axis : x y z
#
# Youngs Moduli (GPa) = 34.85843 41.88872 87.30016
#
# Poissons Ratio (x) = 0.42371 0.66439
# Poissons Ratio (y) = 0.35260 0.44051
# Poissons Ratio (z) = 0.26529 0.21137
#
# Static dielectric constant tensor:
#      x y z
#    x 2.893810 0.000000 0.000000 
#    y 0.000000 3.290860 0.000000 
#    z 0.000000 0.000000 3.729330 
# 
# 
# High freq. dielectric constant tensor:
#      x y z
#    x 1.630580 0.000000 0.000000 
#    y 0.000000 1.683950 0.000000 
#    z 0.000000 0.000000 1.698400 
# 
# From -- ./inp_files/24578.got.cif
#   From: 2010.03.12/outbox.cif.g09.slc.cpg/sg62_13_cif.got.tgz:24578.got - 2010.04.10 19:12:36.
