data_PCOD8251974
_publ_section_title
;
Structure prediction by ZEFSAII (Michael W. Deem and Ramdas Pophale) SiO2 
 PCOD8251974
Probable space group: P N M A
;
_chemical_formula_sum "Si O2"
_cell_formula_units_Z 64
_cell_length_a 14.439687
_cell_length_b 8.983160
_cell_length_c 25.238650
_cell_angle_alpha 90.000000
_cell_angle_beta 90.000000
_cell_angle_gamma 90.000000
_cell_volume 3273.806717
_symmetry_space_group_name_H-M "P N M A"
_symmetry_group_IT_number 62
_symmetry_cell_setting 'orthorhombic'
loop_
_space_group_symop_operation_xyz
x,y,z
1/2-x,-y,1/2+z
1/2+x,1/2-y,1/2-z
-x,1/2+y,-z
-x,-y,-z
1/2+x,y,1/2-z
1/2-x,1/2+y,1/2+z
x,1/2-y,z
loop_
_atom_site_type_symbol
_atom_site_label
_atom_site_fract_x
_atom_site_fract_y
_atom_site_fract_z
Si Si1 0.955805 0.426469 0.448874
Si Si2 0.446175 0.079859 0.751218
Si Si3 0.297886 0.573965 0.386773
Si Si4 0.598933 0.072468 0.509530
Si Si5 0.845340 0.575985 0.228957
Si Si6 0.250543 0.573462 0.575008
Si Si7 0.705433 0.074286 0.308302
Si Si8 0.591437 0.922804 0.128207
O O1 0.960531 0.250000 0.454416
O O2 0.850149 0.483182 0.443749
O O3 0.000000 0.500000 0.500000
O O4 0.011714 0.476640 0.396999
O O5 0.429335 0.250000 0.734375
O O6 0.553785 0.041115 0.751207
O O7 0.405124 0.048394 0.809134
O O8 0.397338 0.976029 0.707916
O O9 0.303415 0.750000 0.386755
O O10 0.360883 0.512447 0.434518
O O11 0.336727 0.513506 0.330918
O O12 0.190758 0.527102 0.395250
O O13 0.588897 0.250000 0.508882
O O14 0.670033 0.015747 0.464595
O O15 0.500000 0.000000 0.500000
O O16 0.820115 0.750000 0.230841
O O17 0.775925 0.490375 0.266236
O O18 0.250519 0.750000 0.575732
O O19 0.271839 0.510426 0.633478
O O20 0.712255 0.250000 0.307742
O O21 0.570407 0.750000 0.115692
#
# Coordination Sequence:
#
# PCOD8251974 Si02
#       8
#     8   8   8   8   8   8   8   8
#     4  11  22  38  61  87 115 150 192 237 289 350
#     4  10  21  36  59  86 116 153 196 243 292 348
#     4   9  18  35  59  81 112 152 188 228 291 351
#     4  10  21  39  60  82 109 150 195 237 283 337
#     4  10  20  37  59  86 116 152 195 242 292 347
#     4   9  21  40  58  79 117 160 190 226 291 357
#     4  11  22  37  58  85 119 159 195 235 292 351
#     4  10  19  36  59  85 116 152 188 234 292 348
#
# _framework density 19.549106999999999
#
# number of rings (size 3 to 8) (size 9 to 14) (size 15 to 20)
#    0.000    2.000    1.250    2.250    1.750    3.000 
#    0.000    6.250    0.000    0.000    0.000    0.000 
#    0.000    0.000    0.000    0.000    0.000    0.000 
#
# Total GULP energy -793725.830759 kJ/mol
# GULP energy per Si atom -12401.966106 kJ/mol
# Density = 1.950461 g / cm^3
# Si number density = 19.549107 Si / 1000 Ang^3
#
#
#
# Elastic Constant Matrix: (Units=GPa)
#
#
# Indices 1 2 3 4 5 6 
#
# 1 126.7830 32.5269 56.7613 0.0000 0.0000 0.0000
# 2 32.5269 46.3183 31.1715 0.0000 0.0000 0.0000
# 3 56.7613 31.1715 127.9972 0.0000 0.0000 0.0000
# 4 0.0000 0.0000 0.0000 25.0115 0.0000 0.0000
# 5 0.0000 0.0000 0.0000 0.0000 40.4210 0.0000
# 6 0.0000 0.0000 0.0000 0.0000 0.0000 33.5053
#
#
#
# Elastic Compliance Matrix: (Units=1/GPa)
#
#
# Indices 1 2 3 4 5 6 
#
# 1 0.010802 -0.005217 -0.003520 0.000000 0.000000 0.000000
# 2 -0.005217 0.028341 -0.004589 0.000000 0.000000 0.000000
# 3 -0.003520 -0.004589 0.010491 0.000000 0.000000 0.000000
# 4 0.000000 0.000000 0.000000 0.039982 0.000000 0.000000
# 5 0.000000 0.000000 0.000000 0.000000 0.024740 0.000000
# 6 0.000000 0.000000 0.000000 0.000000 0.000000 0.029846
#
#
# Mechanical properties :
#
#
# Convention : Reuss Voigt Hill
#
# Bulk Modulus (GPa) = 43.50876 60.22419 51.86648
# Shear Modulus (GPa) = 28.00926 31.83015 29.91971
#
# Velocity S-wave (km/s) = 3.78929 4.03949 3.91639
# Velocity P-wave (km/s) = 6.43812 7.25466 6.85856
#
# Compressibility (1/GPa) = 0.02298388
#
# Stress axis : x y z
#
# Youngs Moduli (GPa) = 92.57859 35.28420 95.32035
#
# Poissons Ratio (x) = 0.18407 0.33549
# Poissons Ratio (y) = 0.48296 0.43739
# Poissons Ratio (z) = 0.32584 0.16191
#
# Static dielectric constant tensor:
#      x y z
#    x 3.855960 0.000000 0.000000 
#    y 0.000000 3.318860 0.000000 
#    z 0.000000 0.000000 3.982000 
# 
# 
# High freq. dielectric constant tensor:
#      x y z
#    x 1.777210 0.000000 0.000000 
#    y 0.000000 1.726980 0.000000 
#    z 0.000000 0.000000 1.776080 
# 
# From -- ./inp_files/29777.got.cif
#   From: 2010.03.12/outbox.cif.g09.slc.cpg/sg62_15_cif.got.tgz:29777.got - 2010.04.10 19:12:36.
