data_PCOD8251201
_publ_section_title
;
Structure prediction by ZEFSAII (Michael W. Deem and Ramdas Pophale) SiO2 
 PCOD8251201
Probable space group: P N M A
;
_chemical_formula_sum "Si O2"
_cell_formula_units_Z 40
_cell_length_a 9.545072
_cell_length_b 9.202677
_cell_length_c 25.371542
_cell_angle_alpha 90.000000
_cell_angle_beta 90.000000
_cell_angle_gamma 90.000000
_cell_volume 2228.641693
_symmetry_space_group_name_H-M "P N M A"
_symmetry_group_IT_number 62
_symmetry_cell_setting 'orthorhombic'
loop_
_space_group_symop_operation_xyz
x,y,z
1/2-x,-y,1/2+z
1/2+x,1/2-y,1/2-z
-x,1/2+y,-z
-x,-y,-z
1/2+x,y,1/2-z
1/2-x,1/2+y,1/2+z
x,1/2-y,z
loop_
_atom_site_type_symbol
_atom_site_label
_atom_site_fract_x
_atom_site_fract_y
_atom_site_fract_z
Si Si1 0.028385 0.919900 0.335965
Si Si2 0.279021 0.416811 0.628302
Si Si3 0.976808 0.919050 0.945800
Si Si4 0.702125 0.581131 0.642361
Si Si5 0.498954 0.582381 0.283787
O O1 0.061870 0.750000 0.340160
O O2 0.881864 0.958808 0.363309
O O3 0.026996 0.970761 0.275304
O O4 0.147047 0.008587 0.366916
O O5 0.296215 0.250000 0.610450
O O6 0.338964 0.518373 0.582463
O O7 0.359533 0.443270 0.683236
O O8 0.952238 0.750000 0.956514
O O9 0.112254 0.948003 0.909912
O O10 0.000000 0.000000 0.000000
O O11 0.720654 0.750000 0.653971
O O12 0.628335 0.509915 0.692837
O O13 0.451125 0.750000 0.284500
#
# Coordination Sequence:
#
# PCOD8251201 Si02
#       5
#     8   8   8   8   8
#     4  10  19  32  52  78 108 141 174 207 245 295
#     4   9  18  32  52  78 105 134 171 212 251 294
#     4  10  21  38  58  76  96 127 169 214 260 310
#     4  10  21  34  50  77 108 135 167 209 256 304
#     4   9  17  32  53  75 103 141 179 208 238 287
#
# _framework density 17.948150999999999
#
# number of rings (size 3 to 8) (size 9 to 14) (size 15 to 20)
#    0.000    2.400    0.000    2.400    0.000    7.200 
#    0.000    5.000    0.000    0.000    0.000    0.000 
#    0.000    0.000    0.000    0.000    0.000    0.000 
#
# Total GULP energy -496170.055159 kJ/mol
# GULP energy per Si atom -12404.251379 kJ/mol
# Density = 1.790730 g / cm^3
# Si number density = 17.948151 Si / 1000 Ang^3
#
#
#
# Elastic Constant Matrix: (Units=GPa)
#
#
# Indices 1 2 3 4 5 6 
#
# 1 138.4547 70.0561 45.3114 0.0000 0.0000 0.0000
# 2 70.0561 99.1917 59.7157 0.0000 0.0000 0.0000
# 3 45.3114 59.7157 96.2277 0.0000 0.0000 0.0000
# 4 0.0000 0.0000 0.0000 27.8139 0.0000 0.0000
# 5 0.0000 0.0000 0.0000 0.0000 11.2388 0.0000
# 6 0.0000 0.0000 0.0000 0.0000 0.0000 32.3692
#
#
#
# Elastic Compliance Matrix: (Units=1/GPa)
#
#
# Indices 1 2 3 4 5 6 
#
# 1 0.011260 -0.007600 -0.000586 0.000000 0.000000 0.000000
# 2 -0.007600 0.021224 -0.009592 0.000000 0.000000 0.000000
# 3 -0.000586 -0.009592 0.016620 0.000000 0.000000 0.000000
# 4 0.000000 0.000000 0.000000 0.035953 0.000000 0.000000
# 5 0.000000 0.000000 0.000000 0.000000 0.088978 0.000000
# 6 0.000000 0.000000 0.000000 0.000000 0.000000 0.030894
#
#
# Mechanical properties :
#
#
# Convention : Reuss Voigt Hill
#
# Bulk Modulus (GPa) = 73.80935 76.00450 74.90692
# Shear Modulus (GPa) = 20.40820 24.87043 22.63931
#
# Velocity S-wave (km/s) = 3.37570 3.72651 3.55543
# Velocity P-wave (km/s) = 7.51044 7.80734 7.66033
#
# Compressibility (1/GPa) = 0.01354842
#
# Stress axis : x y z
#
# Youngs Moduli (GPa) = 88.81309 47.11736 60.16691
#
# Poissons Ratio (x) = 0.35808 0.03525
# Poissons Ratio (y) = 0.67495 0.57713
# Poissons Ratio (z) = 0.05203 0.45196
#
# Static dielectric constant tensor:
#      x y z
#    x 3.367170 0.000000 0.000000 
#    y 0.000000 3.325270 0.000000 
#    z 0.000000 0.000000 3.177280 
# 
# 
# High freq. dielectric constant tensor:
#      x y z
#    x 1.699540 0.000000 0.000000 
#    y 0.000000 1.695110 0.000000 
#    z 0.000000 0.000000 1.679820 
# 
# From -- ./inp_files/28562.got.cif
#   From: 2010.03.12/outbox.cif.g09.slc.cpg/sg62_15_cif.got.tgz:28562.got - 2010.04.10 19:12:36.
