data_PCOD8251152
_publ_section_title
;
Structure prediction by ZEFSAII (Michael W. Deem and Ramdas Pophale) SiO2 
 PCOD8251152
Probable space group: P N M A
;
_chemical_formula_sum "Si O2"
_cell_formula_units_Z 40
_cell_length_a 18.163646
_cell_length_b 9.048496
_cell_length_c 13.571359
_cell_angle_alpha 90.000000
_cell_angle_beta 90.000000
_cell_angle_gamma 90.000000
_cell_volume 2230.502770
_symmetry_space_group_name_H-M "P N M A"
_symmetry_group_IT_number 62
_symmetry_cell_setting 'orthorhombic'
loop_
_space_group_symop_operation_xyz
x,y,z
1/2-x,-y,1/2+z
1/2+x,1/2-y,1/2-z
-x,1/2+y,-z
-x,-y,-z
1/2+x,y,1/2-z
1/2-x,1/2+y,1/2+z
x,1/2-y,z
loop_
_atom_site_type_symbol
_atom_site_label
_atom_site_fract_x
_atom_site_fract_y
_atom_site_fract_z
Si Si1 0.834419 0.575298 0.086428
Si Si2 0.184943 0.925693 0.317292
Si Si3 0.625539 0.425657 0.369123
Si Si4 0.479714 0.576868 0.305599
Si Si5 0.532214 0.920083 0.093557
O O1 0.832092 0.750000 0.090921
O O2 0.758116 0.513127 0.129985
O O3 0.902052 0.518424 0.153226
O O4 0.843521 0.522019 0.974555
O O5 0.185302 0.750000 0.300350
O O6 0.115383 0.973288 0.384060
O O7 0.179400 0.003560 0.211533
O O8 0.624787 0.250000 0.357928
O O9 0.542904 0.485493 0.360093
O O10 0.492813 0.750000 0.327933
O O11 0.481447 0.546960 0.188584
O O12 0.532339 0.750000 0.066303
O O13 0.500000 0.000000 0.000000
#
# Coordination Sequence:
#
# PCOD8251152 Si02
#       5
#     8   8   8   8   8
#     4   9  18  33  54  75  98 129 166 204 246 294
#     4   9  19  36  52  70 100 136 166 199 247 302
#     4  10  19  32  51  76 102 128 161 207 250 286
#     4   9  18  34  53  73  97 131 168 199 242 305
#     4   9  18  31  49  70  95 128 165 199 237 285
#
# _framework density 17.933177000000001
#
# number of rings (size 3 to 8) (size 9 to 14) (size 15 to 20)
#    0.000    2.800    0.000    2.400    0.000    4.800 
#    0.000    4.000    0.000    0.000    0.000    0.000 
#    0.000    0.000    0.000    0.000    0.000    0.000 
#
# Total GULP energy -495971.224331 kJ/mol
# GULP energy per Si atom -12399.280608 kJ/mol
# Density = 1.789236 g / cm^3
# Si number density = 17.933177 Si / 1000 Ang^3
#
#
#
# Elastic Constant Matrix: (Units=GPa)
#
#
# Indices 1 2 3 4 5 6 
#
# 1 145.7690 34.0415 105.4267 0.0000 0.0000 0.0000
# 2 34.0415 41.5456 43.8464 0.0000 0.0000 0.0000
# 3 105.4267 43.8464 161.4380 0.0000 0.0000 0.0000
# 4 0.0000 0.0000 0.0000 30.8587 0.0000 0.0000
# 5 0.0000 0.0000 0.0000 0.0000 29.2445 0.0000
# 6 0.0000 0.0000 0.0000 0.0000 0.0000 22.5948
#
#
#
# Elastic Compliance Matrix: (Units=1/GPa)
#
#
# Indices 1 2 3 4 5 6 
#
# 1 0.013169 -0.002403 -0.007948 0.000000 0.000000 0.000000
# 2 -0.002403 0.034180 -0.007714 0.000000 0.000000 0.000000
# 3 -0.007948 -0.007714 0.013480 0.000000 0.000000 0.000000
# 4 0.000000 0.000000 0.000000 0.032406 0.000000 0.000000
# 5 0.000000 0.000000 0.000000 0.000000 0.034194 0.000000
# 6 0.000000 0.000000 0.000000 0.000000 0.000000 0.044258
#
#
# Mechanical properties :
#
#
# Convention : Reuss Voigt Hill
#
# Bulk Modulus (GPa) = 40.48599 79.48687 59.98643
# Shear Modulus (GPa) = 23.14282 27.56879 25.35580
#
# Velocity S-wave (km/s) = 3.59625 3.92510 3.76427
# Velocity P-wave (km/s) = 6.31420 8.05990 7.23986
#
# Compressibility (1/GPa) = 0.02469990
#
# Stress axis : x y z
#
# Youngs Moduli (GPa) = 75.93364 29.25684 74.18613
#
# Poissons Ratio (x) = 0.07030 0.58960
# Poissons Ratio (y) = 0.18247 0.57227
# Poissons Ratio (z) = 0.60349 0.22569
#
# Static dielectric constant tensor:
#      x y z
#    x 3.634480 0.000000 0.000000 
#    y 0.000000 3.087720 0.000000 
#    z 0.000000 0.000000 3.419810 
# 
# 
# High freq. dielectric constant tensor:
#      x y z
#    x 1.696820 0.000000 0.000000 
#    y 0.000000 1.672620 0.000000 
#    z 0.000000 0.000000 1.702110 
# 
# From -- ./inp_files/13857.got.cif
#   From: 2010.03.12/outbox.cif.g09.slc.cpg/sg62_7_cif.got.tgz:13857.got - 2010.04.10 19:12:36.
