data_PCOD8251620
_publ_section_title
;
Structure prediction by ZEFSAII (Michael W. Deem and Ramdas Pophale) SiO2 
 PCOD8251620
Probable space group: P N M A
;
_chemical_formula_sum "Si O2"
_cell_formula_units_Z 56
_cell_length_a 19.351498
_cell_length_b 18.750113
_cell_length_c 8.307172
_cell_angle_alpha 90.000000
_cell_angle_beta 90.000000
_cell_angle_gamma 90.000000
_cell_volume 3014.197334
_symmetry_space_group_name_H-M "P N M A"
_symmetry_group_IT_number 62
_symmetry_cell_setting 'orthorhombic'
loop_
_space_group_symop_operation_xyz
x,y,z
1/2-x,-y,1/2+z
1/2+x,1/2-y,1/2-z
-x,1/2+y,-z
-x,-y,-z
1/2+x,y,1/2-z
1/2-x,1/2+y,1/2+z
x,1/2-y,z
loop_
_atom_site_type_symbol
_atom_site_label
_atom_site_fract_x
_atom_site_fract_y
_atom_site_fract_z
Si Si1 0.680110 0.056889 0.525811
Si Si2 0.196244 0.668244 0.040685
Si Si3 0.516244 0.975455 0.765250
Si Si4 0.262785 0.559591 0.810570
Si Si5 0.901028 0.562811 0.502958
Si Si6 0.077066 0.938548 0.055591
Si Si7 0.335097 0.669419 0.223574
O O1 0.731348 0.074288 0.378883
O O2 0.653895 0.129492 0.607087
O O3 0.716169 0.010190 0.664793
O O4 0.616116 0.014084 0.453459
O O5 0.177836 0.750000 0.998683
O O6 0.127210 0.627215 0.100630
O O7 0.253912 0.664172 0.179274
O O8 0.226079 0.629456 0.882870
O O9 0.466461 0.928166 0.878496
O O10 0.541330 0.925142 0.618444
O O11 0.478682 0.047714 0.696888
O O12 0.581899 0.002387 0.869155
O O13 0.335307 0.539891 0.892867
O O14 0.883813 0.637328 0.415764
O O15 0.359155 0.750000 0.248041
#
# Coordination Sequence:
#
# PCOD8251620 Si02
#       7
#     8   8   8   8   8   8   8
#     4  11  19  34  54  84 105 139 183 228 281 316
#     4   9  20  37  55  79 111 145 175 221 281 325
#     4  10  20  32  56  80 110 139 183 226 261 311
#     4  10  20  31  58  82 110 136 179 234 274 321
#     4  10  19  35  53  82 107 141 178 224 271 315
#     4  10  19  34  55  82 109 144 184 229 260 319
#     4  10  21  37  56  77 111 144 177 225 279 331
#
# _framework density 18.578744
#
# number of rings (size 3 to 8) (size 9 to 14) (size 15 to 20)
#    0.000    2.000    2.857    2.571    2.000    0.571 
#    0.000    1.429    0.000    0.000    0.000    0.000 
#    0.000    0.000    0.000    0.000    0.000    0.000 
#
# Total GULP energy -694314.645473 kJ/mol
# GULP energy per Si atom -12398.475812 kJ/mol
# Density = 1.853646 g / cm^3
# Si number density = 18.578744 Si / 1000 Ang^3
#
#
#
# Elastic Constant Matrix: (Units=GPa)
#
#
# Indices 1 2 3 4 5 6 
#
# 1 65.1247 30.3632 11.3889 0.0000 0.0000 0.0000
# 2 30.3632 105.1702 31.3707 0.0000 0.0000 0.0000
# 3 11.3889 31.3707 88.5056 0.0000 0.0000 0.0000
# 4 0.0000 0.0000 0.0000 17.6000 0.0000 0.0000
# 5 0.0000 0.0000 0.0000 0.0000 28.6573 0.0000
# 6 0.0000 0.0000 0.0000 0.0000 0.0000 23.9582
#
#
#
# Elastic Compliance Matrix: (Units=1/GPa)
#
#
# Indices 1 2 3 4 5 6 
#
# 1 0.017765 -0.004973 -0.000523 0.000000 0.000000 0.000000
# 2 -0.004973 0.012025 -0.003622 0.000000 0.000000 0.000000
# 3 -0.000523 -0.003622 0.012650 0.000000 0.000000 0.000000
# 4 0.000000 0.000000 0.000000 0.056818 0.000000 0.000000
# 5 0.000000 0.000000 0.000000 0.000000 0.034895 0.000000
# 6 0.000000 0.000000 0.000000 0.000000 0.000000 0.041739
#
#
# Mechanical properties :
#
#
# Convention : Reuss Voigt Hill
#
# Bulk Modulus (GPa) = 41.31744 45.00515 43.16130
# Shear Modulus (GPa) = 24.72841 26.42162 25.57501
#
# Velocity S-wave (km/s) = 3.65225 3.77522 3.71425
# Velocity P-wave (km/s) = 6.33030 6.57873 6.45571
#
# Compressibility (1/GPa) = 0.02420286
#
# Stress axis : x y z
#
# Youngs Moduli (GPa) = 56.28992 83.16353 79.05172
#
# Poissons Ratio (x) = 0.41355 0.04138
# Poissons Ratio (y) = 0.27992 0.28634
# Poissons Ratio (z) = 0.02946 0.30123
#
# Static dielectric constant tensor:
#      x y z
#    x 3.576240 0.000000 0.000000 
#    y 0.000000 3.157380 0.000000 
#    z 0.000000 0.000000 3.509290 
# 
# 
# High freq. dielectric constant tensor:
#      x y z
#    x 1.728080 0.000000 0.000000 
#    y 0.000000 1.680600 0.000000 
#    z 0.000000 0.000000 1.727470 
# 
# From -- ./inp_files/8060.got.cif
#   From: 2010.03.12/outbox.cif.g09.slc.cpg/sg62_5_cif.got.tgz:8060.got - 2010.04.10 19:12:36.
