data_PCOD8251332
_publ_section_title
;
Structure prediction by ZEFSAII (Michael W. Deem and Ramdas Pophale) SiO2 
 PCOD8251332
Probable space group: P N M A
;
_chemical_formula_sum "Si O2"
_cell_formula_units_Z 40
_cell_length_a 14.512629
_cell_length_b 14.300648
_cell_length_c 11.649711
_cell_angle_alpha 90.000000
_cell_angle_beta 90.000000
_cell_angle_gamma 90.000000
_cell_volume 2417.781008
_symmetry_space_group_name_H-M "P N M A"
_symmetry_group_IT_number 62
_symmetry_cell_setting 'orthorhombic'
loop_
_space_group_symop_operation_xyz
x,y,z
1/2-x,-y,1/2+z
1/2+x,1/2-y,1/2-z
-x,1/2+y,-z
-x,-y,-z
1/2+x,y,1/2-z
1/2-x,1/2+y,1/2+z
x,1/2-y,z
loop_
_atom_site_type_symbol
_atom_site_label
_atom_site_fract_x
_atom_site_fract_y
_atom_site_fract_z
Si Si1 0.238619 0.356607 0.582474
Si Si2 0.419320 0.941262 0.944052
Si Si3 0.298695 0.513226 0.748980
Si Si4 0.153061 0.643085 0.852002
Si Si5 0.548584 0.143915 0.285486
O O1 0.233599 0.250000 0.624332
O O2 0.136852 0.387841 0.543039
O O3 0.272433 0.416624 0.690255
O O4 0.312117 0.369346 0.481227
O O5 0.348087 0.007878 0.872141
O O6 0.461548 0.866428 0.853523
O O7 0.500000 0.000000 0.000000
O O8 0.207716 0.575755 0.766048
O O9 0.370255 0.574406 0.670869
O O10 0.167795 0.750000 0.810759
O O11 0.045900 0.615400 0.847909
O O12 0.575976 0.250000 0.314956
#
# Coordination Sequence:
#
# PCOD8251332 Si02
#       5
#     8   8   8   8   8
#     4  10  19  33  51  73 105 144 168 208 268 317
#     4   9  18  32  53  76 100 130 176 213 258 304
#     4   9  19  30  51  75 102 129 172 212 248 317
#     4   9  17  31  53  75 102 132 169 212 263 304
#     4   9  17  30  51  77  98 129 173 215 248 298
#
# _framework density 16.544094999999999
#
# number of rings (size 3 to 8) (size 9 to 14) (size 15 to 20)
#    1.200    1.600    0.000    2.400    0.000    0.800 
#    0.000    2.000    0.000    9.600    0.000    0.000 
#    0.000    0.000    0.000    0.000    0.000    0.000 
#
# Total GULP energy -495641.917216 kJ/mol
# GULP energy per Si atom -12391.047930 kJ/mol
# Density = 1.650644 g / cm^3
# Si number density = 16.544095 Si / 1000 Ang^3
#
#
#
# Elastic Constant Matrix: (Units=GPa)
#
#
# Indices 1 2 3 4 5 6 
#
# 1 56.0339 50.9632 22.6402 0.0000 0.0000 0.0000
# 2 50.9632 115.3024 44.8812 0.0000 0.0000 0.0000
# 3 22.6402 44.8812 43.2750 0.0000 0.0000 0.0000
# 4 0.0000 0.0000 0.0000 33.0288 0.0000 0.0000
# 5 0.0000 0.0000 0.0000 0.0000 27.3013 0.0000
# 6 0.0000 0.0000 0.0000 0.0000 0.0000 24.1931
#
#
#
# Elastic Compliance Matrix: (Units=1/GPa)
#
#
# Indices 1 2 3 4 5 6 
#
# 1 0.030117 -0.012038 -0.003271 0.000000 0.000000 0.000000
# 2 -0.012038 0.019356 -0.013777 0.000000 0.000000 0.000000
# 3 -0.003271 -0.013777 0.039107 0.000000 0.000000 0.000000
# 4 0.000000 0.000000 0.000000 0.030277 0.000000 0.000000
# 5 0.000000 0.000000 0.000000 0.000000 0.036628 0.000000
# 6 0.000000 0.000000 0.000000 0.000000 0.000000 0.041334
#
#
# Mechanical properties :
#
#
# Convention : Reuss Voigt Hill
#
# Bulk Modulus (GPa) = 32.88567 50.17563 41.53065
# Shear Modulus (GPa) = 18.85882 23.31309 21.08595
#
# Velocity S-wave (km/s) = 3.37992 3.75794 3.57393
# Velocity P-wave (km/s) = 5.92896 7.01596 6.49524
#
# Compressibility (1/GPa) = 0.03040839
#
# Stress axis : x y z
#
# Youngs Moduli (GPa) = 33.20391 51.66292 25.57057
#
# Poissons Ratio (x) = 0.62193 0.08365
# Poissons Ratio (y) = 0.39972 0.35228
# Poissons Ratio (z) = 0.10862 0.71174
#
# Static dielectric constant tensor:
#      x y z
#    x 3.186700 0.000000 0.000000 
#    y 0.000000 2.933160 0.000000 
#    z 0.000000 0.000000 2.785480 
# 
# 
# High freq. dielectric constant tensor:
#      x y z
#    x 1.646810 0.000000 0.000000 
#    y 0.000000 1.625530 0.000000 
#    z 0.000000 0.000000 1.605190 
# 
# From -- ./inp_files/13092.got.cif
#   From: 2010.03.12/outbox.cif.g09.slc.cpg/sg62_7_cif.got.tgz:13092.got - 2010.04.10 19:12:36.
