data_PCOD8251906
_publ_section_title
;
Structure prediction by ZEFSAII (Michael W. Deem and Ramdas Pophale) SiO2 
 PCOD8251906
Probable space group: P N M A
;
_chemical_formula_sum "Si O2"
_cell_formula_units_Z 48
_cell_length_a 14.004111
_cell_length_b 8.709008
_cell_length_c 20.104788
_cell_angle_alpha 90.000000
_cell_angle_beta 90.000000
_cell_angle_gamma 90.000000
_cell_volume 2452.018440
_symmetry_space_group_name_H-M "P N M A"
_symmetry_group_IT_number 62
_symmetry_cell_setting 'orthorhombic'
loop_
_space_group_symop_operation_xyz
x,y,z
1/2-x,-y,1/2+z
1/2+x,1/2-y,1/2-z
-x,1/2+y,-z
-x,-y,-z
1/2+x,y,1/2-z
1/2-x,1/2+y,1/2+z
x,1/2-y,z
loop_
_atom_site_type_symbol
_atom_site_label
_atom_site_fract_x
_atom_site_fract_y
_atom_site_fract_z
Si Si1 0.957046 0.925965 0.192919
Si Si2 0.752498 0.932228 0.889922
Si Si3 0.955688 0.071434 0.434521
Si Si4 0.574270 0.923099 0.177030
Si Si5 0.056607 0.566523 0.061811
Si Si6 0.761248 0.930131 0.246580
O O1 0.933682 0.750000 0.177694
O O2 0.858765 0.003171 0.217671
O O3 0.034568 0.946609 0.249560
O O4 0.999838 0.999135 0.126049
O O5 0.758701 0.750000 0.894164
O O6 0.650081 0.993024 0.917586
O O7 0.834955 0.004553 0.936132
O O8 0.766860 0.983250 0.813915
O O9 0.948260 0.250000 0.446751
O O10 0.000000 0.000000 0.500000
O O11 0.027158 0.040406 0.373705
O O12 0.555363 0.750000 0.151046
O O13 0.686251 0.956564 0.186667
O O14 0.059662 0.750000 0.059676
O O15 0.000000 0.500000 0.000000
O O16 0.770062 0.750000 0.264784
#
# Coordination Sequence:
#
# PCOD8251906 Si02
#       6
#     8   8   8   8   8   8
#     4   9  18  34  59  88 118 153 198 241 289 356
#     4  11  23  39  60  88 119 156 200 251 307 362
#     4  11  25  42  61  88 122 160 201 253 308 364
#     4  10  19  35  61  90 117 155 200 243 295 358
#     4  11  23  41  62  90 125 164 205 248 302 363
#     4  10  19  35  61  90 119 157 200 245 298 359
#
# _framework density 19.575709
#
# number of rings (size 3 to 8) (size 9 to 14) (size 15 to 20)
#    0.000    1.667    3.333    1.500    0.000    4.000 
#    0.000    5.000    0.000    0.000    0.000    0.000 
#    0.000    0.000    0.000    0.000    0.000    0.000 
#
# Total GULP energy -595175.112607 kJ/mol
# GULP energy per Si atom -12399.481513 kJ/mol
# Density = 1.953115 g / cm^3
# Si number density = 19.575709 Si / 1000 Ang^3
#
#
#
# Elastic Constant Matrix: (Units=GPa)
#
#
# Indices 1 2 3 4 5 6 
#
# 1 116.5135 30.8093 34.4553 0.0000 0.0000 0.0000
# 2 30.8093 57.5974 28.7951 0.0000 0.0000 0.0000
# 3 34.4553 28.7951 86.0545 0.0000 0.0000 0.0000
# 4 0.0000 0.0000 0.0000 32.5866 0.0000 0.0000
# 5 0.0000 0.0000 0.0000 0.0000 33.9871 0.0000
# 6 0.0000 0.0000 0.0000 0.0000 0.0000 26.9854
#
#
#
# Elastic Compliance Matrix: (Units=1/GPa)
#
#
# Indices 1 2 3 4 5 6 
#
# 1 0.010530 -0.004233 -0.002800 0.000000 0.000000 0.000000
# 2 -0.004233 0.022551 -0.005851 0.000000 0.000000 0.000000
# 3 -0.002800 -0.005851 0.014699 0.000000 0.000000 0.000000
# 4 0.000000 0.000000 0.000000 0.030687 0.000000 0.000000
# 5 0.000000 0.000000 0.000000 0.000000 0.029423 0.000000
# 6 0.000000 0.000000 0.000000 0.000000 0.000000 0.037057
#
#
# Mechanical properties :
#
#
# Convention : Reuss Voigt Hill
#
# Bulk Modulus (GPa) = 45.42748 49.80945 47.61847
# Shear Modulus (GPa) = 28.08149 29.78555 28.93352
#
# Velocity S-wave (km/s) = 3.79160 3.90495 3.84869
# Velocity P-wave (km/s) = 6.51343 6.76988 6.64289
#
# Compressibility (1/GPa) = 0.02201311
#
# Stress axis : x y z
#
# Youngs Moduli (GPa) = 94.96767 44.34331 68.02995
#
# Poissons Ratio (x) = 0.18770 0.19046
# Poissons Ratio (y) = 0.40198 0.39806
# Poissons Ratio (z) = 0.26588 0.25946
#
# Static dielectric constant tensor:
#      x y z
#    x 3.330190 0.000000 0.000000 
#    y 0.000000 3.724150 0.000000 
#    z 0.000000 0.000000 3.453150 
# 
# 
# High freq. dielectric constant tensor:
#      x y z
#    x 1.783740 0.000000 0.000000 
#    y 0.000000 1.741110 0.000000 
#    z 0.000000 0.000000 1.758100 
# 
# From -- ./inp_files/26888.got.cif
#   From: 2010.03.12/outbox.cif.g09.slc.cpg/sg62_14_cif.got.tgz:26888.got - 2010.04.10 19:12:36.
