data_PCOD8251676
_publ_section_title
;
Structure prediction by ZEFSAII (Michael W. Deem and Ramdas Pophale) SiO2 
 PCOD8251676
Probable space group: P N M A
;
_chemical_formula_sum "Si O2"
_cell_formula_units_Z 48
_cell_length_a 10.069133
_cell_length_b 9.126113
_cell_length_c 29.275527
_cell_angle_alpha 90.000000
_cell_angle_beta 90.000000
_cell_angle_gamma 90.000000
_cell_volume 2690.188061
_symmetry_space_group_name_H-M "P N M A"
_symmetry_group_IT_number 62
_symmetry_cell_setting 'orthorhombic'
loop_
_space_group_symop_operation_xyz
x,y,z
1/2-x,-y,1/2+z
1/2+x,1/2-y,1/2-z
-x,1/2+y,-z
-x,-y,-z
1/2+x,y,1/2-z
1/2-x,1/2+y,1/2+z
x,1/2-y,z
loop_
_atom_site_type_symbol
_atom_site_label
_atom_site_fract_x
_atom_site_fract_y
_atom_site_fract_z
Si Si1 0.710744 0.921489 0.386064
Si Si2 0.517179 0.918280 0.122917
Si Si3 0.504604 0.420983 0.213762
Si Si4 0.700856 0.422718 0.293115
Si Si5 0.886464 0.079729 0.527132
Si Si6 0.379576 0.576556 0.524667
O O1 0.675238 0.750000 0.388338
O O2 0.866662 0.950909 0.392282
O O3 0.662254 0.987231 0.338073
O O4 0.633831 0.007797 0.425348
O O5 0.535455 0.750000 0.136292
O O6 0.610831 0.965203 0.080650
O O7 0.558650 0.009620 0.167086
O O8 0.522622 0.250000 0.207697
O O9 0.596937 0.476815 0.254958
O O10 0.350731 0.462659 0.223012
O O11 0.688254 0.250000 0.303230
O O12 0.917648 0.250000 0.522359
O O13 0.746004 0.036453 0.506420
O O14 0.000000 0.000000 0.500000
O O15 0.500000 0.500000 0.500000
O O16 0.401548 0.750000 0.528983
#
# Coordination Sequence:
#
# PCOD8251676 Si02
#       6
#     8   8   8   8   8   8
#     4  10  19  34  57  80 106 141 181 219 267 323
#     4   9  18  33  54  80 107 134 173 222 266 315
#     4   9  18  33  53  75 103 137 174 216 261 314
#     4   9  18  34  54  76 104 136 175 218 264 316
#     4  10  20  35  57  82 108 140 179 223 267 317
#     4  11  23  38  56  79 112 148 183 223 273 325
#
# _framework density 17.842618999999999
#
# number of rings (size 3 to 8) (size 9 to 14) (size 15 to 20)
#    0.000    2.333    1.667    1.000    0.000    2.667 
#    3.000    0.000    0.000    0.000    0.000    0.000 
#    0.000    0.000    0.000    0.000    0.000    0.000 
#
# Total GULP energy -595262.481800 kJ/mol
# GULP energy per Si atom -12401.301704 kJ/mol
# Density = 1.780201 g / cm^3
# Si number density = 17.842619 Si / 1000 Ang^3
#
#
#
# Elastic Constant Matrix: (Units=GPa)
#
#
# Indices 1 2 3 4 5 6 
#
# 1 102.1630 54.7858 90.6576 0.0000 0.0000 0.0000
# 2 54.7858 68.3659 67.5982 0.0000 0.0000 0.0000
# 3 90.6576 67.5982 171.7038 0.0000 0.0000 0.0000
# 4 0.0000 0.0000 0.0000 37.6496 0.0000 0.0000
# 5 0.0000 0.0000 0.0000 0.0000 35.5177 0.0000
# 6 0.0000 0.0000 0.0000 0.0000 0.0000 23.5268
#
#
#
# Elastic Compliance Matrix: (Units=1/GPa)
#
#
# Indices 1 2 3 4 5 6 
#
# 1 0.021947 -0.010037 -0.007636 0.000000 0.000000 0.000000
# 2 -0.010037 0.028540 -0.005937 0.000000 0.000000 0.000000
# 3 -0.007636 -0.005937 0.012193 0.000000 0.000000 0.000000
# 4 0.000000 0.000000 0.000000 0.026561 0.000000 0.000000
# 5 0.000000 0.000000 0.000000 0.000000 0.028155 0.000000
# 6 0.000000 0.000000 0.000000 0.000000 0.000000 0.042505
#
#
# Mechanical properties :
#
#
# Convention : Reuss Voigt Hill
#
# Bulk Modulus (GPa) = 64.68050 85.36843 75.02447
# Shear Modulus (GPa) = 23.55440 27.95154 25.75297
#
# Velocity S-wave (km/s) = 3.63729 3.96227 3.80325
# Velocity P-wave (km/s) = 7.34636 8.29951 7.83744
#
# Compressibility (1/GPa) = 0.01546061
#
# Stress axis : x y z
#
# Youngs Moduli (GPa) = 45.56426 35.03801 82.01359
#
# Poissons Ratio (x) = 0.35167 0.62628
# Poissons Ratio (y) = 0.45733 0.48689
# Poissons Ratio (z) = 0.34794 0.20801
#
# Static dielectric constant tensor:
#      x y z
#    x 3.316240 0.000000 0.000000 
#    y 0.000000 3.308140 0.000000 
#    z 0.000000 0.000000 3.392220 
# 
# 
# High freq. dielectric constant tensor:
#      x y z
#    x 1.675520 0.000000 0.000000 
#    y 0.000000 1.692490 0.000000 
#    z 0.000000 0.000000 1.701270 
# 
# From -- ./inp_files/31963.got.cif
#   From: 2010.03.12/outbox.cif.g09.slc.cpg/sg62_16_cif.got.tgz:31963.got - 2010.04.10 19:12:36.
