data_PCOD8251006
_publ_section_title
;
Structure prediction by ZEFSAII (Michael W. Deem and Ramdas Pophale) SiO2 
 PCOD8251006
Probable space group: P N M A
;
_chemical_formula_sum "Si O2"
_cell_formula_units_Z 64
_cell_length_a 14.332511
_cell_length_b 8.858866
_cell_length_c 29.642932
_cell_angle_alpha 90.000000
_cell_angle_beta 90.000000
_cell_angle_gamma 90.000000
_cell_volume 3763.756981
_symmetry_space_group_name_H-M "P N M A"
_symmetry_group_IT_number 62
_symmetry_cell_setting 'orthorhombic'
loop_
_space_group_symop_operation_xyz
x,y,z
1/2-x,-y,1/2+z
1/2+x,1/2-y,1/2-z
-x,1/2+y,-z
-x,-y,-z
1/2+x,y,1/2-z
1/2-x,1/2+y,1/2+z
x,1/2-y,z
loop_
_atom_site_type_symbol
_atom_site_label
_atom_site_fract_x
_atom_site_fract_y
_atom_site_fract_z
Si Si1 0.298579 0.925260 0.368637
Si Si2 0.332673 0.927712 0.800688
Si Si3 0.337748 0.922271 0.640026
Si Si4 0.226392 0.428138 0.716361
Si Si5 0.888362 0.426312 0.047521
Si Si6 0.484224 0.919788 0.221228
Si Si7 0.991800 0.582881 0.174173
Si Si8 0.101734 0.424307 0.043743
O O1 0.272668 0.750000 0.371886
O O2 0.384637 0.955537 0.335086
O O3 0.212405 0.014308 0.347096
O O4 0.321385 0.986037 0.418233
O O5 0.323992 0.750000 0.797504
O O6 0.283022 0.996339 0.756763
O O7 0.441286 0.974367 0.803718
O O8 0.314755 0.750000 0.652728
O O9 0.329214 0.949736 0.586250
O O10 0.270422 0.032100 0.667826
O O11 0.445282 0.955158 0.651673
O O12 0.230210 0.250000 0.724708
O O13 0.119820 0.485889 0.714982
O O14 0.871629 0.250000 0.053980
O O15 0.995887 0.473377 0.056433
O O16 0.859464 0.474640 0.996971
O O17 0.490170 0.750000 0.201472
O O18 0.511564 0.918593 0.273239
O O19 0.016015 0.750000 0.154668
O O20 0.100663 0.250000 0.028587
#
# Coordination Sequence:
#
# PCOD8251006 Si02
#       8
#     8   8   8   8   8   8   8   8
#     4  11  21  35  53  74 103 141 178 212 258 310
#     4  12  24  35  52  77 104 135 174 218 260 304
#     4  11  21  33  50  76 106 137 174 215 258 303
#     4  11  22  37  54  74 102 138 178 214 256 309
#     4  10  19  32  50  75 104 135 174 216 257 306
#     4  10  21  38  54  71 100 138 178 217 253 300
#     4  10  19  31  50  72 100 139 178 211 249 302
#     4   9  19  33  48  72 106 140 171 209 259 310
#
# _framework density 17.004286
#
# number of rings (size 3 to 8) (size 9 to 14) (size 15 to 20)
#    0.000    1.500    3.750    2.625    0.000    3.000 
#    0.000    0.000    0.000    0.000    0.000    0.875 
#    0.000    0.000    0.000    0.000    0.000    0.000 
#
# Total GULP energy -793707.768891 kJ/mol
# GULP energy per Si atom -12401.683889 kJ/mol
# Density = 1.696558 g / cm^3
# Si number density = 17.004286 Si / 1000 Ang^3
#
#
#
# Elastic Constant Matrix: (Units=GPa)
#
#
# Indices 1 2 3 4 5 6 
#
# 1 69.6240 34.2467 24.0219 0.0000 0.0000 0.0000
# 2 34.2467 81.0541 30.6528 0.0000 0.0000 0.0000
# 3 24.0219 30.6528 75.4000 0.0000 0.0000 0.0000
# 4 0.0000 0.0000 0.0000 29.7934 0.0000 0.0000
# 5 0.0000 0.0000 0.0000 0.0000 24.5427 0.0000
# 6 0.0000 0.0000 0.0000 0.0000 0.0000 19.3597
#
#
#
# Elastic Compliance Matrix: (Units=1/GPa)
#
#
# Indices 1 2 3 4 5 6 
#
# 1 0.018785 -0.006704 -0.003259 0.000000 0.000000 0.000000
# 2 -0.006704 0.016972 -0.004764 0.000000 0.000000 0.000000
# 3 -0.003259 -0.004764 0.016238 0.000000 0.000000 0.000000
# 4 0.000000 0.000000 0.000000 0.033564 0.000000 0.000000
# 5 0.000000 0.000000 0.000000 0.000000 0.040745 0.000000
# 6 0.000000 0.000000 0.000000 0.000000 0.000000 0.051654
#
#
# Mechanical properties :
#
#
# Convention : Reuss Voigt Hill
#
# Bulk Modulus (GPa) = 44.36595 44.88009 44.62302
# Shear Modulus (GPa) = 23.26384 23.88293 23.57339
#
# Velocity S-wave (km/s) = 3.70282 3.75176 3.72737
# Velocity P-wave (km/s) = 6.66550 6.72446 6.69504
#
# Compressibility (1/GPa) = 0.02253981
#
# Stress axis : x y z
#
# Youngs Moduli (GPa) = 53.23339 58.92166 61.58567
#
# Poissons Ratio (x) = 0.39504 0.20072
# Poissons Ratio (y) = 0.35690 0.29337
# Poissons Ratio (z) = 0.17350 0.28068
#
# Static dielectric constant tensor:
#      x y z
#    x 3.077020 0.000000 0.000000 
#    y 0.000000 3.232070 0.000000 
#    z 0.000000 0.000000 3.113180 
# 
# 
# High freq. dielectric constant tensor:
#      x y z
#    x 1.628490 0.000000 0.000000 
#    y 0.000000 1.664750 0.000000 
#    z 0.000000 0.000000 1.645360 
# 
# From -- ./inp_files/32706.got.cif
#   From: 2010.03.12/outbox.cif.g09.slc.cpg/sg62_17_cif.got.tgz:32706.got - 2010.04.10 19:12:36.
