data_PCOD8251250
_publ_section_title
;
Structure prediction by ZEFSAII (Michael W. Deem and Ramdas Pophale) SiO2 
 PCOD8251250
Probable space group: P N M A
;
_chemical_formula_sum "Si O2"
_cell_formula_units_Z 64
_cell_length_a 21.334829
_cell_length_b 9.177624
_cell_length_c 16.671828
_cell_angle_alpha 90.000000
_cell_angle_beta 90.000000
_cell_angle_gamma 90.000000
_cell_volume 3264.394583
_symmetry_space_group_name_H-M "P N M A"
_symmetry_group_IT_number 62
_symmetry_cell_setting 'orthorhombic'
loop_
_space_group_symop_operation_xyz
x,y,z
1/2-x,-y,1/2+z
1/2+x,1/2-y,1/2-z
-x,1/2+y,-z
-x,-y,-z
1/2+x,y,1/2-z
1/2-x,1/2+y,1/2+z
x,1/2-y,z
loop_
_atom_site_type_symbol
_atom_site_label
_atom_site_fract_x
_atom_site_fract_y
_atom_site_fract_z
Si Si1 0.867370 0.420774 0.202244
Si Si2 0.675709 0.417108 0.556804
Si Si3 0.819413 0.422505 0.585337
Si Si4 0.892814 0.914486 0.449540
Si Si5 0.786434 0.912051 0.317648
Si Si6 0.388978 0.916765 0.784100
Si Si7 0.327474 0.586310 0.622856
Si Si8 0.028137 0.578907 0.671399
O O1 0.859541 0.250000 0.194834
O O2 0.869718 0.488668 0.113536
O O3 0.805222 0.484487 0.244241
O O4 0.928845 0.465233 0.252537
O O5 0.670333 0.250000 0.583617
O O6 0.748566 0.467307 0.562170
O O7 0.648577 0.442041 0.467357
O O8 0.828551 0.250000 0.580999
O O9 0.869438 0.497449 0.526403
O O10 0.836384 0.482095 0.673979
O O11 0.911636 0.750000 0.475364
O O12 0.839058 0.911630 0.384331
O O13 0.952468 0.994423 0.409531
O O14 0.775150 0.750000 0.283354
O O15 0.724547 0.968480 0.359027
O O16 0.377960 0.750000 0.810975
O O17 0.383123 0.931414 0.687522
O O18 0.458068 0.969735 0.807677
O O19 0.298607 0.750000 0.627248
O O20 0.034510 0.750000 0.654560
#
# Coordination Sequence:
#
# PCOD8251250 Si02
#       8
#     8   8   8   8   8   8   8   8
#     4  10  20  34  56  80 106 143 185 226 272 324
#     4  10  21  36  55  83 116 144 177 224 278 331
#     4  11  22  36  56  83 117 147 178 222 277 333
#     4  10  20  34  56  84 111 144 182 223 270 324
#     4  10  19  32  53  81 111 140 176 222 274 328
#     4  10  22  39  58  79 107 146 190 230 271 325
#     4  10  20  36  57  80 109 146 182 222 277 331
#     4   9  20  39  58  78 108 147 190 231 270 320
#
# _framework density 19.605471999999999
#
# number of rings (size 3 to 8) (size 9 to 14) (size 15 to 20)
#    0.000    2.000    1.250    2.250    0.000    6.500 
#    0.000    0.625    0.000    0.000    0.000    0.000 
#    0.000    0.000    0.000    0.000    0.000    0.000 
#
# Total GULP energy -793679.504495 kJ/mol
# GULP energy per Si atom -12401.242258 kJ/mol
# Density = 1.956085 g / cm^3
# Si number density = 19.605472 Si / 1000 Ang^3
#
#
#
# Elastic Constant Matrix: (Units=GPa)
#
#
# Indices 1 2 3 4 5 6 
#
# 1 38.2551 25.6656 10.4290 0.0000 0.0000 0.0000
# 2 25.6656 76.5214 39.0433 0.0000 0.0000 0.0000
# 3 10.4290 39.0433 108.5600 0.0000 0.0000 0.0000
# 4 0.0000 0.0000 0.0000 35.7754 0.0000 0.0000
# 5 0.0000 0.0000 0.0000 0.0000 17.5461 0.0000
# 6 0.0000 0.0000 0.0000 0.0000 0.0000 22.1952
#
#
#
# Elastic Compliance Matrix: (Units=1/GPa)
#
#
# Indices 1 2 3 4 5 6 
#
# 1 0.033822 -0.011863 0.001017 0.000000 0.000000 0.000000
# 2 -0.011863 0.020166 -0.006113 0.000000 0.000000 0.000000
# 3 0.001017 -0.006113 0.011312 0.000000 0.000000 0.000000
# 4 0.000000 0.000000 0.000000 0.027952 0.000000 0.000000
# 5 0.000000 0.000000 0.000000 0.000000 0.056993 0.000000
# 6 0.000000 0.000000 0.000000 0.000000 0.000000 0.045055
#
#
# Mechanical properties :
#
#
# Convention : Reuss Voigt Hill
#
# Bulk Modulus (GPa) = 31.86453 41.51249 36.68851
# Shear Modulus (GPa) = 20.86126 24.98326 22.92226
#
# Velocity S-wave (km/s) = 3.26552 3.57361 3.42303
# Velocity P-wave (km/s) = 5.52325 6.18445 5.86318
#
# Compressibility (1/GPa) = 0.03138286
#
# Stress axis : x y z
#
# Youngs Moduli (GPa) = 29.56658 49.58780 88.39923
#
# Poissons Ratio (x) = 0.58827 -0.08994
# Poissons Ratio (y) = 0.35075 0.54039
# Poissons Ratio (z) = -0.03008 0.30313
#
# Static dielectric constant tensor:
#      x y z
#    x 3.394220 0.000000 0.000000 
#    y 0.000000 3.655860 0.000000 
#    z 0.000000 0.000000 3.736350 
# 
# 
# High freq. dielectric constant tensor:
#      x y z
#    x 1.737800 0.000000 0.000000 
#    y 0.000000 1.766360 0.000000 
#    z 0.000000 0.000000 1.774190 
# 
# From -- ./inp_files/20956.got.cif
#   From: 2010.03.12/outbox.cif.g09.slc.cpg/sg62_11_cif.got.tgz:20956.got - 2010.04.10 19:12:36.
