data_PCOD8251148
_publ_section_title
;
Structure prediction by ZEFSAII (Michael W. Deem and Ramdas Pophale) SiO2 
 PCOD8251148
Probable space group: P N M A
;
_chemical_formula_sum "Si O2"
_cell_formula_units_Z 36
_cell_length_a 4.998472
_cell_length_b 21.079600
_cell_length_c 17.250828
_cell_angle_alpha 90.000000
_cell_angle_beta 90.000000
_cell_angle_gamma 90.000000
_cell_volume 1817.647127
_symmetry_space_group_name_H-M "P N M A"
_symmetry_group_IT_number 62
_symmetry_cell_setting 'orthorhombic'
loop_
_space_group_symop_operation_xyz
x,y,z
1/2-x,-y,1/2+z
1/2+x,1/2-y,1/2-z
-x,1/2+y,-z
-x,-y,-z
1/2+x,y,1/2-z
1/2-x,1/2+y,1/2+z
x,1/2-y,z
loop_
_atom_site_type_symbol
_atom_site_label
_atom_site_fract_x
_atom_site_fract_y
_atom_site_fract_z
Si Si1 0.266338 0.436636 0.077757
Si Si2 0.572095 0.750000 0.198813
Si Si3 0.741953 0.676431 0.804008
Si Si4 0.782753 0.984272 0.086931
Si Si5 0.785193 0.379575 0.700539
O O1 0.246179 0.367938 0.119213
O O2 0.573320 0.458671 0.075214
O O3 0.061054 0.485904 0.119066
O O4 0.163990 0.439300 0.988262
O O5 0.262736 0.750000 0.223846
O O6 0.646003 0.685388 0.152454
O O7 0.479150 0.660856 0.755043
O O8 0.750174 0.750000 0.831660
O O9 0.647421 0.940423 0.150687
O O10 0.474747 0.380186 0.723986
#
# Coordination Sequence:
#
# PCOD8251148 Si02
#       5
#     8   4   8   8   8
#     4  10  21  37  53  75 110 138 170 217 270 311
#     4   8  16  30  46  66  98 128 152 202 248 276
#     4  10  21  37  58  82 108 139 180 228 272 320
#     4  10  21  35  53  77 107 141 172 216 261 313
#     4  10  19  32  51  75 102 132 173 211 248 300
#
# _framework density 19.805824000000001
#
# number of rings (size 3 to 8) (size 9 to 14) (size 15 to 20)
#    0.000    2.222    0.000    2.667    0.000    5.333 
#    2.000    0.000    0.000    0.000    0.000    0.000 
#    0.000    0.000    0.000    0.000    0.000    0.000 
#
# Total GULP energy -445984.001696 kJ/mol
# GULP energy per Si atom -12388.444492 kJ/mol
# Density = 1.976074 g / cm^3
# Si number density = 19.805824 Si / 1000 Ang^3
#
#
#
# Elastic Constant Matrix: (Units=GPa)
#
#
# Indices 1 2 3 4 5 6 
#
# 1 48.3900 19.3953 0.7481 0.0000 0.0000 0.0000
# 2 19.3953 121.3522 54.6110 0.0000 0.0000 0.0000
# 3 0.7481 54.6110 47.2317 0.0000 0.0000 0.0000
# 4 0.0000 0.0000 0.0000 36.7600 0.0000 0.0000
# 5 0.0000 0.0000 0.0000 0.0000 19.1792 0.0000
# 6 0.0000 0.0000 0.0000 0.0000 0.0000 7.5286
#
#
#
# Elastic Compliance Matrix: (Units=1/GPa)
#
#
# Indices 1 2 3 4 5 6 
#
# 1 0.023541 -0.007494 0.008292 0.000000 0.000000 0.000000
# 2 -0.007494 0.019565 -0.022503 0.000000 0.000000 0.000000
# 3 0.008292 -0.022503 0.047060 0.000000 0.000000 0.000000
# 4 0.000000 0.000000 0.000000 0.027203 0.000000 0.000000
# 5 0.000000 0.000000 0.000000 0.000000 0.052140 0.000000
# 6 0.000000 0.000000 0.000000 0.000000 0.000000 0.132828
#
#
# Mechanical properties :
#
#
# Convention : Reuss Voigt Hill
#
# Bulk Modulus (GPa) = 21.38788 40.72031 31.05410
# Shear Modulus (GPa) = 13.83768 22.17486 18.00627
#
# Velocity S-wave (km/s) = 2.64610 3.34969 3.01847
# Velocity P-wave (km/s) = 4.48977 5.96364 5.27840
#
# Compressibility (1/GPa) = 0.04675545
#
# Stress axis : x y z
#
# Youngs Moduli (GPa) = 42.47921 51.11134 21.24953
#
# Poissons Ratio (x) = 0.38303 -0.17620
# Poissons Ratio (y) = 0.31834 0.47818
# Poissons Ratio (z) = -0.35224 1.15017
#
# Static dielectric constant tensor:
#      x y z
#    x 3.717990 0.000000 0.000000 
#    y 0.000000 3.903140 0.000000 
#    z 0.000000 0.000000 3.186130 
# 
# 
# High freq. dielectric constant tensor:
#      x y z
#    x 1.797790 0.000000 0.000000 
#    y 0.000000 1.778790 0.000000 
#    z 0.000000 0.000000 1.720740 
# 
# From -- ./inp_files/16134.got.cif
#   From: 2010.03.12/outbox.cif.g09.slc.cpg/sg62_9_cif.got.tgz:16134.got - 2010.04.10 19:12:36.
