data_PCOD8251337
_publ_section_title
;
Structure prediction by ZEFSAII (Michael W. Deem and Ramdas Pophale) SiO2 
 PCOD8251337
Probable space group: P N M A
;
_chemical_formula_sum "Si O2"
_cell_formula_units_Z 64
_cell_length_a 9.447441
_cell_length_b 14.262062
_cell_length_c 25.203614
_cell_angle_alpha 90.000000
_cell_angle_beta 90.000000
_cell_angle_gamma 90.000000
_cell_volume 3395.934680
_symmetry_space_group_name_H-M "P N M A"
_symmetry_group_IT_number 62
_symmetry_cell_setting 'orthorhombic'
loop_
_space_group_symop_operation_xyz
x,y,z
1/2-x,-y,1/2+z
1/2+x,1/2-y,1/2-z
-x,1/2+y,-z
-x,-y,-z
1/2+x,y,1/2-z
1/2-x,1/2+y,1/2+z
x,1/2-y,z
loop_
_atom_site_type_symbol
_atom_site_label
_atom_site_fract_x
_atom_site_fract_y
_atom_site_fract_z
Si Si1 0.158934 0.643770 0.002473
Si Si2 0.464450 0.141836 0.313875
Si Si3 0.789721 0.465073 0.102687
Si Si4 0.787067 0.357932 0.289693
Si Si5 0.601897 0.644754 0.977585
Si Si6 0.473794 0.035840 0.126216
Si Si7 0.413970 0.644631 0.075570
Si Si8 0.364272 0.643800 0.453922
O O1 0.147223 0.750000 0.981063
O O2 0.220748 0.581243 0.955305
O O3 0.254876 0.639163 0.054746
O O4 0.010058 0.604964 0.022599
O O5 0.466872 0.250000 0.331875
O O6 0.419103 0.078673 0.363903
O O7 0.344958 0.126192 0.269365
O O8 0.621775 0.111903 0.293851
O O9 0.641712 0.447057 0.133172
O O10 0.814155 0.576333 0.094078
O O11 0.804791 0.250000 0.306909
O O12 0.887569 0.419552 0.326276
O O13 0.553077 0.750000 0.961637
O O14 0.582029 0.577177 0.928644
O O15 0.513580 0.609565 0.027896
O O16 0.764389 0.642091 0.994717
O O17 0.439278 0.924632 0.125090
O O18 0.454292 0.750000 0.093833
O O19 0.375791 0.750000 0.430973
#
# Coordination Sequence:
#
# PCOD8251337 Si02
#       8
#     8   8   8   8   8   8   8   8
#     4  10  21  34  50  77 114 151 189 230 273 321
#     4  10  23  42  62  84 111 139 174 224 280 332
#     4  12  22  34  56  82 111 149 188 229 273 324
#     4  10  23  42  62  85 111 139 174 224 279 332
#     4  10  19  33  51  76 113 151 189 224 262 321
#     4  12  22  33  56  84 110 147 191 227 270 325
#     4  10  20  35  52  77 115 155 189 224 264 316
#     4  10  22  36  51  77 115 155 190 227 270 317
#
# _framework density 18.846063999999998
#
# number of rings (size 3 to 8) (size 9 to 14) (size 15 to 20)
#    0.000    1.500    2.500    3.000    3.500    2.500 
#    0.000    0.000    0.000    0.750    0.000    0.000 
#    0.000    0.000    0.000    0.000    0.000    0.000 
#
# Total GULP energy -793663.349888 kJ/mol
# GULP energy per Si atom -12400.989842 kJ/mol
# Density = 1.880317 g / cm^3
# Si number density = 18.846064 Si / 1000 Ang^3
#
#
#
# Elastic Constant Matrix: (Units=GPa)
#
#
# Indices 1 2 3 4 5 6 
#
# 1 112.2090 14.6980 18.3325 0.0000 0.0000 0.0000
# 2 14.6980 83.5131 36.2937 0.0000 0.0000 0.0000
# 3 18.3325 36.2937 46.3067 0.0000 0.0000 0.0000
# 4 0.0000 0.0000 0.0000 25.4042 0.0000 0.0000
# 5 0.0000 0.0000 0.0000 0.0000 32.9773 0.0000
# 6 0.0000 0.0000 0.0000 0.0000 0.0000 26.0857
#
#
#
# Elastic Compliance Matrix: (Units=1/GPa)
#
#
# Indices 1 2 3 4 5 6 
#
# 1 0.009528 -0.000057 -0.003728 0.000000 0.000000 0.000000
# 2 -0.000057 0.018160 -0.014211 0.000000 0.000000 0.000000
# 3 -0.003728 -0.014211 0.034209 0.000000 0.000000 0.000000
# 4 0.000000 0.000000 0.000000 0.039364 0.000000 0.000000
# 5 0.000000 0.000000 0.000000 0.000000 0.030324 0.000000
# 6 0.000000 0.000000 0.000000 0.000000 0.000000 0.038335
#
#
# Mechanical properties :
#
#
# Convention : Reuss Voigt Hill
#
# Bulk Modulus (GPa) = 38.60007 42.29748 40.44878
# Shear Modulus (GPa) = 23.30508 28.40708 25.85608
#
# Velocity S-wave (km/s) = 3.52035 3.88664 3.70802
# Velocity P-wave (km/s) = 6.08688 6.52944 6.31204
#
# Compressibility (1/GPa) = 0.02590669
#
# Stress axis : x y z
#
# Youngs Moduli (GPa) = 104.94935 55.06630 29.23238
#
# Poissons Ratio (x) = 0.00314 0.10896
# Poissons Ratio (y) = 0.00599 0.41541
# Poissons Ratio (z) = 0.39120 0.78252
#
# Static dielectric constant tensor:
#      x y z
#    x 3.687370 0.000000 0.000000 
#    y 0.000000 3.674010 0.000000 
#    z 0.000000 0.000000 3.114680 
# 
# 
# High freq. dielectric constant tensor:
#      x y z
#    x 1.754590 0.000000 0.000000 
#    y 0.000000 1.735990 0.000000 
#    z 0.000000 0.000000 1.685120 
# 
# From -- ./inp_files/28978.got.cif
#   From: 2010.03.12/outbox.cif.g09.slc.cpg/sg62_15_cif.got.tgz:28978.got - 2010.04.10 19:12:36.
