data_PCOD8251149
_publ_section_title
;
Structure prediction by ZEFSAII (Michael W. Deem and Ramdas Pophale) SiO2 
 PCOD8251149
Probable space group: P N M A
;
_chemical_formula_sum "Si O2"
_cell_formula_units_Z 64
_cell_length_a 28.207756
_cell_length_b 8.951627
_cell_length_c 13.239595
_cell_angle_alpha 90.000000
_cell_angle_beta 90.000000
_cell_angle_gamma 90.000000
_cell_volume 3343.068043
_symmetry_space_group_name_H-M "P N M A"
_symmetry_group_IT_number 62
_symmetry_cell_setting 'orthorhombic'
loop_
_space_group_symop_operation_xyz
x,y,z
1/2-x,-y,1/2+z
1/2+x,1/2-y,1/2-z
-x,1/2+y,-z
-x,-y,-z
1/2+x,y,1/2-z
1/2-x,1/2+y,1/2+z
x,1/2-y,z
loop_
_atom_site_type_symbol
_atom_site_label
_atom_site_fract_x
_atom_site_fract_y
_atom_site_fract_z
Si Si1 0.451996 0.422713 0.621594
Si Si2 0.092138 0.075791 0.314409
Si Si3 0.724490 0.079165 0.816107
Si Si4 0.882550 0.925658 0.278070
Si Si5 0.797768 0.920914 0.695196
Si Si6 0.708507 0.913127 0.005295
Si Si7 0.938259 0.922485 0.080834
Si Si8 0.598065 0.584716 0.982212
O O1 0.438130 0.250000 0.629458
O O2 0.437293 0.503303 0.724234
O O3 0.425899 0.489351 0.522288
O O4 0.507746 0.448554 0.611699
O O5 0.080447 0.250000 0.319602
O O6 0.147032 0.046229 0.287633
O O7 0.076204 0.006971 0.422933
O O8 0.738129 0.250000 0.793192
O O9 0.673330 0.035349 0.768973
O O10 0.766130 0.962899 0.790596
O O11 0.721939 0.051216 0.934867
O O12 0.889975 0.750000 0.294161
O O13 0.906256 0.981824 0.173844
O O14 0.908199 0.003456 0.373921
O O15 0.790419 0.750000 0.663449
O O16 0.774505 0.033143 0.614217
O O17 0.731169 0.750000 0.979509
O O18 0.652612 0.896705 0.006595
O O19 0.927252 0.750000 0.059130
O O20 0.574410 0.750000 0.976302
#
# Coordination Sequence:
#
# PCOD8251149 Si02
#       8
#     8   8   8   8   8   8   8   8
#     4  10  20  35  57  82 107 138 179 225 270 317
#     4  10  20  35  55  77 104 140 179 218 266 324
#     4  10  19  32  51  75 102 135 172 214 260 311
#     4   9  18  34  55  78 105 139 176 213 261 322
#     4  10  20  34  51  73 101 137 176 216 261 312
#     4   9  17  31  50  70  96 132 169 208 255 309
#     4   9  19  37  58  79 107 143 179 217 267 325
#     4   9  17  30  52  79 105 133 168 214 259 306
#
# _framework density 19.144092000000001
#
# number of rings (size 3 to 8) (size 9 to 14) (size 15 to 20)
#    0.000    2.500    0.000    2.250    0.000    6.000 
#    2.250    0.625    0.000    0.000    0.000    0.000 
#    0.000    0.000    0.000    0.000    0.000    0.000 
#
# Total GULP energy -793161.151188 kJ/mol
# GULP energy per Si atom -12393.142987 kJ/mol
# Density = 1.910052 g / cm^3
# Si number density = 19.144092 Si / 1000 Ang^3
#
#
#
# Elastic Constant Matrix: (Units=GPa)
#
#
# Indices 1 2 3 4 5 6 
#
# 1 16.2703 12.2788 -2.5961 0.0000 0.0000 0.0000
# 2 12.2788 83.7125 20.0327 0.0000 0.0000 0.0000
# 3 -2.5961 20.0327 50.9266 0.0000 0.0000 0.0000
# 4 0.0000 0.0000 0.0000 37.4356 0.0000 0.0000
# 5 0.0000 0.0000 0.0000 0.0000 19.8181 0.0000
# 6 0.0000 0.0000 0.0000 0.0000 0.0000 22.4284
#
#
#
# Elastic Compliance Matrix: (Units=1/GPa)
#
#
# Indices 1 2 3 4 5 6 
#
# 1 0.072436 -0.012704 0.008690 0.000000 0.000000 0.000000
# 2 -0.012704 0.015415 -0.006711 0.000000 0.000000 0.000000
# 3 0.008690 -0.006711 0.022719 0.000000 0.000000 0.000000
# 4 0.000000 0.000000 0.000000 0.026713 0.000000 0.000000
# 5 0.000000 0.000000 0.000000 0.000000 0.050459 0.000000
# 6 0.000000 0.000000 0.000000 0.000000 0.000000 0.044586
#
#
# Mechanical properties :
#
#
# Convention : Reuss Voigt Hill
#
# Bulk Modulus (GPa) = 11.22093 23.37113 17.29603
# Shear Modulus (GPa) = 17.63753 24.01601 20.82677
#
# Velocity S-wave (km/s) = 3.03859 3.54572 3.30190
# Velocity P-wave (km/s) = 4.26436 5.38492 4.85706
#
# Compressibility (1/GPa) = 0.08911918
#
# Stress axis : x y z
#
# Youngs Moduli (GPa) = 13.80524 64.87111 44.01569
#
# Poissons Ratio (x) = 0.82415 -0.38250
# Poissons Ratio (y) = 0.17539 0.29541
# Poissons Ratio (z) = -0.11997 0.43538
#
# Static dielectric constant tensor:
#      x y z
#    x 3.267820 0.000000 0.000000 
#    y 0.000000 3.670890 0.000000 
#    z 0.000000 0.000000 3.580920 
# 
# 
# High freq. dielectric constant tensor:
#      x y z
#    x 1.709640 0.000000 0.000000 
#    y 0.000000 1.755150 0.000000 
#    z 0.000000 0.000000 1.752520 
# 
# From -- ./inp_files/15900.got.cif
#   From: 2010.03.12/outbox.cif.g09.slc.cpg/sg62_8_cif.got.tgz:15900.got - 2010.04.10 19:12:36.
