data_PCOD8251698
_publ_section_title
;
Structure prediction by ZEFSAII (Michael W. Deem and Ramdas Pophale) SiO2 
 PCOD8251698
Probable space group: P N M A
;
_chemical_formula_sum "Si O2"
_cell_formula_units_Z 64
_cell_length_a 19.149268
_cell_length_b 13.429155
_cell_length_c 12.070626
_cell_angle_alpha 90.000000
_cell_angle_beta 90.000000
_cell_angle_gamma 90.000000
_cell_volume 3104.063933
_symmetry_space_group_name_H-M "P N M A"
_symmetry_group_IT_number 62
_symmetry_cell_setting 'orthorhombic'
loop_
_space_group_symop_operation_xyz
x,y,z
1/2-x,-y,1/2+z
1/2+x,1/2-y,1/2-z
-x,1/2+y,-z
-x,-y,-z
1/2+x,y,1/2-z
1/2-x,1/2+y,1/2+z
x,1/2-y,z
loop_
_atom_site_type_symbol
_atom_site_label
_atom_site_fract_x
_atom_site_fract_y
_atom_site_fract_z
Si Si1 0.471650 0.540068 0.861362
Si Si2 0.654376 0.136385 0.228614
Si Si3 0.567858 0.636068 0.288449
Si Si4 0.435854 0.859326 0.432403
Si Si5 0.386559 0.000947 0.067644
Si Si6 0.819565 0.636929 0.250904
Si Si7 0.270669 0.019977 0.913930
Si Si8 0.350327 0.509485 0.576718
O O1 0.429633 0.615114 0.780288
O O2 0.457160 0.426579 0.818434
O O3 0.555970 0.562994 0.858978
O O4 0.439594 0.557215 0.984413
O O5 0.672940 0.250000 0.215183
O O6 0.695520 0.080100 0.132398
O O7 0.681358 0.098020 0.347530
O O8 0.582866 0.750000 0.252120
O O9 0.513443 0.630427 0.388370
O O10 0.636130 0.585342 0.343880
O O11 0.425128 0.750000 0.488012
O O12 0.385864 0.868055 0.327240
O O13 0.420533 0.946355 0.520240
O O14 0.338282 0.927745 0.140842
O O15 0.331106 0.067019 0.995280
O O16 0.802807 0.750000 0.287439
O O17 0.751798 0.595214 0.183857
O O18 0.204386 0.982178 0.982558
#
# Coordination Sequence:
#
# PCOD8251698 Si02
#       8
#     8   8   8   8   8   8   8   8
#     4   9  20  36  58  88 115 146 198 251 297 343
#     4  10  21  39  59  80 115 160 201 244 298 361
#     4  10  19  34  57  88 122 152 192 247 300 347
#     4   9  17  31  55  87 115 151 198 241 289 348
#     4  10  19  37  59  82 117 155 188 240 297 343
#     4  10  20  36  62  91 118 154 201 243 289 357
#     4  10  22  38  57  87 121 155 199 242 294 354
#     4  10  20  35  57  85 118 158 195 242 295 355
#
# _framework density 20.618133
#
# number of rings (size 3 to 8) (size 9 to 14) (size 15 to 20)
#    0.000    2.250    1.250    1.500    0.000    3.000 
#    0.000   13.125    0.000    1.500    0.000    0.000 
#    0.000    0.000    0.000    0.000    0.000    0.000 
#
# Total GULP energy -792904.294245 kJ/mol
# GULP energy per Si atom -12389.129598 kJ/mol
# Density = 2.057121 g / cm^3
# Si number density = 20.618133 Si / 1000 Ang^3
#
#
#
# Elastic Constant Matrix: (Units=GPa)
#
#
# Indices 1 2 3 4 5 6 
#
# 1 95.6952 37.1862 37.5085 0.0000 0.0000 0.0000
# 2 37.1862 94.4473 37.6980 0.0000 0.0000 0.0000
# 3 37.5085 37.6980 86.7344 0.0000 0.0000 0.0000
# 4 0.0000 0.0000 0.0000 19.7963 0.0000 0.0000
# 5 0.0000 0.0000 0.0000 0.0000 36.0730 0.0000
# 6 0.0000 0.0000 0.0000 0.0000 0.0000 19.3619
#
#
#
# Elastic Compliance Matrix: (Units=1/GPa)
#
#
# Indices 1 2 3 4 5 6 
#
# 1 0.013534 -0.003621 -0.004279 0.000000 0.000000 0.000000
# 2 -0.003621 0.013779 -0.004423 0.000000 0.000000 0.000000
# 3 -0.004279 -0.004423 0.015302 0.000000 0.000000 0.000000
# 4 0.000000 0.000000 0.000000 0.050514 0.000000 0.000000
# 5 0.000000 0.000000 0.000000 0.000000 0.027722 0.000000
# 6 0.000000 0.000000 0.000000 0.000000 0.000000 0.051648
#
#
# Mechanical properties :
#
#
# Convention : Reuss Voigt Hill
#
# Bulk Modulus (GPa) = 55.64960 55.74026 55.69493
# Shear Modulus (GPa) = 24.61419 26.01186 25.31302
#
# Velocity S-wave (km/s) = 3.45891 3.55576 3.50767
# Velocity P-wave (km/s) = 6.55753 6.62957 6.59365
#
# Compressibility (1/GPa) = 0.01796958
#
# Stress axis : x y z
#
# Youngs Moduli (GPa) = 73.88767 72.57470 65.34918
#
# Poissons Ratio (x) = 0.26277 0.27964
# Poissons Ratio (y) = 0.26752 0.28904
# Poissons Ratio (z) = 0.31618 0.32100
#
# Static dielectric constant tensor:
#      x y z
#    x 3.986830 0.000000 0.000000 
#    y 0.000000 3.488670 0.000000 
#    z 0.000000 0.000000 3.890040 
# 
# 
# High freq. dielectric constant tensor:
#      x y z
#    x 1.812940 0.000000 0.000000 
#    y 0.000000 1.764100 0.000000 
#    z 0.000000 0.000000 1.816480 
# 
# From -- ./inp_files/14334.got.cif
#   From: 2010.03.12/outbox.cif.g09.slc.cpg/sg62_8_cif.got.tgz:14334.got - 2010.04.10 19:12:36.
