data_PCOD8251687
_publ_section_title
;
Structure prediction by ZEFSAII (Michael W. Deem and Ramdas Pophale) SiO2 
 PCOD8251687
Probable space group: P N M A
;
_chemical_formula_sum "Si O2"
_cell_formula_units_Z 40
_cell_length_a 8.660820
_cell_length_b 25.681215
_cell_length_c 8.960684
_cell_angle_alpha 90.000000
_cell_angle_beta 90.000000
_cell_angle_gamma 90.000000
_cell_volume 1993.038745
_symmetry_space_group_name_H-M "P N M A"
_symmetry_group_IT_number 62
_symmetry_cell_setting 'orthorhombic'
loop_
_space_group_symop_operation_xyz
x,y,z
1/2-x,-y,1/2+z
1/2+x,1/2-y,1/2-z
-x,1/2+y,-z
-x,-y,-z
1/2+x,y,1/2-z
1/2-x,1/2+y,1/2+z
x,1/2-y,z
loop_
_atom_site_type_symbol
_atom_site_label
_atom_site_fract_x
_atom_site_fract_y
_atom_site_fract_z
Si Si1 0.698213 0.635980 0.047324
Si Si2 0.844786 0.548151 0.860344
Si Si3 0.894413 0.750000 0.328993
Si Si4 0.149652 0.362362 0.637648
Si Si5 0.694539 0.947661 0.552533
Si Si6 0.280223 0.250000 0.948476
O O1 0.527598 0.622357 0.106886
O O2 0.814805 0.629569 0.186903
O O3 0.709632 0.693959 0.967479
O O4 0.743818 0.595966 0.919752
O O5 0.814885 0.541984 0.685043
O O6 0.024506 0.559218 0.881903
O O7 0.791739 0.495672 0.940488
O O8 0.822965 0.801653 0.405439
O O9 0.872269 0.750000 0.151176
O O10 0.078249 0.750000 0.332906
O O11 0.263461 0.395457 0.535512
#
# Coordination Sequence:
#
# PCOD8251687 Si02
#       6
#     8   8   4   8   8   4
#     4  10  19  34  57  84 114 146 183 224 268 319
#     4  11  24  40  58  81 109 142 181 225 274 326
#     4   8  16  30  51  80 111 144 180 220 264 314
#     4  10  19  34  57  84 114 146 183 224 268 319
#     4  11  24  40  58  81 109 142 181 225 274 326
#     4   8  16  30  51  80 111 144 180 220 264 314
#
# _framework density 20.069856999999999
#
# number of rings (size 3 to 8) (size 9 to 14) (size 15 to 20)
#    0.000    2.000    0.000    3.600    0.000    8.000 
#    0.000    1.000    0.000    0.000    0.000    0.000 
#    0.000    0.000    0.000    0.000    0.000    0.000 
#
# Total GULP energy -495809.050783 kJ/mol
# GULP energy per Si atom -12395.226270 kJ/mol
# Density = 2.002418 g / cm^3
# Si number density = 20.069857 Si / 1000 Ang^3
#
#
#
# Elastic Constant Matrix: (Units=GPa)
#
#
# Indices 1 2 3 4 5 6 
#
# 1 46.2854 33.2570 1.8546 0.0000 0.0000 0.0000
# 2 33.2570 98.4937 21.6568 0.0000 0.0000 0.0000
# 3 1.8546 21.6568 59.7030 0.0000 0.0000 0.0000
# 4 0.0000 0.0000 0.0000 28.0664 0.0000 0.0000
# 5 0.0000 0.0000 0.0000 0.0000 31.7195 0.0000
# 6 0.0000 0.0000 0.0000 0.0000 0.0000 30.5871
#
#
#
# Elastic Compliance Matrix: (Units=1/GPa)
#
#
# Indices 1 2 3 4 5 6 
#
# 1 0.028974 -0.010416 0.002878 0.000000 0.000000 0.000000
# 2 -0.010416 0.014778 -0.005037 0.000000 0.000000 0.000000
# 3 0.002878 -0.005037 0.018487 0.000000 0.000000 0.000000
# 4 0.000000 0.000000 0.000000 0.035630 0.000000 0.000000
# 5 0.000000 0.000000 0.000000 0.000000 0.031526 0.000000
# 6 0.000000 0.000000 0.000000 0.000000 0.000000 0.032693
#
#
# Mechanical properties :
#
#
# Convention : Reuss Voigt Hill
#
# Bulk Modulus (GPa) = 26.96189 35.33544 31.14867
# Shear Modulus (GPa) = 25.05001 27.92220 26.48611
#
# Velocity S-wave (km/s) = 3.53674 3.73399 3.63670
# Velocity P-wave (km/s) = 5.49010 6.01953 5.76090
#
# Compressibility (1/GPa) = 0.03708939
#
# Stress axis : x y z
#
# Youngs Moduli (GPa) = 34.51376 67.67034 54.09135
#
# Poissons Ratio (x) = 0.70486 -0.15569
# Poissons Ratio (y) = 0.35950 0.27245
# Poissons Ratio (z) = -0.09934 0.34085
#
# Static dielectric constant tensor:
#      x y z
#    x 3.701460 0.000000 0.000000 
#    y 0.000000 4.028570 0.000000 
#    z 0.000000 0.000000 3.283740 
# 
# 
# High freq. dielectric constant tensor:
#      x y z
#    x 1.794310 0.000000 0.000000 
#    y 0.000000 1.805630 0.000000 
#    z 0.000000 0.000000 1.744540 
# 
# From -- ./inp_files/4326.got.cif
#   From: 2010.03.12/outbox.cif.g09.slc.cpg/sg62_3_cif.got.tgz:4326.got - 2010.04.10 19:12:36.
