data_PCOD8251857
_publ_section_title
;
Structure prediction by ZEFSAII (Michael W. Deem and Ramdas Pophale) SiO2 
 PCOD8251857
Probable space group: P N M A
;
_chemical_formula_sum "Si O2"
_cell_formula_units_Z 40
_cell_length_a 7.893012
_cell_length_b 13.246808
_cell_length_c 18.018873
_cell_angle_alpha 90.000000
_cell_angle_beta 90.000000
_cell_angle_gamma 90.000000
_cell_volume 1884.003169
_symmetry_space_group_name_H-M "P N M A"
_symmetry_group_IT_number 62
_symmetry_cell_setting 'orthorhombic'
loop_
_space_group_symop_operation_xyz
x,y,z
1/2-x,-y,1/2+z
1/2+x,1/2-y,1/2-z
-x,1/2+y,-z
-x,-y,-z
1/2+x,y,1/2-z
1/2-x,1/2+y,1/2+z
x,1/2-y,z
loop_
_atom_site_type_symbol
_atom_site_label
_atom_site_fract_x
_atom_site_fract_y
_atom_site_fract_z
Si Si1 0.670119 0.473093 0.099932
Si Si2 0.749274 0.865368 0.353329
Si Si3 0.005008 0.634355 0.856469
Si Si4 0.469223 0.459253 0.754631
Si Si5 0.698335 0.950398 0.945515
O O1 0.823453 0.393227 0.099106
O O2 0.670109 0.530981 0.179028
O O3 0.486894 0.419060 0.086408
O O4 0.699982 0.556457 0.034916
O O5 0.793423 0.750000 0.371565
O O6 0.570019 0.878989 0.311589
O O7 0.862679 0.918408 0.291267
O O8 0.763384 0.930651 0.428006
O O9 0.012326 0.750000 0.832015
O O10 0.989044 0.570103 0.781265
O O11 0.842770 0.619185 0.910204
#
# Coordination Sequence:
#
# PCOD8251857 Si02
#       5
#     8   8   8   8   8
#     4  10  20  42  63  84 124 168 196 257 313 353
#     4  10  19  35  59  85 113 152 198 251 310 360
#     4  11  23  39  62  92 127 167 209 251 309 375
#     4  10  20  38  57  87 122 153 205 254 299 367
#     4   9  22  40  64  88 124 158 207 259 305 370
#
# _framework density 21.231387999999999
#
# number of rings (size 3 to 8) (size 9 to 14) (size 15 to 20)
#    0.000    2.000    2.000    1.200    0.000    2.400 
#    0.000    9.000    0.000    0.000    0.000    0.000 
#    0.000    0.000    0.000    0.000    0.000    0.000 
#
# Total GULP energy -495706.176113 kJ/mol
# GULP energy per Si atom -12392.654403 kJ/mol
# Density = 2.118306 g / cm^3
# Si number density = 21.231388 Si / 1000 Ang^3
#
#
#
# Elastic Constant Matrix: (Units=GPa)
#
#
# Indices 1 2 3 4 5 6 
#
# 1 82.7072 19.6297 22.9072 0.0000 0.0000 0.0000
# 2 19.6297 104.6755 20.9333 0.0000 0.0000 0.0000
# 3 22.9072 20.9333 87.0253 0.0000 0.0000 0.0000
# 4 0.0000 0.0000 0.0000 15.1919 0.0000 0.0000
# 5 0.0000 0.0000 0.0000 0.0000 28.9628 0.0000
# 6 0.0000 0.0000 0.0000 0.0000 0.0000 13.0577
#
#
#
# Elastic Compliance Matrix: (Units=1/GPa)
#
#
# Indices 1 2 3 4 5 6 
#
# 1 0.013391 -0.001898 -0.003068 0.000000 0.000000 0.000000
# 2 -0.001898 0.010305 -0.001979 0.000000 0.000000 0.000000
# 3 -0.003068 -0.001979 0.012775 0.000000 0.000000 0.000000
# 4 0.000000 0.000000 0.000000 0.065825 0.000000 0.000000
# 5 0.000000 0.000000 0.000000 0.000000 0.034527 0.000000
# 6 0.000000 0.000000 0.000000 0.000000 0.000000 0.076583
#
#
# Mechanical properties :
#
#
# Convention : Reuss Voigt Hill
#
# Bulk Modulus (GPa) = 44.28661 44.59425 44.44043
# Shear Modulus (GPa) = 21.29264 25.50501 23.39883
#
# Velocity S-wave (km/s) = 3.17027 3.46972 3.32337
# Velocity P-wave (km/s) = 5.85706 6.09110 5.97522
#
# Compressibility (1/GPa) = 0.02258019
#
# Stress axis : x y z
#
# Youngs Moduli (GPa) = 74.67668 97.04017 78.27970
#
# Poissons Ratio (x) = 0.18414 0.24019
# Poissons Ratio (y) = 0.14171 0.15494
# Poissons Ratio (z) = 0.22914 0.19207
#
# Static dielectric constant tensor:
#      x y z
#    x 4.085230 0.000000 0.000000 
#    y 0.000000 3.327200 0.000000 
#    z 0.000000 0.000000 3.907960 
# 
# 
# High freq. dielectric constant tensor:
#      x y z
#    x 1.849970 0.000000 0.000000 
#    y 0.000000 1.782610 0.000000 
#    z 0.000000 0.000000 1.845680 
# 
# From -- ./inp_files/21921.got.cif
#   From: 2010.03.12/outbox.cif.g09.slc.cpg/sg62_11_cif.got.tgz:21921.got - 2010.04.10 19:12:36.
