data_PCOD8251744
_publ_section_title
;
Structure prediction by ZEFSAII (Michael W. Deem and Ramdas Pophale) SiO2 
 PCOD8251744
Probable space group: P N M A
;
_chemical_formula_sum "Si O2"
_cell_formula_units_Z 64
_cell_length_a 11.913353
_cell_length_b 8.764889
_cell_length_c 30.691899
_cell_angle_alpha 90.000000
_cell_angle_beta 90.000000
_cell_angle_gamma 90.000000
_cell_volume 3204.824051
_symmetry_space_group_name_H-M "P N M A"
_symmetry_group_IT_number 62
_symmetry_cell_setting 'orthorhombic'
loop_
_space_group_symop_operation_xyz
x,y,z
1/2-x,-y,1/2+z
1/2+x,1/2-y,1/2-z
-x,1/2+y,-z
-x,-y,-z
1/2+x,y,1/2-z
1/2-x,1/2+y,1/2+z
x,1/2-y,z
loop_
_atom_site_type_symbol
_atom_site_label
_atom_site_fract_x
_atom_site_fract_y
_atom_site_fract_z
Si Si1 0.503053 0.077783 0.925555
Si Si2 0.248490 0.424738 0.544916
Si Si3 0.501611 0.428505 0.164441
Si Si4 0.117870 0.069864 0.122421
Si Si5 0.739215 0.926480 0.043193
Si Si6 0.733147 0.068269 0.201361
Si Si7 0.876345 0.570025 0.127516
Si Si8 0.271744 0.431415 0.201288
O O1 0.496593 0.250000 0.906649
O O2 0.614112 0.054902 0.954131
O O3 0.394092 0.043848 0.954630
O O4 0.505889 0.958986 0.886480
O O5 0.285055 0.250000 0.552197
O O6 0.304059 0.528902 0.581666
O O7 0.289224 0.479138 0.497348
O O8 0.503654 0.250000 0.172854
O O9 0.615435 0.499506 0.184012
O O10 0.392867 0.500278 0.188019
O O11 0.096347 0.250000 0.123000
O O12 0.178124 0.013352 0.166834
O O13 0.001747 0.982167 0.117737
O O14 0.767292 0.750000 0.035186
O O15 0.797897 0.984479 0.087512
O O16 0.737957 0.250000 0.199513
O O17 0.744235 0.007601 0.250648
O O18 0.834328 0.005613 0.172167
O O19 0.871405 0.750000 0.133051
O O20 0.276455 0.250000 0.200252
#
# Coordination Sequence:
#
# PCOD8251744 Si02
#       8
#     8   8   8   8   8   8   8   8
#     4  10  20  37  59  87 123 156 187 239 298 352
#     4  11  23  38  61  91 121 151 194 247 298 353
#     4  10  19  34  60  90 119 153 195 244 288 343
#     4  11  23  41  64  86 117 160 202 246 295 351
#     4  10  22  40  61  84 117 158 196 237 295 357
#     4  10  21  37  62  91 119 154 199 245 290 343
#     4  11  24  42  61  85 120 157 196 246 297 351
#     4   9  20  37  60  90 120 154 197 244 290 341
#
# _framework density 19.969894
#
# number of rings (size 3 to 8) (size 9 to 14) (size 15 to 20)
#    0.000    1.750    2.500    1.500    1.750    2.500 
#    0.000    1.875    0.000    0.000    0.000    0.000 
#    0.000    0.000    0.000    0.000    0.000    0.000 
#
# Total GULP energy -793763.415309 kJ/mol
# GULP energy per Si atom -12402.553364 kJ/mol
# Density = 1.992444 g / cm^3
# Si number density = 19.969894 Si / 1000 Ang^3
#
#
#
# Elastic Constant Matrix: (Units=GPa)
#
#
# Indices 1 2 3 4 5 6 
#
# 1 99.1391 18.6557 32.2094 0.0000 0.0000 0.0000
# 2 18.6557 30.1313 28.4118 0.0000 0.0000 0.0000
# 3 32.2094 28.4118 136.5594 0.0000 0.0000 0.0000
# 4 0.0000 0.0000 0.0000 22.9469 0.0000 0.0000
# 5 0.0000 0.0000 0.0000 0.0000 20.5218 0.0000
# 6 0.0000 0.0000 0.0000 0.0000 0.0000 27.1108
#
#
#
# Elastic Compliance Matrix: (Units=1/GPa)
#
#
# Indices 1 2 3 4 5 6 
#
# 1 0.011677 -0.005763 -0.001555 0.000000 0.000000 0.000000
# 2 -0.005763 0.044133 -0.007823 0.000000 0.000000 0.000000
# 3 -0.001555 -0.007823 0.009317 0.000000 0.000000 0.000000
# 4 0.000000 0.000000 0.000000 0.043579 0.000000 0.000000
# 5 0.000000 0.000000 0.000000 0.000000 0.048729 0.000000
# 6 0.000000 0.000000 0.000000 0.000000 0.000000 0.036886
#
#
# Mechanical properties :
#
#
# Convention : Reuss Voigt Hill
#
# Bulk Modulus (GPa) = 28.69894 47.15373 37.92634
# Shear Modulus (GPa) = 21.16705 26.55276 23.85991
#
# Velocity S-wave (km/s) = 3.25922 3.65038 3.46033
# Velocity P-wave (km/s) = 5.34468 6.43667 5.91592
#
# Compressibility (1/GPa) = 0.03484449
#
# Stress axis : x y z
#
# Youngs Moduli (GPa) = 85.64168 22.65898 107.32913
#
# Poissons Ratio (x) = 0.13059 0.16690
# Poissons Ratio (y) = 0.49357 0.83960
# Poissons Ratio (z) = 0.13317 0.17725
#
# Static dielectric constant tensor:
#      x y z
#    x 3.807110 0.000000 0.000000 
#    y 0.000000 3.386070 0.000000 
#    z 0.000000 0.000000 3.624840 
# 
# 
# High freq. dielectric constant tensor:
#      x y z
#    x 1.787430 0.000000 0.000000 
#    y 0.000000 1.758900 0.000000 
#    z 0.000000 0.000000 1.785250 
# 
# From -- ./inp_files/32594.got.cif
#   From: 2010.03.12/outbox.cif.g09.slc.cpg/sg62_17_cif.got.tgz:32594.got - 2010.04.10 19:12:36.
