data_PCOD8251693
_publ_section_title
;
Structure prediction by ZEFSAII (Michael W. Deem and Ramdas Pophale) SiO2 
 PCOD8251693
Probable space group: P N M A
;
_chemical_formula_sum "Si O2"
_cell_formula_units_Z 64
_cell_length_a 19.703208
_cell_length_b 8.607380
_cell_length_c 19.984669
_cell_angle_alpha 90.000000
_cell_angle_beta 90.000000
_cell_angle_gamma 90.000000
_cell_volume 3389.259939
_symmetry_space_group_name_H-M "P N M A"
_symmetry_group_IT_number 62
_symmetry_cell_setting 'orthorhombic'
loop_
_space_group_symop_operation_xyz
x,y,z
1/2-x,-y,1/2+z
1/2+x,1/2-y,1/2-z
-x,1/2+y,-z
-x,-y,-z
1/2+x,y,1/2-z
1/2-x,1/2+y,1/2+z
x,1/2-y,z
loop_
_atom_site_type_symbol
_atom_site_label
_atom_site_fract_x
_atom_site_fract_y
_atom_site_fract_z
Si Si1 0.406234 0.429723 0.304503
Si Si2 0.560036 0.430529 0.340914
Si Si3 0.558916 0.430923 0.829429
Si Si4 0.929045 0.932871 0.477878
Si Si5 0.093258 0.930773 0.294536
Si Si6 0.572328 0.567244 0.479990
Si Si7 0.675618 0.432762 0.088289
Si Si8 0.178659 0.068411 0.917864
O O1 0.388895 0.250000 0.314983
O O2 0.481052 0.471018 0.330839
O O3 0.400499 0.472126 0.226296
O O4 0.352696 0.531296 0.345422
O O5 0.570946 0.250000 0.356327
O O6 0.601901 0.477429 0.275054
O O7 0.587810 0.531339 0.402584
O O8 0.570700 0.250000 0.814836
O O9 0.587598 0.482905 0.901580
O O10 0.478965 0.471412 0.827946
O O11 0.936031 0.750000 0.481419
O O12 0.869570 0.993853 0.526109
O O13 0.000000 0.000000 0.500000
O O14 0.100413 0.750000 0.278948
O O15 0.152672 0.983185 0.343910
O O16 0.500000 0.500000 0.500000
O O17 0.573748 0.750000 0.494169
O O18 0.628764 0.484194 0.523875
O O19 0.667108 0.250000 0.098131
O O20 0.752379 0.474582 0.072099
O O21 0.193379 0.250000 0.923278
#
# Coordination Sequence:
#
# PCOD8251693 Si02
#       8
#     8   8   8   8   8   8   8   8
#     4  10  20  35  57  85 116 149 191 241 293 348
#     4  10  20  35  58  88 120 151 192 243 292 344
#     4   9  18  33  55  85 118 149 190 240 290 345
#     4  10  20  35  58  87 119 155 195 244 293 346
#     4  10  19  34  57  85 118 153 194 241 292 350
#     4  12  23  38  61  90 121 154 196 246 299 357
#     4  11  23  39  59  85 120 159 201 247 301 360
#     4  12  25  41  61  84 117 159 201 245 301 363
#
# _framework density 18.883178000000001
#
# number of rings (size 3 to 8) (size 9 to 14) (size 15 to 20)
#    0.000    1.500    2.500    3.750    0.000    2.500 
#    0.000    1.250    0.000    1.500    0.000    0.000 
#    0.000    0.000    0.000    0.000    0.000    0.000 
#
# Total GULP energy -793904.305565 kJ/mol
# GULP energy per Si atom -12404.754774 kJ/mol
# Density = 1.884020 g / cm^3
# Si number density = 18.883178 Si / 1000 Ang^3
#
#
#
# Elastic Constant Matrix: (Units=GPa)
#
#
# Indices 1 2 3 4 5 6 
#
# 1 82.3852 3.2093 42.6912 0.0000 0.0000 0.0000
# 2 3.2093 46.2302 19.2414 0.0000 0.0000 0.0000
# 3 42.6912 19.2414 130.7335 0.0000 0.0000 0.0000
# 4 0.0000 0.0000 0.0000 34.3010 0.0000 0.0000
# 5 0.0000 0.0000 0.0000 0.0000 26.3548 0.0000
# 6 0.0000 0.0000 0.0000 0.0000 0.0000 28.3150
#
#
#
# Elastic Compliance Matrix: (Units=1/GPa)
#
#
# Indices 1 2 3 4 5 6 
#
# 1 0.014657 0.001038 -0.004939 0.000000 0.000000 0.000000
# 2 0.001038 0.023116 -0.003741 0.000000 0.000000 0.000000
# 3 -0.004939 -0.003741 0.009813 0.000000 0.000000 0.000000
# 4 0.000000 0.000000 0.000000 0.029154 0.000000 0.000000
# 5 0.000000 0.000000 0.000000 0.000000 0.037944 0.000000
# 6 0.000000 0.000000 0.000000 0.000000 0.000000 0.035317
#
#
# Mechanical properties :
#
#
# Convention : Reuss Voigt Hill
#
# Bulk Modulus (GPa) = 30.95840 43.29251 37.12546
# Shear Modulus (GPa) = 28.40080 30.74130 29.57105
#
# Velocity S-wave (km/s) = 3.88238 4.03919 3.96156
# Velocity P-wave (km/s) = 6.04380 6.68803 6.37406
#
# Compressibility (1/GPa) = 0.03230141
#
# Stress axis : x y z
#
# Youngs Moduli (GPa) = 68.22656 43.26015 101.90927
#
# Poissons Ratio (x) = -0.04491 0.50334
# Poissons Ratio (y) = -0.07083 0.38127
# Poissons Ratio (z) = 0.33698 0.16185
#
# Static dielectric constant tensor:
#      x y z
#    x 3.257450 0.000000 0.000000 
#    y 0.000000 3.471590 0.000000 
#    z 0.000000 0.000000 3.773610 
# 
# 
# High freq. dielectric constant tensor:
#      x y z
#    x 1.704470 0.000000 0.000000 
#    y 0.000000 1.742500 0.000000 
#    z 0.000000 0.000000 1.750310 
# 
# From -- ./inp_files/27704.got.cif
#   From: 2010.03.12/outbox.cif.g09.slc.cpg/sg62_14_cif.got.tgz:27704.got - 2010.04.10 19:12:36.
