data_PCOD8251630
_publ_section_title
;
Structure prediction by ZEFSAII (Michael W. Deem and Ramdas Pophale) SiO2 
 PCOD8251630
Probable space group: P N M A
;
_chemical_formula_sum "Si O2"
_cell_formula_units_Z 56
_cell_length_a 8.458300
_cell_length_b 14.165723
_cell_length_c 20.848113
_cell_angle_alpha 90.000000
_cell_angle_beta 90.000000
_cell_angle_gamma 90.000000
_cell_volume 2497.977845
_symmetry_space_group_name_H-M "P N M A"
_symmetry_group_IT_number 62
_symmetry_cell_setting 'orthorhombic'
loop_
_space_group_symop_operation_xyz
x,y,z
1/2-x,-y,1/2+z
1/2+x,1/2-y,1/2-z
-x,1/2+y,-z
-x,-y,-z
1/2+x,y,1/2-z
1/2-x,1/2+y,1/2+z
x,1/2-y,z
loop_
_atom_site_type_symbol
_atom_site_label
_atom_site_fract_x
_atom_site_fract_y
_atom_site_fract_z
Si Si1 0.743636 0.361215 0.700630
Si Si2 0.569034 0.472801 0.601695
Si Si3 0.789311 0.357355 0.947660
Si Si4 0.912252 0.638954 0.328396
Si Si5 0.564317 0.144034 0.176767
Si Si6 0.882720 0.953442 0.550518
Si Si7 0.436390 0.356925 0.312049
O O1 0.741823 0.250000 0.691382
O O2 0.597264 0.401990 0.660658
O O3 0.710725 0.392069 0.773682
O O4 0.912764 0.406732 0.679991
O O5 0.439583 0.427500 0.554289
O O6 0.737715 0.476490 0.565835
O O7 0.506946 0.573374 0.630618
O O8 0.843934 0.250000 0.935056
O O9 0.661419 0.392919 0.895508
O O10 0.703285 0.363822 0.016385
O O11 0.938094 0.750000 0.325121
O O12 0.501190 0.250000 0.164586
O O13 0.522819 0.080819 0.114134
O O14 0.749590 0.142632 0.187117
O O15 0.486034 0.104023 0.241867
O O16 0.000000 0.000000 0.500000
O O17 0.503010 0.250000 0.323446
#
# Coordination Sequence:
#
# PCOD8251630 Si02
#       7
#     8   8   8   8   8   8   8
#     4  10  19  34  55  86 121 152 193 246 299 358
#     4  11  23  38  61  90 117 155 203 252 308 368
#     4  11  23  41  61  84 120 165 204 248 303 368
#     4   9  19  34  56  84 118 158 197 240 299 360
#     4   9  19  39  63  88 117 154 196 247 310 370
#     4  11  24  40  59  86 123 164 209 253 300 369
#     4   9  20  38  61  88 118 148 192 254 315 367
#
# _framework density 22.418133000000001
#
# number of rings (size 3 to 8) (size 9 to 14) (size 15 to 20)
#    0.000    2.000    0.000    3.000    0.000    9.714 
#    0.000    2.143    0.000    0.857    0.000    0.000 
#    0.000    0.000    0.000    0.000    0.000    0.000 
#
# Total GULP energy -694237.975549 kJ/mol
# GULP energy per Si atom -12397.106706 kJ/mol
# Density = 2.236711 g / cm^3
# Si number density = 22.418133 Si / 1000 Ang^3
#
#
#
# Elastic Constant Matrix: (Units=GPa)
#
#
# Indices 1 2 3 4 5 6 
#
# 1 59.1794 29.1147 20.8384 0.0000 0.0000 0.0000
# 2 29.1147 81.2455 35.8166 0.0000 0.0000 0.0000
# 3 20.8384 35.8166 85.8842 0.0000 0.0000 0.0000
# 4 0.0000 0.0000 0.0000 33.7608 0.0000 0.0000
# 5 0.0000 0.0000 0.0000 0.0000 43.0473 0.0000
# 6 0.0000 0.0000 0.0000 0.0000 0.0000 26.5961
#
#
#
# Elastic Compliance Matrix: (Units=1/GPa)
#
#
# Indices 1 2 3 4 5 6 
#
# 1 0.020906 -0.006440 -0.002387 0.000000 0.000000 0.000000
# 2 -0.006440 0.017064 -0.005554 0.000000 0.000000 0.000000
# 3 -0.002387 -0.005554 0.014539 0.000000 0.000000 0.000000
# 4 0.000000 0.000000 0.000000 0.029620 0.000000 0.000000
# 5 0.000000 0.000000 0.000000 0.000000 0.023230 0.000000
# 6 0.000000 0.000000 0.000000 0.000000 0.000000 0.037600
#
#
# Mechanical properties :
#
#
# Convention : Reuss Voigt Hill
#
# Bulk Modulus (GPa) = 42.10783 44.20539 43.15661
# Shear Modulus (GPa) = 27.83384 30.05012 28.94198
#
# Velocity S-wave (km/s) = 3.52742 3.66517 3.59696
# Velocity P-wave (km/s) = 5.95097 6.13781 6.04511
#
# Compressibility (1/GPa) = 0.02374855
#
# Stress axis : x y z
#
# Youngs Moduli (GPa) = 47.83212 58.60119 68.78060
#
# Poissons Ratio (x) = 0.37737 0.16418
# Poissons Ratio (y) = 0.30802 0.38201
# Poissons Ratio (z) = 0.11418 0.32547
#
# Static dielectric constant tensor:
#      x y z
#    x 3.915950 0.000000 0.000000 
#    y 0.000000 4.175490 0.000000 
#    z 0.000000 0.000000 4.307130 
# 
# 
# High freq. dielectric constant tensor:
#      x y z
#    x 1.870880 0.000000 0.000000 
#    y 0.000000 1.880010 0.000000 
#    z 0.000000 0.000000 1.889270 
# 
# From -- ./inp_files/26005.got.cif
#   From: 2010.03.12/outbox.cif.g09.slc.cpg/sg62_14_cif.got.tgz:26005.got - 2010.04.10 19:12:36.
