data_PCOD8251291
_publ_section_title
;
Structure prediction by ZEFSAII (Michael W. Deem and Ramdas Pophale) SiO2 
 PCOD8251291
Probable space group: P N M A
;
_chemical_formula_sum "Si O2"
_cell_formula_units_Z 64
_cell_length_a 24.654096
_cell_length_b 9.087809
_cell_length_c 14.866458
_cell_angle_alpha 90.000000
_cell_angle_beta 90.000000
_cell_angle_gamma 90.000000
_cell_volume 3330.855419
_symmetry_space_group_name_H-M "P N M A"
_symmetry_group_IT_number 62
_symmetry_cell_setting 'orthorhombic'
loop_
_space_group_symop_operation_xyz
x,y,z
1/2-x,-y,1/2+z
1/2+x,1/2-y,1/2-z
-x,1/2+y,-z
-x,-y,-z
1/2+x,y,1/2-z
1/2-x,1/2+y,1/2+z
x,1/2-y,z
loop_
_atom_site_type_symbol
_atom_site_label
_atom_site_fract_x
_atom_site_fract_y
_atom_site_fract_z
Si Si1 0.867542 0.917469 0.324795
Si Si2 0.826361 0.581658 0.510739
Si Si3 0.443496 0.075977 0.309277
Si Si4 0.350117 0.577600 0.788013
Si Si5 0.556614 0.578225 0.321338
Si Si6 0.888622 0.420414 0.006641
Si Si7 0.719151 0.080554 0.527934
Si Si8 0.257246 0.917318 0.268118
O O1 0.883032 0.750000 0.297477
O O2 0.871470 0.941411 0.432664
O O3 0.804849 0.949453 0.301825
O O4 0.906685 0.030566 0.275161
O O5 0.806570 0.750000 0.514052
O O6 0.852606 0.537327 0.606028
O O7 0.773937 0.485196 0.486915
O O8 0.451618 0.250000 0.309305
O O9 0.415984 0.020706 0.401745
O O10 0.500902 0.999772 0.297136
O O11 0.357385 0.750000 0.769743
O O12 0.397637 0.488669 0.741743
O O13 0.292517 0.526032 0.747239
O O14 0.551584 0.750000 0.300204
O O15 0.569831 0.549439 0.425790
O O16 0.873883 0.250000 0.015919
O O17 0.833301 0.504917 0.984513
O O18 0.716685 0.250000 0.501981
O O19 0.717610 0.051626 0.634258
O O20 0.235712 0.750000 0.261173
#
# Coordination Sequence:
#
# PCOD8251291 Si02
#       8
#     8   8   8   8   8   8   8   8
#     4  10  20  37  60  85 116 155 194 231 283 347
#     4   9  20  37  58  83 117 157 192 234 285 340
#     4  11  23  40  61  87 117 147 189 244 291 337
#     4  10  21  38  58  84 117 150 193 245 290 331
#     4  11  24  41  61  82 111 155 198 236 287 350
#     4  10  22  38  57  83 116 153 189 230 284 347
#     4  10  19  32  54  85 118 151 188 232 279 335
#     4   9  18  33  54  82 116 153 188 227 280 343
#
# _framework density 19.214282000000001
#
# number of rings (size 3 to 8) (size 9 to 14) (size 15 to 20)
#    0.000    2.000    1.250    1.875    1.750    3.500 
#    0.000    0.625    0.000    0.000    0.000    0.000 
#    0.000    0.000    0.000    0.000    0.000    0.000 
#
# Total GULP energy -793841.893461 kJ/mol
# GULP energy per Si atom -12403.779585 kJ/mol
# Density = 1.917055 g / cm^3
# Si number density = 19.214282 Si / 1000 Ang^3
#
#
#
# Elastic Constant Matrix: (Units=GPa)
#
#
# Indices 1 2 3 4 5 6 
#
# 1 100.7212 52.9216 40.6442 0.0000 0.0000 0.0000
# 2 52.9216 86.1825 33.8033 0.0000 0.0000 0.0000
# 3 40.6442 33.8033 61.1135 0.0000 0.0000 0.0000
# 4 0.0000 0.0000 0.0000 27.9498 0.0000 0.0000
# 5 0.0000 0.0000 0.0000 0.0000 22.6692 0.0000
# 6 0.0000 0.0000 0.0000 0.0000 0.0000 37.0154
#
#
#
# Elastic Compliance Matrix: (Units=1/GPa)
#
#
# Indices 1 2 3 4 5 6 
#
# 1 0.016678 -0.007523 -0.006931 0.000000 0.000000 0.000000
# 2 -0.007523 0.018211 -0.005070 0.000000 0.000000 0.000000
# 3 -0.006931 -0.005070 0.023777 0.000000 0.000000 0.000000
# 4 0.000000 0.000000 0.000000 0.035778 0.000000 0.000000
# 5 0.000000 0.000000 0.000000 0.000000 0.044113 0.000000
# 6 0.000000 0.000000 0.000000 0.000000 0.000000 0.027016
#
#
# Mechanical properties :
#
#
# Convention : Reuss Voigt Hill
#
# Bulk Modulus (GPa) = 50.97154 55.86172 53.41663
# Shear Modulus (GPa) = 23.67877 25.57009 24.62443
#
# Velocity S-wave (km/s) = 3.51430 3.65195 3.58378
# Velocity P-wave (km/s) = 6.56145 6.84971 6.70712
#
# Compressibility (1/GPa) = 0.01961879
#
# Stress axis : x y z
#
# Youngs Moduli (GPa) = 59.95976 54.91073 42.05799
#
# Poissons Ratio (x) = 0.41308 0.29149
# Poissons Ratio (y) = 0.45107 0.21323
# Poissons Ratio (z) = 0.41557 0.27840
#
# Static dielectric constant tensor:
#      x y z
#    x 3.336950 0.000000 0.000000 
#    y 0.000000 3.531270 0.000000 
#    z 0.000000 0.000000 3.590530 
# 
# 
# High freq. dielectric constant tensor:
#      x y z
#    x 1.734800 0.000000 0.000000 
#    y 0.000000 1.751150 0.000000 
#    z 0.000000 0.000000 1.751200 
# 
# From -- ./inp_files/20774.got.cif
#   From: 2010.03.12/outbox.cif.g09.slc.cpg/sg62_11_cif.got.tgz:20774.got - 2010.04.10 19:12:36.
