data_PCOD8251345
_publ_section_title
;
Structure prediction by ZEFSAII (Michael W. Deem and Ramdas Pophale) SiO2 
 PCOD8251345
Probable space group: P N M A
;
_chemical_formula_sum "Si O2"
_cell_formula_units_Z 48
_cell_length_a 16.446292
_cell_length_b 8.969069
_cell_length_c 18.380122
_cell_angle_alpha 90.000000
_cell_angle_beta 90.000000
_cell_angle_gamma 90.000000
_cell_volume 2711.213708
_symmetry_space_group_name_H-M "P N M A"
_symmetry_group_IT_number 62
_symmetry_cell_setting 'orthorhombic'
loop_
_space_group_symop_operation_xyz
x,y,z
1/2-x,-y,1/2+z
1/2+x,1/2-y,1/2-z
-x,1/2+y,-z
-x,-y,-z
1/2+x,y,1/2-z
1/2-x,1/2+y,1/2+z
x,1/2-y,z
loop_
_atom_site_type_symbol
_atom_site_label
_atom_site_fract_x
_atom_site_fract_y
_atom_site_fract_z
Si Si1 0.580752 0.417648 0.201922
Si Si2 0.992269 0.927679 0.421730
Si Si3 0.160226 0.420892 0.670095
Si Si4 0.916370 0.086560 0.207894
Si Si5 0.018078 0.428100 0.076594
Si Si6 0.844060 0.075351 0.832328
O O1 0.612478 0.250000 0.184383
O O2 0.565962 0.509282 0.127652
O O3 0.497701 0.407689 0.245416
O O4 0.645290 0.505187 0.252034
O O5 0.999298 0.750000 0.427313
O O6 0.905325 0.981430 0.388354
O O7 0.000000 0.000000 0.500000
O O8 0.141617 0.250000 0.681776
O O9 0.149957 0.488118 0.750998
O O10 0.251184 0.450978 0.642216
O O11 0.877901 0.250000 0.199827
O O12 0.942224 0.025363 0.128484
O O13 0.026536 0.250000 0.071815
O O14 0.101812 0.494031 0.107403
O O15 0.000000 0.500000 0.000000
O O16 0.866191 0.250000 0.829058
#
# Coordination Sequence:
#
# PCOD8251345 Si02
#       6
#     8   8   8   8   8   8
#     4   9  17  31  50  73  97 126 164 203 241 291
#     4  10  19  33  52  75 102 135 170 207 250 300
#     4   9  19  33  51  74 100 129 165 206 251 297
#     4   8  16  30  49  71  95 123 160 199 239 288
#     4  10  20  34  52  76 102 133 169 206 249 300
#     4  10  19  33  52  75 101 130 164 207 252 298
#
# _framework density 17.704248
#
# number of rings (size 3 to 8) (size 9 to 14) (size 15 to 20)
#    0.000    2.667    0.000    3.000    0.000    6.667 
#    0.000    1.667    0.000    2.000    0.000    0.000 
#    0.000    0.000    0.000    0.000    0.000    0.000 
#
# Total GULP energy -594961.862382 kJ/mol
# GULP energy per Si atom -12395.038800 kJ/mol
# Density = 1.766395 g / cm^3
# Si number density = 17.704248 Si / 1000 Ang^3
#
#
#
# Elastic Constant Matrix: (Units=GPa)
#
#
# Indices 1 2 3 4 5 6 
#
# 1 71.1572 43.5421 47.3494 0.0000 0.0000 0.0000
# 2 43.5421 100.9733 60.8727 0.0000 0.0000 0.0000
# 3 47.3494 60.8727 149.2694 0.0000 0.0000 0.0000
# 4 0.0000 0.0000 0.0000 35.9738 0.0000 0.0000
# 5 0.0000 0.0000 0.0000 0.0000 19.0941 0.0000
# 6 0.0000 0.0000 0.0000 0.0000 0.0000 23.5715
#
#
#
# Elastic Compliance Matrix: (Units=1/GPa)
#
#
# Indices 1 2 3 4 5 6 
#
# 1 0.020650 -0.006571 -0.003871 0.000000 0.000000 0.000000
# 2 -0.006571 0.015223 -0.004124 0.000000 0.000000 0.000000
# 3 -0.003871 -0.004124 0.009609 0.000000 0.000000 0.000000
# 4 0.000000 0.000000 0.000000 0.027798 0.000000 0.000000
# 5 0.000000 0.000000 0.000000 0.000000 0.052372 0.000000
# 6 0.000000 0.000000 0.000000 0.000000 0.000000 0.042424
#
#
# Mechanical properties :
#
#
# Convention : Reuss Voigt Hill
#
# Bulk Modulus (GPa) = 61.15855 69.43649 65.29752
# Shear Modulus (GPa) = 24.67213 27.03693 25.85453
#
# Velocity S-wave (km/s) = 3.73711 3.91211 3.82561
# Velocity P-wave (km/s) = 7.29663 7.72732 7.51506
#
# Compressibility (1/GPa) = 0.01635094
#
# Stress axis : x y z
#
# Youngs Moduli (GPa) = 48.42602 65.68863 104.07252
#
# Poissons Ratio (x) = 0.43167 0.40281
# Poissons Ratio (y) = 0.31823 0.42916
# Poissons Ratio (z) = 0.18743 0.27088
#
# Static dielectric constant tensor:
#      x y z
#    x 3.175010 0.000000 0.000000 
#    y 0.000000 3.504830 0.000000 
#    z 0.000000 0.000000 3.419320 
# 
# 
# High freq. dielectric constant tensor:
#      x y z
#    x 1.661180 0.000000 0.000000 
#    y 0.000000 1.697110 0.000000 
#    z 0.000000 0.000000 1.678300 
# 
# From -- ./inp_files/24203.got.cif
#   From: 2010.03.12/outbox.cif.g09.slc.cpg/sg62_13_cif.got.tgz:24203.got - 2010.04.10 19:12:36.
