data_PCOD8251564
_publ_section_title
;
Structure prediction by ZEFSAII (Michael W. Deem and Ramdas Pophale) SiO2 
 PCOD8251564
Probable space group: P N M A
;
_chemical_formula_sum "Si O2"
_cell_formula_units_Z 56
_cell_length_a 18.936551
_cell_length_b 9.231460
_cell_length_c 19.094355
_cell_angle_alpha 90.000000
_cell_angle_beta 90.000000
_cell_angle_gamma 90.000000
_cell_volume 3337.922636
_symmetry_space_group_name_H-M "P N M A"
_symmetry_group_IT_number 62
_symmetry_cell_setting 'orthorhombic'
loop_
_space_group_symop_operation_xyz
x,y,z
1/2-x,-y,1/2+z
1/2+x,1/2-y,1/2-z
-x,1/2+y,-z
-x,-y,-z
1/2+x,y,1/2-z
1/2-x,1/2+y,1/2+z
x,1/2-y,z
loop_
_atom_site_type_symbol
_atom_site_label
_atom_site_fract_x
_atom_site_fract_y
_atom_site_fract_z
Si Si1 0.741582 0.918291 0.846906
Si Si2 0.834360 0.418998 0.736065
Si Si3 0.550120 0.579174 0.446105
Si Si4 0.622331 0.915151 0.740036
Si Si5 0.789369 0.081197 0.974584
Si Si6 0.485157 0.083169 0.709382
Si Si7 0.741647 0.919374 0.633932
O O1 0.762876 0.750000 0.850068
O O2 0.664691 0.937710 0.812330
O O3 0.799972 0.003099 0.802532
O O4 0.739235 0.987041 0.924188
O O5 0.814231 0.250000 0.738879
O O6 0.918278 0.441767 0.740233
O O7 0.807546 0.489756 0.663799
O O8 0.500000 0.500000 0.500000
O O9 0.539909 0.750000 0.454337
O O10 0.630034 0.534434 0.463123
O O11 0.531237 0.524004 0.368378
O O12 0.600310 0.750000 0.728901
O O13 0.670755 0.966768 0.674924
O O14 0.551125 0.005088 0.744323
O O15 0.778523 0.250000 0.957815
O O16 0.766808 0.042951 0.053095
O O17 0.504942 0.250000 0.703899
O O18 0.756250 0.750000 0.647672
#
# Coordination Sequence:
#
# PCOD8251564 Si02
#       7
#     8   8   8   8   8   8   8
#     4  10  20  34  52  75 101 132 176 216 252 306
#     4  10  19  34  53  73 101 135 172 214 257 300
#     4  10  20  33  47  71 106 138 167 199 245 304
#     4   9  19  34  51  73 102 133 166 210 256 299
#     4  10  19  34  53  73 105 139 167 210 260 304
#     4  10  20  33  50  73 101 133 170 208 249 302
#     4   9  19  34  52  76 104 134 170 210 256 307
#
# _framework density 16.776900999999999
#
# number of rings (size 3 to 8) (size 9 to 14) (size 15 to 20)
#    0.000    2.286    1.429    2.571    0.000    6.857 
#    0.000    0.000    0.000    0.857    0.000    0.000 
#    0.000    0.000    0.000    0.000    0.000    0.000 
#
# Total GULP energy -694512.638613 kJ/mol
# GULP energy per Si atom -12402.011404 kJ/mol
# Density = 1.673872 g / cm^3
# Si number density = 16.776901 Si / 1000 Ang^3
#
#
#
# Elastic Constant Matrix: (Units=GPa)
#
#
# Indices 1 2 3 4 5 6 
#
# 1 101.4945 58.9951 62.5197 0.0000 0.0000 0.0000
# 2 58.9951 76.1814 53.6343 0.0000 0.0000 0.0000
# 3 62.5197 53.6343 112.0625 0.0000 0.0000 0.0000
# 4 0.0000 0.0000 0.0000 31.8580 0.0000 0.0000
# 5 0.0000 0.0000 0.0000 0.0000 22.8826 0.0000
# 6 0.0000 0.0000 0.0000 0.0000 0.0000 32.3341
#
#
#
# Elastic Compliance Matrix: (Units=1/GPa)
#
#
# Indices 1 2 3 4 5 6 
#
# 1 0.020047 -0.011539 -0.005662 0.000000 0.000000 0.000000
# 2 -0.011539 0.026439 -0.006216 0.000000 0.000000 0.000000
# 3 -0.005662 -0.006216 0.015058 0.000000 0.000000 0.000000
# 4 0.000000 0.000000 0.000000 0.031389 0.000000 0.000000
# 5 0.000000 0.000000 0.000000 0.000000 0.043701 0.000000
# 6 0.000000 0.000000 0.000000 0.000000 0.000000 0.030927
#
#
# Mechanical properties :
#
#
# Convention : Reuss Voigt Hill
#
# Bulk Modulus (GPa) = 67.98206 71.11515 69.54861
# Shear Modulus (GPa) = 22.79995 25.05423 23.92709
#
# Velocity S-wave (km/s) = 3.69047 3.86862 3.78059
# Velocity P-wave (km/s) = 7.66607 7.90162 7.78474
#
# Compressibility (1/GPa) = 0.01470976
#
# Stress axis : x y z
#
# Youngs Moduli (GPa) = 49.88165 37.82340 66.41129
#
# Poissons Ratio (x) = 0.43643 0.37602
# Poissons Ratio (y) = 0.57556 0.41284
# Poissons Ratio (z) = 0.28243 0.23513
#
# Static dielectric constant tensor:
#      x y z
#    x 3.026330 0.000000 0.000000 
#    y 0.000000 3.259250 0.000000 
#    z 0.000000 0.000000 3.180570 
# 
# 
# High freq. dielectric constant tensor:
#      x y z
#    x 1.634700 0.000000 0.000000 
#    y 0.000000 1.650400 0.000000 
#    z 0.000000 0.000000 1.641390 
# 
# From -- ./inp_files/27511.got.cif
#   From: 2010.03.12/outbox.cif.g09.slc.cpg/sg62_14_cif.got.tgz:27511.got - 2010.04.10 19:12:36.
