data_PCOD8251258
_publ_section_title
;
Structure prediction by ZEFSAII (Michael W. Deem and Ramdas Pophale) SiO2 
 PCOD8251258
Probable space group: P N M A
;
_chemical_formula_sum "Si O2"
_cell_formula_units_Z 56
_cell_length_a 21.438264
_cell_length_b 8.420495
_cell_length_c 15.324971
_cell_angle_alpha 90.000000
_cell_angle_beta 90.000000
_cell_angle_gamma 90.000000
_cell_volume 2766.475946
_symmetry_space_group_name_H-M "P N M A"
_symmetry_group_IT_number 62
_symmetry_cell_setting 'orthorhombic'
loop_
_space_group_symop_operation_xyz
x,y,z
1/2-x,-y,1/2+z
1/2+x,1/2-y,1/2-z
-x,1/2+y,-z
-x,-y,-z
1/2+x,y,1/2-z
1/2-x,1/2+y,1/2+z
x,1/2-y,z
loop_
_atom_site_type_symbol
_atom_site_label
_atom_site_fract_x
_atom_site_fract_y
_atom_site_fract_z
Si Si1 0.340996 0.937939 0.692900
Si Si2 0.817302 0.934814 0.001998
Si Si3 0.413440 0.068645 0.967376
Si Si4 0.979283 0.074718 0.369174
Si Si5 0.019572 0.570866 0.204751
Si Si6 0.211541 0.936415 0.369828
Si Si7 0.946003 0.432233 0.058424
O O1 0.349899 0.750000 0.690623
O O2 0.313042 0.998273 0.598961
O O3 0.408896 0.015176 0.706323
O O4 0.295625 0.984569 0.773590
O O5 0.802941 0.750000 0.998501
O O6 0.768758 0.009120 0.072626
O O7 0.885136 0.965235 0.040852
O O8 0.430271 0.250000 0.939476
O O9 0.415911 0.055244 0.073611
O O10 0.346545 0.022196 0.930860
O O11 0.461757 0.938405 0.933436
O O12 0.980933 0.250000 0.325587
O O13 0.988992 0.934806 0.300047
O O14 0.017220 0.750000 0.168222
O O15 0.972665 0.454288 0.154651
O O16 0.219662 0.750000 0.352925
O O17 0.930879 0.250000 0.037988
O O18 0.000000 0.500000 0.000000
#
# Coordination Sequence:
#
# PCOD8251258 Si02
#       7
#     8   8   8   8   8   8   8
#     4  11  22  38  63  92 120 158 208 256 305 366
#     4  10  23  43  64  88 125 164 204 255 311 369
#     4   9  18  33  55  83 118 158 198 245 304 361
#     4  10  19  32  53  85 121 156 200 249 298 357
#     4  12  23  37  60  88 121 158 199 249 307 369
#     4  10  21  40  64  88 122 167 208 252 307 370
#     4  12  24  40  64  92 121 154 197 254 314 372
#
# _framework density 20.242357999999999
#
# number of rings (size 3 to 8) (size 9 to 14) (size 15 to 20)
#    0.000    1.429    2.857    3.429    0.000    1.714 
#    2.571    0.000    0.000    0.000    0.000    0.000 
#    0.000    0.000    0.000    0.000    0.000    0.000 
#
# Total GULP energy -693860.619875 kJ/mol
# GULP energy per Si atom -12390.368212 kJ/mol
# Density = 2.019629 g / cm^3
# Si number density = 20.242358 Si / 1000 Ang^3
#
#
#
# Elastic Constant Matrix: (Units=GPa)
#
#
# Indices 1 2 3 4 5 6 
#
# 1 95.6035 2.0441 62.1549 0.0000 0.0000 0.0000
# 2 2.0441 48.7424 17.4577 0.0000 0.0000 0.0000
# 3 62.1549 17.4577 144.2937 0.0000 0.0000 0.0000
# 4 0.0000 0.0000 0.0000 29.0075 0.0000 0.0000
# 5 0.0000 0.0000 0.0000 0.0000 37.2738 0.0000
# 6 0.0000 0.0000 0.0000 0.0000 0.0000 19.7023
#
#
#
# Elastic Compliance Matrix: (Units=1/GPa)
#
#
# Indices 1 2 3 4 5 6 
#
# 1 0.014666 0.001722 -0.006526 0.000000 0.000000 0.000000
# 2 0.001722 0.021648 -0.003361 0.000000 0.000000 0.000000
# 3 -0.006526 -0.003361 0.010148 0.000000 0.000000 0.000000
# 4 0.000000 0.000000 0.000000 0.034474 0.000000 0.000000
# 5 0.000000 0.000000 0.000000 0.000000 0.026828 0.000000
# 6 0.000000 0.000000 0.000000 0.000000 0.000000 0.050756
#
#
# Mechanical properties :
#
#
# Convention : Reuss Voigt Hill
#
# Bulk Modulus (GPa) = 33.18693 50.21700 41.70197
# Shear Modulus (GPa) = 27.04287 30.99558 29.01923
#
# Velocity S-wave (km/s) = 3.65904 3.91733 3.79038
# Velocity P-wave (km/s) = 5.85507 6.73219 6.30889
#
# Compressibility (1/GPa) = 0.03013234
#
# Stress axis : x y z
#
# Youngs Moduli (GPa) = 68.18704 46.19458 98.54297
#
# Poissons Ratio (x) = -0.07956 0.64305
# Poissons Ratio (y) = -0.11743 0.33120
# Poissons Ratio (z) = 0.44496 0.15526
#
# Static dielectric constant tensor:
#      x y z
#    x 3.544460 0.000000 0.000000 
#    y 0.000000 3.539750 0.000000 
#    z 0.000000 0.000000 3.939460 
# 
# 
# High freq. dielectric constant tensor:
#      x y z
#    x 1.767150 0.000000 0.000000 
#    y 0.000000 1.784940 0.000000 
#    z 0.000000 0.000000 1.807390 
# 
# From -- ./inp_files/20282.got.cif
#   From: 2010.03.12/outbox.cif.g09.slc.cpg/sg62_11_cif.got.tgz:20282.got - 2010.04.10 19:12:36.
