data_PCOD8251558
_publ_section_title
;
Structure prediction by ZEFSAII (Michael W. Deem and Ramdas Pophale) SiO2 
 PCOD8251558
Probable space group: P N M A
;
_chemical_formula_sum "Si O2"
_cell_formula_units_Z 64
_cell_length_a 14.281479
_cell_length_b 8.698600
_cell_length_c 30.129477
_cell_angle_alpha 90.000000
_cell_angle_beta 90.000000
_cell_angle_gamma 90.000000
_cell_volume 3742.950979
_symmetry_space_group_name_H-M "P N M A"
_symmetry_group_IT_number 62
_symmetry_cell_setting 'orthorhombic'
loop_
_space_group_symop_operation_xyz
x,y,z
1/2-x,-y,1/2+z
1/2+x,1/2-y,1/2-z
-x,1/2+y,-z
-x,-y,-z
1/2+x,y,1/2-z
1/2-x,1/2+y,1/2+z
x,1/2-y,z
loop_
_atom_site_type_symbol
_atom_site_label
_atom_site_fract_x
_atom_site_fract_y
_atom_site_fract_z
Si Si1 0.102794 0.572985 0.042720
Si Si2 0.150622 0.069188 0.303620
Si Si3 0.206979 0.069408 0.865768
Si Si4 0.036655 0.927749 0.821120
Si Si5 0.109865 0.430672 0.953793
Si Si6 0.365801 0.427039 0.638834
Si Si7 0.473359 0.930105 0.229926
Si Si8 0.259471 0.929029 0.220857
O O1 0.098358 0.750000 0.028839
O O2 0.164938 0.548597 0.087344
O O3 0.997036 0.510556 0.051336
O O4 0.150187 0.483502 0.001560
O O5 0.136107 0.250000 0.302935
O O6 0.201066 0.019334 0.349246
O O7 0.049492 0.985809 0.305938
O O8 0.211051 0.022038 0.260393
O O9 0.227563 0.250000 0.866312
O O10 0.174445 0.003756 0.913847
O O11 0.125777 0.034564 0.830286
O O12 0.066011 0.750000 0.823170
O O13 0.954480 0.962433 0.855559
O O14 0.997300 0.975001 0.773363
O O15 0.113580 0.250000 0.949699
O O16 0.397368 0.250000 0.645883
O O17 0.283990 0.472030 0.672909
O O18 0.484673 0.750000 0.238857
O O19 0.368270 0.973419 0.215572
O O20 0.246162 0.750000 0.231994
#
# Coordination Sequence:
#
# PCOD8251558 Si02
#       8
#     8   8   8   8   8   8   8   8
#     4   9  17  30  48  72 102 134 165 206 253 301
#     4  12  24  35  51  77 104 132 172 217 260 298
#     4  11  21  36  53  71 100 141 178 209 253 309
#     4  12  22  30  47  76 105 135 172 217 255 292
#     4   9  18  31  48  72  99 133 171 206 249 306
#     4  10  19  34  52  73 101 138 177 207 249 309
#     4  11  22  37  53  71 100 139 177 210 252 303
#     4  10  21  35  55  74  97 137 177 210 248 303
#
# _framework density 17.098807999999998
#
# number of rings (size 3 to 8) (size 9 to 14) (size 15 to 20)
#    0.000    1.500    3.750    3.000    0.000    2.000 
#    0.000    0.000    0.000    0.000    0.000    0.875 
#    0.000    0.000    0.000    0.000    0.000    0.000 
#
# Total GULP energy -793529.153946 kJ/mol
# GULP energy per Si atom -12398.893030 kJ/mol
# Density = 1.705989 g / cm^3
# Si number density = 17.098808 Si / 1000 Ang^3
#
#
#
# Elastic Constant Matrix: (Units=GPa)
#
#
# Indices 1 2 3 4 5 6 
#
# 1 70.0585 23.4314 19.2981 0.0000 0.0000 0.0000
# 2 23.4314 51.9797 23.1816 0.0000 0.0000 0.0000
# 3 19.2981 23.1816 92.2651 0.0000 0.0000 0.0000
# 4 0.0000 0.0000 0.0000 23.8364 0.0000 0.0000
# 5 0.0000 0.0000 0.0000 0.0000 24.0768 0.0000
# 6 0.0000 0.0000 0.0000 0.0000 0.0000 15.4483
#
#
#
# Elastic Compliance Matrix: (Units=1/GPa)
#
#
# Indices 1 2 3 4 5 6 
#
# 1 0.017082 -0.006878 -0.001845 0.000000 0.000000 0.000000
# 2 -0.006878 0.024435 -0.004701 0.000000 0.000000 0.000000
# 3 -0.001845 -0.004701 0.012405 0.000000 0.000000 0.000000
# 4 0.000000 0.000000 0.000000 0.041953 0.000000 0.000000
# 5 0.000000 0.000000 0.000000 0.000000 0.041534 0.000000
# 6 0.000000 0.000000 0.000000 0.000000 0.000000 0.064732
#
#
# Mechanical properties :
#
#
# Convention : Reuss Voigt Hill
#
# Bulk Modulus (GPa) = 36.93309 38.45838 37.69573
# Shear Modulus (GPa) = 21.00729 22.56511 21.78620
#
# Velocity S-wave (km/s) = 3.50892 3.63669 3.57338
# Velocity P-wave (km/s) = 6.16955 6.33835 6.25452
#
# Compressibility (1/GPa) = 0.02707599
#
# Stress axis : x y z
#
# Youngs Moduli (GPa) = 58.54042 40.92497 80.61076
#
# Poissons Ratio (x) = 0.28146 0.14872
# Poissons Ratio (y) = 0.40261 0.37893
# Poissons Ratio (z) = 0.10800 0.19238
#
# Static dielectric constant tensor:
#      x y z
#    x 3.107420 0.000000 0.000000 
#    y 0.000000 3.116150 0.000000 
#    z 0.000000 0.000000 3.310360 
# 
# 
# High freq. dielectric constant tensor:
#      x y z
#    x 1.628440 0.000000 0.000000 
#    y 0.000000 1.659940 0.000000 
#    z 0.000000 0.000000 1.652660 
# 
# From -- ./inp_files/32692.got.cif
#   From: 2010.03.12/outbox.cif.g09.slc.cpg/sg62_17_cif.got.tgz:32692.got - 2010.04.10 19:12:36.
