data_PCOD8251569
_publ_section_title
;
Structure prediction by ZEFSAII (Michael W. Deem and Ramdas Pophale) SiO2 
 PCOD8251569
Probable space group: P N M A
;
_chemical_formula_sum "Si O2"
_cell_formula_units_Z 64
_cell_length_a 22.650562
_cell_length_b 16.976056
_cell_length_c 9.495700
_cell_angle_alpha 90.000000
_cell_angle_beta 90.000000
_cell_angle_gamma 90.000000
_cell_volume 3651.260061
_symmetry_space_group_name_H-M "P N M A"
_symmetry_group_IT_number 62
_symmetry_cell_setting 'orthorhombic'
loop_
_space_group_symop_operation_xyz
x,y,z
1/2-x,-y,1/2+z
1/2+x,1/2-y,1/2-z
-x,1/2+y,-z
-x,-y,-z
1/2+x,y,1/2-z
1/2-x,1/2+y,1/2+z
x,1/2-y,z
loop_
_atom_site_type_symbol
_atom_site_label
_atom_site_fract_x
_atom_site_fract_y
_atom_site_fract_z
Si Si1 0.339739 0.834817 0.735182
Si Si2 0.204695 0.661075 0.785960
Si Si3 0.492386 0.537313 0.650993
Si Si4 0.304033 0.461901 0.519726
Si Si5 0.175814 0.530760 0.571863
Si Si6 0.124731 0.996089 0.288074
Si Si7 0.073127 0.162837 0.999517
Si Si8 0.892014 0.965425 0.196557
O O1 0.359756 0.750000 0.803930
O O2 0.269964 0.836855 0.725888
O O3 0.361488 0.911475 0.819441
O O4 0.362866 0.837772 0.574336
O O5 0.178324 0.750000 0.793818
O O6 0.169881 0.606671 0.674248
O O7 0.203122 0.622784 0.942954
O O8 0.500000 0.500000 0.500000
O O9 0.443224 0.489155 0.740443
O O10 0.471705 0.626405 0.617184
O O11 0.556114 0.530571 0.725909
O O12 0.241687 0.506896 0.527793
O O13 0.331125 0.455366 0.675752
O O14 0.350387 0.513338 0.433727
O O15 0.136657 0.549023 0.434127
O O16 0.146328 0.458571 0.660928
O O17 0.050677 0.250000 0.962984
O O18 0.077130 0.116448 0.850688
#
# Coordination Sequence:
#
# PCOD8251569 Si02
#       8
#     8   8   8   8   8   8   8   8
#     4   9  15  27  49  77 106 135 172 223 271 309
#     4  10  20  34  52  74 110 147 179 221 274 329
#     4   9  17  33  54  73 104 135 185 223 267 318
#     4  11  18  34  55  78 107 142 189 217 260 325
#     4  11  21  32  53  82 110 143 176 221 280 329
#     4  11  18  32  54  80 103 143 181 228 264 322
#     4   9  16  29  53  81 101 133 185 230 271 314
#     4  10  19  34  53  75 112 142 178 230 270 330
#
# _framework density 17.528196000000001
#
# number of rings (size 3 to 8) (size 9 to 14) (size 15 to 20)
#    0.000    2.000    6.250    0.750    0.000    0.500 
#    0.000    4.375    0.000    3.000    0.000    0.000 
#    0.000    0.000    0.000    0.000    0.000    0.000 
#
# Total GULP energy -792835.428680 kJ/mol
# GULP energy per Si atom -12388.053573 kJ/mol
# Density = 1.748830 g / cm^3
# Si number density = 17.528196 Si / 1000 Ang^3
#
#
#
# Elastic Constant Matrix: (Units=GPa)
#
#
# Indices 1 2 3 4 5 6 
#
# 1 91.9463 30.0925 25.2252 0.0000 0.0000 0.0000
# 2 30.0925 105.6232 40.6410 0.0000 0.0000 0.0000
# 3 25.2252 40.6410 84.4503 0.0000 0.0000 0.0000
# 4 0.0000 0.0000 0.0000 20.6171 0.0000 0.0000
# 5 0.0000 0.0000 0.0000 0.0000 17.3557 0.0000
# 6 0.0000 0.0000 0.0000 0.0000 0.0000 12.8324
#
#
#
# Elastic Compliance Matrix: (Units=1/GPa)
#
#
# Indices 1 2 3 4 5 6 
#
# 1 0.012397 -0.002586 -0.002458 0.000000 0.000000 0.000000
# 2 -0.002586 0.012159 -0.005079 0.000000 0.000000 0.000000
# 3 -0.002458 -0.005079 0.015020 0.000000 0.000000 0.000000
# 4 0.000000 0.000000 0.000000 0.048503 0.000000 0.000000
# 5 0.000000 0.000000 0.000000 0.000000 0.057618 0.000000
# 6 0.000000 0.000000 0.000000 0.000000 0.000000 0.077928
#
#
# Mechanical properties :
#
#
# Convention : Reuss Voigt Hill
#
# Bulk Modulus (GPa) = 51.73653 52.65969 52.19811
# Shear Modulus (GPa) = 19.97497 22.56512 21.27004
#
# Velocity S-wave (km/s) = 3.37944 3.59187 3.48728
# Velocity P-wave (km/s) = 6.69386 6.87824 6.78668
#
# Compressibility (1/GPa) = 0.01932870
#
# Stress axis : x y z
#
# Youngs Moduli (GPa) = 80.66654 82.24676 66.57912
#
# Poissons Ratio (x) = 0.21269 0.16368
# Poissons Ratio (y) = 0.20860 0.33814
# Poissons Ratio (z) = 0.19831 0.41771
#
# Static dielectric constant tensor:
#      x y z
#    x 3.780450 0.000000 0.000000 
#    y 0.000000 3.550290 0.000000 
#    z 0.000000 0.000000 3.183010 
# 
# 
# High freq. dielectric constant tensor:
#      x y z
#    x 1.679440 0.000000 0.000000 
#    y 0.000000 1.656700 0.000000 
#    z 0.000000 0.000000 1.658610 
# 
# From -- ./inp_files/9571.got.cif
#   From: 2010.03.12/outbox.cif.g09.slc.cpg/sg62_5_cif.got.tgz:9571.got - 2010.04.10 19:12:36.
