data_PCOD8251623
_publ_section_title
;
Structure prediction by ZEFSAII (Michael W. Deem and Ramdas Pophale) SiO2 
 PCOD8251623
Probable space group: P N M A
;
_chemical_formula_sum "Si O2"
_cell_formula_units_Z 56
_cell_length_a 19.305782
_cell_length_b 9.108436
_cell_length_c 15.921482
_cell_angle_alpha 90.000000
_cell_angle_beta 90.000000
_cell_angle_gamma 90.000000
_cell_volume 2799.720641
_symmetry_space_group_name_H-M "P N M A"
_symmetry_group_IT_number 62
_symmetry_cell_setting 'orthorhombic'
loop_
_space_group_symop_operation_xyz
x,y,z
1/2-x,-y,1/2+z
1/2+x,1/2-y,1/2-z
-x,1/2+y,-z
-x,-y,-z
1/2+x,y,1/2-z
1/2-x,1/2+y,1/2+z
x,1/2-y,z
loop_
_atom_site_type_symbol
_atom_site_label
_atom_site_fract_x
_atom_site_fract_y
_atom_site_fract_z
Si Si1 0.904623 0.923169 0.724991
Si Si2 0.035706 0.913938 0.125221
Si Si3 0.371155 0.915579 0.200319
Si Si4 0.004116 0.924948 0.409343
Si Si5 0.173667 0.913581 0.025765
Si Si6 0.731764 0.077632 0.322339
Si Si7 0.612789 0.411947 0.607930
O O1 0.909208 0.750000 0.707510
O O2 0.826115 0.971034 0.753038
O O3 0.954397 0.965653 0.801943
O O4 0.929832 0.008796 0.641398
O O5 0.034317 0.750000 0.166663
O O6 0.095840 0.921666 0.057704
O O7 0.964820 0.943484 0.074018
O O8 0.346188 0.750000 0.178358
O O9 0.432246 0.964705 0.137642
O O10 0.399941 0.925653 0.293470
O O11 0.307500 0.027106 0.203237
O O12 0.013974 0.750000 0.417877
O O13 0.000000 0.000000 0.500000
O O14 0.204184 0.750000 0.021085
O O15 0.221499 0.007930 0.086122
O O16 0.170020 0.978735 0.931294
O O17 0.728656 0.250000 0.333306
O O18 0.638479 0.250000 0.582354
#
# Coordination Sequence:
#
# PCOD8251623 Si02
#       7
#     8   8   8   8   8   8   8
#     4  10  20  36  60  89 118 153 197 246 297 356
#     4   9  17  32  54  81 116 152 184 228 284 342
#     4  10  22  41  63  86 118 158 198 249 306 358
#     4  11  23  42  66  93 122 157 203 255 309 365
#     4  10  20  33  54  84 116 153 194 234 285 348
#     4  10  22  40  61  86 119 158 201 249 302 361
#     4  10  19  34  55  82 117 151 187 233 291 350
#
# _framework density 20.001995999999998
#
# number of rings (size 3 to 8) (size 9 to 14) (size 15 to 20)
#    0.000    2.000    1.429    2.143    0.000    4.571 
#    2.571    0.000    0.000    0.000    0.000    0.000 
#    0.000    0.000    0.000    0.000    0.000    0.000 
#
# Total GULP energy -694082.385159 kJ/mol
# GULP energy per Si atom -12394.328306 kJ/mol
# Density = 1.995647 g / cm^3
# Si number density = 20.001996 Si / 1000 Ang^3
#
#
#
# Elastic Constant Matrix: (Units=GPa)
#
#
# Indices 1 2 3 4 5 6 
#
# 1 75.4933 34.9582 19.4022 0.0000 0.0000 0.0000
# 2 34.9582 94.4061 35.8632 0.0000 0.0000 0.0000
# 3 19.4022 35.8632 84.4195 0.0000 0.0000 0.0000
# 4 0.0000 0.0000 0.0000 37.3223 0.0000 0.0000
# 5 0.0000 0.0000 0.0000 0.0000 15.0030 0.0000
# 6 0.0000 0.0000 0.0000 0.0000 0.0000 30.8861
#
#
#
# Elastic Compliance Matrix: (Units=1/GPa)
#
#
# Indices 1 2 3 4 5 6 
#
# 1 0.016124 -0.005441 -0.001394 0.000000 0.000000 0.000000
# 2 -0.005441 0.014467 -0.004895 0.000000 0.000000 0.000000
# 3 -0.001394 -0.004895 0.014246 0.000000 0.000000 0.000000
# 4 0.000000 0.000000 0.000000 0.026794 0.000000 0.000000
# 5 0.000000 0.000000 0.000000 0.000000 0.066653 0.000000
# 6 0.000000 0.000000 0.000000 0.000000 0.000000 0.032377
#
#
# Mechanical properties :
#
#
# Convention : Reuss Voigt Hill
#
# Bulk Modulus (GPa) = 46.78287 48.30734 47.54510
# Shear Modulus (GPa) = 24.84504 27.58197 26.21350
#
# Velocity S-wave (km/s) = 3.52821 3.71746 3.62407
# Velocity P-wave (km/s) = 6.32752 6.52915 6.42912
#
# Compressibility (1/GPa) = 0.02137535
#
# Stress axis : x y z
#
# Youngs Moduli (GPa) = 62.01903 69.12298 70.19646
#
# Poissons Ratio (x) = 0.37610 0.09788
# Poissons Ratio (y) = 0.33744 0.34364
# Poissons Ratio (z) = 0.08648 0.33838
#
# Static dielectric constant tensor:
#      x y z
#    x 3.590990 0.000000 0.000000 
#    y 0.000000 3.805510 0.000000 
#    z 0.000000 0.000000 3.524420 
# 
# 
# High freq. dielectric constant tensor:
#      x y z
#    x 1.769700 0.000000 0.000000 
#    y 0.000000 1.785070 0.000000 
#    z 0.000000 0.000000 1.772700 
# 
# From -- ./inp_files/20399.got.cif
#   From: 2010.03.12/outbox.cif.g09.slc.cpg/sg62_11_cif.got.tgz:20399.got - 2010.04.10 19:12:36.
