data_PCOD8251708
_publ_section_title
;
Structure prediction by ZEFSAII (Michael W. Deem and Ramdas Pophale) SiO2 
 PCOD8251708
Probable space group: P N M A
;
_chemical_formula_sum "Si O2"
_cell_formula_units_Z 64
_cell_length_a 11.275372
_cell_length_b 8.957758
_cell_length_c 33.118093
_cell_angle_alpha 90.000000
_cell_angle_beta 90.000000
_cell_angle_gamma 90.000000
_cell_volume 3344.995409
_symmetry_space_group_name_H-M "P N M A"
_symmetry_group_IT_number 62
_symmetry_cell_setting 'orthorhombic'
loop_
_space_group_symop_operation_xyz
x,y,z
1/2-x,-y,1/2+z
1/2+x,1/2-y,1/2-z
-x,1/2+y,-z
-x,-y,-z
1/2+x,y,1/2-z
1/2-x,1/2+y,1/2+z
x,1/2-y,z
loop_
_atom_site_type_symbol
_atom_site_label
_atom_site_fract_x
_atom_site_fract_y
_atom_site_fract_z
Si Si1 0.474553 0.576147 0.643846
Si Si2 0.595156 0.424445 0.947820
Si Si3 0.832487 0.424743 0.526175
Si Si4 0.709823 0.579710 0.874089
Si Si5 0.407957 0.920453 0.283894
Si Si6 0.326825 0.420043 0.834037
Si Si7 0.948555 0.421631 0.298633
Si Si8 0.295558 0.075856 0.405230
O O1 0.480669 0.750000 0.655845
O O2 0.347442 0.532410 0.625671
O O3 0.496398 0.480434 0.684027
O O4 0.572114 0.537149 0.609837
O O5 0.615532 0.250000 0.953328
O O6 0.457317 0.467006 0.952929
O O7 0.636470 0.473813 0.903691
O O8 0.673674 0.508131 0.981328
O O9 0.812261 0.250000 0.522973
O O10 0.725896 0.494414 0.552271
O O11 0.694605 0.750000 0.888766
O O12 0.661455 0.559294 0.828900
O O13 0.440824 0.750000 0.273082
O O14 0.277188 0.933191 0.301739
O O15 0.406716 0.022844 0.244710
O O16 0.344281 0.250000 0.848599
O O17 0.444144 0.477285 0.813035
O O18 0.300777 0.519211 0.873100
O O19 0.989623 0.250000 0.295838
O O20 0.275980 0.250000 0.411433
#
# Coordination Sequence:
#
# PCOD8251708 Si02
#       8
#     8   8   8   8   8   8   8   8
#     4   9  20  39  59  80 110 149 189 230 279 334
#     4  10  21  36  56  85 116 148 184 229 280 333
#     4  10  20  35  58  85 116 149 183 230 281 332
#     4  10  22  39  57  81 112 148 186 228 279 335
#     4  10  22  38  56  80 109 142 184 233 281 330
#     4  10  21  37  55  79 111 143 181 229 278 331
#     4  11  23  36  56  82 109 144 185 230 279 335
#     4  10  19  34  58  84 110 144 187 232 276 330
#
# _framework density 19.133061000000001
#
# number of rings (size 3 to 8) (size 9 to 14) (size 15 to 20)
#    0.000    2.000    0.000    3.000    1.750    7.000 
#    0.000    0.625    0.000    0.000    0.000    0.000 
#    0.000    0.000    0.000    0.000    0.000    0.000 
#
# Total GULP energy -793948.206692 kJ/mol
# GULP energy per Si atom -12405.440730 kJ/mol
# Density = 1.908951 g / cm^3
# Si number density = 19.133061 Si / 1000 Ang^3
#
#
#
# Elastic Constant Matrix: (Units=GPa)
#
#
# Indices 1 2 3 4 5 6 
#
# 1 63.5695 34.3702 22.7480 0.0000 0.0000 0.0000
# 2 34.3702 79.0441 35.0261 0.0000 0.0000 0.0000
# 3 22.7480 35.0261 81.5357 0.0000 0.0000 0.0000
# 4 0.0000 0.0000 0.0000 37.8588 0.0000 0.0000
# 5 0.0000 0.0000 0.0000 0.0000 17.1036 0.0000
# 6 0.0000 0.0000 0.0000 0.0000 0.0000 26.9339
#
#
#
# Elastic Compliance Matrix: (Units=1/GPa)
#
#
# Indices 1 2 3 4 5 6 
#
# 1 0.020934 -0.008046 -0.002384 0.000000 0.000000 0.000000
# 2 -0.008046 0.018718 -0.005796 0.000000 0.000000 0.000000
# 3 -0.002384 -0.005796 0.015420 0.000000 0.000000 0.000000
# 4 0.000000 0.000000 0.000000 0.026414 0.000000 0.000000
# 5 0.000000 0.000000 0.000000 0.000000 0.058467 0.000000
# 6 0.000000 0.000000 0.000000 0.000000 0.000000 0.037128
#
#
# Mechanical properties :
#
#
# Convention : Reuss Voigt Hill
#
# Bulk Modulus (GPa) = 44.21005 45.38197 44.79601
# Shear Modulus (GPa) = 23.03361 25.17958 24.10659
#
# Velocity S-wave (km/s) = 3.47344 3.63164 3.55342
# Velocity P-wave (km/s) = 6.26444 6.43084 6.34818
#
# Compressibility (1/GPa) = 0.02261929
#
# Stress axis : x y z
#
# Youngs Moduli (GPa) = 47.76840 53.42380 64.85259
#
# Poissons Ratio (x) = 0.42986 0.15461
# Poissons Ratio (y) = 0.38436 0.37589
# Poissons Ratio (z) = 0.11388 0.30965
#
# Static dielectric constant tensor:
#      x y z
#    x 3.438650 0.000000 0.000000 
#    y 0.000000 3.598290 0.000000 
#    z 0.000000 0.000000 3.471330 
# 
# 
# High freq. dielectric constant tensor:
#      x y z
#    x 1.735710 0.000000 0.000000 
#    y 0.000000 1.755430 0.000000 
#    z 0.000000 0.000000 1.744900 
# 
# From -- ./inp_files/32455.got.cif
#   From: 2010.03.12/outbox.cif.g09.slc.cpg/sg62_17_cif.got.tgz:32455.got - 2010.04.10 19:12:36.
