data_PCOD8251778
_publ_section_title
;
Structure prediction by ZEFSAII (Michael W. Deem and Ramdas Pophale) SiO2 
 PCOD8251778
Probable space group: P N M A
;
_chemical_formula_sum "Si O2"
_cell_formula_units_Z 40
_cell_length_a 9.328587
_cell_length_b 13.556177
_cell_length_c 15.066638
_cell_angle_alpha 90.000000
_cell_angle_beta 90.000000
_cell_angle_gamma 90.000000
_cell_volume 1905.326688
_symmetry_space_group_name_H-M "P N M A"
_symmetry_group_IT_number 62
_symmetry_cell_setting 'orthorhombic'
loop_
_space_group_symop_operation_xyz
x,y,z
1/2-x,-y,1/2+z
1/2+x,1/2-y,1/2-z
-x,1/2+y,-z
-x,-y,-z
1/2+x,y,1/2-z
1/2-x,1/2+y,1/2+z
x,1/2-y,z
loop_
_atom_site_type_symbol
_atom_site_label
_atom_site_fract_x
_atom_site_fract_y
_atom_site_fract_z
Si Si1 0.023118 0.136352 0.660041
Si Si2 0.659080 0.009457 0.535726
Si Si3 0.749345 0.452724 0.721918
Si Si4 0.897480 0.136781 0.473906
Si Si5 0.670859 0.362456 0.134968
O O1 0.068715 0.250000 0.662976
O O2 0.887677 0.118008 0.724149
O O3 0.983936 0.099840 0.561323
O O4 0.156362 0.070200 0.691875
O O5 0.660315 0.067888 0.630341
O O6 0.754890 0.070223 0.464182
O O7 0.500000 0.000000 0.500000
O O8 0.729692 0.901014 0.552915
O O9 0.800800 0.568310 0.721189
O O10 0.850194 0.250000 0.486913
O O11 0.002995 0.126446 0.390017
O O12 0.711304 0.250000 0.157293
#
# Coordination Sequence:
#
# PCOD8251778 Si02
#       5
#     8   8   8   8   8
#     4  10  19  35  56  85 115 147 189 235 292 344
#     4   9  19  33  54  84 114 144 183 236 288 337
#     4   9  21  35  54  81 115 151 185 235 283 342
#     4   9  18  34  60  86 113 149 193 242 291 347
#     4   9  19  37  56  81 112 149 192 235 283 340
#
# _framework density 20.993776
#
# number of rings (size 3 to 8) (size 9 to 14) (size 15 to 20)
#    1.200    1.600    0.000    1.200    0.000    3.200 
#    0.000    3.000    0.000    0.000    0.000    0.000 
#    0.000    0.000    0.000    0.000    0.000    0.000 
#
# Total GULP energy -495684.378534 kJ/mol
# GULP energy per Si atom -12392.109463 kJ/mol
# Density = 2.094599 g / cm^3
# Si number density = 20.993776 Si / 1000 Ang^3
#
#
#
# Elastic Constant Matrix: (Units=GPa)
#
#
# Indices 1 2 3 4 5 6 
#
# 1 113.9028 52.5909 29.1069 0.0000 0.0000 0.0000
# 2 52.5909 112.9349 28.6624 0.0000 0.0000 0.0000
# 3 29.1069 28.6624 28.0777 0.0000 0.0000 0.0000
# 4 0.0000 0.0000 0.0000 23.6883 0.0000 0.0000
# 5 0.0000 0.0000 0.0000 0.0000 33.0245 0.0000
# 6 0.0000 0.0000 0.0000 0.0000 0.0000 27.8032
#
#
#
# Elastic Compliance Matrix: (Units=1/GPa)
#
#
# Indices 1 2 3 4 5 6 
#
# 1 0.012908 -0.003529 -0.009778 0.000000 0.000000 0.000000
# 2 -0.003529 0.012916 -0.009526 0.000000 0.000000 0.000000
# 3 -0.009778 -0.009526 0.055477 0.000000 0.000000 0.000000
# 4 0.000000 0.000000 0.000000 0.042215 0.000000 0.000000
# 5 0.000000 0.000000 0.000000 0.000000 0.030281 0.000000
# 6 0.000000 0.000000 0.000000 0.000000 0.000000 0.035967
#
#
# Mechanical properties :
#
#
# Convention : Reuss Voigt Hill
#
# Bulk Modulus (GPa) = 28.06383 52.84844 40.45613
# Shear Modulus (GPa) = 20.21773 26.54021 23.37897
#
# Velocity S-wave (km/s) = 3.10665 3.55941 3.34071
# Velocity P-wave (km/s) = 5.12494 6.49003 5.84746
#
# Compressibility (1/GPa) = 0.03563306
#
# Stress axis : x y z
#
# Youngs Moduli (GPa) = 77.47384 77.42453 18.02553
#
# Poissons Ratio (x) = 0.27324 0.17626
# Poissons Ratio (y) = 0.27341 0.17172
# Poissons Ratio (z) = 0.75755 0.73757
#
# Static dielectric constant tensor:
#      x y z
#    x 3.574580 0.000000 0.000000 
#    y 0.000000 3.878660 0.000000 
#    z 0.000000 0.000000 3.340680 
# 
# 
# High freq. dielectric constant tensor:
#      x y z
#    x 1.812120 0.000000 0.000000 
#    y 0.000000 1.824490 0.000000 
#    z 0.000000 0.000000 1.782750 
# 
# From -- ./inp_files/22063.got.cif
#   From: 2010.03.12/outbox.cif.g09.slc.cpg/sg62_12_cif.got.tgz:22063.got - 2010.04.10 19:12:36.
