data_PCOD8251178
_publ_section_title
;
Structure prediction by ZEFSAII (Michael W. Deem and Ramdas Pophale) SiO2 
 PCOD8251178
Probable space group: P N M A
;
_chemical_formula_sum "Si O2"
_cell_formula_units_Z 48
_cell_length_a 28.813221
_cell_length_b 9.650207
_cell_length_c 10.199057
_cell_angle_alpha 90.000000
_cell_angle_beta 90.000000
_cell_angle_gamma 90.000000
_cell_volume 2835.883975
_symmetry_space_group_name_H-M "P N M A"
_symmetry_group_IT_number 62
_symmetry_cell_setting 'orthorhombic'
loop_
_space_group_symop_operation_xyz
x,y,z
1/2-x,-y,1/2+z
1/2+x,1/2-y,1/2-z
-x,1/2+y,-z
-x,-y,-z
1/2+x,y,1/2-z
1/2-x,1/2+y,1/2+z
x,1/2-y,z
loop_
_atom_site_type_symbol
_atom_site_label
_atom_site_fract_x
_atom_site_fract_y
_atom_site_fract_z
Si Si1 0.115637 0.906532 0.483335
Si Si2 0.282264 0.911869 0.727682
Si Si3 0.980893 0.909493 0.883950
Si Si4 0.612640 0.092262 0.258370
Si Si5 0.476621 0.409044 0.110871
Si Si6 0.720388 0.911914 0.017005
O O1 0.114879 0.750000 0.429877
O O2 0.079510 0.925163 0.603042
O O3 0.167693 0.945028 0.528346
O O4 0.098325 0.001365 0.365294
O O5 0.274092 0.750000 0.759052
O O6 0.335833 0.943828 0.690755
O O7 0.252679 0.960207 0.602641
O O8 0.266635 0.000028 0.854103
O O9 0.992384 0.750000 0.913664
O O10 0.925319 0.933462 0.871884
O O11 0.006803 0.959899 0.752562
O O12 0.000000 0.000000 0.000000
O O13 0.610211 0.250000 0.209611
O O14 0.491835 0.250000 0.088586
O O15 0.500000 0.500000 0.000000
O O16 0.727859 0.750000 0.049271
#
# Coordination Sequence:
#
# PCOD8251178 Si02
#       6
#     8   8   8   8   8   8
#     4   9  17  30  51  75  97 123 160 203 245 287
#     4   9  18  33  53  74  98 129 162 201 246 290
#     4  10  21  35  49  70 101 133 163 199 242 290
#     4   9  17  32  52  71  96 129 165 199 239 290
#     4  10  19  32  52  75  97 125 162 202 241 284
#     4   9  18  33  51  73 101 128 159 201 245 290
#
# _framework density 16.925939
#
# number of rings (size 3 to 8) (size 9 to 14) (size 15 to 20)
#    0.000    2.667    1.667    0.000    0.000    2.000 
#    3.000    0.000    0.000    0.000    0.000    0.000 
#    0.000    0.000    0.000    0.000    0.000    0.000 
#
# Total GULP energy -595093.933189 kJ/mol
# GULP energy per Si atom -12397.790275 kJ/mol
# Density = 1.688741 g / cm^3
# Si number density = 16.925939 Si / 1000 Ang^3
#
#
#
# Elastic Constant Matrix: (Units=GPa)
#
#
# Indices 1 2 3 4 5 6 
#
# 1 105.5582 44.0187 77.9723 0.0000 0.0000 0.0000
# 2 44.0187 61.0350 63.6945 0.0000 0.0000 0.0000
# 3 77.9723 63.6945 136.5693 0.0000 0.0000 0.0000
# 4 0.0000 0.0000 0.0000 32.9546 0.0000 0.0000
# 5 0.0000 0.0000 0.0000 0.0000 30.5900 0.0000
# 6 0.0000 0.0000 0.0000 0.0000 0.0000 22.5643
#
#
#
# Elastic Compliance Matrix: (Units=1/GPa)
#
#
# Indices 1 2 3 4 5 6 
#
# 1 0.016900 -0.004129 -0.007723 0.000000 0.000000 0.000000
# 2 -0.004129 0.032928 -0.013000 0.000000 0.000000 0.000000
# 3 -0.007723 -0.013000 0.017795 0.000000 0.000000 0.000000
# 4 0.000000 0.000000 0.000000 0.030345 0.000000 0.000000
# 5 0.000000 0.000000 0.000000 0.000000 0.032690 0.000000
# 6 0.000000 0.000000 0.000000 0.000000 0.000000 0.044318
#
#
# Mechanical properties :
#
#
# Convention : Reuss Voigt Hill
#
# Bulk Modulus (GPa) = 55.80649 74.94819 65.37734
# Shear Modulus (GPa) = 21.67750 25.05356 23.36553
#
# Velocity S-wave (km/s) = 3.58261 3.85149 3.71948
# Velocity P-wave (km/s) = 7.08209 8.00967 7.56012
#
# Compressibility (1/GPa) = 0.01791906
#
# Stress axis : x y z
#
# Youngs Moduli (GPa) = 59.17147 30.36896 56.19544
#
# Poissons Ratio (x) = 0.12538 0.43402
# Poissons Ratio (y) = 0.24429 0.73056
# Poissons Ratio (z) = 0.45700 0.39481
#
# Static dielectric constant tensor:
#      x y z
#    x 3.518060 0.000000 0.000000 
#    y 0.000000 3.182550 0.000000 
#    z 0.000000 0.000000 2.974570 
# 
# 
# High freq. dielectric constant tensor:
#      x y z
#    x 1.666720 0.000000 0.000000 
#    y 0.000000 1.654350 0.000000 
#    z 0.000000 0.000000 1.625900 
# 
# From -- ./inp_files/9767.got.cif
#   From: 2010.03.12/outbox.cif.g09.slc.cpg/sg62_5_cif.got.tgz:9767.got - 2010.04.10 19:12:36.
