data_PCOD8251885
_publ_section_title
;
Structure prediction by ZEFSAII (Michael W. Deem and Ramdas Pophale) SiO2 
 PCOD8251885
Probable space group: P N M A
;
_chemical_formula_sum "Si O2"
_cell_formula_units_Z 64
_cell_length_a 15.082791
_cell_length_b 9.102075
_cell_length_c 24.482992
_cell_angle_alpha 90.000000
_cell_angle_beta 90.000000
_cell_angle_gamma 90.000000
_cell_volume 3361.140087
_symmetry_space_group_name_H-M "P N M A"
_symmetry_group_IT_number 62
_symmetry_cell_setting 'orthorhombic'
loop_
_space_group_symop_operation_xyz
x,y,z
1/2-x,-y,1/2+z
1/2+x,1/2-y,1/2-z
-x,1/2+y,-z
-x,-y,-z
1/2+x,y,1/2-z
1/2-x,1/2+y,1/2+z
x,1/2-y,z
loop_
_atom_site_type_symbol
_atom_site_label
_atom_site_fract_x
_atom_site_fract_y
_atom_site_fract_z
Si Si1 0.685282 0.919015 0.067381
Si Si2 0.989573 0.577479 0.398537
Si Si3 0.464898 0.076903 0.780373
Si Si4 0.176484 0.923993 0.856029
Si Si5 0.195031 0.580832 0.139419
Si Si6 0.320892 0.081370 0.058465
Si Si7 0.730845 0.578140 0.237105
Si Si8 0.493562 0.577874 0.337666
O O1 0.696396 0.750000 0.086361
O O2 0.584936 0.971261 0.078681
O O3 0.752543 0.019372 0.100558
O O4 0.707459 0.939278 0.004008
O O5 0.975188 0.750000 0.405996
O O6 0.981014 0.532164 0.334485
O O7 0.914450 0.496535 0.432218
O O8 0.457611 0.250000 0.773298
O O9 0.363792 0.022024 0.785724
O O10 0.510402 0.018359 0.725149
O O11 0.175581 0.750000 0.856808
O O12 0.196603 0.984086 0.795199
O O13 0.079035 0.986102 0.871767
O O14 0.212059 0.750000 0.124783
O O15 0.242161 0.482642 0.094575
O O16 0.237176 0.545716 0.198474
O O17 0.090631 0.545284 0.138125
O O18 0.333963 0.250000 0.073819
O O19 0.747229 0.750000 0.225400
O O20 0.471170 0.750000 0.341587
#
# Coordination Sequence:
#
# PCOD8251885 Si02
#       8
#     8   8   8   8   8   8   8   8
#     4  10  22  42  62  80 111 158 201 237 281 339
#     4  10  19  35  60  85 112 151 198 237 274 335
#     4   8  15  31  57  84 107 143 191 232 266 321
#     4  12  24  35  55  89 120 149 187 238 298 343
#     4   9  20  39  63  86 110 152 202 240 278 335
#     4  11  24  38  57  86 119 152 188 239 300 345
#     4   9  17  35  59  81 111 151 193 231 274 337
#     4   9  19  37  60  84 113 150 195 237 280 340
#
# _framework density 19.041159
#
# number of rings (size 3 to 8) (size 9 to 14) (size 15 to 20)
#    0.000    2.250    1.250    3.375    1.750    2.500 
#    0.000    2.500    0.000    0.000    0.000    0.000 
#    0.000    0.000    0.000    0.000    0.000    0.000 
#
# Total GULP energy -793557.491496 kJ/mol
# GULP energy per Si atom -12399.335805 kJ/mol
# Density = 1.899782 g / cm^3
# Si number density = 19.041159 Si / 1000 Ang^3
#
#
#
# Elastic Constant Matrix: (Units=GPa)
#
#
# Indices 1 2 3 4 5 6 
#
# 1 117.7014 65.4949 57.2281 0.0000 0.0000 0.0000
# 2 65.4949 98.8324 52.9319 0.0000 0.0000 0.0000
# 3 57.2281 52.9319 80.5785 0.0000 0.0000 0.0000
# 4 0.0000 0.0000 0.0000 27.7337 0.0000 0.0000
# 5 0.0000 0.0000 0.0000 0.0000 22.7169 0.0000
# 6 0.0000 0.0000 0.0000 0.0000 0.0000 17.0631
#
#
#
# Elastic Compliance Matrix: (Units=1/GPa)
#
#
# Indices 1 2 3 4 5 6 
#
# 1 0.015407 -0.006711 -0.006534 0.000000 0.000000 0.000000
# 2 -0.006711 0.018533 -0.007408 0.000000 0.000000 0.000000
# 3 -0.006534 -0.007408 0.021917 0.000000 0.000000 0.000000
# 4 0.000000 0.000000 0.000000 0.036057 0.000000 0.000000
# 5 0.000000 0.000000 0.000000 0.000000 0.044020 0.000000
# 6 0.000000 0.000000 0.000000 0.000000 0.000000 0.058606
#
#
# Mechanical properties :
#
#
# Convention : Reuss Voigt Hill
#
# Bulk Modulus (GPa) = 68.72227 72.04691 70.38459
# Shear Modulus (GPa) = 20.77298 21.59991 21.18644
#
# Velocity S-wave (km/s) = 3.30654 3.37171 3.33928
# Velocity P-wave (km/s) = 7.12372 7.28543 7.20503
#
# Compressibility (1/GPa) = 0.01455132
#
# Stress axis : x y z
#
# Youngs Moduli (GPa) = 64.90447 53.95835 45.62575
#
# Poissons Ratio (x) = 0.36209 0.29813
# Poissons Ratio (y) = 0.43555 0.33801
# Poissons Ratio (z) = 0.42410 0.39973
#
# Static dielectric constant tensor:
#      x y z
#    x 3.504550 0.000000 0.000000 
#    y 0.000000 3.212830 0.000000 
#    z 0.000000 0.000000 3.501800 
# 
# 
# High freq. dielectric constant tensor:
#      x y z
#    x 1.747340 0.000000 0.000000 
#    y 0.000000 1.713830 0.000000 
#    z 0.000000 0.000000 1.735940 
# 
# From -- ./inp_files/29741.got.cif
#   From: 2010.03.12/outbox.cif.g09.slc.cpg/sg62_15_cif.got.tgz:29741.got - 2010.04.10 19:12:36.
