data_PCOD8251994
_publ_section_title
;
Structure prediction by ZEFSAII (Michael W. Deem and Ramdas Pophale) SiO2 
 PCOD8251994
Probable space group: P N M A
;
_chemical_formula_sum "Si O2"
_cell_formula_units_Z 64
_cell_length_a 24.534510
_cell_length_b 8.927610
_cell_length_c 14.956146
_cell_angle_alpha 90.000000
_cell_angle_beta 90.000000
_cell_angle_gamma 90.000000
_cell_volume 3275.912512
_symmetry_space_group_name_H-M "P N M A"
_symmetry_group_IT_number 62
_symmetry_cell_setting 'orthorhombic'
loop_
_space_group_symop_operation_xyz
x,y,z
1/2-x,-y,1/2+z
1/2+x,1/2-y,1/2-z
-x,1/2+y,-z
-x,-y,-z
1/2+x,y,1/2-z
1/2-x,1/2+y,1/2+z
x,1/2-y,z
loop_
_atom_site_type_symbol
_atom_site_label
_atom_site_fract_x
_atom_site_fract_y
_atom_site_fract_z
Si Si1 0.640787 0.926614 0.328962
Si Si2 0.564462 0.078408 0.189253
Si Si3 0.833176 0.575900 0.000743
Si Si4 0.350368 0.925669 0.296341
Si Si5 0.775228 0.919725 0.531210
Si Si6 0.397363 0.924474 0.004406
Si Si7 0.437560 0.421763 0.177836
Si Si8 0.239589 0.422701 0.263391
O O1 0.641923 0.750000 0.327678
O O2 0.592767 0.981209 0.265215
O O3 0.630120 0.985371 0.429743
O O4 0.699533 0.988827 0.301208
O O5 0.583940 0.250000 0.199738
O O6 0.500412 0.061092 0.202604
O O7 0.582103 0.018883 0.091909
O O8 0.839033 0.750000 0.980206
O O9 0.854938 0.533694 0.099047
O O10 0.769535 0.531672 0.991740
O O11 0.341887 0.750000 0.281765
O O12 0.405134 0.978536 0.248740
O O13 0.299642 0.009989 0.251729
O O14 0.755744 0.750000 0.512375
O O15 0.832820 0.952810 0.484455
O O16 0.782935 0.944370 0.636771
O O17 0.411627 0.750000 0.017652
O O18 0.428657 0.021131 0.077510
O O19 0.418591 0.250000 0.184384
O O20 0.240829 0.250000 0.234809
#
# Coordination Sequence:
#
# PCOD8251994 Si02
#       8
#     8   8   8   8   8   8   8   8
#     4  12  24  37  60  91 121 155 198 247 301 358
#     4  10  22  43  63  85 120 160 204 248 296 352
#     4  10  22  39  60  85 119 159 197 245 298 355
#     4  10  22  41  62  87 120 156 201 251 299 352
#     4   9  18  34  57  85 118 156 192 236 291 346
#     4  10  20  37  60  86 121 160 197 244 296 349
#     4  11  24  39  61  89 119 159 203 248 299 357
#     4  10  19  36  60  85 119 157 194 239 295 354
#
# _framework density 19.536542000000001
#
# number of rings (size 3 to 8) (size 9 to 14) (size 15 to 20)
#    0.000    1.750    1.250    3.000    1.750    4.000 
#    0.000    0.625    0.000    0.000    0.000    0.000 
#    0.000    0.000    0.000    0.000    0.000    0.000 
#
# Total GULP energy -793952.168375 kJ/mol
# GULP energy per Si atom -12405.502631 kJ/mol
# Density = 1.949208 g / cm^3
# Si number density = 19.536542 Si / 1000 Ang^3
#
#
#
# Elastic Constant Matrix: (Units=GPa)
#
#
# Indices 1 2 3 4 5 6 
#
# 1 77.5436 41.4340 44.1540 0.0000 0.0000 0.0000
# 2 41.4340 101.8555 43.0135 0.0000 0.0000 0.0000
# 3 44.1540 43.0135 80.3369 0.0000 0.0000 0.0000
# 4 0.0000 0.0000 0.0000 32.2703 0.0000 0.0000
# 5 0.0000 0.0000 0.0000 0.0000 26.6876 0.0000
# 6 0.0000 0.0000 0.0000 0.0000 0.0000 29.5613
#
#
#
# Elastic Compliance Matrix: (Units=1/GPa)
#
#
# Indices 1 2 3 4 5 6 
#
# 1 0.020301 -0.004582 -0.008704 0.000000 0.000000 0.000000
# 2 -0.004582 0.013721 -0.004828 0.000000 0.000000 0.000000
# 3 -0.008704 -0.004828 0.019816 0.000000 0.000000 0.000000
# 4 0.000000 0.000000 0.000000 0.030988 0.000000 0.000000
# 5 0.000000 0.000000 0.000000 0.000000 0.037471 0.000000
# 6 0.000000 0.000000 0.000000 0.000000 0.000000 0.033828
#
#
# Mechanical properties :
#
#
# Convention : Reuss Voigt Hill
#
# Bulk Modulus (GPa) = 56.78810 57.43768 57.11289
# Shear Modulus (GPa) = 25.22423 26.44614 25.83518
#
# Velocity S-wave (km/s) = 3.59713 3.68322 3.64043
# Velocity P-wave (km/s) = 6.81052 6.89581 6.85330
#
# Compressibility (1/GPa) = 0.01760932
#
# Stress axis : x y z
#
# Youngs Moduli (GPa) = 49.25965 72.88284 50.46395
#
# Poissons Ratio (x) = 0.33398 0.43923
# Poissons Ratio (y) = 0.22573 0.24362
# Poissons Ratio (z) = 0.42875 0.35185
#
# Static dielectric constant tensor:
#      x y z
#    x 3.437060 0.000000 0.000000 
#    y 0.000000 3.574410 0.000000 
#    z 0.000000 0.000000 3.641750 
# 
# 
# High freq. dielectric constant tensor:
#      x y z
#    x 1.750750 0.000000 0.000000 
#    y 0.000000 1.765190 0.000000 
#    z 0.000000 0.000000 1.767210 
# 
# From -- ./inp_files/20811.got.cif
#   From: 2010.03.12/outbox.cif.g09.slc.cpg/sg62_11_cif.got.tgz:20811.got - 2010.04.10 19:12:36.
