data_PCOD8251209
_publ_section_title
;
Structure prediction by ZEFSAII (Michael W. Deem and Ramdas Pophale) SiO2 
 PCOD8251209
Probable space group: P N M A
;
_chemical_formula_sum "Si O2"
_cell_formula_units_Z 64
_cell_length_a 25.463765
_cell_length_b 11.202945
_cell_length_c 11.618888
_cell_angle_alpha 90.000000
_cell_angle_beta 90.000000
_cell_angle_gamma 90.000000
_cell_volume 3314.510406
_symmetry_space_group_name_H-M "P N M A"
_symmetry_group_IT_number 62
_symmetry_cell_setting 'orthorhombic'
loop_
_space_group_symop_operation_xyz
x,y,z
1/2-x,-y,1/2+z
1/2+x,1/2-y,1/2-z
-x,1/2+y,-z
-x,-y,-z
1/2+x,y,1/2-z
1/2-x,1/2+y,1/2+z
x,1/2-y,z
loop_
_atom_site_type_symbol
_atom_site_label
_atom_site_fract_x
_atom_site_fract_y
_atom_site_fract_z
Si Si1 0.322777 0.616237 0.842165
Si Si2 0.471316 0.049636 0.322029
Si Si3 0.175536 0.111141 0.083377
Si Si4 0.440182 0.622697 0.521135
Si Si5 0.499374 0.618706 0.117493
Si Si6 0.591817 0.002166 0.003276
Si Si7 0.132770 0.880801 0.714462
Si Si8 0.292675 0.110327 0.422712
O O1 0.344840 0.750000 0.846503
O O2 0.306531 0.582139 0.712583
O O3 0.269666 0.604458 0.913748
O O4 0.369083 0.535611 0.893924
O O5 0.516073 0.128198 0.379565
O O6 0.424104 0.129259 0.274796
O O7 0.446704 0.971297 0.422100
O O8 0.497951 0.974209 0.221122
O O9 0.192345 0.250000 0.046500
O O10 0.113345 0.100000 0.087169
O O11 0.196163 0.999891 0.008374
O O12 0.440042 0.750000 0.457822
O O13 0.499357 0.750000 0.170972
O O14 0.448081 0.607218 0.035404
O O15 0.553260 0.603855 0.044995
O O16 0.628873 0.967288 0.895212
O O17 0.148481 0.750000 0.669475
O O18 0.177130 0.923990 0.804447
O O19 0.308385 0.250000 0.458961
#
# Coordination Sequence:
#
# PCOD8251209 Si02
#       8
#     8   8   8   8   8   8   8   8
#     4  10  22  40  63  85 115 154 194 244 299 354
#     4  10  19  32  52  80 113 151 192 230 288 349
#     4  10  21  40  62  87 116 151 195 243 295 349
#     4  10  19  32  52  79 111 147 191 236 283 346
#     4  10  20  35  54  82 118 150 186 238 290 348
#     4  10  21  36  58  86 114 152 198 234 289 358
#     4  10  20  36  57  82 115 155 196 244 294 348
#     4  10  22  41  61  85 116 153 197 246 301 350
#
# _framework density 19.309035000000002
#
# number of rings (size 3 to 8) (size 9 to 14) (size 15 to 20)
#    0.000    2.000    1.250    2.250    1.750    0.000 
#    0.000    8.750    0.000    0.000    0.000    0.000 
#    0.000    0.000    0.000    0.000    0.000    0.000 
#
# Total GULP energy -792911.064229 kJ/mol
# GULP energy per Si atom -12389.235379 kJ/mol
# Density = 1.926509 g / cm^3
# Si number density = 19.309035 Si / 1000 Ang^3
#
#
#
# Elastic Constant Matrix: (Units=GPa)
#
#
# Indices 1 2 3 4 5 6 
#
# 1 69.0070 36.1355 27.2455 0.0000 0.0000 0.0000
# 2 36.1355 105.5907 46.2214 0.0000 0.0000 0.0000
# 3 27.2455 46.2214 80.8094 0.0000 0.0000 0.0000
# 4 0.0000 0.0000 0.0000 46.4502 0.0000 0.0000
# 5 0.0000 0.0000 0.0000 0.0000 22.6129 0.0000
# 6 0.0000 0.0000 0.0000 0.0000 0.0000 6.2751
#
#
#
# Elastic Compliance Matrix: (Units=1/GPa)
#
#
# Indices 1 2 3 4 5 6 
#
# 1 0.018354 -0.004765 -0.003462 0.000000 0.000000 0.000000
# 2 -0.004765 0.013871 -0.006327 0.000000 0.000000 0.000000
# 3 -0.003462 -0.006327 0.017161 0.000000 0.000000 0.000000
# 4 0.000000 0.000000 0.000000 0.021528 0.000000 0.000000
# 5 0.000000 0.000000 0.000000 0.000000 0.044223 0.000000
# 6 0.000000 0.000000 0.000000 0.000000 0.000000 0.159361
#
#
# Mechanical properties :
#
#
# Convention : Reuss Voigt Hill
#
# Bulk Modulus (GPa) = 49.31968 52.73464 51.02716
# Shear Modulus (GPa) = 16.10998 24.78795 20.44897
#
# Velocity S-wave (km/s) = 2.89160 3.58683 3.25781
# Velocity P-wave (km/s) = 6.06186 6.67263 6.37456
#
# Compressibility (1/GPa) = 0.02027588
#
# Stress axis : x y z
#
# Youngs Moduli (GPa) = 54.48493 72.09246 58.27091
#
# Poissons Ratio (x) = 0.34355 0.20175
# Poissons Ratio (y) = 0.25964 0.36870
# Poissons Ratio (z) = 0.18865 0.45615
#
# Static dielectric constant tensor:
#      x y z
#    x 3.540040 0.000000 0.000000 
#    y 0.000000 2.739620 0.000000 
#    z 0.000000 0.000000 3.509660 
# 
# 
# High freq. dielectric constant tensor:
#      x y z
#    x 1.755600 0.000000 0.000000 
#    y 0.000000 1.747680 0.000000 
#    z 0.000000 0.000000 1.746670 
# 
# From -- ./inp_files/15322.got.cif
#   From: 2010.03.12/outbox.cif.g09.slc.cpg/sg62_8_cif.got.tgz:15322.got - 2010.04.10 19:12:36.
