data_PCOD8251343
_publ_section_title
;
Structure prediction by ZEFSAII (Michael W. Deem and Ramdas Pophale) SiO2 
 PCOD8251343
Probable space group: P N M A
;
_chemical_formula_sum "Si O2"
_cell_formula_units_Z 64
_cell_length_a 20.564420
_cell_length_b 8.797228
_cell_length_c 18.618270
_cell_angle_alpha 90.000000
_cell_angle_beta 90.000000
_cell_angle_gamma 90.000000
_cell_volume 3368.229204
_symmetry_space_group_name_H-M "P N M A"
_symmetry_group_IT_number 62
_symmetry_cell_setting 'orthorhombic'
loop_
_space_group_symop_operation_xyz
x,y,z
1/2-x,-y,1/2+z
1/2+x,1/2-y,1/2-z
-x,1/2+y,-z
-x,-y,-z
1/2+x,y,1/2-z
1/2-x,1/2+y,1/2+z
x,1/2-y,z
loop_
_atom_site_type_symbol
_atom_site_label
_atom_site_fract_x
_atom_site_fract_y
_atom_site_fract_z
Si Si1 0.557355 0.071772 0.044935
Si Si2 0.323410 0.571586 0.051336
Si Si3 0.178670 0.928675 0.049286
Si Si4 0.815111 0.430422 0.789431
Si Si5 0.056725 0.569687 0.795247
Si Si6 0.678283 0.569952 0.797158
Si Si7 0.940243 0.068596 0.042190
Si Si8 0.932822 0.930692 0.707408
O O1 0.546936 0.250000 0.042821
O O2 0.555242 0.012110 0.126339
O O3 0.626551 0.025747 0.010780
O O4 0.500000 0.000000 0.000000
O O5 0.325944 0.750000 0.070433
O O6 0.251267 0.525719 0.023906
O O7 0.341016 0.478907 0.122621
O O8 0.170438 0.750000 0.049051
O O9 0.166624 0.988274 0.130353
O O10 0.125475 0.996807 0.994802
O O11 0.814298 0.250000 0.784878
O O12 0.743924 0.491639 0.769227
O O13 0.866032 0.497127 0.733735
O O14 0.055175 0.750000 0.794064
O O15 0.120783 0.511706 0.754532
O O16 0.058004 0.507585 0.876409
O O17 0.992254 0.507516 0.755686
O O18 0.686895 0.750000 0.793959
O O19 0.943728 0.250000 0.039784
O O20 0.000000 0.000000 0.000000
O O21 0.926329 0.750000 0.710898
#
# Coordination Sequence:
#
# PCOD8251343 Si02
#       8
#     8   8   8   8   8   8   8   8
#     4  10  21  35  54  77 105 139 176 219 268 320
#     4   9  18  34  53  75 101 134 173 215 260 311
#     4   8  16  31  51  71  96 129 167 205 248 300
#     4  10  20  35  53  77 107 139 174 216 260 310
#     4   9  19  33  52  77 105 134 170 213 258 306
#     4  10  19  34  56  80 105 138 173 212 261 314
#     4  10  19  33  52  74  99 131 167 207 250 299
#     4  10  20  35  53  77 106 138 176 219 263 314
#
# _framework density 19.001082
#
# number of rings (size 3 to 8) (size 9 to 14) (size 15 to 20)
#    0.000    2.500    0.000    3.000    0.000    3.000 
#    0.000    8.750    0.000    0.000    0.000    0.000 
#    0.000    0.000    0.000    0.000    0.000    0.000 
#
# Total GULP energy -793599.056900 kJ/mol
# GULP energy per Si atom -12399.985264 kJ/mol
# Density = 1.895784 g / cm^3
# Si number density = 19.001082 Si / 1000 Ang^3
#
#
#
# Elastic Constant Matrix: (Units=GPa)
#
#
# Indices 1 2 3 4 5 6 
#
# 1 157.3442 29.6121 97.9474 0.0000 0.0000 0.0000
# 2 29.6121 30.9345 29.3145 0.0000 0.0000 0.0000
# 3 97.9474 29.3145 146.3084 0.0000 0.0000 0.0000
# 4 0.0000 0.0000 0.0000 21.5454 0.0000 0.0000
# 5 0.0000 0.0000 0.0000 0.0000 44.6385 0.0000
# 6 0.0000 0.0000 0.0000 0.0000 0.0000 28.3893
#
#
#
# Elastic Compliance Matrix: (Units=1/GPa)
#
#
# Indices 1 2 3 4 5 6 
#
# 1 0.011391 -0.004539 -0.006716 0.000000 0.000000 0.000000
# 2 -0.004539 0.041712 -0.005318 0.000000 0.000000 0.000000
# 3 -0.006716 -0.005318 0.012397 0.000000 0.000000 0.000000
# 4 0.000000 0.000000 0.000000 0.046414 0.000000 0.000000
# 5 0.000000 0.000000 0.000000 0.000000 0.022402 0.000000
# 6 0.000000 0.000000 0.000000 0.000000 0.000000 0.035225
#
#
# Mechanical properties :
#
#
# Convention : Reuss Voigt Hill
#
# Bulk Modulus (GPa) = 30.91088 72.03724 51.47406
# Shear Modulus (GPa) = 23.42247 30.76217 27.09232
#
# Velocity S-wave (km/s) = 3.51478 4.02801 3.78011
# Velocity P-wave (km/s) = 5.72493 7.72189 6.79715
#
# Compressibility (1/GPa) = 0.03235106
#
# Stress axis : x y z
#
# Youngs Moduli (GPa) = 87.79240 23.97419 80.66753
#
# Poissons Ratio (x) = 0.10883 0.54176
# Poissons Ratio (y) = 0.39852 0.42903
# Poissons Ratio (z) = 0.58961 0.12751
#
# Static dielectric constant tensor:
#      x y z
#    x 3.664910 0.000000 0.000000 
#    y 0.000000 3.178880 0.000000 
#    z 0.000000 0.000000 3.726400 
# 
# 
# High freq. dielectric constant tensor:
#      x y z
#    x 1.755480 0.000000 0.000000 
#    y 0.000000 1.709680 0.000000 
#    z 0.000000 0.000000 1.741390 
# 
# From -- ./inp_files/24772.got.cif
#   From: 2010.03.12/outbox.cif.g09.slc.cpg/sg62_13_cif.got.tgz:24772.got - 2010.04.10 19:12:36.
