data_PCOD8251112
_publ_section_title
;
Structure prediction by ZEFSAII (Michael W. Deem and Ramdas Pophale) SiO2 
 PCOD8251112
Probable space group: P N M A
;
_chemical_formula_sum "Si O2"
_cell_formula_units_Z 64
_cell_length_a 23.125183
_cell_length_b 8.888817
_cell_length_c 18.893927
_cell_angle_alpha 90.000000
_cell_angle_beta 90.000000
_cell_angle_gamma 90.000000
_cell_volume 3883.750985
_symmetry_space_group_name_H-M "P N M A"
_symmetry_group_IT_number 62
_symmetry_cell_setting 'orthorhombic'
loop_
_space_group_symop_operation_xyz
x,y,z
1/2-x,-y,1/2+z
1/2+x,1/2-y,1/2-z
-x,1/2+y,-z
-x,-y,-z
1/2+x,y,1/2-z
1/2-x,1/2+y,1/2+z
x,1/2-y,z
loop_
_atom_site_type_symbol
_atom_site_label
_atom_site_fract_x
_atom_site_fract_y
_atom_site_fract_z
Si Si1 0.234177 0.575296 0.852703
Si Si2 0.837690 0.425202 0.726889
Si Si3 0.065390 0.075088 0.350193
Si Si4 0.625417 0.425517 0.002275
Si Si5 0.435587 0.076561 0.126134
Si Si6 0.826151 0.078614 0.287500
Si Si7 0.250250 0.927294 0.494694
Si Si8 0.725930 0.576031 0.366665
O O1 0.240973 0.750000 0.870441
O O2 0.295480 0.518807 0.823675
O O3 0.183640 0.543036 0.795539
O O4 0.218296 0.489088 0.924551
O O5 0.829360 0.250000 0.709736
O O6 0.902615 0.478989 0.710642
O O7 0.823771 0.459000 0.809080
O O8 0.072051 0.250000 0.331965
O O9 0.092267 0.035109 0.425934
O O10 0.998742 0.024483 0.349108
O O11 0.639551 0.250000 0.995987
O O12 0.583963 0.474364 0.938783
O O13 0.684863 0.515679 0.999109
O O14 0.436472 0.250000 0.100870
O O15 0.393093 0.054243 0.193267
O O16 0.806368 0.250000 0.303646
O O17 0.788269 0.968464 0.335450
O O18 0.249986 0.750000 0.492343
O O19 0.287081 0.982481 0.562393
O O20 0.728092 0.750000 0.386912
#
# Coordination Sequence:
#
# PCOD8251112 Si02
#       8
#     8   8   8   8   8   8   8   8
#     4  10  19  32  50  71  97 128 161 201 249 295
#     4  10  20  33  50  72  97 128 165 204 246 290
#     4  10  21  34  49  69 100 137 172 205 240 285
#     4  11  21  32  46  69  99 136 171 203 239 281
#     4  10  20  34  50  71  98 134 173 206 240 285
#     4   9  18  32  50  71  97 128 162 202 246 291
#     4  12  22  32  49  73  99 132 164 200 246 296
#     4  10  20  33  50  72  98 126 161 205 248 294
#
# _framework density 16.478915000000001
#
# number of rings (size 3 to 8) (size 9 to 14) (size 15 to 20)
#    0.000    1.750    2.500    3.000    0.000    3.000 
#    0.000    0.000    0.000    0.000    0.000    0.875 
#    0.000    0.000    0.000    0.000    0.000    0.000 
#
# Total GULP energy -793775.024789 kJ/mol
# GULP energy per Si atom -12402.734762 kJ/mol
# Density = 1.644141 g / cm^3
# Si number density = 16.478915 Si / 1000 Ang^3
#
#
#
# Elastic Constant Matrix: (Units=GPa)
#
#
# Indices 1 2 3 4 5 6 
#
# 1 74.1114 29.9145 47.1333 0.0000 0.0000 0.0000
# 2 29.9145 92.7717 57.2260 0.0000 0.0000 0.0000
# 3 47.1333 57.2260 118.0343 0.0000 0.0000 0.0000
# 4 0.0000 0.0000 0.0000 26.9952 0.0000 0.0000
# 5 0.0000 0.0000 0.0000 0.0000 19.8827 0.0000
# 6 0.0000 0.0000 0.0000 0.0000 0.0000 20.0012
#
#
#
# Elastic Compliance Matrix: (Units=1/GPa)
#
#
# Indices 1 2 3 4 5 6 
#
# 1 0.018341 -0.001992 -0.006358 0.000000 0.000000 0.000000
# 2 -0.001992 0.015595 -0.006765 0.000000 0.000000 0.000000
# 3 -0.006358 -0.006765 0.014291 0.000000 0.000000 0.000000
# 4 0.000000 0.000000 0.000000 0.037044 0.000000 0.000000
# 5 0.000000 0.000000 0.000000 0.000000 0.050295 0.000000
# 6 0.000000 0.000000 0.000000 0.000000 0.000000 0.049997
#
#
# Mechanical properties :
#
#
# Convention : Reuss Voigt Hill
#
# Bulk Modulus (GPa) = 55.56868 61.49612 58.53240
# Shear Modulus (GPa) = 22.54373 23.41872 22.98123
#
# Velocity S-wave (km/s) = 3.70271 3.77388 3.73846
# Velocity P-wave (km/s) = 7.21626 7.50924 7.36420
#
# Compressibility (1/GPa) = 0.01799575
#
# Stress axis : x y z
#
# Youngs Moduli (GPa) = 54.52298 64.12488 69.97464
#
# Poissons Ratio (x) = 0.12775 0.44490
# Poissons Ratio (y) = 0.10862 0.47339
# Poissons Ratio (z) = 0.34666 0.43381
#
# Static dielectric constant tensor:
#      x y z
#    x 2.966090 0.000000 0.000000 
#    y 0.000000 3.183160 0.000000 
#    z 0.000000 0.000000 3.299700 
# 
# 
# High freq. dielectric constant tensor:
#      x y z
#    x 1.602430 0.000000 0.000000 
#    y 0.000000 1.646640 0.000000 
#    z 0.000000 0.000000 1.633660 
# 
# From -- ./inp_files/24938.got.cif
#   From: 2010.03.12/outbox.cif.g09.slc.cpg/sg62_13_cif.got.tgz:24938.got - 2010.04.10 19:12:36.
