data_PCOD8251924
_publ_section_title
;
Structure prediction by ZEFSAII (Michael W. Deem and Ramdas Pophale) SiO2 
 PCOD8251924
Probable space group: P N M A
;
_chemical_formula_sum "Si O2"
_cell_formula_units_Z 64
_cell_length_a 9.263892
_cell_length_b 25.440587
_cell_length_c 16.312432
_cell_angle_alpha 90.000000
_cell_angle_beta 90.000000
_cell_angle_gamma 90.000000
_cell_volume 3844.495221
_symmetry_space_group_name_H-M "P N M A"
_symmetry_group_IT_number 62
_symmetry_cell_setting 'orthorhombic'
loop_
_space_group_symop_operation_xyz
x,y,z
1/2-x,-y,1/2+z
1/2+x,1/2-y,1/2-z
-x,1/2+y,-z
-x,-y,-z
1/2+x,y,1/2-z
1/2-x,1/2+y,1/2+z
x,1/2-y,z
loop_
_atom_site_type_symbol
_atom_site_label
_atom_site_fract_x
_atom_site_fract_y
_atom_site_fract_z
Si Si1 0.546036 0.895711 0.084519
Si Si2 0.834581 0.460632 0.444225
Si Si3 0.950199 0.189250 0.841197
Si Si4 0.722721 0.536113 0.573168
Si Si5 0.211071 0.606675 0.062736
Si Si6 0.929465 0.001804 0.873006
Si Si7 0.717255 0.811072 0.176083
Si Si8 0.942695 0.500081 0.682307
O O1 0.376853 0.882245 0.085602
O O2 0.633976 0.843528 0.106995
O O3 0.582042 0.940217 0.152267
O O4 0.603361 0.910570 0.993102
O O5 0.836616 0.509477 0.508671
O O6 0.671741 0.454631 0.408284
O O7 0.923324 0.474199 0.363394
O O8 0.940427 0.250000 0.865261
O O9 0.114505 0.172782 0.821773
O O10 0.887354 0.156927 0.917912
O O11 0.850823 0.175476 0.763838
O O12 0.694934 0.594060 0.535154
O O13 0.578048 0.501490 0.576580
O O14 0.800971 0.535499 0.660971
O O15 0.150298 0.557096 0.113976
O O16 0.968284 0.995756 0.778216
O O17 0.697013 0.750000 0.154594
#
# Coordination Sequence:
#
# PCOD8251924 Si02
#       8
#     8   8   8   8   8   8   8   8
#     4  11  20  33  54  68 100 141 170 204 249 300
#     4  10  19  36  46  68 103 136 169 207 250 292
#     4  10  22  37  53  74 102 129 165 212 251 293
#     4  10  20  32  48  72 101 136 169 211 248 296
#     4  11  20  34  49  73 100 137 174 202 249 301
#     4  11  22  29  50  75 103 134 176 211 243 300
#     4  10  22  37  53  75 100 130 167 211 254 294
#     4  11  19  34  48  72 104 138 170 207 249 297
#
# _framework density 16.647179000000001
#
# number of rings (size 3 to 8) (size 9 to 14) (size 15 to 20)
#    0.000    1.500    3.750    4.500    5.250    1.500 
#    0.000    0.000    0.000    0.000    0.000    0.000 
#    0.000    6.000    0.000    0.000    0.000    0.000 
#
# Total GULP energy -793297.562916 kJ/mol
# GULP energy per Si atom -12395.274421 kJ/mol
# Density = 1.660929 g / cm^3
# Si number density = 16.647179 Si / 1000 Ang^3
#
#
#
# Elastic Constant Matrix: (Units=GPa)
#
#
# Indices 1 2 3 4 5 6 
#
# 1 119.3544 41.5358 21.8660 0.0000 0.0000 0.0000
# 2 41.5358 61.9148 29.1276 0.0000 0.0000 0.0000
# 3 21.8660 29.1276 42.5311 0.0000 0.0000 0.0000
# 4 0.0000 0.0000 0.0000 25.0880 0.0000 0.0000
# 5 0.0000 0.0000 0.0000 0.0000 32.5169 0.0000
# 6 0.0000 0.0000 0.0000 0.0000 0.0000 26.5626
#
#
#
# Elastic Compliance Matrix: (Units=1/GPa)
#
#
# Indices 1 2 3 4 5 6 
#
# 1 0.010953 -0.006932 -0.000884 0.000000 0.000000 0.000000
# 2 -0.006932 0.028216 -0.015760 0.000000 0.000000 0.000000
# 3 -0.000884 -0.015760 0.034760 0.000000 0.000000 0.000000
# 4 0.000000 0.000000 0.000000 0.039860 0.000000 0.000000
# 5 0.000000 0.000000 0.000000 0.000000 0.030753 0.000000
# 6 0.000000 0.000000 0.000000 0.000000 0.000000 0.037647
#
#
# Mechanical properties :
#
#
# Convention : Reuss Voigt Hill
#
# Bulk Modulus (GPa) = 37.34505 45.42880 41.38692
# Shear Modulus (GPa) = 20.98510 25.58488 23.28499
#
# Velocity S-wave (km/s) = 3.55432 3.92457 3.74402
# Velocity P-wave (km/s) = 6.27106 6.91988 6.60344
#
# Compressibility (1/GPa) = 0.02677731
#
# Stress axis : x y z
#
# Youngs Moduli (GPa) = 91.30228 35.44125 28.76903
#
# Poissons Ratio (x) = 0.24568 0.02542
# Poissons Ratio (y) = 0.63290 0.45339
# Poissons Ratio (z) = 0.08067 0.55855
#
# Static dielectric constant tensor:
#      x y z
#    x 3.405330 0.000000 0.000000 
#    y 0.000000 2.912430 0.000000 
#    z 0.000000 0.000000 3.149260 
# 
# 
# High freq. dielectric constant tensor:
#      x y z
#    x 1.672210 0.000000 0.000000 
#    y 0.000000 1.594700 0.000000 
#    z 0.000000 0.000000 1.629550 
# 
# From -- ./inp_files/22641.got.cif
#   From: 2010.03.12/outbox.cif.g09.slc.cpg/sg62_12_cif.got.tgz:22641.got - 2010.04.10 19:12:36.
