data_PCOD8251281
_publ_section_title
;
Structure prediction by ZEFSAII (Michael W. Deem and Ramdas Pophale) SiO2 
 PCOD8251281
Probable space group: P N M A
;
_chemical_formula_sum "Si O2"
_cell_formula_units_Z 64
_cell_length_a 24.473096
_cell_length_b 9.078643
_cell_length_c 15.214416
_cell_angle_alpha 90.000000
_cell_angle_beta 90.000000
_cell_angle_gamma 90.000000
_cell_volume 3380.377009
_symmetry_space_group_name_H-M "P N M A"
_symmetry_group_IT_number 62
_symmetry_cell_setting 'orthorhombic'
loop_
_space_group_symop_operation_xyz
x,y,z
1/2-x,-y,1/2+z
1/2+x,1/2-y,1/2-z
-x,1/2+y,-z
-x,-y,-z
1/2+x,y,1/2-z
1/2-x,1/2+y,1/2+z
x,1/2-y,z
loop_
_atom_site_type_symbol
_atom_site_label
_atom_site_fract_x
_atom_site_fract_y
_atom_site_fract_z
Si Si1 0.241866 0.420904 0.716995
Si Si2 0.137215 0.579051 0.169085
Si Si3 0.721197 0.581590 0.957589
Si Si4 0.450804 0.424601 0.812388
Si Si5 0.846719 0.422675 0.181752
Si Si6 0.395381 0.077591 0.987369
Si Si7 0.342234 0.919729 0.491793
Si Si8 0.936917 0.076515 0.325689
O O1 0.228663 0.250000 0.730683
O O2 0.306474 0.453230 0.720723
O O3 0.218231 0.471749 0.623785
O O4 0.212421 0.510983 0.794076
O O5 0.134134 0.750000 0.142535
O O6 0.088393 0.530458 0.232407
O O7 0.132588 0.483982 0.080995
O O8 0.716650 0.750000 0.921913
O O9 0.669523 0.544251 0.019573
O O10 0.776684 0.559335 0.011580
O O11 0.456810 0.250000 0.818263
O O12 0.425886 0.491376 0.903075
O O13 0.508857 0.496286 0.793173
O O14 0.840791 0.250000 0.167886
O O15 0.867464 0.494166 0.090833
O O16 0.889347 0.464083 0.257692
O O17 0.405556 0.250000 0.986232
O O18 0.420075 0.014295 0.078290
O O19 0.359154 0.750000 0.485665
O O20 0.947359 0.250000 0.327779
#
# Coordination Sequence:
#
# PCOD8251281 Si02
#       8
#     8   8   8   8   8   8   8   8
#     4  10  19  32  54  83 114 145 185 231 274 329
#     4   9  20  38  57  81 116 151 185 230 288 342
#     4   9  17  33  55  79 114 152 181 215 276 341
#     4  10  21  36  59  83 108 149 192 234 280 332
#     4  11  22  37  57  81 114 154 190 229 287 341
#     4   9  17  33  56  81 112 150 185 217 272 340
#     4  10  21  35  58  86 113 147 188 237 283 334
#     4  10  21  38  57  79 112 151 189 232 280 334
#
# _framework density 18.932798999999999
#
# number of rings (size 3 to 8) (size 9 to 14) (size 15 to 20)
#    0.000    2.250    1.250    1.500    1.750    2.500 
#    0.000    1.250    0.000    0.000    0.000    0.000 
#    0.000    0.000    0.000    0.000    0.000    0.000 
#
# Total GULP energy -793682.142369 kJ/mol
# GULP energy per Si atom -12401.283475 kJ/mol
# Density = 1.888971 g / cm^3
# Si number density = 18.932799 Si / 1000 Ang^3
#
#
#
# Elastic Constant Matrix: (Units=GPa)
#
#
# Indices 1 2 3 4 5 6 
#
# 1 68.8481 36.1365 39.8748 0.0000 0.0000 0.0000
# 2 36.1365 70.5180 58.1321 0.0000 0.0000 0.0000
# 3 39.8748 58.1321 120.1564 0.0000 0.0000 0.0000
# 4 0.0000 0.0000 0.0000 30.0546 0.0000 0.0000
# 5 0.0000 0.0000 0.0000 0.0000 19.8410 0.0000
# 6 0.0000 0.0000 0.0000 0.0000 0.0000 27.8033
#
#
#
# Elastic Compliance Matrix: (Units=1/GPa)
#
#
# Indices 1 2 3 4 5 6 
#
# 1 0.020441 -0.008122 -0.002854 0.000000 0.000000 0.000000
# 2 -0.008122 0.026816 -0.010278 0.000000 0.000000 0.000000
# 3 -0.002854 -0.010278 0.014242 0.000000 0.000000 0.000000
# 4 0.000000 0.000000 0.000000 0.033273 0.000000 0.000000
# 5 0.000000 0.000000 0.000000 0.000000 0.050401 0.000000
# 6 0.000000 0.000000 0.000000 0.000000 0.000000 0.035967
#
#
# Mechanical properties :
#
#
# Convention : Reuss Voigt Hill
#
# Bulk Modulus (GPa) = 52.65835 58.64546 55.65191
# Shear Modulus (GPa) = 21.74127 23.89841 22.81984
#
# Velocity S-wave (km/s) = 3.39239 3.55671 3.47552
# Velocity P-wave (km/s) = 6.57405 6.92168 6.75010
#
# Compressibility (1/GPa) = 0.01899034
#
# Stress axis : x y z
#
# Youngs Moduli (GPa) = 48.92212 37.29150 70.21382
#
# Poissons Ratio (x) = 0.30288 0.20039
# Poissons Ratio (y) = 0.39735 0.72167
# Poissons Ratio (z) = 0.13962 0.38329
#
# Static dielectric constant tensor:
#      x y z
#    x 3.416110 0.000000 0.000000 
#    y 0.000000 3.327560 0.000000 
#    z 0.000000 0.000000 3.486270 
# 
# 
# High freq. dielectric constant tensor:
#      x y z
#    x 1.728160 0.000000 0.000000 
#    y 0.000000 1.722410 0.000000 
#    z 0.000000 0.000000 1.736650 
# 
# From -- ./inp_files/20996.got.cif
#   From: 2010.03.12/outbox.cif.g09.slc.cpg/sg62_11_cif.got.tgz:20996.got - 2010.04.10 19:12:36.
