data_PCOD8251822
_publ_section_title
;
Structure prediction by ZEFSAII (Michael W. Deem and Ramdas Pophale) SiO2 
 PCOD8251822
Probable space group: P N M A
;
_chemical_formula_sum "Si O2"
_cell_formula_units_Z 64
_cell_length_a 22.261470
_cell_length_b 9.255255
_cell_length_c 16.649995
_cell_angle_alpha 90.000000
_cell_angle_beta 90.000000
_cell_angle_gamma 90.000000
_cell_volume 3430.491402
_symmetry_space_group_name_H-M "P N M A"
_symmetry_group_IT_number 62
_symmetry_cell_setting 'orthorhombic'
loop_
_space_group_symop_operation_xyz
x,y,z
1/2-x,-y,1/2+z
1/2+x,1/2-y,1/2-z
-x,1/2+y,-z
-x,-y,-z
1/2+x,y,1/2-z
1/2-x,1/2+y,1/2+z
x,1/2-y,z
loop_
_atom_site_type_symbol
_atom_site_label
_atom_site_fract_x
_atom_site_fract_y
_atom_site_fract_z
Si Si1 0.269211 0.078236 0.409942
Si Si2 0.062259 0.080475 0.498376
Si Si3 0.857499 0.920578 0.646206
Si Si4 0.378252 0.580583 0.674630
Si Si5 0.614932 0.921115 0.684972
Si Si6 0.360477 0.581770 0.154394
Si Si7 0.500840 0.419647 0.416037
Si Si8 0.230638 0.920770 0.092277
O O1 0.270136 0.250000 0.409750
O O2 0.209960 0.017425 0.365241
O O3 0.327602 0.018979 0.363763
O O4 0.268877 0.021609 0.501106
O O5 0.050416 0.250000 0.489466
O O6 0.099030 0.017628 0.422495
O O7 0.099287 0.044289 0.577894
O O8 0.000000 0.000000 0.500000
O O9 0.854031 0.750000 0.635513
O O10 0.883689 0.965322 0.732358
O O11 0.365294 0.750000 0.666091
O O12 0.439585 0.534870 0.631713
O O13 0.323565 0.495535 0.637110
O O14 0.617337 0.750000 0.696424
O O15 0.555878 0.969023 0.636621
O O16 0.613117 0.991896 0.772110
O O17 0.363618 0.750000 0.175788
O O18 0.292324 0.534481 0.135665
O O19 0.500000 0.500000 0.500000
O O20 0.498663 0.250000 0.433207
O O21 0.221098 0.750000 0.094421
#
# Coordination Sequence:
#
# PCOD8251822 Si02
#       8
#     8   8   8   8   8   8   8   8
#     4   9  16  31  55  80 105 139 183 223 264 320
#     4  10  21  37  58  82 110 146 183 221 273 331
#     4   9  17  33  56  78 104 142 181 219 265 320
#     4  10  21  35  55  82 111 142 183 231 276 321
#     4  10  21  35  57  85 110 143 190 232 270 325
#     4  10  21  37  56  83 115 146 181 225 280 334
#     4  10  22  39  57  83 114 147 187 229 277 333
#     4  10  19  35  58  82 110 144 183 225 273 330
#
# _framework density 18.656220000000001
#
# number of rings (size 3 to 8) (size 9 to 14) (size 15 to 20)
#    0.000    2.250    1.250    1.500    1.750    4.000 
#    0.000    1.250    0.000    1.500    0.000    0.000 
#    0.000    0.000    0.000    0.000    0.000    0.000 
#
# Total GULP energy -793716.011672 kJ/mol
# GULP energy per Si atom -12401.812682 kJ/mol
# Density = 1.861376 g / cm^3
# Si number density = 18.656220 Si / 1000 Ang^3
#
#
#
# Elastic Constant Matrix: (Units=GPa)
#
#
# Indices 1 2 3 4 5 6 
#
# 1 187.6833 45.9303 93.3416 0.0000 0.0000 0.0000
# 2 45.9303 29.6246 47.3496 0.0000 0.0000 0.0000
# 3 93.3416 47.3496 169.5937 0.0000 0.0000 0.0000
# 4 0.0000 0.0000 0.0000 31.1752 0.0000 0.0000
# 5 0.0000 0.0000 0.0000 0.0000 33.5573 0.0000
# 6 0.0000 0.0000 0.0000 0.0000 0.0000 29.1103
#
#
#
# Elastic Compliance Matrix: (Units=1/GPa)
#
#
# Indices 1 2 3 4 5 6 
#
# 1 0.008909 -0.010791 -0.001891 0.000000 0.000000 0.000000
# 2 -0.010791 0.074028 -0.014729 0.000000 0.000000 0.000000
# 3 -0.001891 -0.014729 0.011049 0.000000 0.000000 0.000000
# 4 0.000000 0.000000 0.000000 0.032077 0.000000 0.000000
# 5 0.000000 0.000000 0.000000 0.000000 0.029800 0.000000
# 6 0.000000 0.000000 0.000000 0.000000 0.000000 0.034352
#
#
# Mechanical properties :
#
#
# Convention : Reuss Voigt Hill
#
# Bulk Modulus (GPa) = 25.53306 84.46052 54.99679
# Shear Modulus (GPa) = 19.37302 32.12057 25.74679
#
# Velocity S-wave (km/s) = 3.22595 4.15385 3.71895
# Velocity P-wave (km/s) = 5.25276 8.26899 6.92704
#
# Compressibility (1/GPa) = 0.03916491
#
# Stress axis : x y z
#
# Youngs Moduli (GPa) = 112.24305 13.50848 90.50360
#
# Poissons Ratio (x) = 0.14577 0.17112
# Poissons Ratio (y) = 1.21121 1.33302
# Poissons Ratio (z) = 0.21222 0.19896
#
# Static dielectric constant tensor:
#      x y z
#    x 3.661470 0.000000 0.000000 
#    y 0.000000 3.107270 0.000000 
#    z 0.000000 0.000000 3.637840 
# 
# 
# High freq. dielectric constant tensor:
#      x y z
#    x 1.741340 0.000000 0.000000 
#    y 0.000000 1.686720 0.000000 
#    z 0.000000 0.000000 1.741030 
# 
# From -- ./inp_files/20870.got.cif
#   From: 2010.03.12/outbox.cif.g09.slc.cpg/sg62_11_cif.got.tgz:20870.got - 2010.04.10 19:12:36.
