data_PCOD8251512
_publ_section_title
;
Structure prediction by ZEFSAII (Michael W. Deem and Ramdas Pophale) SiO2 
 PCOD8251512
Probable space group: P N M A
;
_chemical_formula_sum "Si O2"
_cell_formula_units_Z 64
_cell_length_a 24.044642
_cell_length_b 9.600137
_cell_length_c 13.999556
_cell_angle_alpha 90.000000
_cell_angle_beta 90.000000
_cell_angle_gamma 90.000000
_cell_volume 3231.543513
_symmetry_space_group_name_H-M "P N M A"
_symmetry_group_IT_number 62
_symmetry_cell_setting 'orthorhombic'
loop_
_space_group_symop_operation_xyz
x,y,z
1/2-x,-y,1/2+z
1/2+x,1/2-y,1/2-z
-x,1/2+y,-z
-x,-y,-z
1/2+x,y,1/2-z
1/2-x,1/2+y,1/2+z
x,1/2-y,z
loop_
_atom_site_type_symbol
_atom_site_label
_atom_site_fract_x
_atom_site_fract_y
_atom_site_fract_z
Si Si1 0.246319 0.090771 0.252207
Si Si2 0.742064 0.907474 0.965270
Si Si3 0.337856 0.912989 0.918173
Si Si4 0.946687 0.095063 0.268417
Si Si5 0.966066 0.588117 0.576882
Si Si6 0.858130 0.900838 0.035795
Si Si7 0.547733 0.907837 0.542284
Si Si8 0.647793 0.402008 0.748045
O O1 0.264416 0.250000 0.274979
O O2 0.232673 0.072398 0.140544
O O3 0.193337 0.049367 0.318176
O O4 0.296552 0.987223 0.270502
O O5 0.720758 0.750000 0.981028
O O6 0.793622 0.944894 0.033388
O O7 0.691287 0.009422 0.992022
O O8 0.333782 0.750000 0.939146
O O9 0.402032 0.961804 0.912772
O O10 0.926078 0.250000 0.295945
O O11 0.956149 0.085604 0.156029
O O12 0.004713 0.061691 0.320848
O O13 0.898273 0.990535 0.306443
O O14 0.968380 0.750000 0.547144
O O15 0.000000 0.500000 0.500000
O O16 0.866481 0.750000 0.981998
O O17 0.877439 0.876777 0.143960
O O18 0.895864 0.026618 0.996987
O O19 0.543214 0.750000 0.505299
O O20 0.500000 0.000000 0.500000
O O21 0.658010 0.250000 0.797373
#
# Coordination Sequence:
#
# PCOD8251512 Si02
#       8
#     8   8   8   8   8   8   8   8
#     4  10  21  36  58  85 115 154 193 235 291 356
#     4  10  21  37  58  85 115 154 196 236 293 356
#     4  10  22  40  60  86 121 156 197 248 296 350
#     4   9  20  38  58  80 111 153 196 238 289 352
#     4  10  23  42  62  86 116 158 205 248 297 349
#     4   9  18  34  54  78 110 147 185 232 285 342
#     4  10  20  34  56  84 113 150 191 237 289 346
#     4  10  19  33  56  83 112 143 186 242 292 341
#
# _framework density 19.804777000000001
#
# number of rings (size 3 to 8) (size 9 to 14) (size 15 to 20)
#    0.000    2.250    1.250    0.750    1.750    4.000 
#    0.000    3.750    0.000    1.500    0.000    0.000 
#    0.000    0.000    0.000    0.000    0.000    0.000 
#
# Total GULP energy -793099.693194 kJ/mol
# GULP energy per Si atom -12392.182706 kJ/mol
# Density = 1.975970 g / cm^3
# Si number density = 19.804777 Si / 1000 Ang^3
#
#
#
# Elastic Constant Matrix: (Units=GPa)
#
#
# Indices 1 2 3 4 5 6 
#
# 1 159.0942 86.2080 38.0534 0.0000 0.0000 0.0000
# 2 86.2080 126.9661 31.6477 0.0000 0.0000 0.0000
# 3 38.0534 31.6477 52.7173 0.0000 0.0000 0.0000
# 4 0.0000 0.0000 0.0000 24.6218 0.0000 0.0000
# 5 0.0000 0.0000 0.0000 0.0000 29.0910 0.0000
# 6 0.0000 0.0000 0.0000 0.0000 0.0000 36.7250
#
#
#
# Elastic Compliance Matrix: (Units=1/GPa)
#
#
# Indices 1 2 3 4 5 6 
#
# 1 0.010589 -0.006214 -0.003913 0.000000 0.000000 0.000000
# 2 -0.006214 0.012909 -0.003264 0.000000 0.000000 0.000000
# 3 -0.003913 -0.003264 0.023753 0.000000 0.000000 0.000000
# 4 0.000000 0.000000 0.000000 0.040614 0.000000 0.000000
# 5 0.000000 0.000000 0.000000 0.000000 0.034375 0.000000
# 6 0.000000 0.000000 0.000000 0.000000 0.000000 0.027229
#
#
# Mechanical properties :
#
#
# Convention : Reuss Voigt Hill
#
# Bulk Modulus (GPa) = 48.85500 72.28843 60.57171
# Shear Modulus (GPa) = 27.31125 30.27879 28.79502
#
# Velocity S-wave (km/s) = 3.71755 3.91431 3.81720
# Velocity P-wave (km/s) = 6.56877 7.55042 7.07664
#
# Compressibility (1/GPa) = 0.02046874
#
# Stress axis : x y z
#
# Youngs Moduli (GPa) = 94.43928 77.46449 42.10001
#
# Poissons Ratio (x) = 0.48139 0.16473
# Poissons Ratio (y) = 0.58688 0.13741
# Poissons Ratio (z) = 0.36952 0.25284
#
# Static dielectric constant tensor:
#      x y z
#    x 3.626730 0.000000 0.000000 
#    y 0.000000 4.131480 0.000000 
#    z 0.000000 0.000000 3.415170 
# 
# 
# High freq. dielectric constant tensor:
#      x y z
#    x 1.769810 0.000000 0.000000 
#    y 0.000000 1.779040 0.000000 
#    z 0.000000 0.000000 1.755660 
# 
# From -- ./inp_files/20922.got.cif
#   From: 2010.03.12/outbox.cif.g09.slc.cpg/sg62_11_cif.got.tgz:20922.got - 2010.04.10 19:12:36.
