data_PCOD8251469
_publ_section_title
;
Structure prediction by ZEFSAII (Michael W. Deem and Ramdas Pophale) SiO2 
 PCOD8251469
Probable space group: P N M A
;
_chemical_formula_sum "Si O2"
_cell_formula_units_Z 64
_cell_length_a 24.504180
_cell_length_b 9.144008
_cell_length_c 15.321548
_cell_angle_alpha 90.000000
_cell_angle_beta 90.000000
_cell_angle_gamma 90.000000
_cell_volume 3433.044378
_symmetry_space_group_name_H-M "P N M A"
_symmetry_group_IT_number 62
_symmetry_cell_setting 'orthorhombic'
loop_
_space_group_symop_operation_xyz
x,y,z
1/2-x,-y,1/2+z
1/2+x,1/2-y,1/2-z
-x,1/2+y,-z
-x,-y,-z
1/2+x,y,1/2-z
1/2-x,1/2+y,1/2+z
x,1/2-y,z
loop_
_atom_site_type_symbol
_atom_site_label
_atom_site_fract_x
_atom_site_fract_y
_atom_site_fract_z
Si Si1 0.648949 0.418895 0.313347
Si Si2 0.562859 0.076723 0.174166
Si Si3 0.830186 0.582711 0.003133
Si Si4 0.362485 0.918405 0.307697
Si Si5 0.774039 0.917653 0.544484
Si Si6 0.392876 0.917763 0.011339
Si Si7 0.439508 0.423372 0.177346
Si Si8 0.237976 0.579313 0.280189
O O1 0.659695 0.250000 0.289967
O O2 0.600498 0.484148 0.253236
O O3 0.633304 0.436445 0.415931
O O4 0.705194 0.506819 0.299278
O O5 0.565440 0.250000 0.175607
O O6 0.584875 0.020880 0.080908
O O7 0.501479 0.021195 0.189267
O O8 0.810064 0.750000 0.014756
O O9 0.864530 0.539889 0.089347
O O10 0.776906 0.482816 0.992195
O O11 0.378478 0.750000 0.292086
O O12 0.302342 0.950620 0.269567
O O13 0.405581 0.019634 0.259471
O O14 0.762069 0.750000 0.569118
O O15 0.827460 0.930061 0.484319
O O16 0.785080 0.006597 0.632365
O O17 0.411281 0.750000 0.025598
O O18 0.417073 0.016448 0.086867
O O19 0.435764 0.250000 0.174793
O O20 0.225413 0.750000 0.283538
#
# Coordination Sequence:
#
# PCOD8251469 Si02
#       8
#     8   8   8   8   8   8   8   8
#     4  10  19  36  60  83 110 146 185 225 280 339
#     4   9  19  38  58  80 111 144 185 230 276 330
#     4   9  20  36  57  83 112 146 183 229 278 330
#     4   9  20  39  55  75 113 150 181 224 280 332
#     4  10  19  33  55  80 111 149 181 217 274 333
#     4  10  20  36  56  79 112 151 182 218 280 339
#     4  11  23  36  56  82 107 144 193 238 272 318
#     4  10  20  34  54  81 113 145 181 226 274 325
#
# _framework density 18.642346
#
# number of rings (size 3 to 8) (size 9 to 14) (size 15 to 20)
#    0.000    2.250    1.250    2.250    1.750    4.000 
#    0.000    2.500    0.000    0.000    0.000    0.000 
#    0.000    0.000    0.000    0.000    0.000    0.000 
#
# Total GULP energy -793582.938093 kJ/mol
# GULP energy per Si atom -12399.733408 kJ/mol
# Density = 1.859992 g / cm^3
# Si number density = 18.642346 Si / 1000 Ang^3
#
#
#
# Elastic Constant Matrix: (Units=GPa)
#
#
# Indices 1 2 3 4 5 6 
#
# 1 91.7243 40.1314 66.2888 0.0000 0.0000 0.0000
# 2 40.1314 71.3472 41.5498 0.0000 0.0000 0.0000
# 3 66.2888 41.5498 139.1934 0.0000 0.0000 0.0000
# 4 0.0000 0.0000 0.0000 26.7686 0.0000 0.0000
# 5 0.0000 0.0000 0.0000 0.0000 24.5809 0.0000
# 6 0.0000 0.0000 0.0000 0.0000 0.0000 23.0545
#
#
#
# Elastic Compliance Matrix: (Units=1/GPa)
#
#
# Indices 1 2 3 4 5 6 
#
# 1 0.018820 -0.006496 -0.007024 0.000000 0.000000 0.000000
# 2 -0.006496 0.019207 -0.002640 0.000000 0.000000 0.000000
# 3 -0.007024 -0.002640 0.011317 0.000000 0.000000 0.000000
# 4 0.000000 0.000000 0.000000 0.037357 0.000000 0.000000
# 5 0.000000 0.000000 0.000000 0.000000 0.040682 0.000000
# 6 0.000000 0.000000 0.000000 0.000000 0.000000 0.043376
#
#
# Mechanical properties :
#
#
# Convention : Reuss Voigt Hill
#
# Bulk Modulus (GPa) = 58.73468 66.46721 62.60095
# Shear Modulus (GPa) = 23.95168 25.16714 24.55941
#
# Velocity S-wave (km/s) = 3.58830 3.67822 3.63354
# Velocity P-wave (km/s) = 6.98157 7.33283 7.15935
#
# Compressibility (1/GPa) = 0.01702572
#
# Stress axis : x y z
#
# Youngs Moduli (GPa) = 53.13378 52.06431 88.36004
#
# Poissons Ratio (x) = 0.33819 0.62064
# Poissons Ratio (y) = 0.34514 0.23326
# Poissons Ratio (z) = 0.37321 0.13745
#
# Static dielectric constant tensor:
#      x y z
#    x 3.436840 0.000000 0.000000 
#    y 0.000000 3.347930 0.000000 
#    z 0.000000 0.000000 3.471610 
# 
# 
# High freq. dielectric constant tensor:
#      x y z
#    x 1.709790 0.000000 0.000000 
#    y 0.000000 1.714000 0.000000 
#    z 0.000000 0.000000 1.729250 
# 
# From -- ./inp_files/20873.got.cif
#   From: 2010.03.12/outbox.cif.g09.slc.cpg/sg62_11_cif.got.tgz:20873.got - 2010.04.10 19:12:36.
