data_PCOD8251347
_publ_section_title
;
Structure prediction by ZEFSAII (Michael W. Deem and Ramdas Pophale) SiO2 
 PCOD8251347
Probable space group: P N M A
;
_chemical_formula_sum "Si O2"
_cell_formula_units_Z 40
_cell_length_a 9.032812
_cell_length_b 8.647145
_cell_length_c 26.035586
_cell_angle_alpha 90.000000
_cell_angle_beta 90.000000
_cell_angle_gamma 90.000000
_cell_volume 2033.588466
_symmetry_space_group_name_H-M "P N M A"
_symmetry_group_IT_number 62
_symmetry_cell_setting 'orthorhombic'
loop_
_space_group_symop_operation_xyz
x,y,z
1/2-x,-y,1/2+z
1/2+x,1/2-y,1/2-z
-x,1/2+y,-z
-x,-y,-z
1/2+x,y,1/2-z
1/2-x,1/2+y,1/2+z
x,1/2-y,z
loop_
_atom_site_type_symbol
_atom_site_label
_atom_site_fract_x
_atom_site_fract_y
_atom_site_fract_z
Si Si1 0.171027 0.933567 0.401324
Si Si2 0.666173 0.066258 0.701345
Si Si3 0.165722 0.066263 0.597719
Si Si4 0.332155 0.065285 0.698151
Si Si5 0.837404 0.432852 0.002004
O O1 0.182399 0.750000 0.408027
O O2 0.243792 0.989810 0.348288
O O3 0.002588 0.993057 0.401863
O O4 0.257333 0.014417 0.446843
O O5 0.663212 0.250000 0.703570
O O6 0.499456 0.001006 0.698833
O O7 0.746503 0.000755 0.752034
O O8 0.168028 0.250000 0.599195
O O9 0.250711 0.000511 0.647523
O O10 0.245938 0.003114 0.546789
O O11 0.332362 0.250000 0.698180
O O12 0.847244 0.250000 0.000073
O O13 0.000000 0.500000 0.000000
#
# Coordination Sequence:
#
# PCOD8251347 Si02
#       5
#     8   8   8   8   8
#     4  10  19  33  52  76 103 133 167 208 254 304
#     4   9  16  25  43  70 102 134 166 205 252 299
#     4   9  18  31  49  73 103 133 168 212 256 299
#     4   9  15  25  41  68 102 133 164 205 252 296
#     4  11  22  36  53  75 102 135 171 212 257 306
#
# _framework density 19.669664000000001
#
# number of rings (size 3 to 8) (size 9 to 14) (size 15 to 20)
#    0.000    2.400    0.000    3.600    0.000    8.000 
#    0.000    1.000    0.000    0.000    0.000   14.000 
#    0.000    0.000    0.000    0.000    0.000    0.000 
#
# Total GULP energy -496041.947119 kJ/mol
# GULP energy per Si atom -12401.048678 kJ/mol
# Density = 1.962489 g / cm^3
# Si number density = 19.669664 Si / 1000 Ang^3
#
#
#
# Elastic Constant Matrix: (Units=GPa)
#
#
# Indices 1 2 3 4 5 6 
#
# 1 197.6608 19.7015 87.6757 0.0000 0.0000 0.0000
# 2 19.7015 20.3165 20.8527 0.0000 0.0000 0.0000
# 3 87.6757 20.8527 175.8399 0.0000 0.0000 0.0000
# 4 0.0000 0.0000 0.0000 21.8499 0.0000 0.0000
# 5 0.0000 0.0000 0.0000 0.0000 49.9529 0.0000
# 6 0.0000 0.0000 0.0000 0.0000 0.0000 17.3224
#
#
#
# Elastic Compliance Matrix: (Units=1/GPa)
#
#
# Indices 1 2 3 4 5 6 
#
# 1 0.006707 -0.003497 -0.002930 0.000000 0.000000 0.000000
# 2 -0.003497 0.057866 -0.005118 0.000000 0.000000 0.000000
# 3 -0.002930 -0.005118 0.007755 0.000000 0.000000 0.000000
# 4 0.000000 0.000000 0.000000 0.045767 0.000000 0.000000
# 5 0.000000 0.000000 0.000000 0.000000 0.020019 0.000000
# 6 0.000000 0.000000 0.000000 0.000000 0.000000 0.057729
#
#
# Mechanical properties :
#
#
# Convention : Reuss Voigt Hill
#
# Bulk Modulus (GPa) = 20.30981 72.25303 46.28142
# Shear Modulus (GPa) = 21.24536 35.53087 28.38811
#
# Velocity S-wave (km/s) = 3.29006 4.25476 3.80313
# Velocity P-wave (km/s) = 4.97801 7.80707 6.54717
#
# Compressibility (1/GPa) = 0.04923728
#
# Stress axis : x y z
#
# Youngs Moduli (GPa) = 149.09333 17.28127 128.95422
#
# Poissons Ratio (x) = 0.06044 0.37778
# Poissons Ratio (y) = 0.52143 0.66005
# Poissons Ratio (z) = 0.43678 0.08845
#
# Static dielectric constant tensor:
#      x y z
#    x 3.900760 0.000000 0.000000 
#    y 0.000000 2.951610 0.000000 
#    z 0.000000 0.000000 3.850900 
# 
# 
# High freq. dielectric constant tensor:
#      x y z
#    x 1.789470 0.000000 0.000000 
#    y 0.000000 1.696850 0.000000 
#    z 0.000000 0.000000 1.788300 
# 
# From -- ./inp_files/25750.got.cif
#   From: 2010.03.12/outbox.cif.g09.slc.cpg/sg62_13_cif.got.tgz:25750.got - 2010.04.10 19:12:36.
