data_PCOD8251833
_publ_section_title
;
Structure prediction by ZEFSAII (Michael W. Deem and Ramdas Pophale) SiO2 
 PCOD8251833
Probable space group: P N M A
;
_chemical_formula_sum "Si O2"
_cell_formula_units_Z 64
_cell_length_a 14.666687
_cell_length_b 9.170933
_cell_length_c 24.397207
_cell_angle_alpha 90.000000
_cell_angle_beta 90.000000
_cell_angle_gamma 90.000000
_cell_volume 3281.600094
_symmetry_space_group_name_H-M "P N M A"
_symmetry_group_IT_number 62
_symmetry_cell_setting 'orthorhombic'
loop_
_space_group_symop_operation_xyz
x,y,z
1/2-x,-y,1/2+z
1/2+x,1/2-y,1/2-z
-x,1/2+y,-z
-x,-y,-z
1/2+x,y,1/2-z
1/2-x,1/2+y,1/2+z
x,1/2-y,z
loop_
_atom_site_type_symbol
_atom_site_label
_atom_site_fract_x
_atom_site_fract_y
_atom_site_fract_z
Si Si1 0.092323 0.579343 0.016697
Si Si2 0.562055 0.589288 0.363024
Si Si3 0.631950 0.077810 0.262476
Si Si4 0.503314 0.077326 0.163497
Si Si5 0.336583 0.078720 0.237409
Si Si6 0.862148 0.911204 0.156914
Si Si7 0.451688 0.078115 0.949502
Si Si8 0.259904 0.581054 0.447264
O O1 0.080987 0.750000 0.003690
O O2 0.181051 0.518925 0.986760
O O3 0.113709 0.551022 0.080854
O O4 0.000000 0.500000 0.000000
O O5 0.591055 0.750000 0.341728
O O6 0.579668 0.473135 0.316105
O O7 0.454957 0.588234 0.378226
O O8 0.631985 0.250000 0.263264
O O9 0.580773 0.025494 0.207048
O O10 0.734474 0.013876 0.267621
O O11 0.510613 0.250000 0.152152
O O12 0.403182 0.035440 0.187365
O O13 0.514257 0.989970 0.107451
O O14 0.332524 0.250000 0.242676
O O15 0.377696 0.020872 0.293636
O O16 0.841531 0.750000 0.180639
O O17 0.781601 0.960279 0.115977
O O18 0.473763 0.250000 0.949449
O O19 0.345199 0.047763 0.957601
O O20 0.500000 0.000000 0.000000
O O21 0.284346 0.750000 0.457991
#
# Coordination Sequence:
#
# PCOD8251833 Si02
#       8
#     8   8   8   8   8   8   8   8
#     4  11  22  37  58  87 123 160 198 244 294 354
#     4  10  21  36  55  82 119 154 189 237 287 345
#     4  10  21  37  58  86 120 155 192 238 291 349
#     4  10  21  39  61  87 121 153 195 248 292 351
#     4  10  21  36  57  87 119 154 195 238 291 350
#     4  10  19  35  58  84 117 152 194 244 291 347
#     4  11  25  44  67  89 117 156 202 254 305 358
#     4  10  22  41  62  88 119 156 202 254 307 358
#
# _framework density 19.502682
#
# number of rings (size 3 to 8) (size 9 to 14) (size 15 to 20)
#    0.000    1.750    2.500    1.500    0.000    5.000 
#    0.000    3.750    0.000    0.000    0.000    0.000 
#    0.000    0.000    0.000    0.000    0.000    0.000 
#
# Total GULP energy -793514.536535 kJ/mol
# GULP energy per Si atom -12398.664633 kJ/mol
# Density = 1.945829 g / cm^3
# Si number density = 19.502682 Si / 1000 Ang^3
#
#
#
# Elastic Constant Matrix: (Units=GPa)
#
#
# Indices 1 2 3 4 5 6 
#
# 1 124.8459 55.2103 71.6725 0.0000 0.0000 0.0000
# 2 55.2103 60.1848 63.9967 0.0000 0.0000 0.0000
# 3 71.6725 63.9967 145.2307 0.0000 0.0000 0.0000
# 4 0.0000 0.0000 0.0000 38.0377 0.0000 0.0000
# 5 0.0000 0.0000 0.0000 0.0000 33.9388 0.0000
# 6 0.0000 0.0000 0.0000 0.0000 0.0000 26.5844
#
#
#
# Elastic Compliance Matrix: (Units=1/GPa)
#
#
# Indices 1 2 3 4 5 6 
#
# 1 0.013885 -0.010257 -0.002332 0.000000 0.000000 0.000000
# 2 -0.010257 0.038842 -0.012054 0.000000 0.000000 0.000000
# 3 -0.002332 -0.012054 0.013348 0.000000 0.000000 0.000000
# 4 0.000000 0.000000 0.000000 0.026290 0.000000 0.000000
# 5 0.000000 0.000000 0.000000 0.000000 0.029465 0.000000
# 6 0.000000 0.000000 0.000000 0.000000 0.000000 0.037616
#
#
# Mechanical properties :
#
#
# Convention : Reuss Voigt Hill
#
# Bulk Modulus (GPa) = 59.56527 79.11338 69.33933
# Shear Modulus (GPa) = 23.32856 29.00429 26.16642
#
# Velocity S-wave (km/s) = 3.46232 3.86060 3.66687
# Velocity P-wave (km/s) = 6.82583 7.77983 7.31839
#
# Compressibility (1/GPa) = 0.01678830
#
# Stress axis : x y z
#
# Youngs Moduli (GPa) = 72.02098 25.74514 74.91508
#
# Poissons Ratio (x) = 0.26407 0.17474
# Poissons Ratio (y) = 0.73872 0.90304
# Poissons Ratio (z) = 0.16799 0.31034
#
# Static dielectric constant tensor:
#      x y z
#    x 3.921300 0.000000 0.000000 
#    y 0.000000 3.492090 0.000000 
#    z 0.000000 0.000000 3.458840 
# 
# 
# High freq. dielectric constant tensor:
#      x y z
#    x 1.766480 0.000000 0.000000 
#    y 0.000000 1.755920 0.000000 
#    z 0.000000 0.000000 1.760100 
# 
# From -- ./inp_files/29856.got.cif
#   From: 2010.03.12/outbox.cif.g09.slc.cpg/sg62_15_cif.got.tgz:29856.got - 2010.04.10 19:12:36.
