data_PCOD8251797
_publ_section_title
;
Structure prediction by ZEFSAII (Michael W. Deem and Ramdas Pophale) SiO2 
 PCOD8251797
Probable space group: P N M A
;
_chemical_formula_sum "Si O2"
_cell_formula_units_Z 64
_cell_length_a 11.780188
_cell_length_b 9.599070
_cell_length_c 30.295766
_cell_angle_alpha 90.000000
_cell_angle_beta 90.000000
_cell_angle_gamma 90.000000
_cell_volume 3425.810356
_symmetry_space_group_name_H-M "P N M A"
_symmetry_group_IT_number 62
_symmetry_cell_setting 'orthorhombic'
loop_
_space_group_symop_operation_xyz
x,y,z
1/2-x,-y,1/2+z
1/2+x,1/2-y,1/2-z
-x,1/2+y,-z
-x,-y,-z
1/2+x,y,1/2-z
1/2-x,1/2+y,1/2+z
x,1/2-y,z
loop_
_atom_site_type_symbol
_atom_site_label
_atom_site_fract_x
_atom_site_fract_y
_atom_site_fract_z
Si Si1 0.242748 0.412551 0.456134
Si Si2 0.498908 0.590979 0.158401
Si Si3 0.996283 0.408240 0.425614
Si Si4 0.238150 0.586024 0.302076
Si Si5 0.142470 0.088651 0.128638
Si Si6 0.765048 0.909805 0.298329
Si Si7 0.377090 0.089127 0.368833
Si Si8 0.756465 0.090859 0.461905
O O1 0.256995 0.250000 0.466556
O O2 0.111984 0.455714 0.448896
O O3 0.313851 0.457764 0.413417
O O4 0.289764 0.497479 0.498001
O O5 0.509439 0.750000 0.142771
O O6 0.468111 0.501035 0.116262
O O7 0.615515 0.539872 0.180107
O O8 0.399006 0.571446 0.193699
O O9 0.008154 0.250000 0.408749
O O10 0.892771 0.423873 0.459637
O O11 0.260696 0.750000 0.307586
O O12 0.242394 0.540503 0.251299
O O13 0.334759 0.503986 0.328388
O O14 0.171926 0.250000 0.136903
O O15 0.200429 0.036777 0.083411
O O16 0.009299 0.062589 0.124371
O O17 0.190151 0.002460 0.169399
O O18 0.727558 0.750000 0.305216
O O19 0.350122 0.250000 0.358218
O O20 0.720047 0.250000 0.470849
#
# Coordination Sequence:
#
# PCOD8251797 Si02
#       8
#     8   8   8   8   8   8   8   8
#     4  10  21  36  56  82 112 145 185 230 280 334
#     4  10  20  35  57  86 115 146 185 231 278 329
#     4  10  19  35  57  82 112 148 184 227 281 335
#     4  10  22  38  59  86 116 149 187 232 281 333
#     4  10  22  40  59  82 114 150 190 235 279 330
#     4  10  22  38  59  86 116 149 187 232 281 333
#     4  10  22  40  59  82 114 150 190 235 279 330
#     4  10  21  36  56  82 112 145 185 230 280 334
#
# _framework density 18.681712000000001
#
# number of rings (size 3 to 8) (size 9 to 14) (size 15 to 20)
#    0.000    2.000    2.500    0.375    1.750    3.500 
#    0.000    0.000    0.000    0.000    0.000    0.000 
#    0.000    0.000    0.000    0.000    0.000    0.000 
#
# Total GULP energy -793869.136805 kJ/mol
# GULP energy per Si atom -12404.205263 kJ/mol
# Density = 1.863919 g / cm^3
# Si number density = 18.681712 Si / 1000 Ang^3
#
#
#
# Elastic Constant Matrix: (Units=GPa)
#
#
# Indices 1 2 3 4 5 6 
#
# 1 86.5306 30.6377 36.7310 0.0000 0.0000 0.0000
# 2 30.6377 59.4721 61.4293 0.0000 0.0000 0.0000
# 3 36.7310 61.4293 136.6236 0.0000 0.0000 0.0000
# 4 0.0000 0.0000 0.0000 35.2298 0.0000 0.0000
# 5 0.0000 0.0000 0.0000 0.0000 21.8629 0.0000
# 6 0.0000 0.0000 0.0000 0.0000 0.0000 22.6312
#
#
#
# Elastic Compliance Matrix: (Units=1/GPa)
#
#
# Indices 1 2 3 4 5 6 
#
# 1 0.014206 -0.006299 -0.000987 0.000000 0.000000 0.000000
# 2 -0.006299 0.034188 -0.013678 0.000000 0.000000 0.000000
# 3 -0.000987 -0.013678 0.013735 0.000000 0.000000 0.000000
# 4 0.000000 0.000000 0.000000 0.028385 0.000000 0.000000
# 5 0.000000 0.000000 0.000000 0.000000 0.045739 0.000000
# 6 0.000000 0.000000 0.000000 0.000000 0.000000 0.044187
#
#
# Mechanical properties :
#
#
# Convention : Reuss Voigt Hill
#
# Bulk Modulus (GPa) = 49.50420 60.02471 54.76445
# Shear Modulus (GPa) = 21.82438 26.20001 24.01219
#
# Velocity S-wave (km/s) = 3.42163 3.74898 3.58904
# Velocity P-wave (km/s) = 6.49356 7.13721 6.82298
#
# Compressibility (1/GPa) = 0.02020031
#
# Stress axis : x y z
#
# Youngs Moduli (GPa) = 70.39388 29.25015 72.80720
#
# Poissons Ratio (x) = 0.18423 0.07188
# Poissons Ratio (y) = 0.44338 0.99588
# Poissons Ratio (z) = 0.06949 0.40009
#
# Static dielectric constant tensor:
#      x y z
#    x 3.504950 0.000000 0.000000 
#    y 0.000000 3.374300 0.000000 
#    z 0.000000 0.000000 3.364560 
# 
# 
# High freq. dielectric constant tensor:
#      x y z
#    x 1.732300 0.000000 0.000000 
#    y 0.000000 1.719820 0.000000 
#    z 0.000000 0.000000 1.726260 
# 
# From -- ./inp_files/32466.got.cif
#   From: 2010.03.12/outbox.cif.g09.slc.cpg/sg62_17_cif.got.tgz:32466.got - 2010.04.10 19:12:36.
