data_PCOD8251557
_publ_section_title
;
Structure prediction by ZEFSAII (Michael W. Deem and Ramdas Pophale) SiO2 
 PCOD8251557
Probable space group: P N M A
;
_chemical_formula_sum "Si O2"
_cell_formula_units_Z 64
_cell_length_a 19.066234
_cell_length_b 8.766372
_cell_length_c 23.012829
_cell_angle_alpha 90.000000
_cell_angle_beta 90.000000
_cell_angle_gamma 90.000000
_cell_volume 3846.403358
_symmetry_space_group_name_H-M "P N M A"
_symmetry_group_IT_number 62
_symmetry_cell_setting 'orthorhombic'
loop_
_space_group_symop_operation_xyz
x,y,z
1/2-x,-y,1/2+z
1/2+x,1/2-y,1/2-z
-x,1/2+y,-z
-x,-y,-z
1/2+x,y,1/2-z
1/2-x,1/2+y,1/2+z
x,1/2-y,z
loop_
_atom_site_type_symbol
_atom_site_label
_atom_site_fract_x
_atom_site_fract_y
_atom_site_fract_z
Si Si1 0.700515 0.073659 0.821600
Si Si2 0.989606 0.571349 0.624999
Si Si3 0.117393 0.427659 0.565661
Si Si4 0.251582 0.930146 0.349281
Si Si5 0.510567 0.930407 0.249279
Si Si6 0.845650 0.928199 0.562893
Si Si7 0.125909 0.570883 0.785475
Si Si8 0.164695 0.571891 0.240105
O O1 0.687158 0.250000 0.804392
O O2 0.678413 0.039327 0.887365
O O3 0.783525 0.034911 0.814016
O O4 0.654970 0.972639 0.778015
O O5 0.993607 0.750000 0.639707
O O6 0.049195 0.528119 0.578678
O O7 0.002927 0.473236 0.682405
O O8 0.915469 0.525127 0.597482
O O9 0.095773 0.250000 0.564923
O O10 0.147392 0.479790 0.503775
O O11 0.258325 0.750000 0.347896
O O12 0.199856 0.993814 0.298823
O O13 0.221298 0.984357 0.410881
O O14 0.328463 0.999081 0.337572
O O15 0.503850 0.750000 0.256198
O O16 0.586894 0.996261 0.269082
O O17 0.453408 0.009177 0.290716
O O18 0.831015 0.750000 0.567807
O O19 0.126074 0.750000 0.792838
O O20 0.154483 0.750000 0.249209
#
# Coordination Sequence:
#
# PCOD8251557 Si02
#       8
#     8   8   8   8   8   8   8   8
#     4   9  17  32  50  70  94 127 166 202 240 292
#     4  11  21  31  44  67 101 133 171 209 239 281
#     4  10  20  33  50  68  97 137 172 204 244 291
#     4  10  19  34  52  71  93 128 167 202 244 293
#     4  11  19  31  49  70  96 129 163 197 243 298
#     4  10  21  34  47  70 100 134 170 207 247 287
#     4  11  21  32  48  72  99 125 156 202 250 293
#     4   8  16  29  48  70  91 118 160 201 239 287
#
# _framework density 16.638919999999999
#
# number of rings (size 3 to 8) (size 9 to 14) (size 15 to 20)
#    0.000    2.000    2.500    3.375    0.000    1.000 
#    0.000    0.625    0.000    0.000    0.000    0.875 
#    0.000    0.000    0.000    0.000    0.000    0.000 
#
# Total GULP energy -793594.975493 kJ/mol
# GULP energy per Si atom -12399.921492 kJ/mol
# Density = 1.660105 g / cm^3
# Si number density = 16.638920 Si / 1000 Ang^3
#
#
#
# Elastic Constant Matrix: (Units=GPa)
#
#
# Indices 1 2 3 4 5 6 
#
# 1 90.0433 23.9880 17.2039 0.0000 0.0000 0.0000
# 2 23.9880 59.8107 13.5995 0.0000 0.0000 0.0000
# 3 17.2039 13.5995 45.0074 0.0000 0.0000 0.0000
# 4 0.0000 0.0000 0.0000 19.2508 0.0000 0.0000
# 5 0.0000 0.0000 0.0000 0.0000 23.1939 0.0000
# 6 0.0000 0.0000 0.0000 0.0000 0.0000 21.2715
#
#
#
# Elastic Compliance Matrix: (Units=1/GPa)
#
#
# Indices 1 2 3 4 5 6 
#
# 1 0.012965 -0.004374 -0.003634 0.000000 0.000000 0.000000
# 2 -0.004374 0.019428 -0.004199 0.000000 0.000000 0.000000
# 3 -0.003634 -0.004199 0.024876 0.000000 0.000000 0.000000
# 4 0.000000 0.000000 0.000000 0.051946 0.000000 0.000000
# 5 0.000000 0.000000 0.000000 0.000000 0.043115 0.000000
# 6 0.000000 0.000000 0.000000 0.000000 0.000000 0.047011
#
#
# Mechanical properties :
#
#
# Convention : Reuss Voigt Hill
#
# Bulk Modulus (GPa) = 30.43520 33.82713 32.13116
# Shear Modulus (GPa) = 21.30312 22.08124 21.69218
#
# Velocity S-wave (km/s) = 3.58204 3.64687 3.61460
# Velocity P-wave (km/s) = 5.95309 6.17310 6.06409
#
# Compressibility (1/GPa) = 0.03285670
#
# Stress axis : x y z
#
# Youngs Moduli (GPa) = 77.12891 51.47161 40.19859
#
# Poissons Ratio (x) = 0.22511 0.14610
# Poissons Ratio (y) = 0.33733 0.16878
# Poissons Ratio (z) = 0.28032 0.21611
#
# Static dielectric constant tensor:
#      x y z
#    x 3.407540 0.000000 0.000000 
#    y 0.000000 3.009570 0.000000 
#    z 0.000000 0.000000 2.958810 
# 
# 
# High freq. dielectric constant tensor:
#      x y z
#    x 1.643040 0.000000 0.000000 
#    y 0.000000 1.637260 0.000000 
#    z 0.000000 0.000000 1.607810 
# 
# From -- ./inp_files/30061.got.cif
#   From: 2010.03.12/outbox.cif.g09.slc.cpg/sg62_16_cif.got.tgz:30061.got - 2010.04.10 19:12:36.
