data_PCOD8251183
_publ_section_title
;
Structure prediction by ZEFSAII (Michael W. Deem and Ramdas Pophale) SiO2 
 PCOD8251183
Probable space group: P N M A
;
_chemical_formula_sum "Si O2"
_cell_formula_units_Z 48
_cell_length_a 31.062046
_cell_length_b 9.065709
_cell_length_c 9.447082
_cell_angle_alpha 90.000000
_cell_angle_beta 90.000000
_cell_angle_gamma 90.000000
_cell_volume 2660.293284
_symmetry_space_group_name_H-M "P N M A"
_symmetry_group_IT_number 62
_symmetry_cell_setting 'orthorhombic'
loop_
_space_group_symop_operation_xyz
x,y,z
1/2-x,-y,1/2+z
1/2+x,1/2-y,1/2-z
-x,1/2+y,-z
-x,-y,-z
1/2+x,y,1/2-z
1/2-x,1/2+y,1/2+z
x,1/2-y,z
loop_
_atom_site_type_symbol
_atom_site_label
_atom_site_fract_x
_atom_site_fract_y
_atom_site_fract_z
Si Si1 0.037033 0.420455 0.585249
Si Si2 0.120156 0.912797 0.581908
Si Si3 0.208707 0.422983 0.899369
Si Si4 0.713818 0.921952 0.893792
Si Si5 0.538054 0.422938 0.583170
Si Si6 0.376519 0.415939 0.418161
O O1 0.033953 0.250000 0.550528
O O2 0.083556 0.475403 0.528999
O O3 0.031612 0.454800 0.750811
O O4 0.000000 0.500000 0.500000
O O5 0.108034 0.750000 0.525025
O O6 0.167938 0.960207 0.530181
O O7 0.122592 0.911786 0.750271
O O8 0.198981 0.250000 0.891445
O O9 0.220662 0.480184 0.744471
O O10 0.167095 0.502920 0.966777
O O11 0.248871 0.461421 0.997808
O O12 0.713938 0.750000 0.849181
O O13 0.500000 0.500000 0.500000
O O14 0.538495 0.250000 0.550273
O O15 0.582452 0.492872 0.526002
O O16 0.377786 0.250000 0.481017
#
# Coordination Sequence:
#
# PCOD8251183 Si02
#       6
#     8   8   8   8   8   8
#     4  10  20  33  51  75 100 128 164 203 245 294
#     4   8  15  30  50  69  94 129 165 201 241 288
#     4  10  19  32  52  76 101 132 169 207 248 296
#     4   9  19  34  51  74 102 131 165 205 249 296
#     4  10  20  34  53  77 102 131 168 207 248 296
#     4   9  17  31  51  73  99 133 168 203 246 296
#
# _framework density 18.043123000000001
#
# number of rings (size 3 to 8) (size 9 to 14) (size 15 to 20)
#    0.000    2.667    0.000    3.000    0.000    7.333 
#    0.000    1.667    0.000    6.000    0.000    0.000 
#    0.000    0.000    0.000    0.000    0.000    0.000 
#
# Total GULP energy -595116.937699 kJ/mol
# GULP energy per Si atom -12398.269535 kJ/mol
# Density = 1.800206 g / cm^3
# Si number density = 18.043123 Si / 1000 Ang^3
#
#
#
# Elastic Constant Matrix: (Units=GPa)
#
#
# Indices 1 2 3 4 5 6 
#
# 1 196.6478 96.9384 54.3303 0.0000 0.0000 0.0000
# 2 96.9384 133.6379 46.4733 0.0000 0.0000 0.0000
# 3 54.3303 46.4733 39.4884 0.0000 0.0000 0.0000
# 4 0.0000 0.0000 0.0000 23.9054 0.0000 0.0000
# 5 0.0000 0.0000 0.0000 0.0000 30.5246 0.0000
# 6 0.0000 0.0000 0.0000 0.0000 0.0000 38.9752
#
#
#
# Elastic Compliance Matrix: (Units=1/GPa)
#
#
# Indices 1 2 3 4 5 6 
#
# 1 0.009250 -0.003867 -0.008177 0.000000 0.000000 0.000000
# 2 -0.003867 0.014283 -0.011490 0.000000 0.000000 0.000000
# 3 -0.008177 -0.011490 0.050096 0.000000 0.000000 0.000000
# 4 0.000000 0.000000 0.000000 0.041832 0.000000 0.000000
# 5 0.000000 0.000000 0.000000 0.000000 0.032760 0.000000
# 6 0.000000 0.000000 0.000000 0.000000 0.000000 0.025657
#
#
# Mechanical properties :
#
#
# Convention : Reuss Voigt Hill
#
# Bulk Modulus (GPa) = 37.64573 85.02868 61.33720
# Shear Modulus (GPa) = 21.75803 30.14985 25.95394
#
# Velocity S-wave (km/s) = 3.47636 4.09221 3.79679
# Velocity P-wave (km/s) = 6.08466 8.34001 7.29996
#
# Compressibility (1/GPa) = 0.02656344
#
# Stress axis : x y z
#
# Youngs Moduli (GPa) = 108.10455 70.01158 19.96159
#
# Poissons Ratio (x) = 0.27070 0.16322
# Poissons Ratio (y) = 0.41799 0.22936
# Poissons Ratio (z) = 0.88393 0.80444
#
# Static dielectric constant tensor:
#      x y z
#    x 3.813430 0.000000 0.000000 
#    y 0.000000 3.540510 0.000000 
#    z 0.000000 0.000000 2.907610 
# 
# 
# High freq. dielectric constant tensor:
#      x y z
#    x 1.720040 0.000000 0.000000 
#    y 0.000000 1.711280 0.000000 
#    z 0.000000 0.000000 1.650670 
# 
# From -- ./inp_files/15390.got.cif
#   From: 2010.03.12/outbox.cif.g09.slc.cpg/sg62_8_cif.got.tgz:15390.got - 2010.04.10 19:12:36.
