data_PCOD8251113
_publ_section_title
;
Structure prediction by ZEFSAII (Michael W. Deem and Ramdas Pophale) SiO2 
 PCOD8251113
Probable space group: P N M A
;
_chemical_formula_sum "Si O2"
_cell_formula_units_Z 64
_cell_length_a 8.865936
_cell_length_b 14.842980
_cell_length_c 26.545031
_cell_angle_alpha 90.000000
_cell_angle_beta 90.000000
_cell_angle_gamma 90.000000
_cell_volume 3493.244075
_symmetry_space_group_name_H-M "P N M A"
_symmetry_group_IT_number 62
_symmetry_cell_setting 'orthorhombic'
loop_
_space_group_symop_operation_xyz
x,y,z
1/2-x,-y,1/2+z
1/2+x,1/2-y,1/2-z
-x,1/2+y,-z
-x,-y,-z
1/2+x,y,1/2-z
1/2-x,1/2+y,1/2+z
x,1/2-y,z
loop_
_atom_site_type_symbol
_atom_site_label
_atom_site_fract_x
_atom_site_fract_y
_atom_site_fract_z
Si Si1 0.724682 0.148397 0.815652
Si Si2 0.436473 0.420703 0.034730
Si Si3 0.295452 0.471469 0.593481
Si Si4 0.223592 0.147687 0.408136
Si Si5 0.599856 0.851580 0.493427
Si Si6 0.936495 0.852572 0.216122
Si Si7 0.221158 0.350526 0.957532
Si Si8 0.135912 0.480309 0.871885
O O1 0.699657 0.250000 0.835526
O O2 0.708309 0.081514 0.862425
O O3 0.601692 0.122243 0.773644
O O4 0.885741 0.139384 0.789219
O O5 0.310995 0.446740 0.076632
O O6 0.562854 0.369512 0.066520
O O7 0.500000 0.500000 0.000000
O O8 0.363902 0.352610 0.994371
O O9 0.301588 0.409910 0.544253
O O10 0.462622 0.499099 0.611898
O O11 0.227697 0.250000 0.386571
O O12 0.351771 0.131237 0.449736
O O13 0.271881 0.074795 0.365338
O O14 0.629807 0.750000 0.476386
O O15 0.424357 0.876716 0.490855
O O16 0.882171 0.750000 0.203686
O O17 0.855466 0.924095 0.179571
O O18 0.206176 0.250000 0.934571
O O19 0.229508 0.422269 0.912666
#
# Coordination Sequence:
#
# PCOD8251113 Si02
#       8
#     8   8   8   8   8   8   8   8
#     4   9  18  33  52  79 109 138 169 204 254 313
#     4  12  21  33  46  70 106 140 173 215 261 303
#     4  10  19  32  52  73 102 139 174 209 251 307
#     4  11  22  35  49  71 102 136 174 219 262 303
#     4   9  17  30  49  71  97 134 174 207 243 295
#     4   9  18  33  53  79 111 137 165 207 255 311
#     4  10  19  32  50  72 101 136 173 211 251 300
#     4  10  19  34  54  76  98 135 180 215 253 307
#
# _framework density 18.321079999999998
#
# number of rings (size 3 to 8) (size 9 to 14) (size 15 to 20)
#    0.000    2.000    2.500    1.875    0.000    6.000 
#    0.000    0.625    0.000    0.000    0.000    8.750 
#    0.000    0.000    0.000    0.000    0.000    0.000 
#
# Total GULP energy -793365.940714 kJ/mol
# GULP energy per Si atom -12396.342824 kJ/mol
# Density = 1.827938 g / cm^3
# Si number density = 18.321080 Si / 1000 Ang^3
#
#
#
# Elastic Constant Matrix: (Units=GPa)
#
#
# Indices 1 2 3 4 5 6 
#
# 1 35.2557 17.5136 4.0749 0.0000 0.0000 0.0000
# 2 17.5136 84.5675 22.4189 0.0000 0.0000 0.0000
# 3 4.0749 22.4189 37.9344 0.0000 0.0000 0.0000
# 4 0.0000 0.0000 0.0000 26.8471 0.0000 0.0000
# 5 0.0000 0.0000 0.0000 0.0000 27.8552 0.0000
# 6 0.0000 0.0000 0.0000 0.0000 0.0000 25.0391
#
#
#
# Elastic Compliance Matrix: (Units=1/GPa)
#
#
# Indices 1 2 3 4 5 6 
#
# 1 0.031627 -0.006699 0.000561 0.000000 0.000000 0.000000
# 2 -0.006699 0.015440 -0.008406 0.000000 0.000000 0.000000
# 3 0.000561 -0.008406 0.031269 0.000000 0.000000 0.000000
# 4 0.000000 0.000000 0.000000 0.037248 0.000000 0.000000
# 5 0.000000 0.000000 0.000000 0.000000 0.035900 0.000000
# 6 0.000000 0.000000 0.000000 0.000000 0.000000 0.039938
#
#
# Mechanical properties :
#
#
# Convention : Reuss Voigt Hill
#
# Bulk Modulus (GPa) = 20.30438 27.30806 23.80622
# Shear Modulus (GPa) = 21.10381 23.53162 22.31772
#
# Velocity S-wave (km/s) = 3.39763 3.58774 3.49398
# Velocity P-wave (km/s) = 5.14766 5.66570 5.41288
#
# Compressibility (1/GPa) = 0.04925045
#
# Stress axis : x y z
#
# Youngs Moduli (GPa) = 31.61862 64.76483 31.98088
#
# Poissons Ratio (x) = 0.43384 -0.01796
# Poissons Ratio (y) = 0.21180 0.26882
# Poissons Ratio (z) = -0.01775 0.54439
#
# Static dielectric constant tensor:
#      x y z
#    x 3.419160 0.000000 0.000000 
#    y 0.000000 3.404780 0.000000 
#    z 0.000000 0.000000 3.197830 
# 
# 
# High freq. dielectric constant tensor:
#      x y z
#    x 1.714810 0.000000 0.000000 
#    y 0.000000 1.702340 0.000000 
#    z 0.000000 0.000000 1.678340 
# 
# From -- ./inp_files/29000.got.cif
#   From: 2010.03.12/outbox.cif.g09.slc.cpg/sg62_15_cif.got.tgz:29000.got - 2010.04.10 19:12:36.
