data_PCOD8251367
_publ_section_title
;
Structure prediction by ZEFSAII (Michael W. Deem and Ramdas Pophale) SiO2 
 PCOD8251367
Probable space group: P N M A
;
_chemical_formula_sum "Si O2"
_cell_formula_units_Z 40
_cell_length_a 11.909536
_cell_length_b 13.886409
_cell_length_c 13.187745
_cell_angle_alpha 90.000000
_cell_angle_beta 90.000000
_cell_angle_gamma 90.000000
_cell_volume 2180.998340
_symmetry_space_group_name_H-M "P N M A"
_symmetry_group_IT_number 62
_symmetry_cell_setting 'orthorhombic'
loop_
_space_group_symop_operation_xyz
x,y,z
1/2-x,-y,1/2+z
1/2+x,1/2-y,1/2-z
-x,1/2+y,-z
-x,-y,-z
1/2+x,y,1/2-z
1/2-x,1/2+y,1/2+z
x,1/2-y,z
loop_
_atom_site_type_symbol
_atom_site_label
_atom_site_fract_x
_atom_site_fract_y
_atom_site_fract_z
Si Si1 0.426201 0.008049 0.900039
Si Si2 0.779666 0.861941 0.090681
Si Si3 0.783124 0.643832 0.697535
Si Si4 0.581600 0.987852 0.707021
Si Si5 0.922459 0.855974 0.898165
O O1 0.348931 0.102874 0.905565
O O2 0.342690 0.916138 0.892732
O O3 0.504053 0.015501 0.801361
O O4 0.500000 0.000000 0.000000
O O5 0.780764 0.750000 0.117683
O O6 0.857779 0.914589 0.172854
O O7 0.828896 0.884883 0.979779
O O8 0.752145 0.750000 0.655744
O O9 0.672688 0.591407 0.740268
O O10 0.868300 0.653153 0.788821
O O11 0.515069 0.940314 0.611400
O O12 0.974007 0.750000 0.926347
#
# Coordination Sequence:
#
# PCOD8251367 Si02
#       5
#     8   8   8   8   8
#     4  10  21  35  53  76 104 138 172 208 252 301
#     4  10  21  35  51  73 102 136 172 208 251 307
#     4   9  18  32  52  79 104 127 164 212 258 302
#     4  10  19  33  53  75 102 134 170 212 256 302
#     4   9  17  31  53  77 100 129 165 210 261 304
#
# _framework density 18.340223999999999
#
# number of rings (size 3 to 8) (size 9 to 14) (size 15 to 20)
#    0.000    2.400    0.000    2.400    0.000    2.400 
#    0.000    0.000    0.000    0.000    0.000    0.000 
#    0.000    0.000    0.000    0.000    0.000    0.000 
#
# Total GULP energy -495875.008148 kJ/mol
# GULP energy per Si atom -12396.875204 kJ/mol
# Density = 1.829848 g / cm^3
# Si number density = 18.340224 Si / 1000 Ang^3
#
#
#
# Elastic Constant Matrix: (Units=GPa)
#
#
# Indices 1 2 3 4 5 6 
#
# 1 108.8340 60.9662 36.8066 0.0000 0.0000 0.0000
# 2 60.9662 137.4472 39.2046 0.0000 0.0000 0.0000
# 3 36.8066 39.2046 72.8457 0.0000 0.0000 0.0000
# 4 0.0000 0.0000 0.0000 17.6968 0.0000 0.0000
# 5 0.0000 0.0000 0.0000 0.0000 36.3242 0.0000
# 6 0.0000 0.0000 0.0000 0.0000 0.0000 20.5806
#
#
#
# Elastic Compliance Matrix: (Units=1/GPa)
#
#
# Indices 1 2 3 4 5 6 
#
# 1 0.013214 -0.004674 -0.004161 0.000000 0.000000 0.000000
# 2 -0.004674 0.010248 -0.003154 0.000000 0.000000 0.000000
# 3 -0.004161 -0.003154 0.017527 0.000000 0.000000 0.000000
# 4 0.000000 0.000000 0.000000 0.056507 0.000000 0.000000
# 5 0.000000 0.000000 0.000000 0.000000 0.027530 0.000000
# 6 0.000000 0.000000 0.000000 0.000000 0.000000 0.048589
#
#
# Mechanical properties :
#
#
# Convention : Reuss Voigt Hill
#
# Bulk Modulus (GPa) = 58.78326 65.89797 62.34061
# Shear Modulus (GPa) = 24.59843 27.06361 25.83102
#
# Velocity S-wave (km/s) = 3.66625 3.84558 3.75698
# Velocity P-wave (km/s) = 7.07411 7.46504 7.27220
#
# Compressibility (1/GPa) = 0.01701165
#
# Stress axis : x y z
#
# Youngs Moduli (GPa) = 75.67759 97.57574 57.05370
#
# Poissons Ratio (x) = 0.45610 0.23740
# Poissons Ratio (y) = 0.35374 0.17993
# Poissons Ratio (z) = 0.31489 0.30773
#
# Static dielectric constant tensor:
#      x y z
#    x 3.484820 0.000000 0.000000 
#    y 0.000000 3.706690 0.000000 
#    z 0.000000 0.000000 3.163250 
# 
# 
# High freq. dielectric constant tensor:
#      x y z
#    x 1.719320 0.000000 0.000000 
#    y 0.000000 1.717370 0.000000 
#    z 0.000000 0.000000 1.692480 
# 
# From -- ./inp_files/12033.got.cif
#   From: 2010.03.12/outbox.cif.g09.slc.cpg/sg62_7_cif.got.tgz:12033.got - 2010.04.10 19:12:36.
