data_PCOD8251871
_publ_section_title
;
Structure prediction by ZEFSAII (Michael W. Deem and Ramdas Pophale) SiO2 
 PCOD8251871
Probable space group: P N M A
;
_chemical_formula_sum "Si O2"
_cell_formula_units_Z 56
_cell_length_a 21.368160
_cell_length_b 18.490885
_cell_length_c 7.341038
_cell_angle_alpha 90.000000
_cell_angle_beta 90.000000
_cell_angle_gamma 90.000000
_cell_volume 2900.562959
_symmetry_space_group_name_H-M "P N M A"
_symmetry_group_IT_number 62
_symmetry_cell_setting 'orthorhombic'
loop_
_space_group_symop_operation_xyz
x,y,z
1/2-x,-y,1/2+z
1/2+x,1/2-y,1/2-z
-x,1/2+y,-z
-x,-y,-z
1/2+x,y,1/2-z
1/2-x,1/2+y,1/2+z
x,1/2-y,z
loop_
_atom_site_type_symbol
_atom_site_label
_atom_site_fract_x
_atom_site_fract_y
_atom_site_fract_z
Si Si1 0.243330 0.334508 0.732100
Si Si2 0.023551 0.833213 0.433364
Si Si3 0.940027 0.959046 0.425441
Si Si4 0.118157 0.832645 0.112319
Si Si5 0.265678 0.412653 0.094048
Si Si6 0.190145 0.062084 0.448068
Si Si7 0.599104 0.595717 0.755549
O O1 0.228407 0.250000 0.719506
O O2 0.311392 0.354723 0.655710
O O3 0.194556 0.377214 0.605731
O O4 0.239231 0.358237 0.942181
O O5 0.003239 0.750000 0.443833
O O6 0.047710 0.860002 0.629390
O O7 0.962494 0.878767 0.368353
O O8 0.078924 0.847239 0.292555
O O9 0.883954 0.954647 0.574071
O O10 0.912843 0.008861 0.261642
O O11 0.000000 0.000000 0.500000
O O12 0.113419 0.750000 0.048096
O O13 0.091558 0.882561 0.953204
O O14 0.215392 0.410216 0.255892
O O15 0.332035 0.384517 0.170118
O O16 0.270315 0.492135 0.007727
#
# Coordination Sequence:
#
# PCOD8251871 Si02
#       7
#     8   8   8   8   8   8   8
#     4  11  23  37  58  95 128 153 195 249 308 371
#     4  10  20  37  58  80 119 161 197 245 294 350
#     4   9  22  40  59  86 114 157 207 243 285 349
#     4  10  20  33  57  90 118 151 195 244 302 357
#     4  11  21  37  62  89 122 155 193 246 310 367
#     4  11  22  39  63  89 121 158 196 245 306 365
#     4  10  19  35  59  89 114 148 199 251 297 350
#
# _framework density 19.306598000000001
#
# number of rings (size 3 to 8) (size 9 to 14) (size 15 to 20)
#    0.000    1.714    4.286    0.429    0.000    2.286 
#    0.000    2.857    0.000    0.000    0.000    0.000 
#    0.000    0.000    0.000    0.000    0.000    0.000 
#
# Total GULP energy -694422.189813 kJ/mol
# GULP energy per Si atom -12400.396247 kJ/mol
# Density = 1.926266 g / cm^3
# Si number density = 19.306598 Si / 1000 Ang^3
#
#
#
# Elastic Constant Matrix: (Units=GPa)
#
#
# Indices 1 2 3 4 5 6 
#
# 1 88.4726 31.4098 16.4902 0.0000 0.0000 0.0000
# 2 31.4098 103.5175 32.6091 0.0000 0.0000 0.0000
# 3 16.4902 32.6091 62.6676 0.0000 0.0000 0.0000
# 4 0.0000 0.0000 0.0000 33.9360 0.0000 0.0000
# 5 0.0000 0.0000 0.0000 0.0000 16.6086 0.0000
# 6 0.0000 0.0000 0.0000 0.0000 0.0000 31.5595
#
#
#
# Elastic Compliance Matrix: (Units=1/GPa)
#
#
# Indices 1 2 3 4 5 6 
#
# 1 0.012802 -0.003377 -0.001612 0.000000 0.000000 0.000000
# 2 -0.003377 0.012445 -0.005587 0.000000 0.000000 0.000000
# 3 -0.001612 -0.005587 0.019289 0.000000 0.000000 0.000000
# 4 0.000000 0.000000 0.000000 0.029467 0.000000 0.000000
# 5 0.000000 0.000000 0.000000 0.000000 0.060210 0.000000
# 6 0.000000 0.000000 0.000000 0.000000 0.000000 0.031686
#
#
# Mechanical properties :
#
#
# Convention : Reuss Voigt Hill
#
# Bulk Modulus (GPa) = 42.76343 46.18622 44.47482
# Shear Modulus (GPa) = 25.66148 28.03072 26.84610
#
# Velocity S-wave (km/s) = 3.64971 3.81448 3.73301
# Velocity P-wave (km/s) = 6.32126 6.58595 6.45496
#
# Compressibility (1/GPa) = 0.02338447
#
# Stress axis : x y z
#
# Youngs Moduli (GPa) = 78.11178 80.35480 51.84432
#
# Poissons Ratio (x) = 0.27134 0.08355
# Poissons Ratio (y) = 0.26377 0.28966
# Poissons Ratio (z) = 0.12588 0.44895
#
# Static dielectric constant tensor:
#      x y z
#    x 3.572830 0.000000 0.000000 
#    y 0.000000 3.791600 0.000000 
#    z 0.000000 0.000000 3.340540 
# 
# 
# High freq. dielectric constant tensor:
#      x y z
#    x 1.742160 0.000000 0.000000 
#    y 0.000000 1.758690 0.000000 
#    z 0.000000 0.000000 1.738860 
# 
# From -- ./inp_files/2817.got.cif
#   From: 2010.03.12/outbox.cif.g09.slc.cpg/sg62_2_cif.got.tgz:2817.got - 2010.04.10 19:12:36.
