data_PCOD8251603
_publ_section_title
;
Structure prediction by ZEFSAII (Michael W. Deem and Ramdas Pophale) SiO2 
 PCOD8251603
Probable space group: P N M A
;
_chemical_formula_sum "Si O2"
_cell_formula_units_Z 64
_cell_length_a 21.764650
_cell_length_b 9.427682
_cell_length_c 16.899850
_cell_angle_alpha 90.000000
_cell_angle_beta 90.000000
_cell_angle_gamma 90.000000
_cell_volume 3467.683585
_symmetry_space_group_name_H-M "P N M A"
_symmetry_group_IT_number 62
_symmetry_cell_setting 'orthorhombic'
loop_
_space_group_symop_operation_xyz
x,y,z
1/2-x,-y,1/2+z
1/2+x,1/2-y,1/2-z
-x,1/2+y,-z
-x,-y,-z
1/2+x,y,1/2-z
1/2-x,1/2+y,1/2+z
x,1/2-y,z
loop_
_atom_site_type_symbol
_atom_site_label
_atom_site_fract_x
_atom_site_fract_y
_atom_site_fract_z
Si Si1 0.566898 0.915586 0.173696
Si Si2 0.042368 0.581323 0.154613
Si Si3 0.097568 0.417394 0.859847
Si Si4 0.238286 0.916446 0.589029
Si Si5 0.626542 0.417238 0.463679
Si Si6 0.834071 0.909931 0.290858
Si Si7 0.946602 0.909897 0.409135
Si Si8 0.369865 0.085114 0.977435
O O1 0.553920 0.750000 0.183300
O O2 0.574034 0.973113 0.263178
O O3 0.506827 0.979173 0.130630
O O4 0.626580 0.946340 0.117715
O O5 0.048221 0.750000 0.141604
O O6 0.075413 0.502449 0.083395
O O7 0.971794 0.529294 0.154626
O O8 0.097389 0.250000 0.850123
O O9 0.145310 0.476233 0.793838
O O10 0.121673 0.464987 0.945331
O O11 0.232898 0.750000 0.604294
O O12 0.306771 0.962428 0.567481
O O13 0.194984 0.963493 0.514869
O O14 0.219025 0.994714 0.669802
O O15 0.614718 0.250000 0.454200
O O16 0.807975 0.750000 0.281885
O O17 0.893823 0.910802 0.344366
O O18 0.958751 0.750000 0.439527
O O19 0.927186 0.005212 0.483277
O O20 0.380533 0.250000 0.993613
#
# Coordination Sequence:
#
# PCOD8251603 Si02
#       8
#     8   8   8   8   8   8   8   8
#     4   9  16  28  47  72 103 130 159 203 252 297
#     4  10  19  34  55  79 104 130 166 217 263 301
#     4   9  17  33  57  80 102 131 170 212 258 307
#     4   9  19  35  50  68 102 138 168 205 250 296
#     4  10  21  37  53  72 102 138 171 209 258 307
#     4   9  16  30  54  79 100 129 170 209 246 297
#     4   9  15  26  46  71 101 131 158 199 253 298
#     4   9  17  29  46  69  96 131 168 202 242 296
#
# _framework density 18.456125
#
# number of rings (size 3 to 8) (size 9 to 14) (size 15 to 20)
#    0.000    2.750    1.250    0.750    0.000    0.500 
#    2.250    2.500    0.000    0.000    0.000    0.000 
#    0.000    0.000    0.000    0.000    0.000    0.000 
#
# Total GULP energy -793250.140492 kJ/mol
# GULP energy per Si atom -12394.533445 kJ/mol
# Density = 1.841412 g / cm^3
# Si number density = 18.456125 Si / 1000 Ang^3
#
#
#
# Elastic Constant Matrix: (Units=GPa)
#
#
# Indices 1 2 3 4 5 6 
#
# 1 80.0300 23.5940 57.7656 0.0000 0.0000 0.0000
# 2 23.5940 31.5899 35.3144 0.0000 0.0000 0.0000
# 3 57.7656 35.3144 149.8164 0.0000 0.0000 0.0000
# 4 0.0000 0.0000 0.0000 21.5121 0.0000 0.0000
# 5 0.0000 0.0000 0.0000 0.0000 23.4152 0.0000
# 6 0.0000 0.0000 0.0000 0.0000 0.0000 19.5654
#
#
#
# Elastic Compliance Matrix: (Units=1/GPa)
#
#
# Indices 1 2 3 4 5 6 
#
# 1 0.018699 -0.008019 -0.005320 0.000000 0.000000 0.000000
# 2 -0.008019 0.046421 -0.007850 0.000000 0.000000 0.000000
# 3 -0.005320 -0.007850 0.010576 0.000000 0.000000 0.000000
# 4 0.000000 0.000000 0.000000 0.046485 0.000000 0.000000
# 5 0.000000 0.000000 0.000000 0.000000 0.042707 0.000000
# 6 0.000000 0.000000 0.000000 0.000000 0.000000 0.051111
#
#
# Mechanical properties :
#
#
# Convention : Reuss Voigt Hill
#
# Bulk Modulus (GPa) = 30.01357 54.97604 42.49480
# Shear Modulus (GPa) = 18.55392 22.54934 20.55163
#
# Velocity S-wave (km/s) = 3.17408 3.49919 3.34059
# Velocity P-wave (km/s) = 5.45257 6.79543 6.16070
#
# Compressibility (1/GPa) = 0.03331826
#
# Stress axis : x y z
#
# Youngs Moduli (GPa) = 53.47794 21.54197 94.54988
#
# Poissons Ratio (x) = 0.17275 0.50298
# Poissons Ratio (y) = 0.42886 0.74224
# Poissons Ratio (z) = 0.28449 0.16911
#
# Static dielectric constant tensor:
#      x y z
#    x 3.323090 0.000000 0.000000 
#    y 0.000000 3.160190 0.000000 
#    z 0.000000 0.000000 3.669310 
# 
# 
# High freq. dielectric constant tensor:
#      x y z
#    x 1.705960 0.000000 0.000000 
#    y 0.000000 1.678410 0.000000 
#    z 0.000000 0.000000 1.725820 
# 
# From -- ./inp_files/24846.got.cif
#   From: 2010.03.12/outbox.cif.g09.slc.cpg/sg62_13_cif.got.tgz:24846.got - 2010.04.10 19:12:36.
