data_PCOD8251876
_publ_section_title
;
Structure prediction by ZEFSAII (Michael W. Deem and Ramdas Pophale) SiO2 
 PCOD8251876
Probable space group: P N M A
;
_chemical_formula_sum "Si O2"
_cell_formula_units_Z 56
_cell_length_a 15.307468
_cell_length_b 8.884487
_cell_length_c 21.162369
_cell_angle_alpha 90.000000
_cell_angle_beta 90.000000
_cell_angle_gamma 90.000000
_cell_volume 2878.061031
_symmetry_space_group_name_H-M "P N M A"
_symmetry_group_IT_number 62
_symmetry_cell_setting 'orthorhombic'
loop_
_space_group_symop_operation_xyz
x,y,z
1/2-x,-y,1/2+z
1/2+x,1/2-y,1/2-z
-x,1/2+y,-z
-x,-y,-z
1/2+x,y,1/2-z
1/2-x,1/2+y,1/2+z
x,1/2-y,z
loop_
_atom_site_type_symbol
_atom_site_label
_atom_site_fract_x
_atom_site_fract_y
_atom_site_fract_z
Si Si1 0.064705 0.927976 0.950618
Si Si2 0.003327 0.928705 0.814380
Si Si3 0.877241 0.070849 0.299694
Si Si4 0.811318 0.571682 0.837231
Si Si5 0.989815 0.915308 0.403261
Si Si6 0.784816 0.926671 0.980007
Si Si7 0.619646 0.415308 0.025205
O O1 0.056911 0.750000 0.954421
O O2 0.040413 0.986600 0.880934
O O3 0.160831 0.983100 0.967615
O O4 0.000000 0.000000 0.000000
O O5 0.004290 0.750000 0.811912
O O6 0.068001 0.991929 0.760197
O O7 0.902434 0.986622 0.805803
O O8 0.882794 0.250000 0.304125
O O9 0.774774 0.018616 0.297768
O O10 0.919149 0.002235 0.361928
O O11 0.812205 0.750000 0.839585
O O12 0.806712 0.513447 0.909577
O O13 0.010643 0.750000 0.373889
O O14 0.954203 0.890526 0.473265
O O15 0.077852 0.015437 0.410387
O O16 0.803166 0.750000 0.985686
O O17 0.686105 0.964029 0.996804
O O18 0.660751 0.250000 0.041147
#
# Coordination Sequence:
#
# PCOD8251876 Si02
#       7
#     8   8   8   8   8   8   8
#     4  11  21  36  57  84 114 146 190 241 295 349
#     4   9  19  36  56  82 113 146 193 244 285 342
#     4  10  19  35  60  82 108 152 198 237 284 345
#     4   9  17  32  56  82 107 143 188 233 285 340
#     4  10  20  34  54  81 116 148 183 236 289 337
#     4  11  20  34  57  83 114 147 184 237 295 346
#     4  10  20  34  54  82 113 149 192 233 277 339
#
# _framework density 19.457543999999999
#
# number of rings (size 3 to 8) (size 9 to 14) (size 15 to 20)
#    0.000    2.000    2.857    1.714    0.000    1.143 
#    2.571    1.429    0.000    0.000    0.000    0.000 
#    0.000    0.000    0.000    0.000    0.000    0.000 
#
# Total GULP energy -694058.400811 kJ/mol
# GULP energy per Si atom -12393.900014 kJ/mol
# Density = 1.941326 g / cm^3
# Si number density = 19.457544 Si / 1000 Ang^3
#
#
#
# Elastic Constant Matrix: (Units=GPa)
#
#
# Indices 1 2 3 4 5 6 
#
# 1 132.2053 23.6986 68.4066 0.0000 0.0000 0.0000
# 2 23.6986 54.5179 26.5246 0.0000 0.0000 0.0000
# 3 68.4066 26.5246 88.0534 0.0000 0.0000 0.0000
# 4 0.0000 0.0000 0.0000 19.2275 0.0000 0.0000
# 5 0.0000 0.0000 0.0000 0.0000 38.2138 0.0000
# 6 0.0000 0.0000 0.0000 0.0000 0.0000 27.6034
#
#
#
# Elastic Compliance Matrix: (Units=1/GPa)
#
#
# Indices 1 2 3 4 5 6 
#
# 1 0.012681 -0.000843 -0.009598 0.000000 0.000000 0.000000
# 2 -0.000843 0.021549 -0.005836 0.000000 0.000000 0.000000
# 3 -0.009598 -0.005836 0.020571 0.000000 0.000000 0.000000
# 4 0.000000 0.000000 0.000000 0.052009 0.000000 0.000000
# 5 0.000000 0.000000 0.000000 0.000000 0.026169 0.000000
# 6 0.000000 0.000000 0.000000 0.000000 0.000000 0.036227
#
#
# Mechanical properties :
#
#
# Convention : Reuss Voigt Hill
#
# Bulk Modulus (GPa) = 44.95012 56.89290 50.92151
# Shear Modulus (GPa) = 23.90336 27.41874 25.66105
#
# Velocity S-wave (km/s) = 3.50878 3.75795 3.63550
# Velocity P-wave (km/s) = 6.29025 6.93776 6.62192
#
# Compressibility (1/GPa) = 0.02224688
#
# Stress axis : x y z
#
# Youngs Moduli (GPa) = 78.85630 46.40692 48.61153
#
# Poissons Ratio (x) = 0.03911 0.46657
# Poissons Ratio (y) = 0.06646 0.28371
# Poissons Ratio (z) = 0.75686 0.27085
#
# Static dielectric constant tensor:
#      x y z
#    x 2.813960 0.000000 0.000000 
#    y 0.000000 3.540320 0.000000 
#    z 0.000000 0.000000 3.655790 
# 
# 
# High freq. dielectric constant tensor:
#      x y z
#    x 1.766530 0.000000 0.000000 
#    y 0.000000 1.736460 0.000000 
#    z 0.000000 0.000000 1.735860 
# 
# From -- ./inp_files/27196.got.cif
#   From: 2010.03.12/outbox.cif.g09.slc.cpg/sg62_14_cif.got.tgz:27196.got - 2010.04.10 19:12:36.
