data_PCOD8251703
_publ_section_title
;
Structure prediction by ZEFSAII (Michael W. Deem and Ramdas Pophale) SiO2 
 PCOD8251703
Probable space group: P N M A
;
_chemical_formula_sum "Si O2"
_cell_formula_units_Z 64
_cell_length_a 18.604483
_cell_length_b 9.386299
_cell_length_c 19.120030
_cell_angle_alpha 90.000000
_cell_angle_beta 90.000000
_cell_angle_gamma 90.000000
_cell_volume 3338.878071
_symmetry_space_group_name_H-M "P N M A"
_symmetry_group_IT_number 62
_symmetry_cell_setting 'orthorhombic'
loop_
_space_group_symop_operation_xyz
x,y,z
1/2-x,-y,1/2+z
1/2+x,1/2-y,1/2-z
-x,1/2+y,-z
-x,-y,-z
1/2+x,y,1/2-z
1/2-x,1/2+y,1/2+z
x,1/2-y,z
loop_
_atom_site_type_symbol
_atom_site_label
_atom_site_fract_x
_atom_site_fract_y
_atom_site_fract_z
Si Si1 0.865312 0.081225 0.677224
Si Si2 0.807822 0.083680 0.530333
Si Si3 0.473312 0.914388 0.205594
Si Si4 0.144188 0.088832 0.946683
Si Si5 0.940625 0.417740 0.160342
Si Si6 0.294235 0.082440 0.681920
Si Si7 0.347284 0.587221 0.103179
Si Si8 0.592114 0.087571 0.404318
O O1 0.862809 0.250000 0.673279
O O2 0.837953 0.019754 0.603304
O O3 0.812932 0.026841 0.739704
O O4 0.946510 0.028422 0.690720
O O5 0.825290 0.250000 0.523518
O O6 0.723496 0.052510 0.526302
O O7 0.846216 0.006900 0.466070
O O8 0.474493 0.750000 0.230574
O O9 0.425961 0.932105 0.136091
O O10 0.436857 0.011037 0.264190
O O11 0.141178 0.250000 0.916822
O O12 0.123913 0.980319 0.885675
O O13 0.090574 0.070606 0.012003
O O14 0.930042 0.250000 0.167548
O O15 0.015199 0.460662 0.124022
O O16 0.307447 0.250000 0.678312
O O17 0.212996 0.040858 0.660423
O O18 0.347518 0.012833 0.626840
O O19 0.333282 0.750000 0.081212
O O20 0.609567 0.250000 0.382900
#
# Coordination Sequence:
#
# PCOD8251703 Si02
#       8
#     8   8   8   8   8   8   8   8
#     4   9  19  36  59  85 109 145 193 232 275 332
#     4  10  21  38  61  84 112 149 192 236 278 333
#     4  10  21  39  60  81 111 151 192 231 279 340
#     4  10  21  36  56  81 114 155 189 223 277 343
#     4  11  23  36  54  84 118 146 185 237 281 331
#     4  10  19  34  58  83 109 144 186 231 277 329
#     4  10  22  37  58  86 115 147 188 235 281 332
#     4  10  20  36  56  82 114 148 185 225 279 338
#
# _framework density 19.168115
#
# number of rings (size 3 to 8) (size 9 to 14) (size 15 to 20)
#    0.000    2.000    2.500    0.750    1.750    2.500 
#    0.000    1.250    0.000    0.000    0.000    0.000 
#    0.000    0.000    0.000    0.000    0.000    0.000 
#
# Total GULP energy -793756.996973 kJ/mol
# GULP energy per Si atom -12402.453078 kJ/mol
# Density = 1.912449 g / cm^3
# Si number density = 19.168115 Si / 1000 Ang^3
#
#
#
# Elastic Constant Matrix: (Units=GPa)
#
#
# Indices 1 2 3 4 5 6 
#
# 1 45.1497 18.6592 33.4241 0.0000 0.0000 0.0000
# 2 18.6592 52.2513 40.4750 0.0000 0.0000 0.0000
# 3 33.4241 40.4750 121.2365 0.0000 0.0000 0.0000
# 4 0.0000 0.0000 0.0000 33.4639 0.0000 0.0000
# 5 0.0000 0.0000 0.0000 0.0000 34.9739 0.0000
# 6 0.0000 0.0000 0.0000 0.0000 0.0000 21.3221
#
#
#
# Elastic Compliance Matrix: (Units=1/GPa)
#
#
# Indices 1 2 3 4 5 6 
#
# 1 0.029000 -0.005615 -0.006121 0.000000 0.000000 0.000000
# 2 -0.005615 0.026901 -0.007433 0.000000 0.000000 0.000000
# 3 -0.006121 -0.007433 0.012417 0.000000 0.000000 0.000000
# 4 0.000000 0.000000 0.000000 0.029883 0.000000 0.000000
# 5 0.000000 0.000000 0.000000 0.000000 0.028593 0.000000
# 6 0.000000 0.000000 0.000000 0.000000 0.000000 0.046900
#
#
# Mechanical properties :
#
#
# Convention : Reuss Voigt Hill
#
# Bulk Modulus (GPa) = 33.35395 44.86157 39.10776
# Shear Modulus (GPa) = 22.52003 26.35727 24.43865
#
# Velocity S-wave (km/s) = 3.43135 3.71220 3.57454
# Velocity P-wave (km/s) = 5.75651 6.46753 6.12235
#
# Compressibility (1/GPa) = 0.02998146
#
# Stress axis : x y z
#
# Youngs Moduli (GPa) = 34.48268 37.17312 80.53313
#
# Poissons Ratio (x) = 0.20873 0.49291
# Poissons Ratio (y) = 0.19362 0.59860
# Poissons Ratio (z) = 0.21105 0.27631
#
# Static dielectric constant tensor:
#      x y z
#    x 3.573080 0.000000 0.000000 
#    y 0.000000 3.310300 0.000000 
#    z 0.000000 0.000000 3.540790 
# 
# 
# High freq. dielectric constant tensor:
#      x y z
#    x 1.747270 0.000000 0.000000 
#    y 0.000000 1.724760 0.000000 
#    z 0.000000 0.000000 1.750660 
# 
# From -- ./inp_files/24736.got.cif
#   From: 2010.03.12/outbox.cif.g09.slc.cpg/sg62_13_cif.got.tgz:24736.got - 2010.04.10 19:12:36.
