data_PCOD8251285
_publ_section_title
;
Structure prediction by ZEFSAII (Michael W. Deem and Ramdas Pophale) SiO2 
 PCOD8251285
Probable space group: P N M A
;
_chemical_formula_sum "Si O2"
_cell_formula_units_Z 56
_cell_length_a 22.064152
_cell_length_b 8.709378
_cell_length_c 14.479544
_cell_angle_alpha 90.000000
_cell_angle_beta 90.000000
_cell_angle_gamma 90.000000
_cell_volume 2782.462152
_symmetry_space_group_name_H-M "P N M A"
_symmetry_group_IT_number 62
_symmetry_cell_setting 'orthorhombic'
loop_
_space_group_symop_operation_xyz
x,y,z
1/2-x,-y,1/2+z
1/2+x,1/2-y,1/2-z
-x,1/2+y,-z
-x,-y,-z
1/2+x,y,1/2-z
1/2-x,1/2+y,1/2+z
x,1/2-y,z
loop_
_atom_site_type_symbol
_atom_site_label
_atom_site_fract_x
_atom_site_fract_y
_atom_site_fract_z
Si Si1 0.786414 0.570034 0.409065
Si Si2 0.715654 0.927581 0.099546
Si Si3 0.147003 0.928565 0.106360
Si Si4 0.106549 0.068172 0.720084
Si Si5 0.005375 0.568210 0.398702
Si Si6 0.885388 0.570978 0.710744
Si Si7 0.144047 0.428962 0.915506
O O1 0.792871 0.750000 0.431484
O O2 0.807424 0.475740 0.498505
O O3 0.717736 0.528910 0.381962
O O4 0.830530 0.515898 0.327124
O O5 0.700885 0.750000 0.117751
O O6 0.786396 0.962837 0.109048
O O7 0.681796 0.028100 0.176420
O O8 0.134910 0.750000 0.121492
O O9 0.108688 0.021219 0.182436
O O10 0.123253 0.976253 0.005088
O O11 0.104167 0.250000 0.719502
O O12 0.049173 0.001292 0.664709
O O13 0.105387 0.013080 0.826959
O O14 0.001321 0.750000 0.406438
O O15 0.000000 0.500000 0.500000
O O16 0.068102 0.521176 0.352709
O O17 0.898291 0.750000 0.700960
O O18 0.134119 0.250000 0.936672
#
# Coordination Sequence:
#
# PCOD8251285 Si02
#       7
#     8   8   8   8   8   8   8
#     4   9  17  32  55  84 117 148 178 218 274 337
#     4  10  19  32  54  84 115 145 180 226 277 332
#     4  10  20  35  56  84 115 145 181 227 276 330
#     4   9  18  34  57  80 106 144 183 220 269 329
#     4  11  23  40  61  85 112 144 184 229 277 332
#     4  12  24  38  56  78 109 151 194 234 278 326
#     4   9  18  35  57  83 114 145 178 220 275 336
#
# _framework density 20.126059999999999
#
# number of rings (size 3 to 8) (size 9 to 14) (size 15 to 20)
#    0.000    2.000    0.000    4.286    0.000    4.571 
#    0.000    3.571    0.000    0.000    0.000    0.000 
#    0.000    0.000    0.000    0.000    0.000    0.000 
#
# Total GULP energy -694519.559722 kJ/mol
# GULP energy per Si atom -12402.134995 kJ/mol
# Density = 2.008025 g / cm^3
# Si number density = 20.126060 Si / 1000 Ang^3
#
#
#
# Elastic Constant Matrix: (Units=GPa)
#
#
# Indices 1 2 3 4 5 6 
#
# 1 55.0485 23.5053 50.5966 0.0000 0.0000 0.0000
# 2 23.5053 56.5299 37.9482 0.0000 0.0000 0.0000
# 3 50.5966 37.9482 158.2089 0.0000 0.0000 0.0000
# 4 0.0000 0.0000 0.0000 36.5115 0.0000 0.0000
# 5 0.0000 0.0000 0.0000 0.0000 33.1012 0.0000
# 6 0.0000 0.0000 0.0000 0.0000 0.0000 20.3031
#
#
#
# Elastic Compliance Matrix: (Units=1/GPa)
#
#
# Indices 1 2 3 4 5 6 
#
# 1 0.027669 -0.006633 -0.007258 0.000000 0.000000 0.000000
# 2 -0.006633 0.022675 -0.003318 0.000000 0.000000 0.000000
# 3 -0.007258 -0.003318 0.009438 0.000000 0.000000 0.000000
# 4 0.000000 0.000000 0.000000 0.027389 0.000000 0.000000
# 5 0.000000 0.000000 0.000000 0.000000 0.030210 0.000000
# 6 0.000000 0.000000 0.000000 0.000000 0.000000 0.049254
#
#
# Mechanical properties :
#
#
# Convention : Reuss Voigt Hill
#
# Bulk Modulus (GPa) = 39.42443 54.87641 47.15042
# Shear Modulus (GPa) = 23.86581 28.49897 26.18239
#
# Velocity S-wave (km/s) = 3.44730 3.76709 3.61074
# Velocity P-wave (km/s) = 5.95621 6.80050 6.39231
#
# Compressibility (1/GPa) = 0.02536498
#
# Stress axis : x y z
#
# Youngs Moduli (GPa) = 36.14190 44.10200 105.95887
#
# Poissons Ratio (x) = 0.29251 0.76903
# Poissons Ratio (y) = 0.23972 0.35153
# Poissons Ratio (z) = 0.26231 0.14631
#
# Static dielectric constant tensor:
#      x y z
#    x 3.611210 0.000000 0.000000 
#    y 0.000000 3.491950 0.000000 
#    z 0.000000 0.000000 3.964880 
# 
# 
# High freq. dielectric constant tensor:
#      x y z
#    x 1.764970 0.000000 0.000000 
#    y 0.000000 1.770560 0.000000 
#    z 0.000000 0.000000 1.802650 
# 
# From -- ./inp_files/20194.got.cif
#   From: 2010.03.12/outbox.cif.g09.slc.cpg/sg62_11_cif.got.tgz:20194.got - 2010.04.10 19:12:36.
