data_PCOD8251445
_publ_section_title
;
Structure prediction by ZEFSAII (Michael W. Deem and Ramdas Pophale) SiO2 
 PCOD8251445
Probable space group: P N M A
;
_chemical_formula_sum "Si O2"
_cell_formula_units_Z 64
_cell_length_a 15.462120
_cell_length_b 8.571076
_cell_length_c 23.973949
_cell_angle_alpha 90.000000
_cell_angle_beta 90.000000
_cell_angle_gamma 90.000000
_cell_volume 3177.195674
_symmetry_space_group_name_H-M "P N M A"
_symmetry_group_IT_number 62
_symmetry_cell_setting 'orthorhombic'
loop_
_space_group_symop_operation_xyz
x,y,z
1/2-x,-y,1/2+z
1/2+x,1/2-y,1/2-z
-x,1/2+y,-z
-x,-y,-z
1/2+x,y,1/2-z
1/2-x,1/2+y,1/2+z
x,1/2-y,z
loop_
_atom_site_type_symbol
_atom_site_label
_atom_site_fract_x
_atom_site_fract_y
_atom_site_fract_z
Si Si1 0.414566 0.433980 0.106445
Si Si2 0.853281 0.930542 0.505081
Si Si3 0.100944 0.564491 0.881304
Si Si4 0.410736 0.933624 0.611839
Si Si5 0.747509 0.935685 0.822117
Si Si6 0.405545 0.067274 0.878290
Si Si7 0.754538 0.935727 0.695442
Si Si8 0.345689 0.069172 0.501992
O O1 0.407391 0.250000 0.098480
O O2 0.413206 0.513365 0.045587
O O3 0.336976 0.497894 0.145368
O O4 0.504698 0.479621 0.135111
O O5 0.871893 0.750000 0.518608
O O6 0.755117 0.959451 0.486620
O O7 0.872105 0.028287 0.560154
O O8 0.103874 0.750000 0.882736
O O9 0.168163 0.502653 0.835371
O O10 0.129660 0.500637 0.941644
O O11 0.004151 0.504357 0.866895
O O12 0.407626 0.750000 0.618095
O O13 0.333466 0.006954 0.648708
O O14 0.400579 0.975642 0.547193
O O15 0.748518 0.750000 0.823874
O O16 0.746324 0.994749 0.758729
O O17 0.420662 0.250000 0.872973
O O18 0.338078 0.011975 0.832028
O O19 0.763612 0.750000 0.690950
O O20 0.369952 0.250000 0.506715
#
# Coordination Sequence:
#
# PCOD8251445 Si02
#       8
#     8   8   8   8   8   8   8   8
#     4  11  22  39  61  90 122 155 194 242 295 354
#     4  11  21  37  61  87 117 156 195 241 295 354
#     4   9  18  33  56  82 112 147 186 231 284 340
#     4  10  19  34  56  86 116 145 185 238 287 341
#     4   9  20  36  60  89 114 148 196 241 287 338
#     4  12  25  40  59  88 119 155 197 244 297 352
#     4  10  20  40  62  83 114 154 197 243 289 344
#     4  10  19  33  54  83 113 151 188 224 287 350
#
# _framework density 20.143550000000001
#
# number of rings (size 3 to 8) (size 9 to 14) (size 15 to 20)
#    0.000    1.750    2.500    2.625    0.000    1.500 
#    0.000    6.250    0.000    0.000    0.000    0.000 
#    0.000    0.000    0.000    0.000    0.000    0.000 
#
# Total GULP energy -793743.828241 kJ/mol
# GULP energy per Si atom -12402.247316 kJ/mol
# Density = 2.009770 g / cm^3
# Si number density = 20.143550 Si / 1000 Ang^3
#
#
#
# Elastic Constant Matrix: (Units=GPa)
#
#
# Indices 1 2 3 4 5 6 
#
# 1 129.8587 21.1661 52.3802 0.0000 0.0000 0.0000
# 2 21.1661 28.4839 10.4451 0.0000 0.0000 0.0000
# 3 52.3802 10.4451 136.8966 0.0000 0.0000 0.0000
# 4 0.0000 0.0000 0.0000 25.1178 0.0000 0.0000
# 5 0.0000 0.0000 0.0000 0.0000 18.6648 0.0000
# 6 0.0000 0.0000 0.0000 0.0000 0.0000 20.0378
#
#
#
# Elastic Compliance Matrix: (Units=1/GPa)
#
#
# Indices 1 2 3 4 5 6 
#
# 1 0.010084 -0.006253 -0.003381 0.000000 0.000000 0.000000
# 2 -0.006253 0.039996 -0.000659 0.000000 0.000000 0.000000
# 3 -0.003381 -0.000659 0.008649 0.000000 0.000000 0.000000
# 4 0.000000 0.000000 0.000000 0.039812 0.000000 0.000000
# 5 0.000000 0.000000 0.000000 0.000000 0.053577 0.000000
# 6 0.000000 0.000000 0.000000 0.000000 0.000000 0.049906
#
#
# Mechanical properties :
#
#
# Convention : Reuss Voigt Hill
#
# Bulk Modulus (GPa) = 26.21810 51.46909 38.84360
# Shear Modulus (GPa) = 21.24729 26.84727 24.04728
#
# Velocity S-wave (km/s) = 3.25128 3.65471 3.45888
# Velocity P-wave (km/s) = 5.20945 6.58907 5.93945
#
# Compressibility (1/GPa) = 0.03814159
#
# Stress axis : x y z
#
# Youngs Moduli (GPa) = 99.16930 25.00257 115.62300
#
# Poissons Ratio (x) = 0.15635 0.39094
# Poissons Ratio (y) = 0.62013 0.07619
# Poissons Ratio (z) = 0.33531 0.01648
#
# Static dielectric constant tensor:
#      x y z
#    x 4.030340 0.000000 0.000000 
#    y 0.000000 3.292870 0.000000 
#    z 0.000000 0.000000 3.676440 
# 
# 
# High freq. dielectric constant tensor:
#      x y z
#    x 1.806320 0.000000 0.000000 
#    y 0.000000 1.753830 0.000000 
#    z 0.000000 0.000000 1.782910 
# 
# From -- ./inp_files/29722.got.cif
#   From: 2010.03.12/outbox.cif.g09.slc.cpg/sg62_15_cif.got.tgz:29722.got - 2010.04.10 19:12:36.
