data_PCOD8251735
_publ_section_title
;
Structure prediction by ZEFSAII (Michael W. Deem and Ramdas Pophale) SiO2 
 PCOD8251735
Probable space group: P N M A
;
_chemical_formula_sum "Si O2"
_cell_formula_units_Z 56
_cell_length_a 14.032940
_cell_length_b 12.262822
_cell_length_c 13.163522
_cell_angle_alpha 90.000000
_cell_angle_beta 90.000000
_cell_angle_gamma 90.000000
_cell_volume 2265.224219
_symmetry_space_group_name_H-M "P N M A"
_symmetry_group_IT_number 62
_symmetry_cell_setting 'orthorhombic'
loop_
_space_group_symop_operation_xyz
x,y,z
1/2-x,-y,1/2+z
1/2+x,1/2-y,1/2-z
-x,1/2+y,-z
-x,-y,-z
1/2+x,y,1/2-z
1/2-x,1/2+y,1/2+z
x,1/2-y,z
loop_
_atom_site_type_symbol
_atom_site_label
_atom_site_fract_x
_atom_site_fract_y
_atom_site_fract_z
Si Si1 0.589472 0.119581 0.856477
Si Si2 0.928068 0.621899 0.943014
Si Si3 0.794111 0.060827 0.910400
Si Si4 0.253873 0.872271 0.873023
Si Si5 0.571566 0.880526 0.732971
Si Si6 0.487094 0.126205 0.657670
Si Si7 0.457847 0.880176 0.923537
O O1 0.597324 0.250000 0.854786
O O2 0.693427 0.066555 0.855159
O O3 0.538266 0.068660 0.755637
O O4 0.529592 0.082434 0.958000
O O5 0.911369 0.750000 0.935934
O O6 0.824766 0.564690 0.932857
O O7 0.992634 0.576054 0.848996
O O8 0.976617 0.584688 0.048243
O O9 0.873081 0.115388 0.837338
O O10 0.791538 0.128384 0.014831
O O11 0.269658 0.750000 0.835364
O O12 0.177260 0.926442 0.795533
O O13 0.358215 0.929620 0.877064
O O14 0.570099 0.750000 0.720714
O O15 0.545745 0.914458 0.850214
O O16 0.517884 0.250000 0.671578
O O17 0.447446 0.750000 0.923964
#
# Coordination Sequence:
#
# PCOD8251735 Si02
#       7
#     8   8   8   8   8   8   8
#     4   9  19  35  57  86 114 149 191 230 282 347
#     4  10  21  35  54  85 114 143 185 241 294 326
#     4  11  19  34  57  85 111 150 193 236 275 344
#     4   9  16  28  52  82 105 136 183 228 275 333
#     4   9  16  29  49  74 107 139 176 227 276 322
#     4  10  19  34  59  87 119 146 183 243 295 337
#     4   8  15  29  50  75 106 143 182 219 266 333
#
# _framework density 24.721613000000001
#
# number of rings (size 3 to 8) (size 9 to 14) (size 15 to 20)
#    0.000    2.571    1.429    2.571    0.000    0.000 
#    5.143    0.000    3.143    1.714    0.000    0.000 
#    0.000    0.000    0.000    0.000    0.000    0.000 
#
# Total GULP energy -694293.325510 kJ/mol
# GULP energy per Si atom -12398.095098 kJ/mol
# Density = 2.466535 g / cm^3
# Si number density = 24.721613 Si / 1000 Ang^3
#
#
#
# Elastic Constant Matrix: (Units=GPa)
#
#
# Indices 1 2 3 4 5 6 
#
# 1 141.4254 8.6258 104.1117 0.0000 0.0000 0.0000
# 2 8.6258 57.8996 46.0463 0.0000 0.0000 0.0000
# 3 104.1117 46.0463 192.3056 0.0000 0.0000 0.0000
# 4 0.0000 0.0000 0.0000 45.1975 0.0000 0.0000
# 5 0.0000 0.0000 0.0000 0.0000 47.9903 0.0000
# 6 0.0000 0.0000 0.0000 0.0000 0.0000 21.4653
#
#
#
# Elastic Compliance Matrix: (Units=1/GPa)
#
#
# Indices 1 2 3 4 5 6 
#
# 1 0.012596 0.004381 -0.007868 0.000000 0.000000 0.000000
# 2 0.004381 0.022857 -0.007845 0.000000 0.000000 0.000000
# 3 -0.007868 -0.007845 0.011338 0.000000 0.000000 0.000000
# 4 0.000000 0.000000 0.000000 0.022125 0.000000 0.000000
# 5 0.000000 0.000000 0.000000 0.000000 0.020838 0.000000
# 6 0.000000 0.000000 0.000000 0.000000 0.000000 0.046587
#
#
# Mechanical properties :
#
#
# Convention : Reuss Voigt Hill
#
# Bulk Modulus (GPa) = 41.44685 78.79981 60.12333
# Shear Modulus (GPa) = 29.93152 38.45374 34.19263
#
# Velocity S-wave (km/s) = 3.48335 3.94822 3.72305
# Velocity P-wave (km/s) = 5.74283 7.26145 6.54633
#
# Compressibility (1/GPa) = 0.02412729
#
# Stress axis : x y z
#
# Youngs Moduli (GPa) = 79.39045 43.74942 88.19717
#
# Poissons Ratio (x) = -0.19166 0.69396
# Poissons Ratio (y) = -0.34780 0.69189
# Poissons Ratio (z) = 0.62467 0.34321
#
# Static dielectric constant tensor:
#      x y z
#    x 4.353460 0.000000 0.000000 
#    y 0.000000 4.564710 0.000000 
#    z 0.000000 0.000000 4.736710 
# 
# 
# High freq. dielectric constant tensor:
#      x y z
#    x 1.965160 0.000000 0.000000 
#    y 0.000000 2.018920 0.000000 
#    z 0.000000 0.000000 1.992800 
# 
# From -- ./inp_files/13394.got.cif
#   From: 2010.03.12/outbox.cif.g09.slc.cpg/sg62_7_cif.got.tgz:13394.got - 2010.04.10 19:12:36.
