data_PCOD8251702
_publ_section_title
;
Structure prediction by ZEFSAII (Michael W. Deem and Ramdas Pophale) SiO2 
 PCOD8251702
Probable space group: P N M A
;
_chemical_formula_sum "Si O2"
_cell_formula_units_Z 64
_cell_length_a 28.455117
_cell_length_b 9.194674
_cell_length_c 12.749007
_cell_angle_alpha 90.000000
_cell_angle_beta 90.000000
_cell_angle_gamma 90.000000
_cell_volume 3335.593133
_symmetry_space_group_name_H-M "P N M A"
_symmetry_group_IT_number 62
_symmetry_cell_setting 'orthorhombic'
loop_
_space_group_symop_operation_xyz
x,y,z
1/2-x,-y,1/2+z
1/2+x,1/2-y,1/2-z
-x,1/2+y,-z
-x,-y,-z
1/2+x,y,1/2-z
1/2-x,1/2+y,1/2+z
x,1/2-y,z
loop_
_atom_site_type_symbol
_atom_site_label
_atom_site_fract_x
_atom_site_fract_y
_atom_site_fract_z
Si Si1 0.601201 0.080318 0.114093
Si Si2 0.796882 0.920135 0.544374
Si Si3 0.888807 0.580526 0.042733
Si Si4 0.429713 0.084623 0.081389
Si Si5 0.944743 0.919518 0.834633
Si Si6 0.463176 0.577801 0.280577
Si Si7 0.696757 0.578393 0.622087
Si Si8 0.677156 0.586960 0.851550
O O1 0.595983 0.250000 0.087101
O O2 0.655726 0.029688 0.104529
O O3 0.585621 0.044119 0.231538
O O4 0.568000 0.993364 0.032137
O O5 0.797514 0.750000 0.527434
O O6 0.750529 0.970612 0.605623
O O7 0.792933 0.990457 0.430326
O O8 0.877726 0.750000 0.043589
O O9 0.919563 0.536275 0.144450
O O10 0.839166 0.497107 0.041858
O O11 0.915056 0.536023 0.936252
O O12 0.448748 0.250000 0.071432
O O13 0.376986 0.082166 0.120630
O O14 0.460341 0.998590 0.166926
O O15 0.959217 0.750000 0.837507
O O16 0.990671 0.018864 0.837930
O O17 0.466728 0.750000 0.264420
O O18 0.690224 0.750000 0.609930
O O19 0.683658 0.520753 0.736884
O O20 0.697296 0.750000 0.856290
#
# Coordination Sequence:
#
# PCOD8251702 Si02
#       8
#     8   8   8   8   8   8   8   8
#     4   9  19  37  57  79 111 149 186 230 280 334
#     4   9  19  34  54  80 109 142 180 224 276 331
#     4  10  22  38  57  83 113 147 189 232 278 335
#     4  10  19  34  58  83 108 143 186 232 277 329
#     4  10  22  39  58  81 112 151 189 227 281 339
#     4  11  22  36  57  85 113 146 187 234 285 333
#     4  10  20  35  56  83 111 144 185 228 280 332
#     4   9  18  33  53  77 106 141 180 225 274 324
#
# _framework density 19.186992
#
# number of rings (size 3 to 8) (size 9 to 14) (size 15 to 20)
#    0.000    2.250    1.250    1.125    0.000    4.500 
#    0.000    2.500    0.000    3.000    0.000    0.000 
#    0.000    0.000    0.000    0.000    0.000    0.000 
#
# Total GULP energy -793678.834951 kJ/mol
# GULP energy per Si atom -12401.231796 kJ/mol
# Density = 1.914332 g / cm^3
# Si number density = 19.186992 Si / 1000 Ang^3
#
#
#
# Elastic Constant Matrix: (Units=GPa)
#
#
# Indices 1 2 3 4 5 6 
#
# 1 57.6686 30.3831 22.4958 0.0000 0.0000 0.0000
# 2 30.3831 51.6102 30.6984 0.0000 0.0000 0.0000
# 3 22.4958 30.6984 87.8126 0.0000 0.0000 0.0000
# 4 0.0000 0.0000 0.0000 28.5409 0.0000 0.0000
# 5 0.0000 0.0000 0.0000 0.0000 22.7282 0.0000
# 6 0.0000 0.0000 0.0000 0.0000 0.0000 29.7183
#
#
#
# Elastic Compliance Matrix: (Units=1/GPa)
#
#
# Indices 1 2 3 4 5 6 
#
# 1 0.025316 -0.013946 -0.001610 0.000000 0.000000 0.000000
# 2 -0.013946 0.032145 -0.007665 0.000000 0.000000 0.000000
# 3 -0.001610 -0.007665 0.014480 0.000000 0.000000 0.000000
# 4 0.000000 0.000000 0.000000 0.035037 0.000000 0.000000
# 5 0.000000 0.000000 0.000000 0.000000 0.043998 0.000000
# 6 0.000000 0.000000 0.000000 0.000000 0.000000 0.033649
#
#
# Mechanical properties :
#
#
# Convention : Reuss Voigt Hill
#
# Bulk Modulus (GPa) = 39.21688 40.47177 39.84432
# Shear Modulus (GPa) = 20.87088 23.76508 22.31798
#
# Velocity S-wave (km/s) = 3.30170 3.52320 3.41425
# Velocity P-wave (km/s) = 5.91766 6.13919 6.02944
#
# Compressibility (1/GPa) = 0.02549923
#
# Stress axis : x y z
#
# Youngs Moduli (GPa) = 39.50060 31.10871 69.06095
#
# Poissons Ratio (x) = 0.43384 0.11119
# Poissons Ratio (y) = 0.55088 0.52935
# Poissons Ratio (z) = 0.06360 0.23845
#
# Static dielectric constant tensor:
#      x y z
#    x 3.520990 0.000000 0.000000 
#    y 0.000000 3.497990 0.000000 
#    z 0.000000 0.000000 3.614150 
# 
# 
# High freq. dielectric constant tensor:
#      x y z
#    x 1.743920 0.000000 0.000000 
#    y 0.000000 1.740330 0.000000 
#    z 0.000000 0.000000 1.751060 
# 
# From -- ./inp_files/15794.got.cif
#   From: 2010.03.12/outbox.cif.g09.slc.cpg/sg62_8_cif.got.tgz:15794.got - 2010.04.10 19:12:36.
