data_PCOD8251706
_publ_section_title
;
Structure prediction by ZEFSAII (Michael W. Deem and Ramdas Pophale) SiO2 
 PCOD8251706
Probable space group: P N M A
;
_chemical_formula_sum "Si O2"
_cell_formula_units_Z 64
_cell_length_a 20.467014
_cell_length_b 8.915938
_cell_length_c 18.040655
_cell_angle_alpha 90.000000
_cell_angle_beta 90.000000
_cell_angle_gamma 90.000000
_cell_volume 3292.106133
_symmetry_space_group_name_H-M "P N M A"
_symmetry_group_IT_number 62
_symmetry_cell_setting 'orthorhombic'
loop_
_space_group_symop_operation_xyz
x,y,z
1/2-x,-y,1/2+z
1/2+x,1/2-y,1/2-z
-x,1/2+y,-z
-x,-y,-z
1/2+x,y,1/2-z
1/2-x,1/2+y,1/2+z
x,1/2-y,z
loop_
_atom_site_type_symbol
_atom_site_label
_atom_site_fract_x
_atom_site_fract_y
_atom_site_fract_z
Si Si1 0.145432 0.418390 0.358984
Si Si2 0.631209 0.075117 0.692968
Si Si3 0.137806 0.578308 0.649571
Si Si4 0.494670 0.919465 0.837600
Si Si5 0.640923 0.421826 0.316613
Si Si6 0.243479 0.926753 0.080871
Si Si7 0.487164 0.421232 0.688513
Si Si8 0.763823 0.574716 0.071719
O O1 0.170040 0.250000 0.376551
O O2 0.145899 0.448044 0.271058
O O3 0.191123 0.534727 0.401157
O O4 0.070386 0.440858 0.387944
O O5 0.638966 0.250000 0.714282
O O6 0.559653 0.046017 0.655845
O O7 0.684567 0.023354 0.633499
O O8 0.642663 0.977071 0.765919
O O9 0.161761 0.750000 0.647757
O O10 0.063206 0.563654 0.618660
O O11 0.182824 0.482051 0.595251
O O12 0.491150 0.750000 0.802186
O O13 0.493705 0.046690 0.775548
O O14 0.650242 0.250000 0.339427
O O15 0.697726 0.518845 0.352797
O O16 0.569811 0.475982 0.346666
O O17 0.242976 0.750000 0.077877
O O18 0.217536 0.989964 0.003318
O O19 0.466313 0.250000 0.675935
O O20 0.767574 0.750000 0.056040
#
# Coordination Sequence:
#
# PCOD8251706 Si02
#       8
#     8   8   8   8   8   8   8   8
#     4   9  18  34  56  82 109 137 172 215 261 310
#     4   9  19  35  56  82 111 142 178 221 265 314
#     4  10  19  34  58  84 109 140 178 219 266 320
#     4   8  16  31  52  79 110 141 174 215 262 313
#     4  10  20  36  58  83 110 140 176 218 264 317
#     4  12  25  39  54  75 106 142 181 224 270 319
#     4   9  16  29  52  82 111 137 171 217 266 312
#     4  11  23  38  54  75 106 143 182 221 264 315
#
# _framework density 19.440442999999998
#
# number of rings (size 3 to 8) (size 9 to 14) (size 15 to 20)
#    0.000    2.250    0.000    4.125    0.000    6.500 
#    0.000    1.250    0.000    0.000    0.000    0.000 
#    0.000    0.000    0.000    0.000    0.000    0.000 
#
# Total GULP energy -793408.386441 kJ/mol
# GULP energy per Si atom -12397.006038 kJ/mol
# Density = 1.939620 g / cm^3
# Si number density = 19.440443 Si / 1000 Ang^3
#
#
#
# Elastic Constant Matrix: (Units=GPa)
#
#
# Indices 1 2 3 4 5 6 
#
# 1 90.4440 23.5052 6.0432 0.0000 0.0000 0.0000
# 2 23.5052 91.6287 18.0174 0.0000 0.0000 0.0000
# 3 6.0432 18.0174 30.8930 0.0000 0.0000 0.0000
# 4 0.0000 0.0000 0.0000 28.0205 0.0000 0.0000
# 5 0.0000 0.0000 0.0000 0.0000 5.4161 0.0000
# 6 0.0000 0.0000 0.0000 0.0000 0.0000 33.0359
#
#
#
# Elastic Compliance Matrix: (Units=1/GPa)
#
#
# Indices 1 2 3 4 5 6 
#
# 1 0.011857 -0.002920 -0.000616 0.000000 0.000000 0.000000
# 2 -0.002920 0.013047 -0.007038 0.000000 0.000000 0.000000
# 3 -0.000616 -0.007038 0.036595 0.000000 0.000000 0.000000
# 4 0.000000 0.000000 0.000000 0.035688 0.000000 0.000000
# 5 0.000000 0.000000 0.000000 0.000000 0.184633 0.000000
# 6 0.000000 0.000000 0.000000 0.000000 0.000000 0.030270
#
#
# Mechanical properties :
#
#
# Convention : Reuss Voigt Hill
#
# Bulk Modulus (GPa) = 24.78337 34.23303 29.50820
# Shear Modulus (GPa) = 14.42218 24.32118 19.37168
#
# Velocity S-wave (km/s) = 2.72667 3.54087 3.16010
# Velocity P-wave (km/s) = 4.76330 5.86212 5.34104
#
# Compressibility (1/GPa) = 0.04034964
#
# Stress axis : x y z
#
# Youngs Moduli (GPa) = 84.34044 76.64807 27.32621
#
# Poissons Ratio (x) = 0.22384 0.01684
# Poissons Ratio (y) = 0.24631 0.19232
# Poissons Ratio (z) = 0.05196 0.53943
#
# Static dielectric constant tensor:
#      x y z
#    x 4.008130 0.000000 0.000000 
#    y 0.000000 3.581380 0.000000 
#    z 0.000000 0.000000 3.107960 
# 
# 
# High freq. dielectric constant tensor:
#      x y z
#    x 1.779610 0.000000 0.000000 
#    y 0.000000 1.765030 0.000000 
#    z 0.000000 0.000000 1.707190 
# 
# From -- ./inp_files/24815.got.cif
#   From: 2010.03.12/outbox.cif.g09.slc.cpg/sg62_13_cif.got.tgz:24815.got - 2010.04.10 19:12:36.
