data_PCOD8251925
_publ_section_title
;
Structure prediction by ZEFSAII (Michael W. Deem and Ramdas Pophale) SiO2 
 PCOD8251925
Probable space group: P N M A
;
_chemical_formula_sum "Si O2"
_cell_formula_units_Z 56
_cell_length_a 11.324492
_cell_length_b 12.210280
_cell_length_c 21.200345
_cell_angle_alpha 90.000000
_cell_angle_beta 90.000000
_cell_angle_gamma 90.000000
_cell_volume 2931.482330
_symmetry_space_group_name_H-M "P N M A"
_symmetry_group_IT_number 62
_symmetry_cell_setting 'orthorhombic'
loop_
_space_group_symop_operation_xyz
x,y,z
1/2-x,-y,1/2+z
1/2+x,1/2-y,1/2-z
-x,1/2+y,-z
-x,-y,-z
1/2+x,y,1/2-z
1/2-x,1/2+y,1/2+z
x,1/2-y,z
loop_
_atom_site_type_symbol
_atom_site_label
_atom_site_fract_x
_atom_site_fract_y
_atom_site_fract_z
Si Si1 0.778155 0.131547 0.761923
Si Si2 0.390264 0.877855 0.040668
Si Si3 0.617380 0.505952 0.083533
Si Si4 0.466321 0.507800 0.688127
Si Si5 0.001927 0.874044 0.687242
Si Si6 0.778323 0.024228 0.360448
Si Si7 0.168913 0.374239 0.872075
O O1 0.767435 0.250000 0.793048
O O2 0.688765 0.054807 0.801031
O O3 0.747585 0.134902 0.689545
O O4 0.913310 0.092111 0.770710
O O5 0.359599 0.750000 0.048955
O O6 0.518913 0.902291 0.069558
O O7 0.294109 0.955474 0.075309
O O8 0.387506 0.908121 0.967088
O O9 0.594943 0.450243 0.152120
O O10 0.744119 0.566807 0.078194
O O11 0.517826 0.594443 0.738564
O O12 0.358872 0.562744 0.646522
O O13 0.559804 0.456356 0.639372
O O14 0.956831 0.750000 0.685078
O O15 0.126289 0.879034 0.648227
O O16 0.130979 0.250000 0.893532
#
# Coordination Sequence:
#
# PCOD8251925 Si02
#       7
#     8   8   8   8   8   8   8
#     4   9  17  30  51  78 111 140 171 218 276 329
#     4  10  20  36  60  79 106 149 188 238 285 319
#     4  10  21  38  53  85 113 140 194 238 270 334
#     4  10  19  36  51  83 113 141 183 222 277 344
#     4  11  21  36  55  76 111 153 187 230 281 329
#     4   9  20  35  53  82 109 136 190 233 269 335
#     4  11  20  33  56  84 116 146 176 226 284 333
#
# _framework density 19.102962999999999
#
# number of rings (size 3 to 8) (size 9 to 14) (size 15 to 20)
#    0.857    1.143    2.857    1.714    0.000    0.571 
#    0.000    2.143    0.000    0.000    0.000    0.000 
#    0.000    0.000    0.000    0.000    0.000    0.000 
#
# Total GULP energy -693795.823202 kJ/mol
# GULP energy per Si atom -12389.211129 kJ/mol
# Density = 1.905948 g / cm^3
# Si number density = 19.102963 Si / 1000 Ang^3
#
#
#
# Elastic Constant Matrix: (Units=GPa)
#
#
# Indices 1 2 3 4 5 6 
#
# 1 93.1196 17.9231 19.7548 0.0000 0.0000 0.0000
# 2 17.9231 75.1985 18.8694 0.0000 0.0000 0.0000
# 3 19.7548 18.8694 50.9922 0.0000 0.0000 0.0000
# 4 0.0000 0.0000 0.0000 15.9154 0.0000 0.0000
# 5 0.0000 0.0000 0.0000 0.0000 24.7674 0.0000
# 6 0.0000 0.0000 0.0000 0.0000 0.0000 12.7218
#
#
#
# Elastic Compliance Matrix: (Units=1/GPa)
#
#
# Indices 1 2 3 4 5 6 
#
# 1 0.011931 -0.001856 -0.003935 0.000000 0.000000 0.000000
# 2 -0.001856 0.014948 -0.004812 0.000000 0.000000 0.000000
# 3 -0.003935 -0.004812 0.022916 0.000000 0.000000 0.000000
# 4 0.000000 0.000000 0.000000 0.062832 0.000000 0.000000
# 5 0.000000 0.000000 0.000000 0.000000 0.040376 0.000000
# 6 0.000000 0.000000 0.000000 0.000000 0.000000 0.078605
#
#
# Mechanical properties :
#
#
# Convention : Reuss Voigt Hill
#
# Bulk Modulus (GPa) = 34.98018 36.93386 35.95702
# Shear Modulus (GPa) = 19.05885 21.53180 20.29532
#
# Velocity S-wave (km/s) = 3.16205 3.36094 3.26301
# Velocity P-wave (km/s) = 5.62873 5.86833 5.74978
#
# Compressibility (1/GPa) = 0.02858762
#
# Stress axis : x y z
#
# Youngs Moduli (GPa) = 83.81533 66.89809 43.63726
#
# Poissons Ratio (x) = 0.12418 0.17172
# Poissons Ratio (y) = 0.15558 0.21000
# Poissons Ratio (z) = 0.32984 0.32194
#
# Static dielectric constant tensor:
#      x y z
#    x 3.328930 0.000000 0.000000 
#    y 0.000000 3.369290 0.000000 
#    z 0.000000 0.000000 3.245200 
# 
# 
# High freq. dielectric constant tensor:
#      x y z
#    x 1.727640 0.000000 0.000000 
#    y 0.000000 1.730790 0.000000 
#    z 0.000000 0.000000 1.721280 
# 
# From -- ./inp_files/29392.got.cif
#   From: 2010.03.12/outbox.cif.g09.slc.cpg/sg62_15_cif.got.tgz:29392.got - 2010.04.10 19:12:36.
