data_PCOD8251578
_publ_section_title
;
Structure prediction by ZEFSAII (Michael W. Deem and Ramdas Pophale) SiO2 
 PCOD8251578
Probable space group: P N M A
;
_chemical_formula_sum "Si O2"
_cell_formula_units_Z 64
_cell_length_a 11.618669
_cell_length_b 13.567397
_cell_length_c 23.470306
_cell_angle_alpha 90.000000
_cell_angle_beta 90.000000
_cell_angle_gamma 90.000000
_cell_volume 3699.743914
_symmetry_space_group_name_H-M "P N M A"
_symmetry_group_IT_number 62
_symmetry_cell_setting 'orthorhombic'
loop_
_space_group_symop_operation_xyz
x,y,z
1/2-x,-y,1/2+z
1/2+x,1/2-y,1/2-z
-x,1/2+y,-z
-x,-y,-z
1/2+x,y,1/2-z
1/2-x,1/2+y,1/2+z
x,1/2-y,z
loop_
_atom_site_type_symbol
_atom_site_label
_atom_site_fract_x
_atom_site_fract_y
_atom_site_fract_z
Si Si1 0.661848 0.365112 0.843133
Si Si2 0.027111 0.950613 0.417038
Si Si3 0.416274 0.363879 0.037807
Si Si4 0.904839 0.457672 0.862104
Si Si5 0.079023 0.362739 0.779099
Si Si6 0.847407 0.862970 0.928904
Si Si7 0.060973 0.134596 0.950229
Si Si8 0.236900 0.862608 0.368918
O O1 0.682648 0.250000 0.845808
O O2 0.591463 0.400506 0.897887
O O3 0.784422 0.415377 0.842546
O O4 0.590704 0.394283 0.786399
O O5 0.073476 0.894089 0.472318
O O6 0.125917 0.934199 0.369628
O O7 0.003984 0.066963 0.426494
O O8 0.451822 0.250000 0.046754
O O9 0.286027 0.382687 0.057434
O O10 0.888966 0.574015 0.874558
O O11 0.993514 0.437838 0.810872
O O12 0.946742 0.411392 0.922216
O O13 0.032834 0.250000 0.785561
O O14 0.205807 0.370033 0.806782
O O15 0.867999 0.750000 0.912556
O O16 0.925540 0.892868 0.983536
O O17 0.050366 0.250000 0.941028
O O18 0.173533 0.098350 0.916218
O O19 0.197901 0.750000 0.381581
#
# Coordination Sequence:
#
# PCOD8251578 Si02
#       8
#     8   8   8   8   8   8   8   8
#     4  11  22  33  50  81 109 135 168 215 269 311
#     4  11  20  32  54  78 102 137 178 211 253 306
#     4  10  20  35  51  75 110 140 173 212 256 318
#     4  11  20  35  52  78 108 138 175 218 260 308
#     4   9  21  36  53  76 107 142 169 211 266 318
#     4  10  19  34  54  76 104 142 184 213 253 311
#     4   9  17  31  53  77 104 139 170 208 256 312
#     4   9  16  30  51  74 101 139 177 208 250 312
#
# _framework density 17.298494000000002
#
# number of rings (size 3 to 8) (size 9 to 14) (size 15 to 20)
#    0.000    2.000    2.500    3.375    1.750    0.000 
#    0.000    0.000    0.000    4.500    0.000    0.000 
#    0.000    0.000    0.000    0.000    0.000    0.000 
#
# Total GULP energy -793492.148398 kJ/mol
# GULP energy per Si atom -12398.314819 kJ/mol
# Density = 1.725912 g / cm^3
# Si number density = 17.298494 Si / 1000 Ang^3
#
#
#
# Elastic Constant Matrix: (Units=GPa)
#
#
# Indices 1 2 3 4 5 6 
#
# 1 57.3946 24.1175 24.8750 0.0000 0.0000 0.0000
# 2 24.1175 72.6347 47.8048 0.0000 0.0000 0.0000
# 3 24.8750 47.8048 48.9693 0.0000 0.0000 0.0000
# 4 0.0000 0.0000 0.0000 23.5277 0.0000 0.0000
# 5 0.0000 0.0000 0.0000 0.0000 24.9228 0.0000
# 6 0.0000 0.0000 0.0000 0.0000 0.0000 28.2429
#
#
#
# Elastic Compliance Matrix: (Units=1/GPa)
#
#
# Indices 1 2 3 4 5 6 
#
# 1 0.022343 0.000143 -0.011489 0.000000 0.000000 0.000000
# 2 0.000143 0.038512 -0.037669 0.000000 0.000000 0.000000
# 3 -0.011489 -0.037669 0.063030 0.000000 0.000000 0.000000
# 4 0.000000 0.000000 0.000000 0.042503 0.000000 0.000000
# 5 0.000000 0.000000 0.000000 0.000000 0.040124 0.000000
# 6 0.000000 0.000000 0.000000 0.000000 0.000000 0.035407
#
#
# Mechanical properties :
#
#
# Convention : Reuss Voigt Hill
#
# Bulk Modulus (GPa) = 38.67722 41.39925 40.03824
# Shear Modulus (GPa) = 14.34451 20.81877 17.58164
#
# Velocity S-wave (km/s) = 2.88277 3.47292 3.19151
# Velocity P-wave (km/s) = 5.78686 6.32975 6.06438
#
# Compressibility (1/GPa) = 0.02585501
#
# Stress axis : x y z
#
# Youngs Moduli (GPa) = 44.75774 25.96608 15.86552
#
# Poissons Ratio (x) = -0.00371 0.18228
# Poissons Ratio (y) = -0.00639 0.59763
# Poissons Ratio (z) = 0.51421 0.97810
#
# Static dielectric constant tensor:
#      x y z
#    x 3.282210 0.000000 0.000000 
#    y 0.000000 3.139660 0.000000 
#    z 0.000000 0.000000 3.203040 
# 
# 
# High freq. dielectric constant tensor:
#      x y z
#    x 1.671200 0.000000 0.000000 
#    y 0.000000 1.648460 0.000000 
#    z 0.000000 0.000000 1.657060 
# 
# From -- ./inp_files/29484.got.cif
#   From: 2010.03.12/outbox.cif.g09.slc.cpg/sg62_15_cif.got.tgz:29484.got - 2010.04.10 19:12:36.
