data_PCOD8251973
_publ_section_title
;
Structure prediction by ZEFSAII (Michael W. Deem and Ramdas Pophale) SiO2 
 PCOD8251973
Probable space group: P N M A
;
_chemical_formula_sum "Si O2"
_cell_formula_units_Z 40
_cell_length_a 11.291020
_cell_length_b 9.934668
_cell_length_c 13.962988
_cell_angle_alpha 90.000000
_cell_angle_beta 90.000000
_cell_angle_gamma 90.000000
_cell_volume 1566.263761
_symmetry_space_group_name_H-M "P N M A"
_symmetry_group_IT_number 62
_symmetry_cell_setting 'orthorhombic'
loop_
_space_group_symop_operation_xyz
x,y,z
1/2-x,-y,1/2+z
1/2+x,1/2-y,1/2-z
-x,1/2+y,-z
-x,-y,-z
1/2+x,y,1/2-z
1/2-x,1/2+y,1/2+z
x,1/2-y,z
loop_
_atom_site_type_symbol
_atom_site_label
_atom_site_fract_x
_atom_site_fract_y
_atom_site_fract_z
Si Si1 0.171963 0.895208 0.516414
Si Si2 0.599885 0.402254 0.661261
Si Si3 0.416813 0.903480 0.568738
Si Si4 0.995043 0.463277 0.644522
Si Si5 0.298133 0.603872 0.769776
O O1 0.174725 0.750000 0.568184
O O2 0.311304 0.931080 0.487312
O O3 0.091747 0.877236 0.422446
O O4 0.116498 0.003187 0.589434
O O5 0.630532 0.250000 0.626314
O O6 0.517734 0.477366 0.577379
O O7 0.521265 0.385091 0.757270
O O8 0.712288 0.489197 0.691522
O O9 0.470687 0.750000 0.564022
O O10 0.329020 0.917619 0.659038
O O11 0.921898 0.598428 0.671532
O O12 0.239920 0.750000 0.787788
#
# Coordination Sequence:
#
# PCOD8251973 Si02
#       5
#     8   8   8   8   8
#     4  10  19  36  59  85 116 149 187 231 286 343
#     4  11  22  36  56  85 118 150 187 237 289 337
#     4   9  19  36  58  81 109 149 194 235 275 337
#     4  10  21  36  56  88 117 149 185 235 288 339
#     4  10  20  36  59  83 112 152 195 234 274 338
#
# _framework density 25.538485000000001
#
# number of rings (size 3 to 8) (size 9 to 14) (size 15 to 20)
#    0.000    2.000    2.000    1.800    0.000    5.600 
#    0.000    3.000    0.000    0.000    0.000    0.000 
#    0.000    0.000    0.000    0.000    0.000    0.000 
#
# Total GULP energy -495679.173533 kJ/mol
# GULP energy per Si atom -12391.979338 kJ/mol
# Density = 2.548036 g / cm^3
# Si number density = 25.538485 Si / 1000 Ang^3
#
#
#
# Elastic Constant Matrix: (Units=GPa)
#
#
# Indices 1 2 3 4 5 6 
#
# 1 167.5392 91.0644 27.5640 0.0000 0.0000 0.0000
# 2 91.0644 185.8331 30.8688 0.0000 0.0000 0.0000
# 3 27.5640 30.8688 93.6714 0.0000 0.0000 0.0000
# 4 0.0000 0.0000 0.0000 13.7285 0.0000 0.0000
# 5 0.0000 0.0000 0.0000 0.0000 36.6118 0.0000
# 6 0.0000 0.0000 0.0000 0.0000 0.0000 39.9217
#
#
#
# Elastic Compliance Matrix: (Units=1/GPa)
#
#
# Indices 1 2 3 4 5 6 
#
# 1 0.008253 -0.003852 -0.001159 0.000000 0.000000 0.000000
# 2 -0.003852 0.007490 -0.001335 0.000000 0.000000 0.000000
# 3 -0.001159 -0.001335 0.011457 0.000000 0.000000 0.000000
# 4 0.000000 0.000000 0.000000 0.072841 0.000000 0.000000
# 5 0.000000 0.000000 0.000000 0.000000 0.027314 0.000000
# 6 0.000000 0.000000 0.000000 0.000000 0.000000 0.025049
#
#
# Mechanical properties :
#
#
# Convention : Reuss Voigt Hill
#
# Bulk Modulus (GPa) = 68.92653 82.89312 75.90982
# Shear Modulus (GPa) = 29.42353 37.88883 33.65618
#
# Velocity S-wave (km/s) = 3.39798 3.85593 3.63417
# Velocity P-wave (km/s) = 6.51482 7.23553 6.88461
#
# Compressibility (1/GPa) = 0.01450820
#
# Stress axis : x y z
#
# Youngs Moduli (GPa) = 121.16769 133.50449 87.28525
#
# Poissons Ratio (x) = 0.51422 0.10119
# Poissons Ratio (y) = 0.46670 0.11653
# Poissons Ratio (z) = 0.14046 0.17823
#
# Static dielectric constant tensor:
#      x y z
#    x 4.926220 0.000000 0.000000 
#    y 0.000000 4.279460 0.000000 
#    z 0.000000 0.000000 5.442180 
# 
# 
# High freq. dielectric constant tensor:
#      x y z
#    x 2.044110 0.000000 0.000000 
#    y 0.000000 1.995620 0.000000 
#    z 0.000000 0.000000 2.074780 
# 
# From -- ./inp_files/22777.got.cif
#   From: 2010.03.12/outbox.cif.g09.slc.cpg/sg62_12_cif.got.tgz:22777.got - 2010.04.10 19:12:36.
