data_PCOD8251690
_publ_section_title
;
Structure prediction by ZEFSAII (Michael W. Deem and Ramdas Pophale) SiO2 
 PCOD8251690
Probable space group: P N M A
;
_chemical_formula_sum "Si O2"
_cell_formula_units_Z 48
_cell_length_a 10.241255
_cell_length_b 8.674049
_cell_length_c 29.224568
_cell_angle_alpha 90.000000
_cell_angle_beta 90.000000
_cell_angle_gamma 90.000000
_cell_volume 2596.110365
_symmetry_space_group_name_H-M "P N M A"
_symmetry_group_IT_number 62
_symmetry_cell_setting 'orthorhombic'
loop_
_space_group_symop_operation_xyz
x,y,z
1/2-x,-y,1/2+z
1/2+x,1/2-y,1/2-z
-x,1/2+y,-z
-x,-y,-z
1/2+x,y,1/2-z
1/2-x,1/2+y,1/2+z
x,1/2-y,z
loop_
_atom_site_type_symbol
_atom_site_label
_atom_site_fract_x
_atom_site_fract_y
_atom_site_fract_z
Si Si1 0.992218 0.568150 0.216559
Si Si2 0.286437 0.933587 0.210282
Si Si3 0.486561 0.932725 0.385613
Si Si4 0.381709 0.069186 0.471834
Si Si5 0.732759 0.567635 0.886981
Si Si6 0.622725 0.432015 0.974460
O O1 0.980667 0.750000 0.218696
O O2 0.141240 0.517491 0.227141
O O3 0.951970 0.511347 0.165781
O O4 0.891403 0.499054 0.253523
O O5 0.294858 0.750000 0.204409
O O6 0.319302 0.010727 0.161974
O O7 0.488527 0.750000 0.389237
O O8 0.380282 0.001317 0.420347
O O9 0.629101 0.992110 0.399678
O O10 0.400537 0.250000 0.469313
O O11 0.247558 0.021601 0.495484
O O12 0.500000 0.000000 0.500000
O O13 0.746469 0.750000 0.887057
O O14 0.629890 0.512071 0.924903
O O15 0.609543 0.250000 0.968049
O O16 0.500000 0.500000 0.000000
#
# Coordination Sequence:
#
# PCOD8251690 Si02
#       6
#     8   8   8   8   8   8
#     4   8  16  31  54  78 106 138 179 226 272 326
#     4   9  17  34  56  79 106 141 182 227 274 328
#     4  10  19  34  57  85 113 144 188 235 276 327
#     4  11  22  36  59  86 114 147 187 231 279 333
#     4  11  21  35  57  82 111 149 189 227 279 338
#     4  11  24  41  59  82 115 151 189 233 283 337
#
# _framework density 18.489197999999998
#
# number of rings (size 3 to 8) (size 9 to 14) (size 15 to 20)
#    0.000    2.000    1.667    4.000    0.000    2.000 
#    3.000    4.167    0.000    0.000    0.000    0.000 
#    0.000    0.000    0.000    0.000    0.000    0.000 
#
# Total GULP energy -595238.148529 kJ/mol
# GULP energy per Si atom -12400.794761 kJ/mol
# Density = 1.844712 g / cm^3
# Si number density = 18.489198 Si / 1000 Ang^3
#
#
#
# Elastic Constant Matrix: (Units=GPa)
#
#
# Indices 1 2 3 4 5 6 
#
# 1 114.6344 39.8896 82.5207 0.0000 0.0000 0.0000
# 2 39.8896 64.6534 32.6784 0.0000 0.0000 0.0000
# 3 82.5207 32.6784 143.5428 0.0000 0.0000 0.0000
# 4 0.0000 0.0000 0.0000 31.2128 0.0000 0.0000
# 5 0.0000 0.0000 0.0000 0.0000 38.4780 0.0000
# 6 0.0000 0.0000 0.0000 0.0000 0.0000 23.5653
#
#
#
# Elastic Compliance Matrix: (Units=1/GPa)
#
#
# Indices 1 2 3 4 5 6 
#
# 1 0.016832 -0.006208 -0.008263 0.000000 0.000000 0.000000
# 2 -0.006208 0.019768 -0.000931 0.000000 0.000000 0.000000
# 3 -0.008263 -0.000931 0.011929 0.000000 0.000000 0.000000
# 4 0.000000 0.000000 0.000000 0.032038 0.000000 0.000000
# 5 0.000000 0.000000 0.000000 0.000000 0.025989 0.000000
# 6 0.000000 0.000000 0.000000 0.000000 0.000000 0.042435
#
#
# Mechanical properties :
#
#
# Convention : Reuss Voigt Hill
#
# Bulk Modulus (GPa) = 56.42183 70.33422 63.37802
# Shear Modulus (GPa) = 26.92443 29.83401 28.37922
#
# Velocity S-wave (km/s) = 3.82019 4.02131 3.92204
# Velocity P-wave (km/s) = 7.07395 7.72558 7.40694
#
# Compressibility (1/GPa) = 0.01772364
#
# Stress axis : x y z
#
# Youngs Moduli (GPa) = 59.41051 50.58617 83.83005
#
# Poissons Ratio (x) = 0.31406 0.69270
# Poissons Ratio (y) = 0.36885 0.07806
# Poissons Ratio (z) = 0.49092 0.04711
#
# Static dielectric constant tensor:
#      x y z
#    x 3.476160 0.000000 0.000000 
#    y 0.000000 3.263250 0.000000 
#    z 0.000000 0.000000 3.812070 
# 
# 
# High freq. dielectric constant tensor:
#      x y z
#    x 1.701210 0.000000 0.000000 
#    y 0.000000 1.710070 0.000000 
#    z 0.000000 0.000000 1.731800 
# 
# From -- ./inp_files/32003.got.cif
#   From: 2010.03.12/outbox.cif.g09.slc.cpg/sg62_17_cif.got.tgz:32003.got - 2010.04.10 19:12:36.
