data_PCOD8251243
_publ_section_title
;
Structure prediction by ZEFSAII (Michael W. Deem and Ramdas Pophale) SiO2 
 PCOD8251243
Probable space group: P N M A
;
_chemical_formula_sum "Si O2"
_cell_formula_units_Z 48
_cell_length_a 9.460528
_cell_length_b 7.868246
_cell_length_c 33.610422
_cell_angle_alpha 90.000000
_cell_angle_beta 90.000000
_cell_angle_gamma 90.000000
_cell_volume 2501.884580
_symmetry_space_group_name_H-M "P N M A"
_symmetry_group_IT_number 62
_symmetry_cell_setting 'orthorhombic'
loop_
_space_group_symop_operation_xyz
x,y,z
1/2-x,-y,1/2+z
1/2+x,1/2-y,1/2-z
-x,1/2+y,-z
-x,-y,-z
1/2+x,y,1/2-z
1/2-x,1/2+y,1/2+z
x,1/2-y,z
loop_
_atom_site_type_symbol
_atom_site_label
_atom_site_fract_x
_atom_site_fract_y
_atom_site_fract_z
Si Si1 0.160535 0.552359 0.496997
Si Si2 0.877453 0.939569 0.850500
Si Si3 0.201566 0.442673 0.579493
Si Si4 0.376772 0.449600 0.910698
Si Si5 0.802268 0.059847 0.161032
Si Si6 0.153835 0.750000 0.204077
Si Si7 0.824174 0.750000 0.216238
O O1 0.178543 0.750000 0.504337
O O2 0.245226 0.459839 0.532713
O O3 0.206915 0.503911 0.451869
O O4 0.000000 0.500000 0.500000
O O5 0.854502 0.750000 0.832557
O O6 0.042963 0.977739 0.856693
O O7 0.804380 0.945085 0.893539
O O8 0.812115 0.080232 0.821102
O O9 0.221476 0.250000 0.593016
O O10 0.040539 0.504074 0.585964
O O11 0.363853 0.250000 0.902281
O O12 0.308516 0.552086 0.874802
O O13 0.793199 0.250000 0.179684
O O14 0.767183 0.919341 0.194296
O O15 0.262808 0.750000 0.239922
O O16 0.993402 0.750000 0.219654
#
# Coordination Sequence:
#
# PCOD8251243 Si02
#       7
#     8   8   8   8   8   4   4
#     4   9  17  29  46  73 109 146 183 231 279 319
#     4  10  21  38  58  82 111 145 184 222 271 333
#     4  10  19  32  53  80 109 146 188 230 278 324
#     4   9  18  32  52  78 110 145 186 231 273 323
#     4  10  21  37  59  82 109 148 183 219 276 331
#     4  10  22  40  60  84 110 148 174 226 280 328
#     4  10  22  40  60  82 116 140 180 228 274 330
#
# _framework density 19.185537
#
# number of rings (size 3 to 8) (size 9 to 14) (size 15 to 20)
#    0.000    2.333    1.667    2.000    0.000    6.000 
#    0.000    0.833    0.000    0.000    0.000    0.000 
#    0.000    0.000    0.000    0.000    0.000    0.000 
#
# Total GULP energy -594976.328487 kJ/mol
# GULP energy per Si atom -12395.340177 kJ/mol
# Density = 1.914187 g / cm^3
# Si number density = 19.185537 Si / 1000 Ang^3
#
#
#
# Elastic Constant Matrix: (Units=GPa)
#
#
# Indices 1 2 3 4 5 6 
#
# 1 20.0108 7.5851 -2.2678 0.0000 0.0000 0.0000
# 2 7.5851 88.4614 12.9206 0.0000 0.0000 0.0000
# 3 -2.2678 12.9206 38.8937 0.0000 0.0000 0.0000
# 4 0.0000 0.0000 0.0000 27.2573 0.0000 0.0000
# 5 0.0000 0.0000 0.0000 0.0000 28.7903 0.0000
# 6 0.0000 0.0000 0.0000 0.0000 0.0000 21.5688
#
#
#
# Elastic Compliance Matrix: (Units=1/GPa)
#
#
# Indices 1 2 3 4 5 6 
#
# 1 0.052487 -0.005200 0.004788 0.000000 0.000000 0.000000
# 2 -0.005200 0.012396 -0.004421 0.000000 0.000000 0.000000
# 3 0.004788 -0.004421 0.027459 0.000000 0.000000 0.000000
# 4 0.000000 0.000000 0.000000 0.036687 0.000000 0.000000
# 5 0.000000 0.000000 0.000000 0.000000 0.034734 0.000000
# 6 0.000000 0.000000 0.000000 0.000000 0.000000 0.046363
#
#
# Mechanical properties :
#
#
# Convention : Reuss Voigt Hill
#
# Bulk Modulus (GPa) = 12.09552 20.42685 16.26119
# Shear Modulus (GPa) = 20.21421 24.13182 22.17301
#
# Velocity S-wave (km/s) = 3.24947 3.55041 3.40327
# Velocity P-wave (km/s) = 4.51629 5.24189 4.89256
#
# Compressibility (1/GPa) = 0.08267522
#
# Stress axis : x y z
#
# Youngs Moduli (GPa) = 19.05251 80.67140 36.41795
#
# Poissons Ratio (x) = 0.41947 -0.17436
# Poissons Ratio (y) = 0.09907 0.16101
# Poissons Ratio (z) = -0.09122 0.35666
#
# Static dielectric constant tensor:
#      x y z
#    x 3.215790 0.000000 0.000000 
#    y 0.000000 3.704490 0.000000 
#    z 0.000000 0.000000 3.556110 
# 
# 
# High freq. dielectric constant tensor:
#      x y z
#    x 1.713000 0.000000 0.000000 
#    y 0.000000 1.758990 0.000000 
#    z 0.000000 0.000000 1.741810 
# 
# From -- ./inp_files/32070.got.cif
#   From: 2010.03.12/outbox.cif.g09.slc.cpg/sg62_17_cif.got.tgz:32070.got - 2010.04.10 19:12:36.
