data_PCOD8251306
_publ_section_title
;
Structure prediction by ZEFSAII (Michael W. Deem and Ramdas Pophale) SiO2 
 PCOD8251306
Probable space group: P N M A
;
_chemical_formula_sum "Si O2"
_cell_formula_units_Z 48
_cell_length_a 28.005708
_cell_length_b 8.872402
_cell_length_c 10.349898
_cell_angle_alpha 90.000000
_cell_angle_beta 90.000000
_cell_angle_gamma 90.000000
_cell_volume 2571.720917
_symmetry_space_group_name_H-M "P N M A"
_symmetry_group_IT_number 62
_symmetry_cell_setting 'orthorhombic'
loop_
_space_group_symop_operation_xyz
x,y,z
1/2-x,-y,1/2+z
1/2+x,1/2-y,1/2-z
-x,1/2+y,-z
-x,-y,-z
1/2+x,y,1/2-z
1/2-x,1/2+y,1/2+z
x,1/2-y,z
loop_
_atom_site_type_symbol
_atom_site_label
_atom_site_fract_x
_atom_site_fract_y
_atom_site_fract_z
Si Si1 0.448069 0.421867 0.876635
Si Si2 0.054957 0.076115 0.643820
Si Si3 0.148256 0.575678 0.246766
Si Si4 0.856532 0.428265 0.249170
Si Si5 0.190382 0.427962 0.999123
Si Si6 0.798648 0.428501 0.495967
O O1 0.445904 0.250000 0.929437
O O2 0.500014 0.456341 0.816055
O O3 0.408471 0.446089 0.766537
O O4 0.436906 0.531119 0.995307
O O5 0.068379 0.250000 0.660511
O O6 0.088558 0.979241 0.737547
O O7 0.160860 0.750000 0.218045
O O8 0.175890 0.515897 0.373505
O O9 0.163195 0.471881 0.128868
O O10 0.854142 0.250000 0.240211
O O11 0.835221 0.495574 0.120127
O O12 0.826634 0.492360 0.371346
O O13 0.188989 0.250000 0.980793
O O14 0.244587 0.488683 0.006782
O O15 0.800380 0.250000 0.489957
#
# Coordination Sequence:
#
# PCOD8251306 Si02
#       6
#     8   8   8   8   8   8
#     4   9  18  34  57  82 111 144 183 226 275 332
#     4  10  19  32  55  87 113 138 179 234 279 320
#     4  10  19  37  59  80 108 148 185 219 270 334
#     4  11  21  38  59  81 111 152 187 221 275 339
#     4  11  23  37  53  82 116 145 182 234 277 319
#     4   9  19  36  59  81 108 144 188 229 270 323
#
# _framework density 18.664543999999999
#
# number of rings (size 3 to 8) (size 9 to 14) (size 15 to 20)
#    0.000    2.000    1.667    2.500    0.000    1.333 
#    0.000    4.167    0.000    0.000    0.000    0.000 
#    0.000    0.000    0.000    0.000    0.000    0.000 
#
# Total GULP energy -595318.322291 kJ/mol
# GULP energy per Si atom -12402.465048 kJ/mol
# Density = 1.862206 g / cm^3
# Si number density = 18.664544 Si / 1000 Ang^3
#
#
#
# Elastic Constant Matrix: (Units=GPa)
#
#
# Indices 1 2 3 4 5 6 
#
# 1 151.1811 42.7282 67.8885 0.0000 0.0000 0.0000
# 2 42.7282 61.7742 35.6554 0.0000 0.0000 0.0000
# 3 67.8885 35.6554 122.1477 0.0000 0.0000 0.0000
# 4 0.0000 0.0000 0.0000 23.9233 0.0000 0.0000
# 5 0.0000 0.0000 0.0000 0.0000 41.7942 0.0000
# 6 0.0000 0.0000 0.0000 0.0000 0.0000 26.9010
#
#
#
# Elastic Compliance Matrix: (Units=1/GPa)
#
#
# Indices 1 2 3 4 5 6 
#
# 1 0.009687 -0.004321 -0.004123 0.000000 0.000000 0.000000
# 2 -0.004321 0.021395 -0.003844 0.000000 0.000000 0.000000
# 3 -0.004123 -0.003844 0.011600 0.000000 0.000000 0.000000
# 4 0.000000 0.000000 0.000000 0.041800 0.000000 0.000000
# 5 0.000000 0.000000 0.000000 0.000000 0.023927 0.000000
# 6 0.000000 0.000000 0.000000 0.000000 0.000000 0.037173
#
#
# Mechanical properties :
#
#
# Convention : Reuss Voigt Hill
#
# Bulk Modulus (GPa) = 55.22510 69.73860 62.48185
# Shear Modulus (GPa) = 28.37783 31.11242 29.74513
#
# Velocity S-wave (km/s) = 3.90348 4.08723 3.99641
# Velocity P-wave (km/s) = 7.06885 7.72782 7.40567
#
# Compressibility (1/GPa) = 0.01810771
#
# Stress axis : x y z
#
# Youngs Moduli (GPa) = 103.23002 46.73929 86.20509
#
# Poissons Ratio (x) = 0.20195 0.35540
# Poissons Ratio (y) = 0.44604 0.33136
# Poissons Ratio (z) = 0.42559 0.17966
#
# Static dielectric constant tensor:
#      x y z
#    x 4.020520 0.000000 0.000000 
#    y 0.000000 3.315000 0.000000 
#    z 0.000000 0.000000 3.298190 
# 
# 
# High freq. dielectric constant tensor:
#      x y z
#    x 1.742430 0.000000 0.000000 
#    y 0.000000 1.714660 0.000000 
#    z 0.000000 0.000000 1.707080 
# 
# From -- ./inp_files/10269.got.cif
#   From: 2010.03.12/outbox.cif.g09.slc.cpg/sg62_6_cif.got.tgz:10269.got - 2010.04.10 19:12:36.
