data_PCOD8251327
_publ_section_title
;
Structure prediction by ZEFSAII (Michael W. Deem and Ramdas Pophale) SiO2 
 PCOD8251327
Probable space group: P N M A
;
_chemical_formula_sum "Si O2"
_cell_formula_units_Z 64
_cell_length_a 5.242598
_cell_length_b 21.430330
_cell_length_c 30.466165
_cell_angle_alpha 90.000000
_cell_angle_beta 90.000000
_cell_angle_gamma 90.000000
_cell_volume 3422.892076
_symmetry_space_group_name_H-M "P N M A"
_symmetry_group_IT_number 62
_symmetry_cell_setting 'orthorhombic'
loop_
_space_group_symop_operation_xyz
x,y,z
1/2-x,-y,1/2+z
1/2+x,1/2-y,1/2-z
-x,1/2+y,-z
-x,-y,-z
1/2+x,y,1/2-z
1/2-x,1/2+y,1/2+z
x,1/2-y,z
loop_
_atom_site_type_symbol
_atom_site_label
_atom_site_fract_x
_atom_site_fract_y
_atom_site_fract_z
Si Si1 0.012108 0.003275 0.572315
Si Si2 0.041937 0.649753 0.109554
Si Si3 0.963297 0.618729 0.267121
Si Si4 0.521612 0.103689 0.001162
Si Si5 0.031439 0.519843 0.770023
Si Si6 0.981440 0.825335 0.011675
Si Si7 0.495206 0.512219 0.370886
Si Si8 0.540749 0.684376 0.150286
O O1 0.974025 0.950069 0.536889
O O2 0.269399 0.987994 0.599478
O O3 0.773429 0.001097 0.605204
O O4 0.029248 0.070724 0.547413
O O5 0.984908 0.642810 0.058889
O O6 0.319887 0.680608 0.113757
O O7 0.036512 0.585303 0.136208
O O8 0.815465 0.691374 0.128553
O O9 0.695049 0.653446 0.257989
O O10 0.923790 0.548511 0.251045
O O11 0.021000 0.623651 0.318769
O O12 0.764086 0.148094 0.011262
O O13 0.274873 0.147098 0.009796
O O14 0.790809 0.554154 0.746656
O O15 0.006243 0.519991 0.822797
O O16 0.979526 0.750000 0.011692
O O17 0.499443 0.750000 0.176177
#
# Coordination Sequence:
#
# PCOD8251327 Si02
#       8
#     8   8   8   8   8   8   8   8
#     4  11  22  38  61  83 107 142 184 239 282 328
#     4  12  22  37  51  76 101 131 177 233 278 326
#     4  10  20  35  47  63  82 121 160 218 276 318
#     4  11  22  41  57  84 115 139 182 233 285 323
#     4  10  19  33  50  73 101 135 173 231 275 335
#     4  12  23  38  57  82 114 149 180 218 284 343
#     4  12  21  36  58  81 102 140 191 226 294 329
#     4  12  24  36  50  66  93 133 180 233 282 326
#
# _framework density 18.697638999999999
#
# number of rings (size 3 to 8) (size 9 to 14) (size 15 to 20)
#    0.000    0.750    2.500    8.250    0.000    2.500 
#    0.000    0.000    0.000    0.000    0.000    0.000 
#    0.000    0.000    0.000    0.000    0.000  157.500 
#
# Total GULP energy -793009.498417 kJ/mol
# GULP energy per Si atom -12390.773413 kJ/mol
# Density = 1.865508 g / cm^3
# Si number density = 18.697639 Si / 1000 Ang^3
#
#
#
# Elastic Constant Matrix: (Units=GPa)
#
#
# Indices 1 2 3 4 5 6 
#
# 1 129.4472 21.3033 13.2405 0.0000 0.0000 0.0000
# 2 21.3033 40.9734 2.5255 0.0000 0.0000 0.0000
# 3 13.2405 2.5255 40.0939 0.0000 0.0000 0.0000
# 4 0.0000 0.0000 0.0000 17.9482 0.0000 0.0000
# 5 0.0000 0.0000 0.0000 0.0000 29.8293 0.0000
# 6 0.0000 0.0000 0.0000 0.0000 0.0000 28.9363
#
#
#
# Elastic Compliance Matrix: (Units=1/GPa)
#
#
# Indices 1 2 3 4 5 6 
#
# 1 0.008710 -0.004368 -0.002601 0.000000 0.000000 0.000000
# 2 -0.004368 0.026692 -0.000239 0.000000 0.000000 0.000000
# 3 -0.002601 -0.000239 0.025815 0.000000 0.000000 0.000000
# 4 0.000000 0.000000 0.000000 0.055716 0.000000 0.000000
# 5 0.000000 0.000000 0.000000 0.000000 0.033524 0.000000
# 6 0.000000 0.000000 0.000000 0.000000 0.000000 0.034559
#
#
# Mechanical properties :
#
#
# Convention : Reuss Voigt Hill
#
# Bulk Modulus (GPa) = 21.36707 31.62813 26.49760
# Shear Modulus (GPa) = 23.25222 26.90578 25.07900
#
# Velocity S-wave (km/s) = 3.53028 3.79752 3.66634
# Velocity P-wave (km/s) = 5.29809 6.01502 5.66790
#
# Compressibility (1/GPa) = 0.04680099
#
# Stress axis : x y z
#
# Youngs Moduli (GPa) = 114.80883 37.46438 38.73642
#
# Poissons Ratio (x) = 0.16366 0.10076
# Poissons Ratio (y) = 0.50152 0.00925
# Poissons Ratio (z) = 0.29865 0.00894
#
# Static dielectric constant tensor:
#      x y z
#    x 4.528990 0.000000 0.000000 
#    y 0.000000 2.957710 0.000000 
#    z 0.000000 0.000000 3.296280 
# 
# 
# High freq. dielectric constant tensor:
#      x y z
#    x 1.769840 0.000000 0.000000 
#    y 0.000000 1.661160 0.000000 
#    z 0.000000 0.000000 1.708980 
# 
# From -- ./inp_files/30545.got.cif
#   From: 2010.03.12/outbox.cif.g09.slc.cpg/sg62_16_cif.got.tgz:30545.got - 2010.04.10 19:12:36.
