data_PCOD8251983
_publ_section_title
;
Structure prediction by ZEFSAII (Michael W. Deem and Ramdas Pophale) SiO2 
 PCOD8251983
Probable space group: P N M A
;
_chemical_formula_sum "Si O2"
_cell_formula_units_Z 56
_cell_length_a 21.782707
_cell_length_b 9.157563
_cell_length_c 14.586429
_cell_angle_alpha 90.000000
_cell_angle_beta 90.000000
_cell_angle_gamma 90.000000
_cell_volume 2909.649975
_symmetry_space_group_name_H-M "P N M A"
_symmetry_group_IT_number 62
_symmetry_cell_setting 'orthorhombic'
loop_
_space_group_symop_operation_xyz
x,y,z
1/2-x,-y,1/2+z
1/2+x,1/2-y,1/2-z
-x,1/2+y,-z
-x,-y,-z
1/2+x,y,1/2-z
1/2-x,1/2+y,1/2+z
x,1/2-y,z
loop_
_atom_site_type_symbol
_atom_site_label
_atom_site_fract_x
_atom_site_fract_y
_atom_site_fract_z
Si Si1 0.387756 0.418815 0.097418
Si Si2 0.775772 0.922336 0.683426
Si Si3 0.513550 0.421439 0.782361
Si Si4 0.039007 0.079001 0.923431
Si Si5 0.250505 0.421581 0.113340
Si Si6 0.179775 0.076862 0.936230
Si Si7 0.893411 0.418548 0.611402
O O1 0.388625 0.250000 0.126323
O O2 0.430160 0.503649 0.167465
O O3 0.319226 0.485901 0.105403
O O4 0.412410 0.440004 0.994208
O O5 0.771755 0.750000 0.667839
O O6 0.780723 0.963357 0.790586
O O7 0.714145 0.996445 0.646246
O O8 0.834683 0.983825 0.631916
O O9 0.522513 0.250000 0.795345
O O10 0.513338 0.466548 0.676005
O O11 0.449455 0.473698 0.826061
O O12 0.032622 0.250000 0.940034
O O13 0.109285 0.029079 0.932218
O O14 0.000000 0.000000 0.000000
O O15 0.256117 0.250000 0.100823
O O16 0.207699 0.482202 0.032035
O O17 0.187761 0.250000 0.924017
O O18 0.876631 0.250000 0.631324
#
# Coordination Sequence:
#
# PCOD8251983 Si02
#       7
#     8   8   8   8   8   8   8
#     4  10  19  36  60  83 109 152 193 228 286 352
#     4  11  22  35  57  89 116 143 191 248 283 328
#     4  10  22  38  56  85 119 150 192 244 288 336
#     4  10  23  40  61  86 117 156 197 240 286 342
#     4   9  19  35  56  81 112 146 187 231 279 344
#     4  10  20  40  62  80 114 160 191 226 292 354
#     4  10  21  38  58  80 117 158 187 229 292 351
#
# _framework density 19.246302
#
# number of rings (size 3 to 8) (size 9 to 14) (size 15 to 20)
#    0.000    2.000    1.429    1.714    2.000    2.286 
#    0.000    2.143    0.000    0.000    0.000    0.000 
#    0.000    0.000    0.000    0.000    0.000    0.000 
#
# Total GULP energy -694581.704789 kJ/mol
# GULP energy per Si atom -12403.244728 kJ/mol
# Density = 1.920250 g / cm^3
# Si number density = 19.246302 Si / 1000 Ang^3
#
#
#
# Elastic Constant Matrix: (Units=GPa)
#
#
# Indices 1 2 3 4 5 6 
#
# 1 103.8379 29.7566 32.9888 0.0000 0.0000 0.0000
# 2 29.7566 39.8276 26.8036 0.0000 0.0000 0.0000
# 3 32.9888 26.8036 87.6156 0.0000 0.0000 0.0000
# 4 0.0000 0.0000 0.0000 24.6217 0.0000 0.0000
# 5 0.0000 0.0000 0.0000 0.0000 36.3801 0.0000
# 6 0.0000 0.0000 0.0000 0.0000 0.0000 31.6166
#
#
#
# Elastic Compliance Matrix: (Units=1/GPa)
#
#
# Indices 1 2 3 4 5 6 
#
# 1 0.012628 -0.007851 -0.002353 0.000000 0.000000 0.000000
# 2 -0.007851 0.036499 -0.008210 0.000000 0.000000 0.000000
# 3 -0.002353 -0.008210 0.014811 0.000000 0.000000 0.000000
# 4 0.000000 0.000000 0.000000 0.040615 0.000000 0.000000
# 5 0.000000 0.000000 0.000000 0.000000 0.027488 0.000000
# 6 0.000000 0.000000 0.000000 0.000000 0.000000 0.031629
#
#
# Mechanical properties :
#
#
# Convention : Reuss Voigt Hill
#
# Bulk Modulus (GPa) = 36.88624 45.59767 41.24195
# Shear Modulus (GPa) = 23.86252 27.97247 25.91749
#
# Velocity S-wave (km/s) = 3.52497 3.81648 3.67362
# Velocity P-wave (km/s) = 5.98115 6.56991 6.28243
#
# Compressibility (1/GPa) = 0.02711038
#
# Stress axis : x y z
#
# Youngs Moduli (GPa) = 79.19057 27.39773 67.51787
#
# Poissons Ratio (x) = 0.21511 0.15885
# Poissons Ratio (y) = 0.62175 0.55431
# Poissons Ratio (z) = 0.18631 0.22493
#
# Static dielectric constant tensor:
#      x y z
#    x 3.629230 0.000000 0.000000 
#    y 0.000000 3.286240 0.000000 
#    z 0.000000 0.000000 3.737090 
# 
# 
# High freq. dielectric constant tensor:
#      x y z
#    x 1.757730 0.000000 0.000000 
#    y 0.000000 1.726360 0.000000 
#    z 0.000000 0.000000 1.764030 
# 
# From -- ./inp_files/20393.got.cif
#   From: 2010.03.12/outbox.cif.g09.slc.cpg/sg62_11_cif.got.tgz:20393.got - 2010.04.10 19:12:36.
