data_PCOD8251087
_publ_section_title
;
Structure prediction by ZEFSAII (Michael W. Deem and Ramdas Pophale) SiO2 
 PCOD8251087
Probable space group: P N M A
;
_chemical_formula_sum "Si O2"
_cell_formula_units_Z 48
_cell_length_a 15.959613
_cell_length_b 18.388466
_cell_length_c 9.065240
_cell_angle_alpha 90.000000
_cell_angle_beta 90.000000
_cell_angle_gamma 90.000000
_cell_volume 2660.401375
_symmetry_space_group_name_H-M "P N M A"
_symmetry_group_IT_number 62
_symmetry_cell_setting 'orthorhombic'
loop_
_space_group_symop_operation_xyz
x,y,z
1/2-x,-y,1/2+z
1/2+x,1/2-y,1/2-z
-x,1/2+y,-z
-x,-y,-z
1/2+x,y,1/2-z
1/2-x,1/2+y,1/2+z
x,1/2-y,z
loop_
_atom_site_type_symbol
_atom_site_label
_atom_site_fract_x
_atom_site_fract_y
_atom_site_fract_z
Si Si1 0.919428 0.529211 0.082079
Si Si2 0.353288 0.670344 0.062307
Si Si3 0.320575 0.427985 0.865411
Si Si4 0.235773 0.544772 0.040641
Si Si5 0.672410 0.170159 0.595271
Si Si6 0.009378 0.065792 0.607705
O O1 0.846366 0.469865 0.058129
O O2 0.887338 0.608271 0.020072
O O3 0.937251 0.537066 0.254139
O O4 0.000000 0.500000 0.000000
O O5 0.350920 0.750000 0.986611
O O6 0.354177 0.679036 0.236985
O O7 0.440338 0.629635 0.023141
O O8 0.272131 0.625209 0.007063
O O9 0.308354 0.487483 0.995164
O O10 0.285164 0.462759 0.713751
O O11 0.269067 0.355886 0.910529
O O12 0.417422 0.405862 0.844826
O O13 0.663653 0.250000 0.517606
O O14 0.000000 0.000000 0.500000
#
# Coordination Sequence:
#
# PCOD8251087 Si02
#       6
#     8   8   8   8   8   8
#     4  10  19  33  54  79 106 135 180 222 267 313
#     4   9  18  33  52  76 106 138 174 217 266 314
#     4  10  19  31  55  78 105 136 176 216 267 317
#     4  10  19  34  53  79 105 139 175 218 264 319
#     4   8  17  32  50  76 107 134 170 219 268 314
#     4  11  20  33  53  83 106 138 177 223 266 313
#
# _framework density 18.042390000000001
#
# number of rings (size 3 to 8) (size 9 to 14) (size 15 to 20)
#    0.000    2.333    3.333    1.000    0.000    0.667 
#    0.000    0.833    0.000   10.000    0.000    0.000 
#    0.000    0.000    0.000    0.000    0.000    0.000 
#
# Total GULP energy -594816.048129 kJ/mol
# GULP energy per Si atom -12392.001003 kJ/mol
# Density = 1.800132 g / cm^3
# Si number density = 18.042390 Si / 1000 Ang^3
#
#
#
# Elastic Constant Matrix: (Units=GPa)
#
#
# Indices 1 2 3 4 5 6 
#
# 1 140.6927 78.1571 25.2619 0.0000 0.0000 0.0000
# 2 78.1571 163.6696 34.8028 0.0000 0.0000 0.0000
# 3 25.2619 34.8028 37.9435 0.0000 0.0000 0.0000
# 4 0.0000 0.0000 0.0000 18.5476 0.0000 0.0000
# 5 0.0000 0.0000 0.0000 0.0000 27.7192 0.0000
# 6 0.0000 0.0000 0.0000 0.0000 0.0000 23.0151
#
#
#
# Elastic Compliance Matrix: (Units=1/GPa)
#
#
# Indices 1 2 3 4 5 6 
#
# 1 0.009908 -0.004135 -0.002804 0.000000 0.000000 0.000000
# 2 -0.004135 0.009316 -0.005792 0.000000 0.000000 0.000000
# 3 -0.002804 -0.005792 0.033534 0.000000 0.000000 0.000000
# 4 0.000000 0.000000 0.000000 0.053915 0.000000 0.000000
# 5 0.000000 0.000000 0.000000 0.000000 0.036076 0.000000
# 6 0.000000 0.000000 0.000000 0.000000 0.000000 0.043450
#
#
# Mechanical properties :
#
#
# Convention : Reuss Voigt Hill
#
# Bulk Modulus (GPa) = 36.63434 68.74994 52.69214
# Shear Modulus (GPa) = 22.64899 27.46199 25.05549
#
# Velocity S-wave (km/s) = 3.54689 3.90562 3.73057
# Velocity P-wave (km/s) = 6.09283 7.65022 6.91551
#
# Compressibility (1/GPa) = 0.02729679
#
# Stress axis : x y z
#
# Youngs Moduli (GPa) = 100.92480 107.33983 29.82047
#
# Poissons Ratio (x) = 0.44389 0.08361
# Poissons Ratio (y) = 0.41736 0.17272
# Poissons Ratio (z) = 0.28296 0.62169
#
# Static dielectric constant tensor:
#      x y z
#    x 3.854370 0.000000 0.000000 
#    y 0.000000 3.983520 0.000000 
#    z 0.000000 0.000000 3.113490 
# 
# 
# High freq. dielectric constant tensor:
#      x y z
#    x 1.713450 0.000000 0.000000 
#    y 0.000000 1.689700 0.000000 
#    z 0.000000 0.000000 1.663060 
# 
# From -- ./inp_files/7790.got.cif
#   From: 2010.03.12/outbox.cif.g09.slc.cpg/sg62_4_cif.got.tgz:7790.got - 2010.04.10 19:12:36.
