data_PCOD8251662
_publ_section_title
;
Structure prediction by ZEFSAII (Michael W. Deem and Ramdas Pophale) SiO2 
 PCOD8251662
Probable space group: P N M A
;
_chemical_formula_sum "Si O2"
_cell_formula_units_Z 64
_cell_length_a 24.211208
_cell_length_b 8.907307
_cell_length_c 15.168947
_cell_angle_alpha 90.000000
_cell_angle_beta 90.000000
_cell_angle_gamma 90.000000
_cell_volume 3271.284484
_symmetry_space_group_name_H-M "P N M A"
_symmetry_group_IT_number 62
_symmetry_cell_setting 'orthorhombic'
loop_
_space_group_symop_operation_xyz
x,y,z
1/2-x,-y,1/2+z
1/2+x,1/2-y,1/2-z
-x,1/2+y,-z
-x,-y,-z
1/2+x,y,1/2-z
1/2-x,1/2+y,1/2+z
x,1/2-y,z
loop_
_atom_site_type_symbol
_atom_site_label
_atom_site_fract_x
_atom_site_fract_y
_atom_site_fract_z
Si Si1 0.241167 0.426030 0.717096
Si Si2 0.136472 0.575041 0.173043
Si Si3 0.719689 0.924440 0.961626
Si Si4 0.445126 0.423256 0.827313
Si Si5 0.850673 0.426665 0.182758
Si Si6 0.384742 0.925127 0.983588
Si Si7 0.344558 0.923775 0.494541
Si Si8 0.927134 0.922579 0.323674
O O1 0.232190 0.250000 0.728449
O O2 0.305438 0.471449 0.718033
O O3 0.212470 0.478404 0.626727
O O4 0.210331 0.508093 0.797093
O O5 0.137069 0.750000 0.149002
O O6 0.088130 0.531101 0.239695
O O7 0.127017 0.484148 0.083286
O O8 0.711526 0.750000 0.938737
O O9 0.778988 0.954138 0.004560
O O10 0.672283 0.981833 0.028018
O O11 0.434069 0.250000 0.852251
O O12 0.426754 0.526513 0.907832
O O13 0.508699 0.453734 0.806962
O O14 0.847075 0.250000 0.177023
O O15 0.870521 0.490612 0.088709
O O16 0.893786 0.472720 0.257560
O O17 0.371760 0.750000 0.974665
O O18 0.413126 0.965715 0.076188
O O19 0.358824 0.750000 0.485716
O O20 0.911626 0.750000 0.304215
#
# Coordination Sequence:
#
# PCOD8251662 Si02
#       8
#     8   8   8   8   8   8   8   8
#     4  10  19  34  56  83 118 154 189 235 294 350
#     4   9  20  39  61  86 117 152 194 245 296 350
#     4  10  20  35  56  84 117 155 194 235 289 349
#     4  10  22  40  62  86 116 158 202 246 297 354
#     4  12  24  37  59  88 118 156 201 244 293 354
#     4  11  22  35  56  87 121 159 197 241 292 349
#     4  10  22  39  60  85 119 156 194 244 298 353
#     4  10  22  41  61  84 119 159 201 248 297 346
#
# _framework density 19.564181000000001
#
# number of rings (size 3 to 8) (size 9 to 14) (size 15 to 20)
#    0.000    1.750    1.250    3.000    1.750    3.500 
#    0.000    0.625    0.000    0.000    0.000    0.000 
#    0.000    0.000    0.000    0.000    0.000    0.000 
#
# Total GULP energy -793947.105419 kJ/mol
# GULP energy per Si atom -12405.423522 kJ/mol
# Density = 1.951965 g / cm^3
# Si number density = 19.564181 Si / 1000 Ang^3
#
#
#
# Elastic Constant Matrix: (Units=GPa)
#
#
# Indices 1 2 3 4 5 6 
#
# 1 59.8630 29.8994 35.2199 0.0000 0.0000 0.0000
# 2 29.8994 106.0425 63.2478 0.0000 0.0000 0.0000
# 3 35.2199 63.2478 121.2366 0.0000 0.0000 0.0000
# 4 0.0000 0.0000 0.0000 35.2732 0.0000 0.0000
# 5 0.0000 0.0000 0.0000 0.0000 19.8298 0.0000
# 6 0.0000 0.0000 0.0000 0.0000 0.0000 24.1821
#
#
#
# Elastic Compliance Matrix: (Units=1/GPa)
#
#
# Indices 1 2 3 4 5 6 
#
# 1 0.020915 -0.003300 -0.004354 0.000000 0.000000 0.000000
# 2 -0.003300 0.014211 -0.006455 0.000000 0.000000 0.000000
# 3 -0.004354 -0.006455 0.012881 0.000000 0.000000 0.000000
# 4 0.000000 0.000000 0.000000 0.028350 0.000000 0.000000
# 5 0.000000 0.000000 0.000000 0.000000 0.050429 0.000000
# 6 0.000000 0.000000 0.000000 0.000000 0.000000 0.041353
#
#
# Mechanical properties :
#
#
# Convention : Reuss Voigt Hill
#
# Bulk Modulus (GPa) = 50.53610 60.43070 55.48340
# Shear Modulus (GPa) = 24.63632 26.44203 25.53917
#
# Velocity S-wave (km/s) = 3.55245 3.68034 3.61696
# Velocity P-wave (km/s) = 6.53556 7.00109 6.77233
#
# Compressibility (1/GPa) = 0.01978784
#
# Stress axis : x y z
#
# Youngs Moduli (GPa) = 47.81288 70.37031 77.63567
#
# Poissons Ratio (x) = 0.23222 0.33805
# Poissons Ratio (y) = 0.15778 0.50112
# Poissons Ratio (z) = 0.20819 0.45423
#
# Static dielectric constant tensor:
#      x y z
#    x 3.521940 0.000000 0.000000 
#    y 0.000000 3.534970 0.000000 
#    z 0.000000 0.000000 3.514030 
# 
# 
# High freq. dielectric constant tensor:
#      x y z
#    x 1.753580 0.000000 0.000000 
#    y 0.000000 1.765670 0.000000 
#    z 0.000000 0.000000 1.761740 
# 
# From -- ./inp_files/20931.got.cif
#   From: 2010.03.12/outbox.cif.g09.slc.cpg/sg62_11_cif.got.tgz:20931.got - 2010.04.10 19:12:36.
