data_PCOD8251482
_publ_section_title
;
Structure prediction by ZEFSAII (Michael W. Deem and Ramdas Pophale) SiO2 
 PCOD8251482
Probable space group: P N M A
;
_chemical_formula_sum "Si O2"
_cell_formula_units_Z 48
_cell_length_a 19.683576
_cell_length_b 12.222378
_cell_length_c 11.394001
_cell_angle_alpha 90.000000
_cell_angle_beta 90.000000
_cell_angle_gamma 90.000000
_cell_volume 2741.169971
_symmetry_space_group_name_H-M "P N M A"
_symmetry_group_IT_number 62
_symmetry_cell_setting 'orthorhombic'
loop_
_space_group_symop_operation_xyz
x,y,z
1/2-x,-y,1/2+z
1/2+x,1/2-y,1/2-z
-x,1/2+y,-z
-x,-y,-z
1/2+x,y,1/2-z
1/2-x,1/2+y,1/2+z
x,1/2-y,z
loop_
_atom_site_type_symbol
_atom_site_label
_atom_site_fract_x
_atom_site_fract_y
_atom_site_fract_z
Si Si1 0.990069 0.622658 0.630459
Si Si2 0.110960 0.501256 0.526646
Si Si3 0.559868 0.980634 0.344653
Si Si4 0.677254 0.122423 0.766288
Si Si5 0.927061 0.876531 0.064546
Si Si6 0.828015 0.122605 0.689111
O O1 0.984722 0.750000 0.657414
O O2 0.937882 0.591611 0.527268
O O3 0.973705 0.558586 0.748685
O O4 0.066040 0.594188 0.589412
O O5 0.161448 0.445177 0.617452
O O6 0.157021 0.556368 0.428346
O O7 0.503502 0.896818 0.391714
O O8 0.620557 0.909207 0.292386
O O9 0.589905 0.053339 0.449511
O O10 0.669977 0.250000 0.795332
O O11 0.625614 0.087178 0.664325
O O12 0.752729 0.091045 0.728076
O O13 0.918138 0.750000 0.032226
O O14 0.835419 0.250000 0.661360
#
# Coordination Sequence:
#
# PCOD8251482 Si02
#       6
#     8   8   8   8   8   8
#     4  10  19  33  55  83 109 135 176 228 273 318
#     4  10  20  35  56  81 106 141 178 223 273 320
#     4  10  20  35  56  83 109 142 180 223 270 317
#     4  10  21  37  56  79 108 144 182 218 269 323
#     4  10  20  35  56  80 110 145 182 221 266 320
#     4  10  22  37  57  80 108 145 181 223 269 321
#
# _framework density 17.510770999999998
#
# number of rings (size 3 to 8) (size 9 to 14) (size 15 to 20)
#    0.000    2.000    1.667    2.000    2.333    0.000 
#    0.000    0.000    0.000    3.000    0.000    0.000 
#    0.000    0.000    0.000    0.000    0.000    0.000 
#
# Total GULP energy -595430.796087 kJ/mol
# GULP energy per Si atom -12404.808252 kJ/mol
# Density = 1.747092 g / cm^3
# Si number density = 17.510771 Si / 1000 Ang^3
#
#
#
# Elastic Constant Matrix: (Units=GPa)
#
#
# Indices 1 2 3 4 5 6 
#
# 1 105.3096 32.6761 55.0938 0.0000 0.0000 0.0000
# 2 32.6761 57.5627 29.7618 0.0000 0.0000 0.0000
# 3 55.0938 29.7618 107.6311 0.0000 0.0000 0.0000
# 4 0.0000 0.0000 0.0000 12.9756 0.0000 0.0000
# 5 0.0000 0.0000 0.0000 0.0000 16.8619 0.0000
# 6 0.0000 0.0000 0.0000 0.0000 0.0000 24.3097
#
#
#
# Elastic Compliance Matrix: (Units=1/GPa)
#
#
# Indices 1 2 3 4 5 6 
#
# 1 0.014096 -0.004984 -0.005837 0.000000 0.000000 0.000000
# 2 -0.004984 0.022032 -0.003541 0.000000 0.000000 0.000000
# 3 -0.005837 -0.003541 0.013258 0.000000 0.000000 0.000000
# 4 0.000000 0.000000 0.000000 0.077068 0.000000 0.000000
# 5 0.000000 0.000000 0.000000 0.000000 0.059305 0.000000
# 6 0.000000 0.000000 0.000000 0.000000 0.000000 0.041136
#
#
# Mechanical properties :
#
#
# Convention : Reuss Voigt Hill
#
# Bulk Modulus (GPa) = 48.39807 56.17408 52.28608
# Shear Modulus (GPa) = 19.04709 21.02758 20.03733
#
# Velocity S-wave (km/s) = 3.30166 3.46907 3.38640
# Velocity P-wave (km/s) = 6.49874 6.94228 6.72417
#
# Compressibility (1/GPa) = 0.02066198
#
# Stress axis : x y z
#
# Youngs Moduli (GPa) = 70.94196 45.38785 75.42492
#
# Poissons Ratio (x) = 0.22620 0.44028
# Poissons Ratio (y) = 0.35355 0.26710
# Poissons Ratio (z) = 0.41411 0.16073
#
# Static dielectric constant tensor:
#      x y z
#    x 3.237570 0.000000 0.000000 
#    y 0.000000 3.145180 0.000000 
#    z 0.000000 0.000000 3.315440 
# 
# 
# High freq. dielectric constant tensor:
#      x y z
#    x 1.678000 0.000000 0.000000 
#    y 0.000000 1.677000 0.000000 
#    z 0.000000 0.000000 1.688030 
# 
# From -- ./inp_files/14086.got.cif
#   From: 2010.03.12/outbox.cif.g09.slc.cpg/sg62_8_cif.got.tgz:14086.got - 2010.04.10 19:12:36.
