data_PCOD8251629
_publ_section_title
;
Structure prediction by ZEFSAII (Michael W. Deem and Ramdas Pophale) SiO2 
 PCOD8251629
Probable space group: P N M A
;
_chemical_formula_sum "Si O2"
_cell_formula_units_Z 56
_cell_length_a 13.991819
_cell_length_b 13.702346
_cell_length_c 14.062493
_cell_angle_alpha 90.000000
_cell_angle_beta 90.000000
_cell_angle_gamma 90.000000
_cell_volume 2696.071636
_symmetry_space_group_name_H-M "P N M A"
_symmetry_group_IT_number 62
_symmetry_cell_setting 'orthorhombic'
loop_
_space_group_symop_operation_xyz
x,y,z
1/2-x,-y,1/2+z
1/2+x,1/2-y,1/2-z
-x,1/2+y,-z
-x,-y,-z
1/2+x,y,1/2-z
1/2-x,1/2+y,1/2+z
x,1/2-y,z
loop_
_atom_site_type_symbol
_atom_site_label
_atom_site_fract_x
_atom_site_fract_y
_atom_site_fract_z
Si Si1 0.011229 0.144309 0.909197
Si Si2 0.213589 0.143526 0.825940
Si Si3 0.492091 0.435610 0.395980
Si Si4 0.159146 0.136658 0.351740
Si Si5 0.238026 0.978666 0.685404
Si Si6 0.951571 0.139906 0.304009
Si Si7 0.782477 0.490340 0.027569
O O1 0.954499 0.250000 0.904354
O O2 0.101165 0.156866 0.841504
O O3 0.956727 0.043394 0.877206
O O4 0.043877 0.124839 0.019713
O O5 0.263086 0.250000 0.818973
O O6 0.229747 0.087226 0.727294
O O7 0.257562 0.084593 0.915156
O O8 0.487919 0.369379 0.304253
O O9 0.384809 0.460474 0.430582
O O10 0.182334 0.250000 0.341204
O O11 0.198381 0.087070 0.255170
O O12 0.209985 0.097466 0.447243
O O13 0.045872 0.117719 0.366285
O O14 0.132066 0.934738 0.671577
O O15 0.287974 0.985594 0.583430
O O16 0.914814 0.250000 0.320242
#
# Coordination Sequence:
#
# PCOD8251629 Si02
#       7
#     8   8   8   8   8   8   8
#     4   9  17  29  51  79 110 146 184 231 292 352
#     4   9  19  37  55  82 118 155 196 241 292 352
#     4  10  19  34  55  85 118 149 190 248 303 357
#     4  10  23  40  61  90 121 155 201 249 298 357
#     4  11  22  38  62  88 118 161 198 248 297 355
#     4  11  22  38  62  87 118 157 200 250 299 352
#     4  10  22  38  59  84 121 160 197 242 297 353
#
# _framework density 20.770962000000001
#
# number of rings (size 3 to 8) (size 9 to 14) (size 15 to 20)
#    0.000    2.000    4.286    0.857    6.000    2.857 
#    0.000    0.000    0.000    3.429    0.000    0.000 
#    0.000    0.000    0.000    0.000    0.000    0.000 
#
# Total GULP energy -693732.034042 kJ/mol
# GULP energy per Si atom -12388.072036 kJ/mol
# Density = 2.072369 g / cm^3
# Si number density = 20.770962 Si / 1000 Ang^3
#
#
#
# Elastic Constant Matrix: (Units=GPa)
#
#
# Indices 1 2 3 4 5 6 
#
# 1 46.0149 33.0610 -7.2839 0.0000 0.0000 0.0000
# 2 33.0610 146.0913 26.5715 0.0000 0.0000 0.0000
# 3 -7.2839 26.5715 58.1457 0.0000 0.0000 0.0000
# 4 0.0000 0.0000 0.0000 20.2658 0.0000 0.0000
# 5 0.0000 0.0000 0.0000 0.0000 27.9551 0.0000
# 6 0.0000 0.0000 0.0000 0.0000 0.0000 15.3543
#
#
#
# Elastic Compliance Matrix: (Units=1/GPa)
#
#
# Indices 1 2 3 4 5 6 
#
# 1 0.028396 -0.007714 0.007082 0.000000 0.000000 0.000000
# 2 -0.007714 0.009561 -0.005336 0.000000 0.000000 0.000000
# 3 0.007082 -0.005336 0.020524 0.000000 0.000000 0.000000
# 4 0.000000 0.000000 0.000000 0.049344 0.000000 0.000000
# 5 0.000000 0.000000 0.000000 0.000000 0.035772 0.000000
# 6 0.000000 0.000000 0.000000 0.000000 0.000000 0.065128
#
#
# Mechanical properties :
#
#
# Convention : Reuss Voigt Hill
#
# Bulk Modulus (GPa) = 21.48425 39.43877 30.46151
# Shear Modulus (GPa) = 21.17073 25.90860 23.53966
#
# Velocity S-wave (km/s) = 3.19603 3.53561 3.37010
# Velocity P-wave (km/s) = 4.89748 5.97462 5.46266
#
# Compressibility (1/GPa) = 0.04654572
#
# Stress axis : x y z
#
# Youngs Moduli (GPa) = 35.21652 104.58878 48.72415
#
# Poissons Ratio (x) = 0.80682 -0.34508
# Poissons Ratio (y) = 0.27167 0.25998
# Poissons Ratio (z) = -0.24942 0.55805
#
# Static dielectric constant tensor:
#      x y z
#    x 3.629500 0.000000 0.000000 
#    y 0.000000 4.415580 0.000000 
#    z 0.000000 0.000000 3.630260 
# 
# 
# High freq. dielectric constant tensor:
#      x y z
#    x 1.792840 0.000000 0.000000 
#    y 0.000000 1.828370 0.000000 
#    z 0.000000 0.000000 1.789540 
# 
# From -- ./inp_files/19117.got.cif
#   From: 2010.03.12/outbox.cif.g09.slc.cpg/sg62_10_cif.got.tgz:19117.got - 2010.04.10 19:12:36.
