data_PCOD8251595
_publ_section_title
;
Structure prediction by ZEFSAII (Michael W. Deem and Ramdas Pophale) SiO2 
 PCOD8251595
Probable space group: P N M A
;
_chemical_formula_sum "Si O2"
_cell_formula_units_Z 56
_cell_length_a 19.066262
_cell_length_b 8.728355
_cell_length_c 19.272617
_cell_angle_alpha 90.000000
_cell_angle_beta 90.000000
_cell_angle_gamma 90.000000
_cell_volume 3207.293093
_symmetry_space_group_name_H-M "P N M A"
_symmetry_group_IT_number 62
_symmetry_cell_setting 'orthorhombic'
loop_
_space_group_symop_operation_xyz
x,y,z
1/2-x,-y,1/2+z
1/2+x,1/2-y,1/2-z
-x,1/2+y,-z
-x,-y,-z
1/2+x,y,1/2-z
1/2-x,1/2+y,1/2+z
x,1/2-y,z
loop_
_atom_site_type_symbol
_atom_site_label
_atom_site_fract_x
_atom_site_fract_y
_atom_site_fract_z
Si Si1 0.854533 0.569725 0.773204
Si Si2 0.752116 0.572228 0.168483
Si Si3 0.135823 0.428398 0.723835
Si Si4 0.254245 0.431309 0.622176
Si Si5 0.481166 0.432217 0.797355
Si Si6 0.552776 0.070672 0.055027
Si Si7 0.286499 0.927464 0.969594
O O1 0.862451 0.750000 0.776353
O O2 0.806363 0.525862 0.707839
O O3 0.823399 0.508580 0.845695
O O4 0.930809 0.495930 0.762645
O O5 0.732400 0.750000 0.177613
O O6 0.828723 0.538325 0.201341
O O7 0.753301 0.526464 0.088245
O O8 0.126921 0.250000 0.710213
O O9 0.186219 0.494850 0.663507
O O10 0.058529 0.501172 0.718952
O O11 0.260539 0.250000 0.632381
O O12 0.247288 0.478370 0.542315
O O13 0.479492 0.250000 0.796146
O O14 0.455944 0.488908 0.871849
O O15 0.537783 0.250000 0.063230
O O16 0.630930 0.038572 0.027790
O O17 0.500000 0.000000 0.000000
O O18 0.272391 0.750000 0.954147
#
# Coordination Sequence:
#
# PCOD8251595 Si02
#       7
#     8   8   8   8   8   8   8
#     4  11  21  34  51  76 106 136 176 222 261 308
#     4  10  19  34  55  76 101 138 179 216 260 316
#     4   8  17  33  53  76 101 133 175 217 258 310
#     4   9  18  35  55  75 102 139 175 212 262 314
#     4  11  20  34  55  77 103 139 177 217 265 318
#     4  11  22  34  49  75 112 145 174 209 257 318
#     4  10  20  34  53  77 108 139 172 219 265 311
#
# _framework density 17.460208000000002
#
# number of rings (size 3 to 8) (size 9 to 14) (size 15 to 20)
#    0.000    2.000    1.429    4.286    0.000    3.429 
#    0.000   10.000    0.000    0.857    0.000    0.000 
#    0.000    0.000    0.000    0.000    0.000    0.000 
#
# Total GULP energy -694442.838662 kJ/mol
# GULP energy per Si atom -12400.764976 kJ/mol
# Density = 1.742047 g / cm^3
# Si number density = 17.460208 Si / 1000 Ang^3
#
#
#
# Elastic Constant Matrix: (Units=GPa)
#
#
# Indices 1 2 3 4 5 6 
#
# 1 51.8701 24.1367 23.2048 0.0000 0.0000 0.0000
# 2 24.1367 71.5035 31.9651 0.0000 0.0000 0.0000
# 3 23.2048 31.9651 100.3358 0.0000 0.0000 0.0000
# 4 0.0000 0.0000 0.0000 28.4618 0.0000 0.0000
# 5 0.0000 0.0000 0.0000 0.0000 27.7456 0.0000
# 6 0.0000 0.0000 0.0000 0.0000 0.0000 19.0260
#
#
#
# Elastic Compliance Matrix: (Units=1/GPa)
#
#
# Indices 1 2 3 4 5 6 
#
# 1 0.023849 -0.006512 -0.003441 0.000000 0.000000 0.000000
# 2 -0.006512 0.018086 -0.004256 0.000000 0.000000 0.000000
# 3 -0.003441 -0.004256 0.012118 0.000000 0.000000 0.000000
# 4 0.000000 0.000000 0.000000 0.035135 0.000000 0.000000
# 5 0.000000 0.000000 0.000000 0.000000 0.036042 0.000000
# 6 0.000000 0.000000 0.000000 0.000000 0.000000 0.052560
#
#
# Mechanical properties :
#
#
# Convention : Reuss Voigt Hill
#
# Bulk Modulus (GPa) = 39.00888 42.48029 40.74459
# Shear Modulus (GPa) = 23.28270 24.67352 23.97811
#
# Velocity S-wave (km/s) = 3.65564 3.76324 3.70983
# Velocity P-wave (km/s) = 6.34100 6.57763 6.46040
#
# Compressibility (1/GPa) = 0.02563519
#
# Stress axis : x y z
#
# Youngs Moduli (GPa) = 41.93129 55.29107 82.52106
#
# Poissons Ratio (x) = 0.36006 0.28394
# Poissons Ratio (y) = 0.27306 0.35119
# Poissons Ratio (z) = 0.14428 0.23531
#
# Static dielectric constant tensor:
#      x y z
#    x 3.398970 0.000000 0.000000 
#    y 0.000000 3.166490 0.000000 
#    z 0.000000 0.000000 3.267140 
# 
# 
# High freq. dielectric constant tensor:
#      x y z
#    x 1.667790 0.000000 0.000000 
#    y 0.000000 1.670220 0.000000 
#    z 0.000000 0.000000 1.668770 
# 
# From -- ./inp_files/27512.got.cif
#   From: 2010.03.12/outbox.cif.g09.slc.cpg/sg62_14_cif.got.tgz:27512.got - 2010.04.10 19:12:36.
