data_PCOD8251589
_publ_section_title
;
Structure prediction by ZEFSAII (Michael W. Deem and Ramdas Pophale) SiO2 
 PCOD8251589
Probable space group: P N M A
;
_chemical_formula_sum "Si O2"
_cell_formula_units_Z 64
_cell_length_a 19.750669
_cell_length_b 9.258588
_cell_length_c 19.883318
_cell_angle_alpha 90.000000
_cell_angle_beta 90.000000
_cell_angle_gamma 90.000000
_cell_volume 3635.929284
_symmetry_space_group_name_H-M "P N M A"
_symmetry_group_IT_number 62
_symmetry_cell_setting 'orthorhombic'
loop_
_space_group_symop_operation_xyz
x,y,z
1/2-x,-y,1/2+z
1/2+x,1/2-y,1/2-z
-x,1/2+y,-z
-x,-y,-z
1/2+x,y,1/2-z
1/2-x,1/2+y,1/2+z
x,1/2-y,z
loop_
_atom_site_type_symbol
_atom_site_label
_atom_site_fract_x
_atom_site_fract_y
_atom_site_fract_z
Si Si1 0.666616 0.578805 0.663522
Si Si2 0.420785 0.083165 0.730605
Si Si3 0.072173 0.417454 0.734657
Si Si4 0.452128 0.915817 0.087126
Si Si5 0.321359 0.581550 0.826354
Si Si6 0.560202 0.914134 0.421702
Si Si7 0.915551 0.917906 0.556966
Si Si8 0.906071 0.582710 0.048934
O O1 0.656535 0.750000 0.657885
O O2 0.622474 0.517810 0.724354
O O3 0.743689 0.534806 0.678168
O O4 0.646704 0.506335 0.593227
O O5 0.412328 0.250000 0.749198
O O6 0.495423 0.031301 0.752226
O O7 0.409683 0.055230 0.651548
O O8 0.362951 0.996911 0.768525
O O9 0.081457 0.250000 0.756774
O O10 0.089756 0.440911 0.655738
O O11 0.474291 0.750000 0.081681
O O12 0.521038 0.004154 0.090424
O O13 0.407116 0.961470 0.021959
O O14 0.330091 0.750000 0.813181
O O15 0.348871 0.539227 0.900865
O O16 0.574323 0.750000 0.444981
O O17 0.479800 0.941299 0.418810
O O18 0.596301 0.022460 0.473146
O O19 0.930810 0.750000 0.563587
O O20 0.885272 0.750000 0.047836
#
# Coordination Sequence:
#
# PCOD8251589 Si02
#       8
#     8   8   8   8   8   8   8   8
#     4  11  23  37  53  75 109 150 185 224 272 324
#     4  10  19  34  56  81 109 140 178 227 274 322
#     4  10  19  34  54  80 109 137 179 230 272 324
#     4   9  17  30  52  79 105 130 166 219 268 311
#     4  10  22  37  52  76 111 147 184 223 267 327
#     4   9  18  33  53  80 109 135 172 223 273 323
#     4   9  17  31  51  76 104 136 171 211 262 317
#     4  10  19  34  55  80 108 138 176 223 269 323
#
# _framework density 17.602101999999999
#
# number of rings (size 3 to 8) (size 9 to 14) (size 15 to 20)
#    0.000    2.250    2.500    0.750    0.000    3.000 
#    0.000    1.250    0.000    3.000    0.000    0.000 
#    0.000    0.000    0.000    0.000    0.000    0.000 
#
# Total GULP energy -793581.979421 kJ/mol
# GULP energy per Si atom -12399.718428 kJ/mol
# Density = 1.756204 g / cm^3
# Si number density = 17.602102 Si / 1000 Ang^3
#
#
#
# Elastic Constant Matrix: (Units=GPa)
#
#
# Indices 1 2 3 4 5 6 
#
# 1 113.4223 57.8308 68.1565 0.0000 0.0000 0.0000
# 2 57.8308 72.0341 53.6616 0.0000 0.0000 0.0000
# 3 68.1565 53.6616 115.5137 0.0000 0.0000 0.0000
# 4 0.0000 0.0000 0.0000 31.8761 0.0000 0.0000
# 5 0.0000 0.0000 0.0000 0.0000 24.0970 0.0000
# 6 0.0000 0.0000 0.0000 0.0000 0.0000 25.1982
#
#
#
# Elastic Compliance Matrix: (Units=1/GPa)
#
#
# Indices 1 2 3 4 5 6 
#
# 1 0.017044 -0.009469 -0.005658 0.000000 0.000000 0.000000
# 2 -0.009469 0.026489 -0.006719 0.000000 0.000000 0.000000
# 3 -0.005658 -0.006719 0.015116 0.000000 0.000000 0.000000
# 4 0.000000 0.000000 0.000000 0.031372 0.000000 0.000000
# 5 0.000000 0.000000 0.000000 0.000000 0.041499 0.000000
# 6 0.000000 0.000000 0.000000 0.000000 0.000000 0.039685
#
#
# Mechanical properties :
#
#
# Convention : Reuss Voigt Hill
#
# Bulk Modulus (GPa) = 66.84833 73.36309 70.10571
# Shear Modulus (GPa) = 22.73939 24.32234 23.53086
#
# Velocity S-wave (km/s) = 3.59814 3.72127 3.66022
# Velocity P-wave (km/s) = 7.43788 7.76099 7.60115
#
# Compressibility (1/GPa) = 0.01495924
#
# Stress axis : x y z
#
# Youngs Moduli (GPa) = 58.67022 37.75150 66.15303
#
# Poissons Ratio (x) = 0.35746 0.37430
# Poissons Ratio (y) = 0.55553 0.44445
# Poissons Ratio (z) = 0.33196 0.25364
#
# Static dielectric constant tensor:
#      x y z
#    x 3.080540 0.000000 0.000000 
#    y 0.000000 3.277360 0.000000 
#    z 0.000000 0.000000 3.505440 
# 
# 
# High freq. dielectric constant tensor:
#      x y z
#    x 1.648700 0.000000 0.000000 
#    y 0.000000 1.681730 0.000000 
#    z 0.000000 0.000000 1.697320 
# 
# From -- ./inp_files/27641.got.cif
#   From: 2010.03.12/outbox.cif.g09.slc.cpg/sg62_14_cif.got.tgz:27641.got - 2010.04.10 19:12:36.
