data_PCOD8251404
_publ_section_title
;
Structure prediction by ZEFSAII (Michael W. Deem and Ramdas Pophale) SiO2 
 PCOD8251404
Probable space group: P N M A
;
_chemical_formula_sum "Si O2"
_cell_formula_units_Z 32
_cell_length_a 4.974774
_cell_length_b 18.263335
_cell_length_c 20.805116
_cell_angle_alpha 90.000000
_cell_angle_beta 90.000000
_cell_angle_gamma 90.000000
_cell_volume 1890.268873
_symmetry_space_group_name_H-M "P N M A"
_symmetry_group_IT_number 62
_symmetry_cell_setting 'orthorhombic'
loop_
_space_group_symop_operation_xyz
x,y,z
1/2-x,-y,1/2+z
1/2+x,1/2-y,1/2-z
-x,1/2+y,-z
-x,-y,-z
1/2+x,y,1/2-z
1/2-x,1/2+y,1/2+z
x,1/2-y,z
loop_
_atom_site_type_symbol
_atom_site_label
_atom_site_fract_x
_atom_site_fract_y
_atom_site_fract_z
Si Si1 0.679295 0.600717 0.792475
Si Si2 0.285937 0.593606 0.988393
Si Si3 0.327334 0.250000 0.454033
Si Si4 0.827211 0.250000 0.366976
Si Si5 0.784789 0.532092 0.921046
O O1 0.377053 0.591444 0.767703
O O2 0.728597 0.679569 0.823743
O O3 0.733370 0.537529 0.845094
O O4 0.222694 0.679076 0.998519
O O5 0.584943 0.585761 0.960070
O O6 0.086714 0.557477 0.936227
O O7 0.259745 0.551955 0.056616
O O8 0.629910 0.250000 0.427992
O O9 0.132148 0.250000 0.392152
#
# Coordination Sequence:
#
# PCOD8251404 Si02
#       5
#     8   8   4   4   8
#     4  12  22  34  48  69 102 141 170 192 233 291
#     4  10  19  33  54  70  98 124 165 208 254 284
#     4  12  18  33  54  76  98 131 158 208 252 296
#     4  12  22  33  46  74 106 133 170 190 234 296
#     4  10  20  35  49  72  95 132 166 207 240 287
#
# _framework density 16.928808
#
# number of rings (size 3 to 8) (size 9 to 14) (size 15 to 20)
#    0.000    1.000    5.000    3.750    0.000    0.000 
#    0.000    0.000    0.000    0.000    0.000    1.750 
#    0.000    0.000    0.000    0.000    0.000    0.000 
#
# Total GULP energy -396956.254866 kJ/mol
# GULP energy per Si atom -12404.882965 kJ/mol
# Density = 1.689028 g / cm^3
# Si number density = 16.928808 Si / 1000 Ang^3
#
#
#
# Elastic Constant Matrix: (Units=GPa)
#
#
# Indices 1 2 3 4 5 6 
#
# 1 61.6823 6.0731 5.7703 0.0000 0.0000 0.0000
# 2 6.0731 96.4048 47.0048 0.0000 0.0000 0.0000
# 3 5.7703 47.0048 71.6934 0.0000 0.0000 0.0000
# 4 0.0000 0.0000 0.0000 28.6138 0.0000 0.0000
# 5 0.0000 0.0000 0.0000 0.0000 26.8876 0.0000
# 6 0.0000 0.0000 0.0000 0.0000 0.0000 17.6197
#
#
#
# Elastic Compliance Matrix: (Units=1/GPa)
#
#
# Indices 1 2 3 4 5 6 
#
# 1 0.016356 -0.000571 -0.000942 0.000000 0.000000 0.000000
# 2 -0.000571 0.015267 -0.009964 0.000000 0.000000 0.000000
# 3 -0.000942 -0.009964 0.020557 0.000000 0.000000 0.000000
# 4 0.000000 0.000000 0.000000 0.034948 0.000000 0.000000
# 5 0.000000 0.000000 0.000000 0.000000 0.037192 0.000000
# 6 0.000000 0.000000 0.000000 0.000000 0.000000 0.056755
#
#
# Mechanical properties :
#
#
# Convention : Reuss Voigt Hill
#
# Bulk Modulus (GPa) = 34.21544 38.60855 36.41199
# Shear Modulus (GPa) = 23.38958 26.01970 24.70464
#
# Velocity S-wave (km/s) = 3.72108 3.92472 3.82426
# Velocity P-wave (km/s) = 6.22231 6.58740 6.40746
#
# Compressibility (1/GPa) = 0.02922657
#
# Stress axis : x y z
#
# Youngs Moduli (GPa) = 61.13790 65.50111 48.64622
#
# Poissons Ratio (x) = 0.03741 0.04583
# Poissons Ratio (y) = 0.03491 0.48469
# Poissons Ratio (z) = 0.05759 0.65263
#
# Static dielectric constant tensor:
#      x y z
#    x 3.361200 0.000000 0.000000 
#    y 0.000000 3.246440 0.000000 
#    z 0.000000 0.000000 3.008710 
# 
# 
# High freq. dielectric constant tensor:
#      x y z
#    x 1.680130 0.000000 0.000000 
#    y 0.000000 1.636180 0.000000 
#    z 0.000000 0.000000 1.619440 
# 
# From -- ./inp_files/16084.got.cif
#   From: 2010.03.12/outbox.cif.g09.slc.cpg/sg62_9_cif.got.tgz:16084.got - 2010.04.10 19:12:36.
