data_PCOD8251135
_publ_section_title
;
Structure prediction by ZEFSAII (Michael W. Deem and Ramdas Pophale) SiO2 
 PCOD8251135
Probable space group: P N M A
;
_chemical_formula_sum "Si O2"
_cell_formula_units_Z 48
_cell_length_a 16.354475
_cell_length_b 9.075327
_cell_length_c 18.292603
_cell_angle_alpha 90.000000
_cell_angle_beta 90.000000
_cell_angle_gamma 90.000000
_cell_volume 2715.028537
_symmetry_space_group_name_H-M "P N M A"
_symmetry_group_IT_number 62
_symmetry_cell_setting 'orthorhombic'
loop_
_space_group_symop_operation_xyz
x,y,z
1/2-x,-y,1/2+z
1/2+x,1/2-y,1/2-z
-x,1/2+y,-z
-x,-y,-z
1/2+x,y,1/2-z
1/2-x,1/2+y,1/2+z
x,1/2-y,z
loop_
_atom_site_type_symbol
_atom_site_label
_atom_site_fract_x
_atom_site_fract_y
_atom_site_fract_z
Si Si1 0.323502 0.418829 0.797053
Si Si2 0.273661 0.918616 0.571077
Si Si3 0.246764 0.920798 0.921424
Si Si4 0.808835 0.084678 0.285759
Si Si5 0.083741 0.578535 0.157582
Si Si6 0.920979 0.416117 0.162806
O O1 0.319718 0.250000 0.821830
O O2 0.320226 0.518109 0.869995
O O3 0.246196 0.455644 0.746720
O O4 0.401362 0.450109 0.744476
O O5 0.294340 0.750000 0.552472
O O6 0.195569 0.929587 0.626416
O O7 0.247084 0.001255 0.498771
O O8 0.354037 0.989037 0.607034
O O9 0.261892 0.750000 0.933708
O O10 0.159161 0.954167 0.884804
O O11 0.776379 0.250000 0.262935
O O12 0.898665 0.066036 0.249562
O O13 0.093206 0.750000 0.137982
O O14 0.992082 0.527145 0.139682
O O15 0.950729 0.250000 0.146697
#
# Coordination Sequence:
#
# PCOD8251135 Si02
#       6
#     8   8   8   8   8   8
#     4   9  17  30  48  69  92 121 158 196 232 274
#     4  10  19  32  51  72  96 127 159 194 238 283
#     4  10  20  33  49  71  98 126 158 196 236 281
#     4   8  16  31  49  69  92 121 159 197 232 276
#     4  10  20  32  48  72  99 125 157 196 234 278
#     4   9  18  32  49  69  95 126 157 191 234 282
#
# _framework density 17.679372000000001
#
# number of rings (size 3 to 8) (size 9 to 14) (size 15 to 20)
#    0.000    2.667    0.000    3.000    0.000    6.667 
#    0.000    0.000    0.000    1.000    0.000    0.000 
#    0.000    0.000    0.000    0.000    0.000    0.000 
#
# Total GULP energy -594801.917700 kJ/mol
# GULP energy per Si atom -12391.706619 kJ/mol
# Density = 1.763913 g / cm^3
# Si number density = 17.679372 Si / 1000 Ang^3
#
#
#
# Elastic Constant Matrix: (Units=GPa)
#
#
# Indices 1 2 3 4 5 6 
#
# 1 4.0914 3.6228 1.8547 0.0000 0.0000 0.0000
# 2 3.6228 87.6807 40.3819 0.0000 0.0000 0.0000
# 3 1.8547 40.3819 103.7102 0.0000 0.0000 0.0000
# 4 0.0000 0.0000 0.0000 33.4926 0.0000 0.0000
# 5 0.0000 0.0000 0.0000 0.0000 16.1843 0.0000
# 6 0.0000 0.0000 0.0000 0.0000 0.0000 17.9414
#
#
#
# Elastic Compliance Matrix: (Units=1/GPa)
#
#
# Indices 1 2 3 4 5 6 
#
# 1 0.253721 -0.010228 -0.000555 0.000000 0.000000 0.000000
# 2 -0.010228 0.014309 -0.005389 0.000000 0.000000 0.000000
# 3 -0.000555 -0.005389 0.011750 0.000000 0.000000 0.000000
# 4 0.000000 0.000000 0.000000 0.029857 0.000000 0.000000
# 5 0.000000 0.000000 0.000000 0.000000 0.061788 0.000000
# 6 0.000000 0.000000 0.000000 0.000000 0.000000 0.055737
#
#
# Mechanical properties :
#
#
# Convention : Reuss Voigt Hill
#
# Bulk Modulus (GPa) = 4.04141 31.91123 17.97632
# Shear Modulus (GPa) = 9.22533 23.49852 16.36192
#
# Velocity S-wave (km/s) = 2.28680 3.64970 3.04547
# Velocity P-wave (km/s) = 3.04360 5.98746 4.74938
#
# Compressibility (1/GPa) = 0.24743815
#
# Stress axis : x y z
#
# Youngs Moduli (GPa) = 3.94133 69.88387 85.10327
#
# Poissons Ratio (x) = 0.71475 0.04724
# Poissons Ratio (y) = 0.04031 0.45860
# Poissons Ratio (z) = 0.00219 0.37659
#
# Static dielectric constant tensor:
#      x y z
#    x 2.972840 0.000000 0.000000 
#    y 0.000000 3.364350 0.000000 
#    z 0.000000 0.000000 3.428280 
# 
# 
# High freq. dielectric constant tensor:
#      x y z
#    x 1.639450 0.000000 0.000000 
#    y 0.000000 1.698720 0.000000 
#    z 0.000000 0.000000 1.682440 
# 
# From -- ./inp_files/19563.got.cif
#   From: 2010.03.12/outbox.cif.g09.slc.cpg/sg62_10_cif.got.tgz:19563.got - 2010.04.10 19:12:36.
