data_PCOD8251319
_publ_section_title
;
Structure prediction by ZEFSAII (Michael W. Deem and Ramdas Pophale) SiO2 
 PCOD8251319
Probable space group: P N M A
;
_chemical_formula_sum "Si O2"
_cell_formula_units_Z 48
_cell_length_a 11.923521
_cell_length_b 17.450378
_cell_length_c 11.686375
_cell_angle_alpha 90.000000
_cell_angle_beta 90.000000
_cell_angle_gamma 90.000000
_cell_volume 2431.583445
_symmetry_space_group_name_H-M "P N M A"
_symmetry_group_IT_number 62
_symmetry_cell_setting 'orthorhombic'
loop_
_space_group_symop_operation_xyz
x,y,z
1/2-x,-y,1/2+z
1/2+x,1/2-y,1/2-z
-x,1/2+y,-z
-x,-y,-z
1/2+x,y,1/2-z
1/2-x,1/2+y,1/2+z
x,1/2-y,z
loop_
_atom_site_type_symbol
_atom_site_label
_atom_site_fract_x
_atom_site_fract_y
_atom_site_fract_z
Si Si1 0.686103 0.569546 0.676333
Si Si2 0.117309 0.093646 0.483109
Si Si3 0.628733 0.923706 0.931506
Si Si4 0.965121 0.087494 0.978829
Si Si5 0.275494 0.335248 0.650699
Si Si6 0.308096 0.894495 0.382966
O O1 0.811279 0.589027 0.633829
O O2 0.673021 0.596755 0.805663
O O3 0.593624 0.614141 0.597644
O O4 0.668696 0.478750 0.666057
O O5 0.168428 0.156834 0.567483
O O6 0.991447 0.116310 0.449684
O O7 0.119546 0.014451 0.553332
O O8 0.713913 0.888249 0.021215
O O9 0.870287 0.100524 0.879813
O O10 0.075518 0.134930 0.941455
O O11 0.000000 0.000000 0.000000
O O12 0.325840 0.250000 0.634255
O O13 0.232184 0.341578 0.779959
#
# Coordination Sequence:
#
# PCOD8251319 Si02
#       6
#     8   8   8   8   8   8
#     4   9  18  33  57  84 120 149 197 258 308 342
#     4   9  20  35  53  87 117 155 194 245 305 361
#     4  10  19  32  58  87 117 148 197 256 301 352
#     4   9  21  37  59  88 118 160 209 259 306 364
#     4  11  23  40  60  86 126 165 200 251 319 379
#     4  10  21  33  55  87 120 154 202 248 303 366
#
# _framework density 19.740221999999999
#
# number of rings (size 3 to 8) (size 9 to 14) (size 15 to 20)
#    0.000    2.333    1.667    1.000    4.667    3.333 
#    0.000    0.000    0.000    8.000    0.000    0.000 
#    0.000    0.000    0.000    0.000    0.000    0.000 
#
# Total GULP energy -594958.730035 kJ/mol
# GULP energy per Si atom -12394.973542 kJ/mol
# Density = 1.969529 g / cm^3
# Si number density = 19.740222 Si / 1000 Ang^3
#
#
#
# Elastic Constant Matrix: (Units=GPa)
#
#
# Indices 1 2 3 4 5 6 
#
# 1 166.4561 27.0762 76.1252 0.0000 0.0000 0.0000
# 2 27.0762 47.5207 25.9079 0.0000 0.0000 0.0000
# 3 76.1252 25.9079 152.2301 0.0000 0.0000 0.0000
# 4 0.0000 0.0000 0.0000 12.2320 0.0000 0.0000
# 5 0.0000 0.0000 0.0000 0.0000 28.6053 0.0000
# 6 0.0000 0.0000 0.0000 0.0000 0.0000 14.5832
#
#
#
# Elastic Compliance Matrix: (Units=1/GPa)
#
#
# Indices 1 2 3 4 5 6 
#
# 1 0.008080 -0.002646 -0.003590 0.000000 0.000000 0.000000
# 2 -0.002646 0.024063 -0.002772 0.000000 0.000000 0.000000
# 3 -0.003590 -0.002772 0.008836 0.000000 0.000000 0.000000
# 4 0.000000 0.000000 0.000000 0.081753 0.000000 0.000000
# 5 0.000000 0.000000 0.000000 0.000000 0.034959 0.000000
# 6 0.000000 0.000000 0.000000 0.000000 0.000000 0.068572
#
#
# Mechanical properties :
#
#
# Convention : Reuss Voigt Hill
#
# Bulk Modulus (GPa) = 43.55061 69.38061 56.46561
# Shear Modulus (GPa) = 19.84658 26.89060 23.36859
#
# Velocity S-wave (km/s) = 3.17423 3.69484 3.44438
# Velocity P-wave (km/s) = 5.96188 7.30928 6.66969
#
# Compressibility (1/GPa) = 0.02296179
#
# Stress axis : x y z
#
# Youngs Moduli (GPa) = 123.76346 41.55841 113.17322
#
# Poissons Ratio (x) = 0.10998 0.40630
# Poissons Ratio (y) = 0.32754 0.31369
# Poissons Ratio (z) = 0.44432 0.11519
#
# Static dielectric constant tensor:
#      x y z
#    x 3.970890 0.000000 0.000000 
#    y 0.000000 3.037720 0.000000 
#    z 0.000000 0.000000 3.638050 
# 
# 
# High freq. dielectric constant tensor:
#      x y z
#    x 1.785220 0.000000 0.000000 
#    y 0.000000 1.707820 0.000000 
#    z 0.000000 0.000000 1.775820 
# 
# From -- ./inp_files/12274.got.cif
#   From: 2010.03.12/outbox.cif.g09.slc.cpg/sg62_7_cif.got.tgz:12274.got - 2010.04.10 19:12:36.
