data_PCOD8251633
_publ_section_title
;
Structure prediction by ZEFSAII (Michael W. Deem and Ramdas Pophale) SiO2 
 PCOD8251633
Probable space group: P N M A
;
_chemical_formula_sum "Si O2"
_cell_formula_units_Z 64
_cell_length_a 15.689916
_cell_length_b 9.512002
_cell_length_c 22.574674
_cell_angle_alpha 90.000000
_cell_angle_beta 90.000000
_cell_angle_gamma 90.000000
_cell_volume 3369.101064
_symmetry_space_group_name_H-M "P N M A"
_symmetry_group_IT_number 62
_symmetry_cell_setting 'orthorhombic'
loop_
_space_group_symop_operation_xyz
x,y,z
1/2-x,-y,1/2+z
1/2+x,1/2-y,1/2-z
-x,1/2+y,-z
-x,-y,-z
1/2+x,y,1/2-z
1/2-x,1/2+y,1/2+z
x,1/2-y,z
loop_
_atom_site_type_symbol
_atom_site_label
_atom_site_fract_x
_atom_site_fract_y
_atom_site_fract_z
Si Si1 0.936112 0.914518 0.458599
Si Si2 0.799967 0.584930 0.836007
Si Si3 0.242348 0.912555 0.048573
Si Si4 0.193014 0.092771 0.751123
Si Si5 0.377395 0.094080 0.341894
Si Si6 0.577324 0.587172 0.527351
Si Si7 0.475749 0.595669 0.173850
Si Si8 0.041854 0.402892 0.234359
O O1 0.955871 0.750000 0.466132
O O2 0.837294 0.945748 0.476327
O O3 0.950996 0.964681 0.390741
O O4 0.000000 0.000000 0.500000
O O5 0.779860 0.750000 0.842265
O O6 0.775395 0.510077 0.896035
O O7 0.750507 0.519877 0.781375
O O8 0.898097 0.551236 0.820275
O O9 0.238555 0.750000 0.069194
O O10 0.169843 0.947276 0.000501
O O11 0.232959 0.250000 0.756257
O O12 0.106229 0.104979 0.715048
O O13 0.184711 0.028057 0.817630
O O14 0.334496 0.250000 0.349098
O O15 0.416483 0.045108 0.404074
O O16 0.448139 0.105126 0.291530
O O17 0.500000 0.500000 0.500000
O O18 0.554031 0.750000 0.518666
O O19 0.516062 0.750000 0.166147
O O20 0.546115 0.501541 0.207541
O O21 0.071729 0.250000 0.257130
#
# Coordination Sequence:
#
# PCOD8251633 Si02
#       8
#     8   8   8   8   8   8   8   8
#     4  10  21  39  59  81 111 150 198 248 295 345
#     4  11  21  34  55  84 113 143 184 234 284 339
#     4  10  21  39  60  84 116 157 200 242 291 347
#     4  10  19  34  56  79 107 143 180 225 279 339
#     4   9  18  35  54  77 110 146 184 225 276 337
#     4  10  21  37  60  86 120 160 195 239 293 349
#     4   9  18  35  56  77 106 140 179 229 283 338
#     4   9  19  33  52  80 111 141 178 226 277 336
#
# _framework density 18.996165000000001
#
# number of rings (size 3 to 8) (size 9 to 14) (size 15 to 20)
#    0.000    2.250    1.250    1.500    0.000    4.500 
#    2.250    2.500    0.000    0.000    0.000    0.000 
#    0.000    0.000    0.000    0.000    0.000    0.000 
#
# Total GULP energy -793164.070394 kJ/mol
# GULP energy per Si atom -12393.188600 kJ/mol
# Density = 1.895293 g / cm^3
# Si number density = 18.996165 Si / 1000 Ang^3
#
#
#
# Elastic Constant Matrix: (Units=GPa)
#
#
# Indices 1 2 3 4 5 6 
#
# 1 -498.1860 14.6144 344.7498 0.0000 0.0000 0.0000
# 2 14.6144 90.0271 73.0666 0.0000 0.0000 0.0000
# 3 344.7498 73.0666 -59.4029 0.0000 0.0000 0.0000
# 4 0.0000 0.0000 0.0000 34.1752 0.0000 0.0000
# 5 0.0000 0.0000 0.0000 0.0000 26.8163 0.0000
# 6 0.0000 0.0000 0.0000 0.0000 0.0000 28.0624
#
#
#
# Elastic Compliance Matrix: (Units=1/GPa)
#
#
# Indices 1 2 3 4 5 6 
#
# 1 0.002310 -0.005632 0.006477 0.000000 0.000000 0.000000
# 2 -0.005632 0.019291 -0.008956 0.000000 0.000000 0.000000
# 3 0.006477 -0.008956 0.009739 0.000000 0.000000 0.000000
# 4 0.000000 0.000000 0.000000 0.029261 0.000000 0.000000
# 5 0.000000 0.000000 0.000000 0.000000 0.037291 0.000000
# 6 0.000000 0.000000 0.000000 0.000000 0.000000 0.035635
#
#
# Mechanical properties :
#
#
# Convention : Reuss Voigt Hill
#
# Bulk Modulus (GPa) = 66.14512 44.14441 55.14477
# Shear Modulus (GPa) = 32.30256 -42.18875 -4.94309
#
# Velocity S-wave (km/s) = 4.12816 -4.71776 -1.61487
# Velocity P-wave (km/s) = 7.59066 2.52732 5.06116
#
# Compressibility (1/GPa) = 0.01511827
#
# Stress axis : x y z
#
# Youngs Moduli (GPa) = 432.97806 51.83886 102.67807
#
# Poissons Ratio (x) = 0.29194 -0.66503
# Poissons Ratio (y) = 2.43836 0.91956
# Poissons Ratio (z) = -2.80435 0.46426
#
# Static dielectric constant tensor:
#      x y z
#    x 3.553720 0.000000 0.000000 
#    y 0.000000 3.796470 0.000000 
#    z 0.000000 0.000000 3.645090 
# 
# 
# High freq. dielectric constant tensor:
#      x y z
#    x 1.723730 0.000000 0.000000 
#    y 0.000000 1.743210 0.000000 
#    z 0.000000 0.000000 1.734550 
# 
# From -- ./inp_files/27754.got.cif
#   From: 2010.03.12/outbox.cif.g09.slc.cpg/sg62_14_cif.got.tgz:27754.got - 2010.04.10 19:12:36.
