data_PCOD8251150
_publ_section_title
;
Structure prediction by ZEFSAII (Michael W. Deem and Ramdas Pophale) SiO2 
 PCOD8251150
Probable space group: P N M A
;
_chemical_formula_sum "Si O2"
_cell_formula_units_Z 48
_cell_length_a 23.746101
_cell_length_b 8.484149
_cell_length_c 13.577473
_cell_angle_alpha 90.000000
_cell_angle_beta 90.000000
_cell_angle_gamma 90.000000
_cell_volume 2735.391831
_symmetry_space_group_name_H-M "P N M A"
_symmetry_group_IT_number 62
_symmetry_cell_setting 'orthorhombic'
loop_
_space_group_symop_operation_xyz
x,y,z
1/2-x,-y,1/2+z
1/2+x,1/2-y,1/2-z
-x,1/2+y,-z
-x,-y,-z
1/2+x,y,1/2-z
1/2-x,1/2+y,1/2+z
x,1/2-y,z
loop_
_atom_site_type_symbol
_atom_site_label
_atom_site_fract_x
_atom_site_fract_y
_atom_site_fract_z
Si Si1 0.331004 0.933741 0.290840
Si Si2 0.944691 0.065544 0.888696
Si Si3 0.727122 0.565435 0.890200
Si Si4 0.273114 0.566696 0.901062
Si Si5 0.937531 0.432574 0.113861
Si Si6 0.331148 0.064887 0.716588
O O1 0.317215 0.750000 0.296175
O O2 0.321277 0.995266 0.180137
O O3 0.289421 0.023003 0.365511
O O4 0.395068 0.965969 0.320472
O O5 0.958116 0.250000 0.883490
O O6 0.893144 0.016780 0.819068
O O7 0.929689 0.016995 0.000302
O O8 0.999151 0.970975 0.851139
O O9 0.732429 0.750000 0.870503
O O10 0.786892 0.484336 0.867211
O O11 0.710415 0.530990 0.002198
O O12 0.275358 0.750000 0.926445
O O13 0.318776 0.525848 0.817716
O O14 0.924340 0.250000 0.130540
O O15 0.325955 0.250000 0.735148
#
# Coordination Sequence:
#
# PCOD8251150 Si02
#       6
#     8   8   8   8   8   8
#     4  11  21  34  52  75 103 134 168 206 251 298
#     4   9  19  33  50  73 102 134 167 205 247 294
#     4  11  21  34  52  75 102 133 169 206 250 299
#     4  11  21  34  51  74 103 133 168 207 250 298
#     4  10  19  32  51  75 103 134 168 206 248 295
#     4  10  19  33  52  75 103 134 168 206 250 296
#
# _framework density 17.54776
#
# number of rings (size 3 to 8) (size 9 to 14) (size 15 to 20)
#    0.000    1.667    0.000    8.500    0.000    3.333 
#    0.000    0.000    0.000    1.000    0.000    0.000 
#    0.000    0.000    0.000    0.000    0.000    0.000 
#
# Total GULP energy -595447.095309 kJ/mol
# GULP energy per Si atom -12405.147819 kJ/mol
# Density = 1.750782 g / cm^3
# Si number density = 17.547760 Si / 1000 Ang^3
#
#
#
# Elastic Constant Matrix: (Units=GPa)
#
#
# Indices 1 2 3 4 5 6 
#
# 1 110.6111 27.5037 50.0307 0.0000 0.0000 0.0000
# 2 27.5037 63.6340 14.9191 0.0000 0.0000 0.0000
# 3 50.0307 14.9191 95.6148 0.0000 0.0000 0.0000
# 4 0.0000 0.0000 0.0000 28.7004 0.0000 0.0000
# 5 0.0000 0.0000 0.0000 0.0000 22.9419 0.0000
# 6 0.0000 0.0000 0.0000 0.0000 0.0000 30.2834
#
#
#
# Elastic Compliance Matrix: (Units=1/GPa)
#
#
# Indices 1 2 3 4 5 6 
#
# 1 0.012803 -0.004114 -0.006058 0.000000 0.000000 0.000000
# 2 -0.004114 0.017633 -0.000599 0.000000 0.000000 0.000000
# 3 -0.006058 -0.000599 0.013722 0.000000 0.000000 0.000000
# 4 0.000000 0.000000 0.000000 0.034843 0.000000 0.000000
# 5 0.000000 0.000000 0.000000 0.000000 0.043588 0.000000
# 6 0.000000 0.000000 0.000000 0.000000 0.000000 0.033021
#
#
# Mechanical properties :
#
#
# Convention : Reuss Voigt Hill
#
# Bulk Modulus (GPa) = 44.21222 50.52968 47.37095
# Shear Modulus (GPa) = 27.07230 28.21224 27.64227
#
# Velocity S-wave (km/s) = 3.93208 4.01401 3.97326
# Velocity P-wave (km/s) = 6.77238 7.09515 6.93564
#
# Compressibility (1/GPa) = 0.02261818
#
# Stress axis : x y z
#
# Youngs Moduli (GPa) = 78.10383 56.71096 72.87714
#
# Poissons Ratio (x) = 0.23329 0.44146
# Poissons Ratio (y) = 0.32129 0.04365
# Poissons Ratio (z) = 0.47312 0.03396
#
# Static dielectric constant tensor:
#      x y z
#    x 3.184110 0.000000 0.000000 
#    y 0.000000 3.319820 0.000000 
#    z 0.000000 0.000000 3.191370 
# 
# 
# High freq. dielectric constant tensor:
#      x y z
#    x 1.666560 0.000000 0.000000 
#    y 0.000000 1.695520 0.000000 
#    z 0.000000 0.000000 1.667120 
# 
# From -- ./inp_files/20589.got.cif
#   From: 2010.03.12/outbox.cif.g09.slc.cpg/sg62_11_cif.got.tgz:20589.got - 2010.04.10 19:12:36.
