data_PCOD8251433
_publ_section_title
;
Structure prediction by ZEFSAII (Michael W. Deem and Ramdas Pophale) SiO2 
 PCOD8251433
Probable space group: P N M A
;
_chemical_formula_sum "Si O2"
_cell_formula_units_Z 56
_cell_length_a 17.359284
_cell_length_b 8.861310
_cell_length_c 20.206737
_cell_angle_alpha 90.000000
_cell_angle_beta 90.000000
_cell_angle_gamma 90.000000
_cell_volume 3108.321463
_symmetry_space_group_name_H-M "P N M A"
_symmetry_group_IT_number 62
_symmetry_cell_setting 'orthorhombic'
loop_
_space_group_symop_operation_xyz
x,y,z
1/2-x,-y,1/2+z
1/2+x,1/2-y,1/2-z
-x,1/2+y,-z
-x,-y,-z
1/2+x,y,1/2-z
1/2-x,1/2+y,1/2+z
x,1/2-y,z
loop_
_atom_site_type_symbol
_atom_site_label
_atom_site_fract_x
_atom_site_fract_y
_atom_site_fract_z
Si Si1 0.707822 0.930028 0.627078
Si Si2 0.075019 0.922636 0.524673
Si Si3 0.365846 0.072021 0.890246
Si Si4 0.528645 0.083370 0.401964
Si Si5 0.616805 0.916416 0.503481
Si Si6 0.569018 0.071828 0.703114
Si Si7 0.476790 0.071690 0.161134
O O1 0.710820 0.750000 0.633030
O O2 0.682457 0.980029 0.552728
O O3 0.789962 0.003206 0.643400
O O4 0.646904 0.990904 0.679992
O O5 0.053971 0.750000 0.520759
O O6 0.141326 0.959654 0.470401
O O7 0.086373 0.963654 0.602341
O O8 0.000000 0.000000 0.500000
O O9 0.371548 0.250000 0.874796
O O10 0.438892 0.987288 0.859220
O O11 0.547555 0.250000 0.374078
O O12 0.461348 0.093092 0.455123
O O13 0.605144 0.020535 0.438832
O O14 0.504122 0.976342 0.341520
O O15 0.639365 0.750000 0.478094
O O16 0.579662 0.250000 0.698173
O O17 0.553512 0.022241 0.777452
O O18 0.481294 0.250000 0.177281
#
# Coordination Sequence:
#
# PCOD8251433 Si02
#       7
#     8   8   8   8   8   8   8
#     4  10  20  34  52  76 105 140 177 216 264 319
#     4   8  16  30  51  77 102 128 162 206 252 301
#     4  10  19  33  54  81 108 134 170 217 266 314
#     4   9  16  27  45  69  96 127 166 208 251 303
#     4   8  15  27  44  67  95 126 165 209 252 295
#     4  11  21  33  51  76 105 140 180 222 263 312
#     4  10  19  34  55  78 105 139 177 216 260 315
#
# _framework density 18.016155000000001
#
# number of rings (size 3 to 8) (size 9 to 14) (size 15 to 20)
#    0.000    2.571    0.000    3.857    0.000    5.143 
#    0.000    0.000    3.143    0.000    0.000    0.000 
#    0.000    0.000    0.000    0.000    0.000    0.000 
#
# Total GULP energy -693781.647408 kJ/mol
# GULP energy per Si atom -12388.957989 kJ/mol
# Density = 1.797515 g / cm^3
# Si number density = 18.016155 Si / 1000 Ang^3
#
#
#
# Elastic Constant Matrix: (Units=GPa)
#
#
# Indices 1 2 3 4 5 6 
#
# 1 55.0336 14.9672 25.5093 0.0000 0.0000 0.0000
# 2 14.9672 73.4923 28.4796 0.0000 0.0000 0.0000
# 3 25.5093 28.4796 92.5813 0.0000 0.0000 0.0000
# 4 0.0000 0.0000 0.0000 29.6436 0.0000 0.0000
# 5 0.0000 0.0000 0.0000 0.0000 18.0787 0.0000
# 6 0.0000 0.0000 0.0000 0.0000 0.0000 23.5331
#
#
#
# Elastic Compliance Matrix: (Units=1/GPa)
#
#
# Indices 1 2 3 4 5 6 
#
# 1 0.021177 -0.002329 -0.005118 0.000000 0.000000 0.000000
# 2 -0.002329 0.015705 -0.004189 0.000000 0.000000 0.000000
# 3 -0.005118 -0.004189 0.013500 0.000000 0.000000 0.000000
# 4 0.000000 0.000000 0.000000 0.033734 0.000000 0.000000
# 5 0.000000 0.000000 0.000000 0.000000 0.055314 0.000000
# 6 0.000000 0.000000 0.000000 0.000000 0.000000 0.042493
#
#
# Mechanical properties :
#
#
# Convention : Reuss Voigt Hill
#
# Bulk Modulus (GPa) = 36.88971 39.89104 38.39038
# Shear Modulus (GPa) = 23.33914 24.39449 23.86681
#
# Velocity S-wave (km/s) = 3.60315 3.68371 3.64365
# Velocity P-wave (km/s) = 6.15066 6.34688 6.24954
#
# Compressibility (1/GPa) = 0.02710783
#
# Stress axis : x y z
#
# Youngs Moduli (GPa) = 47.22180 63.67536 74.07258
#
# Poissons Ratio (x) = 0.14832 0.37913
# Poissons Ratio (y) = 0.10999 0.31031
# Poissons Ratio (z) = 0.24170 0.26675
#
# Static dielectric constant tensor:
#      x y z
#    x 2.380050 0.000000 0.000000 
#    y 0.000000 3.515990 0.000000 
#    z 0.000000 0.000000 3.110630 
# 
# 
# High freq. dielectric constant tensor:
#      x y z
#    x 1.661030 0.000000 0.000000 
#    y 0.000000 1.712640 0.000000 
#    z 0.000000 0.000000 1.690400 
# 
# From -- ./inp_files/27566.got.cif
#   From: 2010.03.12/outbox.cif.g09.slc.cpg/sg62_14_cif.got.tgz:27566.got - 2010.04.10 19:12:36.
