data_PCOD8251697
_publ_section_title
;
Structure prediction by ZEFSAII (Michael W. Deem and Ramdas Pophale) SiO2 
 PCOD8251697
Probable space group: P N M A
;
_chemical_formula_sum "Si O2"
_cell_formula_units_Z 56
_cell_length_a 32.150163
_cell_length_b 13.151200
_cell_length_c 6.842228
_cell_angle_alpha 90.000000
_cell_angle_beta 90.000000
_cell_angle_gamma 90.000000
_cell_volume 2892.984478
_symmetry_space_group_name_H-M "P N M A"
_symmetry_group_IT_number 62
_symmetry_cell_setting 'orthorhombic'
loop_
_space_group_symop_operation_xyz
x,y,z
1/2-x,-y,1/2+z
1/2+x,1/2-y,1/2-z
-x,1/2+y,-z
-x,-y,-z
1/2+x,y,1/2-z
1/2-x,1/2+y,1/2+z
x,1/2-y,z
loop_
_atom_site_type_symbol
_atom_site_label
_atom_site_fract_x
_atom_site_fract_y
_atom_site_fract_z
Si Si1 0.704824 0.990790 0.113412
Si Si2 0.847172 0.365018 0.315159
Si Si3 0.435350 0.506144 0.608921
Si Si4 0.513205 0.866586 0.678897
Si Si5 0.568406 0.636739 0.026675
Si Si6 0.843944 0.530300 0.005187
Si Si7 0.782246 0.632068 0.267084
O O1 0.678665 0.908843 0.994685
O O2 0.712215 0.093098 0.988437
O O3 0.748228 0.938237 0.163175
O O4 0.680260 0.026171 0.302982
O O5 0.833005 0.250000 0.280151
O O6 0.895512 0.374330 0.366511
O O7 0.838240 0.422307 0.112977
O O8 0.456194 0.432060 0.453795
O O9 0.465580 0.599795 0.655764
O O10 0.392596 0.553567 0.528372
O O11 0.425831 0.444902 0.805563
O O12 0.517256 0.750000 0.612619
O O13 0.525710 0.880652 0.906547
O O14 0.569180 0.750000 0.119515
O O15 0.824986 0.618403 0.143884
O O16 0.769317 0.750000 0.271431
#
# Coordination Sequence:
#
# PCOD8251697 Si02
#       7
#     8   8   8   8   8   8   8
#     4  11  22  44  63  93 126 160 208 250 303 374
#     4  10  21  35  60  92 123 158 201 256 309 364
#     4  11  21  37  62  83 119 163 197 253 306 359
#     4  10  22  38  56  85 118 156 205 251 305 366
#     4  10  19  34  57  88 120 151 198 252 307 360
#     4  11  23  40  62  90 126 159 206 252 306 374
#     4  11  25  44  65  92 128 165 204 256 305 360
#
# _framework density 19.357174000000001
#
# number of rings (size 3 to 8) (size 9 to 14) (size 15 to 20)
#    0.000    1.429    4.286    1.286    0.000    2.857 
#    0.000    0.000    0.000    0.000    0.000    0.000 
#    0.000    0.000    0.000    0.000    0.000    0.000 
#
# Total GULP energy -694544.479214 kJ/mol
# GULP energy per Si atom -12402.579986 kJ/mol
# Density = 1.931312 g / cm^3
# Si number density = 19.357174 Si / 1000 Ang^3
#
#
#
# Elastic Constant Matrix: (Units=GPa)
#
#
# Indices 1 2 3 4 5 6 
#
# 1 100.1860 32.6130 32.2427 0.0000 0.0000 0.0000
# 2 32.6130 62.7297 27.2494 0.0000 0.0000 0.0000
# 3 32.2427 27.2494 99.0001 0.0000 0.0000 0.0000
# 4 0.0000 0.0000 0.0000 22.5913 0.0000 0.0000
# 5 0.0000 0.0000 0.0000 0.0000 32.8521 0.0000
# 6 0.0000 0.0000 0.0000 0.0000 0.0000 24.4662
#
#
#
# Elastic Compliance Matrix: (Units=1/GPa)
#
#
# Indices 1 2 3 4 5 6 
#
# 1 0.012581 -0.005408 -0.002609 0.000000 0.000000 0.000000
# 2 -0.005408 0.020431 -0.003862 0.000000 0.000000 0.000000
# 3 -0.002609 -0.003862 0.012014 0.000000 0.000000 0.000000
# 4 0.000000 0.000000 0.000000 0.044265 0.000000 0.000000
# 5 0.000000 0.000000 0.000000 0.000000 0.030439 0.000000
# 6 0.000000 0.000000 0.000000 0.000000 0.000000 0.040873
#
#
# Mechanical properties :
#
#
# Convention : Reuss Voigt Hill
#
# Bulk Modulus (GPa) = 47.01952 49.56954 48.29453
# Shear Modulus (GPa) = 26.11643 27.30262 26.70953
#
# Velocity S-wave (km/s) = 3.67711 3.75969 3.71863
# Velocity P-wave (km/s) = 6.50933 6.67162 6.59097
#
# Compressibility (1/GPa) = 0.02126776
#
# Stress axis : x y z
#
# Youngs Moduli (GPa) = 79.48199 48.94623 83.23749
#
# Poissons Ratio (x) = 0.26469 0.21718
# Poissons Ratio (y) = 0.42981 0.32148
# Poissons Ratio (z) = 0.20738 0.18904
#
# Static dielectric constant tensor:
#      x y z
#    x 3.745700 0.000000 0.000000 
#    y 0.000000 3.393890 0.000000 
#    z 0.000000 0.000000 3.547660 
# 
# 
# High freq. dielectric constant tensor:
#      x y z
#    x 1.763150 0.000000 0.000000 
#    y 0.000000 1.739810 0.000000 
#    z 0.000000 0.000000 1.762730 
# 
# From -- ./inp_files/3577.got.cif
#   From: 2010.03.12/outbox.cif.g09.slc.cpg/sg62_2_cif.got.tgz:3577.got - 2010.04.10 19:12:36.
