data_PCOD8251369
_publ_section_title
;
Structure prediction by ZEFSAII (Michael W. Deem and Ramdas Pophale) SiO2 
 PCOD8251369
Probable space group: P N M A
;
_chemical_formula_sum "Si O2"
_cell_formula_units_Z 48
_cell_length_a 13.653513
_cell_length_b 14.102403
_cell_length_c 12.903377
_cell_angle_alpha 90.000000
_cell_angle_beta 90.000000
_cell_angle_gamma 90.000000
_cell_volume 2484.510953
_symmetry_space_group_name_H-M "P N M A"
_symmetry_group_IT_number 62
_symmetry_cell_setting 'orthorhombic'
loop_
_space_group_symop_operation_xyz
x,y,z
1/2-x,-y,1/2+z
1/2+x,1/2-y,1/2-z
-x,1/2+y,-z
-x,-y,-z
1/2+x,y,1/2-z
1/2-x,1/2+y,1/2+z
x,1/2-y,z
loop_
_atom_site_type_symbol
_atom_site_label
_atom_site_fract_x
_atom_site_fract_y
_atom_site_fract_z
Si Si1 0.027166 0.916465 0.575345
Si Si2 0.369917 0.456799 0.284349
Si Si3 0.868965 0.644051 0.102980
Si Si4 0.645498 0.647981 0.104206
Si Si5 0.854572 0.549286 0.704724
Si Si6 0.043640 0.140421 0.114513
O O1 0.105666 0.944346 0.663690
O O2 0.078630 0.841576 0.499371
O O3 0.924755 0.884894 0.630835
O O4 0.000000 0.000000 0.500000
O O5 0.391400 0.567396 0.308251
O O6 0.258814 0.428343 0.311779
O O7 0.432765 0.387583 0.357216
O O8 0.889543 0.750000 0.146905
O O9 0.756838 0.634469 0.065431
O O10 0.939285 0.622031 0.006344
O O11 0.634514 0.750000 0.162743
O O12 0.618444 0.561371 0.181168
O O13 0.882088 0.572649 0.822618
O O14 0.062635 0.250000 0.143244
#
# Coordination Sequence:
#
# PCOD8251369 Si02
#       6
#     8   8   8   8   8   8
#     4   9  18  32  49  75 105 138 176 213 260 315
#     4  10  19  33  53  75 103 136 174 223 268 312
#     4   9  18  33  54  79 105 136 173 212 262 323
#     4   9  17  32  55  79 105 138 173 212 263 324
#     4   9  19  33  51  78 106 135 176 221 265 311
#     4  10  20  33  50  74 104 139 177 215 261 313
#
# _framework density 19.319697000000001
#
# number of rings (size 3 to 8) (size 9 to 14) (size 15 to 20)
#    0.000    2.667    0.000    1.500    0.000    3.333 
#    0.000    7.500    0.000    2.000    0.000   11.667 
#    0.000    0.000    0.000    0.000    0.000    0.000 
#
# Total GULP energy -594698.255394 kJ/mol
# GULP energy per Si atom -12389.546987 kJ/mol
# Density = 1.927572 g / cm^3
# Si number density = 19.319697 Si / 1000 Ang^3
#
#
#
# Elastic Constant Matrix: (Units=GPa)
#
#
# Indices 1 2 3 4 5 6 
#
# 1 98.5746 28.4588 23.2846 0.0000 0.0000 0.0000
# 2 28.4588 89.6834 32.1873 0.0000 0.0000 0.0000
# 3 23.2846 32.1873 52.8495 0.0000 0.0000 0.0000
# 4 0.0000 0.0000 0.0000 26.1050 0.0000 0.0000
# 5 0.0000 0.0000 0.0000 0.0000 24.2329 0.0000
# 6 0.0000 0.0000 0.0000 0.0000 0.0000 22.9364
#
#
#
# Elastic Compliance Matrix: (Units=1/GPa)
#
#
# Indices 1 2 3 4 5 6 
#
# 1 0.011709 -0.002385 -0.003706 0.000000 0.000000 0.000000
# 2 -0.002385 0.014755 -0.007936 0.000000 0.000000 0.000000
# 3 -0.003706 -0.007936 0.025387 0.000000 0.000000 0.000000
# 4 0.000000 0.000000 0.000000 0.038307 0.000000 0.000000
# 5 0.000000 0.000000 0.000000 0.000000 0.041266 0.000000
# 6 0.000000 0.000000 0.000000 0.000000 0.000000 0.043599
#
#
# Mechanical properties :
#
#
# Convention : Reuss Voigt Hill
#
# Bulk Modulus (GPa) = 42.02069 45.44098 43.73083
# Shear Modulus (GPa) = 23.69559 25.13330 24.41444
#
# Velocity S-wave (km/s) = 3.50594 3.61073 3.55872
# Velocity P-wave (km/s) = 6.17950 6.39959 6.29051
#
# Compressibility (1/GPa) = 0.02379780
#
# Stress axis : x y z
#
# Youngs Moduli (GPa) = 85.40695 67.77192 39.38953
#
# Poissons Ratio (x) = 0.16167 0.14597
# Poissons Ratio (y) = 0.20373 0.31258
# Poissons Ratio (z) = 0.31650 0.53781
#
# Static dielectric constant tensor:
#      x y z
#    x 3.928550 0.000000 0.000000 
#    y 0.000000 3.595200 0.000000 
#    z 0.000000 0.000000 3.510240 
# 
# 
# High freq. dielectric constant tensor:
#      x y z
#    x 1.758940 0.000000 0.000000 
#    y 0.000000 1.744520 0.000000 
#    z 0.000000 0.000000 1.735100 
# 
# From -- ./inp_files/13287.got.cif
#   From: 2010.03.12/outbox.cif.g09.slc.cpg/sg62_7_cif.got.tgz:13287.got - 2010.04.10 19:12:36.
