data_PCOD8251531
_publ_section_title
;
Structure prediction by ZEFSAII (Michael W. Deem and Ramdas Pophale) SiO2 
 PCOD8251531
Probable space group: P N M A
;
_chemical_formula_sum "Si O2"
_cell_formula_units_Z 64
_cell_length_a 11.435414
_cell_length_b 8.897021
_cell_length_c 32.819533
_cell_angle_alpha 90.000000
_cell_angle_beta 90.000000
_cell_angle_gamma 90.000000
_cell_volume 3339.095996
_symmetry_space_group_name_H-M "P N M A"
_symmetry_group_IT_number 62
_symmetry_cell_setting 'orthorhombic'
loop_
_space_group_symop_operation_xyz
x,y,z
1/2-x,-y,1/2+z
1/2+x,1/2-y,1/2-z
-x,1/2+y,-z
-x,-y,-z
1/2+x,y,1/2-z
1/2-x,1/2+y,1/2+z
x,1/2-y,z
loop_
_atom_site_type_symbol
_atom_site_label
_atom_site_fract_x
_atom_site_fract_y
_atom_site_fract_z
Si Si1 0.900199 0.579328 0.281743
Si Si2 0.808390 0.427256 0.405285
Si Si3 0.324779 0.422708 0.667312
Si Si4 0.518645 0.924428 0.134842
Si Si5 0.942688 0.425920 0.198620
Si Si6 0.213433 0.425010 0.864547
Si Si7 0.667186 0.574969 0.472430
Si Si8 0.906999 0.924228 0.051605
O O1 0.924228 0.750000 0.266987
O O2 0.766207 0.561563 0.295696
O O3 0.986438 0.535607 0.318617
O O4 0.924057 0.463734 0.245768
O O5 0.804249 0.250000 0.405163
O O6 0.718703 0.488228 0.371830
O O7 0.940170 0.480754 0.396334
O O8 0.769964 0.487456 0.449346
O O9 0.340174 0.250000 0.654064
O O10 0.447390 0.485755 0.681411
O O11 0.490793 0.750000 0.126897
O O12 0.652429 0.966015 0.126463
O O13 0.963502 0.250000 0.193814
O O14 0.828765 0.476863 0.173575
O O15 0.200764 0.250000 0.853262
O O16 0.136832 0.468682 0.903700
O O17 0.695553 0.750000 0.471226
O O18 0.543924 0.536722 0.450817
O O19 0.665319 0.521014 0.519076
O O20 0.883856 0.750000 0.041992
#
# Coordination Sequence:
#
# PCOD8251531 Si02
#       8
#     8   8   8   8   8   8   8   8
#     4   9  20  38  58  79 105 144 192 236 278 335
#     4  11  21  35  58  86 115 146 185 236 289 336
#     4  10  21  39  60  80 107 145 191 234 275 335
#     4   9  20  39  61  82 108 150 196 235 281 344
#     4  12  25  36  54  85 117 147 183 234 290 339
#     4  10  21  39  61  83 112 152 195 234 283 347
#     4  10  19  33  57  85 117 154 190 229 281 347
#     4   9  19  35  56  85 116 146 185 240 290 330
#
# _framework density 19.166865000000001
#
# number of rings (size 3 to 8) (size 9 to 14) (size 15 to 20)
#    0.000    2.000    0.000    4.500    1.750    5.000 
#    0.000    0.625    0.000    0.000    0.000    0.000 
#    0.000    0.000    0.000    0.000    0.000    0.000 
#
# Total GULP energy -793939.914153 kJ/mol
# GULP energy per Si atom -12405.311159 kJ/mol
# Density = 1.912324 g / cm^3
# Si number density = 19.166865 Si / 1000 Ang^3
#
#
#
# Elastic Constant Matrix: (Units=GPa)
#
#
# Indices 1 2 3 4 5 6 
#
# 1 67.3489 28.2028 18.5614 0.0000 0.0000 0.0000
# 2 28.2028 90.6089 28.0159 0.0000 0.0000 0.0000
# 3 18.5614 28.0159 60.9077 0.0000 0.0000 0.0000
# 4 0.0000 0.0000 0.0000 35.0167 0.0000 0.0000
# 5 0.0000 0.0000 0.0000 0.0000 15.3257 0.0000
# 6 0.0000 0.0000 0.0000 0.0000 0.0000 24.5504
#
#
#
# Elastic Compliance Matrix: (Units=1/GPa)
#
#
# Indices 1 2 3 4 5 6 
#
# 1 0.017631 -0.004461 -0.003321 0.000000 0.000000 0.000000
# 2 -0.004461 0.013995 -0.005078 0.000000 0.000000 0.000000
# 3 -0.003321 -0.005078 0.019766 0.000000 0.000000 0.000000
# 4 0.000000 0.000000 0.000000 0.028558 0.000000 0.000000
# 5 0.000000 0.000000 0.000000 0.000000 0.065250 0.000000
# 6 0.000000 0.000000 0.000000 0.000000 0.000000 0.040733
#
#
# Mechanical properties :
#
#
# Convention : Reuss Voigt Hill
#
# Bulk Modulus (GPa) = 38.95229 40.93620 39.94425
# Shear Modulus (GPa) = 22.70558 24.58427 23.64492
#
# Velocity S-wave (km/s) = 3.44557 3.58529 3.51612
# Velocity P-wave (km/s) = 6.01632 6.20832 6.11307
#
# Compressibility (1/GPa) = 0.02567243
#
# Stress axis : x y z
#
# Youngs Moduli (GPa) = 56.71680 71.45394 50.59168
#
# Poissons Ratio (x) = 0.31876 0.16802
# Poissons Ratio (y) = 0.25302 0.25690
# Poissons Ratio (z) = 0.18837 0.36283
#
# Static dielectric constant tensor:
#      x y z
#    x 3.519150 0.000000 0.000000 
#    y 0.000000 3.442240 0.000000 
#    z 0.000000 0.000000 3.489120 
# 
# 
# High freq. dielectric constant tensor:
#      x y z
#    x 1.744420 0.000000 0.000000 
#    y 0.000000 1.743760 0.000000 
#    z 0.000000 0.000000 1.743700 
# 
# From -- ./inp_files/32539.got.cif
#   From: 2010.03.12/outbox.cif.g09.slc.cpg/sg62_17_cif.got.tgz:32539.got - 2010.04.10 19:12:36.
