data_PCOD8251886
_publ_section_title
;
Structure prediction by ZEFSAII (Michael W. Deem and Ramdas Pophale) SiO2 
 PCOD8251886
Probable space group: P N M A
;
_chemical_formula_sum "Si O2"
_cell_formula_units_Z 64
_cell_length_a 11.422308
_cell_length_b 8.841020
_cell_length_c 32.606684
_cell_angle_alpha 90.000000
_cell_angle_beta 90.000000
_cell_angle_gamma 90.000000
_cell_volume 3292.781206
_symmetry_space_group_name_H-M "P N M A"
_symmetry_group_IT_number 62
_symmetry_cell_setting 'orthorhombic'
loop_
_space_group_symop_operation_xyz
x,y,z
1/2-x,-y,1/2+z
1/2+x,1/2-y,1/2-z
-x,1/2+y,-z
-x,-y,-z
1/2+x,y,1/2-z
1/2-x,1/2+y,1/2+z
x,1/2-y,z
loop_
_atom_site_type_symbol
_atom_site_label
_atom_site_fract_x
_atom_site_fract_y
_atom_site_fract_z
Si Si1 0.465901 0.428322 0.631616
Si Si2 0.586870 0.426457 0.942842
Si Si3 0.833119 0.073227 0.523573
Si Si4 0.716210 0.926674 0.869626
Si Si5 0.403741 0.926853 0.286824
Si Si6 0.300303 0.573759 0.829428
Si Si7 0.951639 0.424644 0.297488
Si Si8 0.325183 0.071008 0.411509
O O1 0.478031 0.250000 0.624889
O O2 0.333074 0.477274 0.625391
O O3 0.507961 0.477919 0.677016
O O4 0.543786 0.513561 0.597588
O O5 0.611668 0.250000 0.935934
O O6 0.450457 0.459913 0.950672
O O7 0.622093 0.520653 0.902983
O O8 0.663776 0.483762 0.980944
O O9 0.818286 0.250000 0.514347
O O10 0.721402 0.011515 0.548036
O O11 0.742900 0.750000 0.875537
O O12 0.662544 0.958799 0.824710
O O13 0.389682 0.750000 0.285956
O O14 0.275436 0.995055 0.294000
O O15 0.453651 0.979508 0.243646
O O16 0.278308 0.750000 0.824386
O O17 0.435101 0.528494 0.824011
O O18 0.258810 0.519635 0.874164
O O19 0.957751 0.250000 0.284911
O O20 0.325128 0.250000 0.418387
#
# Coordination Sequence:
#
# PCOD8251886 Si02
#       8
#     8   8   8   8   8   8   8   8
#     4  10  22  40  58  80 114 153 192 236 288 345
#     4  10  21  37  58  87 121 156 191 234 286 339
#     4  10  20  35  59  89 121 154 190 234 285 339
#     4  11  23  39  59  84 114 151 192 236 288 345
#     4  10  22  37  55  80 110 143 185 235 284 334
#     4   9  19  36  56  79 108 142 183 230 277 332
#     4  10  22  37  56  81 109 145 187 231 281 339
#     4  10  19  35  60  86 112 147 192 237 283 337
#
# _framework density 19.436456
#
# number of rings (size 3 to 8) (size 9 to 14) (size 15 to 20)
#    0.000    2.000    0.000    3.000    1.750    6.000 
#    0.000    0.625    0.000    0.000    0.000    0.000 
#    0.000    0.000    0.000    0.000    0.000    0.000 
#
# Total GULP energy -793902.651635 kJ/mol
# GULP energy per Si atom -12404.728932 kJ/mol
# Density = 1.939222 g / cm^3
# Si number density = 19.436456 Si / 1000 Ang^3
#
#
#
# Elastic Constant Matrix: (Units=GPa)
#
#
# Indices 1 2 3 4 5 6 
#
# 1 65.6208 16.9456 4.1656 0.0000 0.0000 0.0000
# 2 16.9456 46.7200 14.8379 0.0000 0.0000 0.0000
# 3 4.1656 14.8379 59.0816 0.0000 0.0000 0.0000
# 4 0.0000 0.0000 0.0000 34.9672 0.0000 0.0000
# 5 0.0000 0.0000 0.0000 0.0000 21.0918 0.0000
# 6 0.0000 0.0000 0.0000 0.0000 0.0000 31.0424
#
#
#
# Elastic Compliance Matrix: (Units=1/GPa)
#
#
# Indices 1 2 3 4 5 6 
#
# 1 0.016822 -0.006221 0.000376 0.000000 0.000000 0.000000
# 2 -0.006221 0.025560 -0.005981 0.000000 0.000000 0.000000
# 3 0.000376 -0.005981 0.018401 0.000000 0.000000 0.000000
# 4 0.000000 0.000000 0.000000 0.028598 0.000000 0.000000
# 5 0.000000 0.000000 0.000000 0.000000 0.047412 0.000000
# 6 0.000000 0.000000 0.000000 0.000000 0.000000 0.032214
#
#
# Mechanical properties :
#
#
# Convention : Reuss Voigt Hill
#
# Bulk Modulus (GPa) = 26.93060 27.03562 26.98311
# Shear Modulus (GPa) = 24.38616 26.45182 25.41899
#
# Velocity S-wave (km/s) = 3.54596 3.69309 3.62027
# Velocity P-wave (km/s) = 5.53633 5.66791 5.60250
#
# Compressibility (1/GPa) = 0.03713248
#
# Stress axis : x y z
#
# Youngs Moduli (GPa) = 59.44734 39.12394 54.34435
#
# Poissons Ratio (x) = 0.24338 -0.02045
# Poissons Ratio (y) = 0.36981 0.32501
# Poissons Ratio (z) = -0.02237 0.23398
#
# Static dielectric constant tensor:
#      x y z
#    x 3.497940 0.000000 0.000000 
#    y 0.000000 3.527970 0.000000 
#    z 0.000000 0.000000 3.538570 
# 
# 
# High freq. dielectric constant tensor:
#      x y z
#    x 1.753450 0.000000 0.000000 
#    y 0.000000 1.764640 0.000000 
#    z 0.000000 0.000000 1.753740 
# 
# From -- ./inp_files/32568.got.cif
#   From: 2010.03.12/outbox.cif.g09.slc.cpg/sg62_17_cif.got.tgz:32568.got - 2010.04.10 19:12:36.
