data_PCOD8251580
_publ_section_title
;
Structure prediction by ZEFSAII (Michael W. Deem and Ramdas Pophale) SiO2 
 PCOD8251580
Probable space group: P N M A
;
_chemical_formula_sum "Si O2"
_cell_formula_units_Z 56
_cell_length_a 25.896383
_cell_length_b 10.540875
_cell_length_c 10.760303
_cell_angle_alpha 90.000000
_cell_angle_beta 90.000000
_cell_angle_gamma 90.000000
_cell_volume 2937.245679
_symmetry_space_group_name_H-M "P N M A"
_symmetry_group_IT_number 62
_symmetry_cell_setting 'orthorhombic'
loop_
_space_group_symop_operation_xyz
x,y,z
1/2-x,-y,1/2+z
1/2+x,1/2-y,1/2-z
-x,1/2+y,-z
-x,-y,-z
1/2+x,y,1/2-z
1/2-x,1/2+y,1/2+z
x,1/2-y,z
loop_
_atom_site_type_symbol
_atom_site_label
_atom_site_fract_x
_atom_site_fract_y
_atom_site_fract_z
Si Si1 0.301885 0.106500 0.789745
Si Si2 0.686473 0.107724 0.762573
Si Si3 0.382021 0.106363 0.352132
Si Si4 0.556825 0.109800 0.198999
Si Si5 0.401042 0.105630 0.634347
Si Si6 0.551882 0.607880 0.882827
Si Si7 0.862071 0.545531 0.518058
O O1 0.301360 0.250000 0.836050
O O2 0.246433 0.068388 0.734042
O O3 0.342386 0.085132 0.678974
O O4 0.316136 0.028519 0.913096
O O5 0.678770 0.250000 0.706205
O O6 0.660287 0.000236 0.678889
O O7 0.663632 0.115318 0.901909
O O8 0.358315 0.250000 0.342304
O O9 0.403925 0.081033 0.488317
O O10 0.429656 0.090890 0.259210
O O11 0.544513 0.250000 0.258050
O O12 0.508033 0.063948 0.114763
O O13 0.563206 0.000038 0.301686
O O14 0.608831 0.133828 0.117928
O O15 0.419448 0.250000 0.666639
O O16 0.555089 0.750000 0.930012
O O17 0.590018 0.540231 0.976756
#
# Coordination Sequence:
#
# PCOD8251580 Si02
#       7
#     8   8   8   8   8   8   8
#     4   9  19  34  53  76 104 138 175 217 263 312
#     4  10  21  35  53  79 108 137 175 223 270 308
#     4   9  19  36  56  77 105 143 183 217 259 319
#     4  10  20  34  53  80 110 139 174 222 274 314
#     4   9  19  36  55  75 105 142 181 217 257 317
#     4   9  18  33  54  79 107 139 176 220 267 320
#     4  10  19  34  54  76 107 140 179 215 266 322
#
# _framework density 19.065480000000001
#
# number of rings (size 3 to 8) (size 9 to 14) (size 15 to 20)
#    0.000    2.571    0.000    1.286    2.000    2.286 
#    0.000    6.429    0.000    0.000    0.000    0.000 
#    0.000    0.000    0.000    0.000    0.000    0.000 
#
# Total GULP energy -693893.246727 kJ/mol
# GULP energy per Si atom -12390.950834 kJ/mol
# Density = 1.902209 g / cm^3
# Si number density = 19.065480 Si / 1000 Ang^3
#
#
#
# Elastic Constant Matrix: (Units=GPa)
#
#
# Indices 1 2 3 4 5 6 
#
# 1 86.1854 28.8048 3.2770 0.0000 0.0000 0.0000
# 2 28.8048 81.9537 19.7765 0.0000 0.0000 0.0000
# 3 3.2770 19.7765 57.9991 0.0000 0.0000 0.0000
# 4 0.0000 0.0000 0.0000 3.9492 0.0000 0.0000
# 5 0.0000 0.0000 0.0000 0.0000 23.4863 0.0000
# 6 0.0000 0.0000 0.0000 0.0000 0.0000 29.3008
#
#
#
# Elastic Compliance Matrix: (Units=1/GPa)
#
#
# Indices 1 2 3 4 5 6 
#
# 1 0.013191 -0.004856 0.000911 0.000000 0.000000 0.000000
# 2 -0.004856 0.015084 -0.004869 0.000000 0.000000 0.000000
# 3 0.000911 -0.004869 0.018850 0.000000 0.000000 0.000000
# 4 0.000000 0.000000 0.000000 0.253215 0.000000 0.000000
# 5 0.000000 0.000000 0.000000 0.000000 0.042578 0.000000
# 6 0.000000 0.000000 0.000000 0.000000 0.000000 0.034129
#
#
# Mechanical properties :
#
#
# Convention : Reuss Voigt Hill
#
# Bulk Modulus (GPa) = 33.90240 36.65053 35.27646
# Shear Modulus (GPa) = 12.36068 22.96594 17.66331
#
# Velocity S-wave (km/s) = 2.54899 3.47447 3.04707
# Velocity P-wave (km/s) = 5.14624 5.94653 5.56080
#
# Compressibility (1/GPa) = 0.02949644
#
# Stress axis : x y z
#
# Youngs Moduli (GPa) = 75.80764 66.29647 53.04932
#
# Poissons Ratio (x) = 0.32195 -0.04830
# Poissons Ratio (y) = 0.36813 0.25829
# Poissons Ratio (z) = -0.06903 0.32279
#
# Static dielectric constant tensor:
#      x y z
#    x 3.519790 0.000000 0.000000 
#    y 0.000000 3.530850 0.000000 
#    z 0.000000 0.000000 3.357120 
# 
# 
# High freq. dielectric constant tensor:
#      x y z
#    x 1.739010 0.000000 0.000000 
#    y 0.000000 1.744880 0.000000 
#    z 0.000000 0.000000 1.731700 
# 
# From -- ./inp_files/15269.got.cif
#   From: 2010.03.12/outbox.cif.g09.slc.cpg/sg62_8_cif.got.tgz:15269.got - 2010.04.10 19:12:36.
