data_PCOD8251174
_publ_section_title
;
Structure prediction by ZEFSAII (Michael W. Deem and Ramdas Pophale) SiO2 
 PCOD8251174
Probable space group: P N M A
;
_chemical_formula_sum "Si O2"
_cell_formula_units_Z 64
_cell_length_a 19.438622
_cell_length_b 9.351633
_cell_length_c 19.591893
_cell_angle_alpha 90.000000
_cell_angle_beta 90.000000
_cell_angle_gamma 90.000000
_cell_volume 3561.470322
_symmetry_space_group_name_H-M "P N M A"
_symmetry_group_IT_number 62
_symmetry_cell_setting 'orthorhombic'
loop_
_space_group_symop_operation_xyz
x,y,z
1/2-x,-y,1/2+z
1/2+x,1/2-y,1/2-z
-x,1/2+y,-z
-x,-y,-z
1/2+x,y,1/2-z
1/2-x,1/2+y,1/2+z
x,1/2-y,z
loop_
_atom_site_type_symbol
_atom_site_label
_atom_site_fract_x
_atom_site_fract_y
_atom_site_fract_z
Si Si1 0.486541 0.092772 0.596064
Si Si2 0.663193 0.586634 0.763833
Si Si3 0.240412 0.584366 0.142490
Si Si4 0.217044 0.586550 0.986765
Si Si5 0.011884 0.918845 0.779838
Si Si6 0.400830 0.594224 0.513655
Si Si7 0.275623 0.587313 0.844522
Si Si8 0.126740 0.581328 0.251910
O O1 0.468461 0.250000 0.628044
O O2 0.530380 0.117408 0.528854
O O3 0.527194 0.989623 0.646976
O O4 0.415185 0.012987 0.576936
O O5 0.674433 0.750000 0.784158
O O6 0.695009 0.494462 0.824347
O O7 0.581826 0.552394 0.761695
O O8 0.701794 0.555249 0.691591
O O9 0.255761 0.750000 0.150679
O O10 0.169636 0.545413 0.182713
O O11 0.240985 0.540063 0.062639
O O12 0.190659 0.750000 0.987643
O O13 0.272685 0.565800 0.926690
O O14 0.155815 0.479840 0.966094
O O15 0.996485 0.750000 0.786710
O O16 0.946591 0.001407 0.748488
O O17 0.376119 0.750000 0.540493
O O18 0.298285 0.750000 0.828099
O O19 0.332462 0.478166 0.817167
O O20 0.115498 0.750000 0.261628
#
# Coordination Sequence:
#
# PCOD8251174 Si02
#       8
#     8   8   8   8   8   8   8   8
#     4  10  20  32  45  66  99 135 169 204 245 295
#     4   9  19  34  52  75 102 133 168 207 252 303
#     4   9  19  34  52  75 102 133 168 207 253 303
#     4  10  19  32  52  75 100 131 168 211 258 307
#     4  11  21  33  52  76 100 130 170 211 255 307
#     4  10  20  31  45  68  99 135 170 204 245 297
#     4   9  18  34  54  75 102 136 171 209 255 306
#     4  10  20  34  52  76 106 137 170 210 255 304
#
# _framework density 17.970105
#
# number of rings (size 3 to 8) (size 9 to 14) (size 15 to 20)
#    0.000    2.250    0.000    3.000    0.000    6.000 
#    0.000    2.500    0.000    0.750    0.000    0.000 
#    0.000    0.000    0.000    0.000    0.000    0.000 
#
# Total GULP energy -793126.903135 kJ/mol
# GULP energy per Si atom -12392.607861 kJ/mol
# Density = 1.792920 g / cm^3
# Si number density = 17.970105 Si / 1000 Ang^3
#
#
#
# Elastic Constant Matrix: (Units=GPa)
#
#
# Indices 1 2 3 4 5 6 
#
# 1 93.1129 55.9744 33.5169 0.0000 0.0000 0.0000
# 2 55.9744 112.8843 39.1228 0.0000 0.0000 0.0000
# 3 33.5169 39.1228 85.5755 0.0000 0.0000 0.0000
# 4 0.0000 0.0000 0.0000 24.1706 0.0000 0.0000
# 5 0.0000 0.0000 0.0000 0.0000 21.7439 0.0000
# 6 0.0000 0.0000 0.0000 0.0000 0.0000 31.0342
#
#
#
# Elastic Compliance Matrix: (Units=1/GPa)
#
#
# Indices 1 2 3 4 5 6 
#
# 1 0.015977 -0.006837 -0.003132 0.000000 0.000000 0.000000
# 2 -0.006837 0.013452 -0.003472 0.000000 0.000000 0.000000
# 3 -0.003132 -0.003472 0.014500 0.000000 0.000000 0.000000
# 4 0.000000 0.000000 0.000000 0.041373 0.000000 0.000000
# 5 0.000000 0.000000 0.000000 0.000000 0.045990 0.000000
# 6 0.000000 0.000000 0.000000 0.000000 0.000000 0.032223
#
#
# Mechanical properties :
#
#
# Convention : Reuss Voigt Hill
#
# Bulk Modulus (GPa) = 58.66237 60.97788 59.82012
# Shear Modulus (GPa) = 25.50005 26.25363 25.87684
#
# Velocity S-wave (km/s) = 3.77108 3.82640 3.79884
# Velocity P-wave (km/s) = 7.18865 7.31631 7.25276
#
# Compressibility (1/GPa) = 0.01704670
#
# Stress axis : x y z
#
# Youngs Moduli (GPa) = 62.59009 74.33793 68.96702
#
# Poissons Ratio (x) = 0.50823 0.21601
# Poissons Ratio (y) = 0.42792 0.23947
# Poissons Ratio (z) = 0.19603 0.25812
#
# Static dielectric constant tensor:
#      x y z
#    x 3.121970 0.000000 0.000000 
#    y 0.000000 3.623030 0.000000 
#    z 0.000000 0.000000 3.198640 
# 
# 
# High freq. dielectric constant tensor:
#      x y z
#    x 1.674830 0.000000 0.000000 
#    y 0.000000 1.712420 0.000000 
#    z 0.000000 0.000000 1.676430 
# 
# From -- ./inp_files/27740.got.cif
#   From: 2010.03.12/outbox.cif.g09.slc.cpg/sg62_14_cif.got.tgz:27740.got - 2010.04.10 19:12:36.
