data_PCOD8251077
_publ_section_title
;
Structure prediction by ZEFSAII (Michael W. Deem and Ramdas Pophale) SiO2 
 PCOD8251077
Probable space group: P N M A
;
_chemical_formula_sum "Si O2"
_cell_formula_units_Z 64
_cell_length_a 9.805924
_cell_length_b 29.466796
_cell_length_c 11.764254
_cell_angle_alpha 90.000000
_cell_angle_beta 90.000000
_cell_angle_gamma 90.000000
_cell_volume 3399.271336
_symmetry_space_group_name_H-M "P N M A"
_symmetry_group_IT_number 62
_symmetry_cell_setting 'orthorhombic'
loop_
_space_group_symop_operation_xyz
x,y,z
1/2-x,-y,1/2+z
1/2+x,1/2-y,1/2-z
-x,1/2+y,-z
-x,-y,-z
1/2+x,y,1/2-z
1/2-x,1/2+y,1/2+z
x,1/2-y,z
loop_
_atom_site_type_symbol
_atom_site_label
_atom_site_fract_x
_atom_site_fract_y
_atom_site_fract_z
Si Si1 0.340058 0.923362 0.110748
Si Si2 0.880761 0.863654 0.830131
Si Si3 0.534948 0.036790 0.373022
Si Si4 0.146834 0.800025 0.612908
Si Si5 0.225362 0.504861 0.952040
Si Si6 0.889914 0.047699 0.725682
Si Si7 0.626997 0.158462 0.065363
Si Si8 0.394158 0.298656 0.378541
O O1 0.475454 0.924595 0.188761
O O2 0.203881 0.921513 0.190135
O O3 0.329404 0.969304 0.035575
O O4 0.351066 0.880985 0.026585
O O5 0.891894 0.916920 0.841148
O O6 0.753373 0.841456 0.896703
O O7 0.876578 0.858056 0.695079
O O8 0.005528 0.840544 0.897616
O O9 0.368357 0.041253 0.381006
O O10 0.605454 0.023797 0.490361
O O11 0.566473 0.999820 0.278312
O O12 0.196093 0.750000 0.567138
O O13 0.119354 0.793499 0.744552
O O14 0.013198 0.814712 0.541321
O O15 0.304252 0.466539 0.883720
O O16 0.753420 0.192713 0.055073
O O17 0.451259 0.250000 0.423683
#
# Coordination Sequence:
#
# PCOD8251077 Si02
#       8
#     8   8   8   8   8   8   8   8
#     4  11  23  38  58  79 108 149 203 238 293 335
#     4  10  19  31  53  81 116 146 181 221 265 345
#     4  10  21  35  54  79 113 147 184 234 283 323
#     4   9  18  32  51  81 117 146 173 220 279 337
#     4  10  21  37  54  76 108 150 188 235 279 339
#     4  11  22  40  56  78 111 154 193 246 289 330
#     4  10  20  33  52  83 110 147 186 223 270 350
#     4   9  17  32  52  79 115 148 173 219 284 338
#
# _framework density 18.827563999999999
#
# number of rings (size 3 to 8) (size 9 to 14) (size 15 to 20)
#    0.000    2.000    1.250    2.625    1.750    5.000 
#    0.000    0.000    0.000    0.000    0.000    3.500 
#    0.000    0.000    0.000    0.000    0.000    0.000 
#
# Total GULP energy -792849.866852 kJ/mol
# GULP energy per Si atom -12388.279170 kJ/mol
# Density = 1.878471 g / cm^3
# Si number density = 18.827564 Si / 1000 Ang^3
#
#
#
# Elastic Constant Matrix: (Units=GPa)
#
#
# Indices 1 2 3 4 5 6 
#
# 1 116.1502 42.5268 33.7252 0.0000 0.0000 0.0000
# 2 42.5268 91.2748 33.4118 0.0000 0.0000 0.0000
# 3 33.7252 33.4118 46.0929 0.0000 0.0000 0.0000
# 4 0.0000 0.0000 0.0000 0.5648 0.0000 0.0000
# 5 0.0000 0.0000 0.0000 0.0000 25.5910 0.0000
# 6 0.0000 0.0000 0.0000 0.0000 0.0000 17.9737
#
#
#
# Elastic Compliance Matrix: (Units=1/GPa)
#
#
# Indices 1 2 3 4 5 6 
#
# 1 0.011547 -0.003114 -0.006192 0.000000 0.000000 0.000000
# 2 -0.003114 0.015753 -0.009141 0.000000 0.000000 0.000000
# 3 -0.006192 -0.009141 0.032852 0.000000 0.000000 0.000000
# 4 0.000000 0.000000 0.000000 1.770571 0.000000 0.000000
# 5 0.000000 0.000000 0.000000 0.000000 0.039076 0.000000
# 6 0.000000 0.000000 0.000000 0.000000 0.000000 0.055637
#
#
# Mechanical properties :
#
#
# Convention : Reuss Voigt Hill
#
# Bulk Modulus (GPa) = 42.99351 52.53838 47.76594
# Shear Modulus (GPa) = 2.53797 18.41619 10.47708
#
# Velocity S-wave (km/s) = 1.16230 3.13093 2.36153
# Velocity P-wave (km/s) = 4.96852 6.40593 5.73246
#
# Compressibility (1/GPa) = 0.02325933
#
# Stress axis : x y z
#
# Youngs Moduli (GPa) = 86.59922 63.48176 30.43982
#
# Poissons Ratio (x) = 0.19765 0.18849
# Poissons Ratio (y) = 0.26963 0.27824
# Poissons Ratio (z) = 0.53623 0.58026
#
# Static dielectric constant tensor:
#      x y z
#    x 3.818880 0.000000 0.000000 
#    y 0.000000 3.471560 0.000000 
#    z 0.000000 0.000000 3.218750 
# 
# 
# High freq. dielectric constant tensor:
#      x y z
#    x 1.748960 0.000000 0.000000 
#    y 0.000000 1.722990 0.000000 
#    z 0.000000 0.000000 1.688480 
# 
# From -- ./inp_files/11544.got.cif
#   From: 2010.03.12/outbox.cif.g09.slc.cpg/sg62_6_cif.got.tgz:11544.got - 2010.04.10 19:12:36.
