data_PCOD8251311
_publ_section_title
;
Structure prediction by ZEFSAII (Michael W. Deem and Ramdas Pophale) SiO2 
 PCOD8251311
Probable space group: P N M A
;
_chemical_formula_sum "Si O2"
_cell_formula_units_Z 64
_cell_length_a 24.407978
_cell_length_b 8.868980
_cell_length_c 15.284659
_cell_angle_alpha 90.000000
_cell_angle_beta 90.000000
_cell_angle_gamma 90.000000
_cell_volume 3308.729266
_symmetry_space_group_name_H-M "P N M A"
_symmetry_group_IT_number 62
_symmetry_cell_setting 'orthorhombic'
loop_
_space_group_symop_operation_xyz
x,y,z
1/2-x,-y,1/2+z
1/2+x,1/2-y,1/2-z
-x,1/2+y,-z
-x,-y,-z
1/2+x,y,1/2-z
1/2-x,1/2+y,1/2+z
x,1/2-y,z
loop_
_atom_site_type_symbol
_atom_site_label
_atom_site_fract_x
_atom_site_fract_y
_atom_site_fract_z
Si Si1 0.603525 0.075617 0.493406
Si Si2 0.428459 0.072598 0.327777
Si Si3 0.342157 0.425028 0.010078
Si Si4 0.150844 0.072384 0.687171
Si Si5 0.135323 0.427519 0.330819
Si Si6 0.053174 0.427422 0.185405
Si Si7 0.277692 0.579171 0.455678
Si Si8 0.243320 0.575231 0.782103
O O1 0.587135 0.250000 0.508924
O O2 0.576307 0.007061 0.405965
O O3 0.669334 0.059670 0.482881
O O4 0.581467 0.977836 0.573343
O O5 0.418092 0.250000 0.319531
O O6 0.490257 0.028370 0.301513
O O7 0.388903 0.986305 0.262456
O O8 0.355898 0.250000 0.017771
O O9 0.368090 0.508450 0.093493
O O10 0.370427 0.487832 0.922751
O O11 0.276943 0.457592 0.010061
O O12 0.148219 0.250000 0.684653
O O13 0.212900 0.018241 0.706490
O O14 0.131227 0.250000 0.349213
O O15 0.087504 0.489999 0.267866
O O16 0.192735 0.467330 0.283811
O O17 0.062432 0.250000 0.181388
O O18 0.274380 0.750000 0.418218
O O19 0.284011 0.465137 0.375047
O O20 0.233659 0.750000 0.762413
#
# Coordination Sequence:
#
# PCOD8251311 Si02
#       8
#     8   8   8   8   8   8   8   8
#     4  10  19  34  57  85 118 157 189 225 281 345
#     4  11  22  38  58  84 116 151 196 246 285 332
#     4  10  21  37  58  86 118 150 187 237 290 343
#     4  12  24  38  57  82 114 154 197 239 289 344
#     4   9  19  38  61  85 115 151 189 233 288 347
#     4   9  20  37  60  85 113 152 196 237 285 342
#     4   9  18  32  54  82 118 153 182 220 277 341
#     4  10  19  32  56  84 114 148 186 231 283 339
#
# _framework density 19.342772
#
# number of rings (size 3 to 8) (size 9 to 14) (size 15 to 20)
#    0.000    2.000    1.250    2.625    1.750    1.000 
#    0.000    3.125    0.000    0.000    0.000    0.000 
#    0.000    0.000    0.000    0.000    0.000    0.000 
#
# Total GULP energy -793729.390162 kJ/mol
# GULP energy per Si atom -12402.021721 kJ/mol
# Density = 1.929875 g / cm^3
# Si number density = 19.342772 Si / 1000 Ang^3
#
#
#
# Elastic Constant Matrix: (Units=GPa)
#
#
# Indices 1 2 3 4 5 6 
#
# 1 56.0155 25.1901 35.7281 0.0000 0.0000 0.0000
# 2 25.1901 84.2690 50.8183 0.0000 0.0000 0.0000
# 3 35.7281 50.8183 126.9768 0.0000 0.0000 0.0000
# 4 0.0000 0.0000 0.0000 32.0615 0.0000 0.0000
# 5 0.0000 0.0000 0.0000 0.0000 19.5128 0.0000
# 6 0.0000 0.0000 0.0000 0.0000 0.0000 19.0231
#
#
#
# Elastic Compliance Matrix: (Units=1/GPa)
#
#
# Indices 1 2 3 4 5 6 
#
# 1 0.022672 -0.003862 -0.004834 0.000000 0.000000 0.000000
# 2 -0.003862 0.016300 -0.005437 0.000000 0.000000 0.000000
# 3 -0.004834 -0.005437 0.011411 0.000000 0.000000 0.000000
# 4 0.000000 0.000000 0.000000 0.031190 0.000000 0.000000
# 5 0.000000 0.000000 0.000000 0.000000 0.051248 0.000000
# 6 0.000000 0.000000 0.000000 0.000000 0.000000 0.052568
#
#
# Mechanical properties :
#
#
# Convention : Reuss Voigt Hill
#
# Bulk Modulus (GPa) = 45.21197 54.52602 49.86899
# Shear Modulus (GPa) = 22.62161 24.48780 23.55471
#
# Velocity S-wave (km/s) = 3.42352 3.56194 3.49342
# Velocity P-wave (km/s) = 6.24917 6.72065 6.48919
#
# Compressibility (1/GPa) = 0.02211804
#
# Stress axis : x y z
#
# Youngs Moduli (GPa) = 44.10712 61.34988 87.63176
#
# Poissons Ratio (x) = 0.23696 0.42357
# Poissons Ratio (y) = 0.17036 0.47643
# Poissons Ratio (z) = 0.21320 0.33354
#
# Static dielectric constant tensor:
#      x y z
#    x 3.609000 0.000000 0.000000 
#    y 0.000000 3.429400 0.000000 
#    z 0.000000 0.000000 3.539180 
# 
# 
# High freq. dielectric constant tensor:
#      x y z
#    x 1.746600 0.000000 0.000000 
#    y 0.000000 1.742660 0.000000 
#    z 0.000000 0.000000 1.752410 
# 
# From -- ./inp_files/20889.got.cif
#   From: 2010.03.12/outbox.cif.g09.slc.cpg/sg62_11_cif.got.tgz:20889.got - 2010.04.10 19:12:36.
