data_PCOD8251342
_publ_section_title
;
Structure prediction by ZEFSAII (Michael W. Deem and Ramdas Pophale) SiO2 
 PCOD8251342
Probable space group: P N M A
;
_chemical_formula_sum "Si O2"
_cell_formula_units_Z 64
_cell_length_a 18.831442
_cell_length_b 8.932855
_cell_length_c 23.006431
_cell_angle_alpha 90.000000
_cell_angle_beta 90.000000
_cell_angle_gamma 90.000000
_cell_volume 3870.108252
_symmetry_space_group_name_H-M "P N M A"
_symmetry_group_IT_number 62
_symmetry_cell_setting 'orthorhombic'
loop_
_space_group_symop_operation_xyz
x,y,z
1/2-x,-y,1/2+z
1/2+x,1/2-y,1/2-z
-x,1/2+y,-z
-x,-y,-z
1/2+x,y,1/2-z
1/2-x,1/2+y,1/2+z
x,1/2-y,z
loop_
_atom_site_type_symbol
_atom_site_label
_atom_site_fract_x
_atom_site_fract_y
_atom_site_fract_z
Si Si1 0.631861 0.424216 0.781198
Si Si2 0.133324 0.923405 0.930888
Si Si3 0.745906 0.075781 0.345000
Si Si4 0.661096 0.078176 0.230612
Si Si5 0.779494 0.576750 0.165912
Si Si6 0.846949 0.077389 0.935705
Si Si7 0.496992 0.925111 0.741254
Si Si8 0.003360 0.572982 0.116322
O O1 0.619126 0.250000 0.792345
O O2 0.681367 0.488401 0.832074
O O3 0.667088 0.455400 0.718761
O O4 0.557260 0.510914 0.783822
O O5 0.119201 0.750000 0.917660
O O6 0.194981 0.983425 0.889227
O O7 0.060284 0.011517 0.922712
O O8 0.160248 0.949205 0.995995
O O9 0.763560 0.250000 0.349240
O O10 0.688134 0.039868 0.295299
O O11 0.714371 0.019558 0.405739
O O12 0.677729 0.250000 0.215555
O O13 0.577827 0.042505 0.227617
O O14 0.700565 0.975731 0.183369
O O15 0.777414 0.750000 0.149220
O O16 0.835885 0.250000 0.918641
O O17 0.923864 0.022348 0.913982
O O18 0.508347 0.750000 0.730094
O O19 0.501442 0.008532 0.680442
O O20 0.995514 0.750000 0.120241
#
# Coordination Sequence:
#
# PCOD8251342 Si02
#       8
#     8   8   8   8   8   8   8   8
#     4  10  20  33  50  73 102 133 166 207 254 299
#     4  11  22  35  51  70  99 138 176 213 251 294
#     4  10  19  33  52  74  98 131 170 210 254 297
#     4   9  19  33  50  73 100 130 165 205 253 302
#     4  10  20  33  50  73  98 130 169 210 253 296
#     4  10  22  36  50  71 100 137 175 212 254 296
#     4  11  20  32  51  76 103 133 168 204 249 303
#     4  11  21  33  48  70 102 136 174 211 245 292
#
# _framework density 16.537006000000002
#
# number of rings (size 3 to 8) (size 9 to 14) (size 15 to 20)
#    0.000    1.750    2.500    2.625    0.000    4.000 
#    0.000    0.000    0.000    0.000    0.000    0.875 
#    0.000    0.000    0.000    0.000    0.000    0.000 
#
# Total GULP energy -793921.190767 kJ/mol
# GULP energy per Si atom -12405.018606 kJ/mol
# Density = 1.649937 g / cm^3
# Si number density = 16.537006 Si / 1000 Ang^3
#
#
#
# Elastic Constant Matrix: (Units=GPa)
#
#
# Indices 1 2 3 4 5 6 
#
# 1 92.6973 37.8469 33.2881 0.0000 0.0000 0.0000
# 2 37.8469 68.6347 26.5698 0.0000 0.0000 0.0000
# 3 33.2881 26.5698 60.4075 0.0000 0.0000 0.0000
# 4 0.0000 0.0000 0.0000 25.2306 0.0000 0.0000
# 5 0.0000 0.0000 0.0000 0.0000 20.1287 0.0000
# 6 0.0000 0.0000 0.0000 0.0000 0.0000 31.2519
#
#
#
# Elastic Compliance Matrix: (Units=1/GPa)
#
#
# Indices 1 2 3 4 5 6 
#
# 1 0.015409 -0.006279 -0.005729 0.000000 0.000000 0.000000
# 2 -0.006279 0.020118 -0.005389 0.000000 0.000000 0.000000
# 3 -0.005729 -0.005389 0.022082 0.000000 0.000000 0.000000
# 4 0.000000 0.000000 0.000000 0.039634 0.000000 0.000000
# 5 0.000000 0.000000 0.000000 0.000000 0.049680 0.000000
# 6 0.000000 0.000000 0.000000 0.000000 0.000000 0.031998
#
#
# Mechanical properties :
#
#
# Convention : Reuss Voigt Hill
#
# Bulk Modulus (GPa) = 43.83170 46.34991 45.09080
# Shear Modulus (GPa) = 22.59160 23.59121 23.09140
#
# Velocity S-wave (km/s) = 3.70012 3.78109 3.74083
# Velocity P-wave (km/s) = 6.69457 6.86666 6.78116
#
# Compressibility (1/GPa) = 0.02281454
#
# Stress axis : x y z
#
# Youngs Moduli (GPa) = 64.89773 49.70582 45.28615
#
# Poissons Ratio (x) = 0.31210 0.25947
# Poissons Ratio (y) = 0.40748 0.24404
# Poissons Ratio (z) = 0.37183 0.26786
#
# Static dielectric constant tensor:
#      x y z
#    x 3.184360 0.000000 0.000000 
#    y 0.000000 3.225680 0.000000 
#    z 0.000000 0.000000 2.870300 
# 
# 
# High freq. dielectric constant tensor:
#      x y z
#    x 1.632970 0.000000 0.000000 
#    y 0.000000 1.653140 0.000000 
#    z 0.000000 0.000000 1.607620 
# 
# From -- ./inp_files/27617.got.cif
#   From: 2010.03.12/outbox.cif.g09.slc.cpg/sg62_14_cif.got.tgz:27617.got - 2010.04.10 19:12:36.
