data_PCOD8251029
_publ_section_title
;
Structure prediction by ZEFSAII (Michael W. Deem and Ramdas Pophale) SiO2 
 PCOD8251029
Probable space group: P N M A
;
_chemical_formula_sum "Si O2"
_cell_formula_units_Z 64
_cell_length_a 20.094535
_cell_length_b 9.099403
_cell_length_c 19.862004
_cell_angle_alpha 90.000000
_cell_angle_beta 90.000000
_cell_angle_gamma 90.000000
_cell_volume 3631.733111
_symmetry_space_group_name_H-M "P N M A"
_symmetry_group_IT_number 62
_symmetry_cell_setting 'orthorhombic'
loop_
_space_group_symop_operation_xyz
x,y,z
1/2-x,-y,1/2+z
1/2+x,1/2-y,1/2-z
-x,1/2+y,-z
-x,-y,-z
1/2+x,y,1/2-z
1/2-x,1/2+y,1/2+z
x,1/2-y,z
loop_
_atom_site_type_symbol
_atom_site_label
_atom_site_fract_x
_atom_site_fract_y
_atom_site_fract_z
Si Si1 0.229643 0.579305 0.073447
Si Si2 0.441549 0.920451 0.410429
Si Si3 0.729576 0.424481 0.071055
Si Si4 0.332310 0.576473 0.182154
Si Si5 0.161361 0.924733 0.823199
Si Si6 0.954592 0.579318 0.409961
Si Si7 0.418022 0.922334 0.940367
Si Si8 0.915405 0.418145 0.954133
O O1 0.248108 0.750000 0.069767
O O2 0.274063 0.513858 0.133517
O O3 0.151479 0.552119 0.088780
O O4 0.248046 0.508782 0.001047
O O5 0.423396 0.750000 0.402099
O O6 0.521193 0.946949 0.406371
O O7 0.408357 0.011603 0.350347
O O8 0.414996 0.974976 0.482200
O O9 0.734107 0.250000 0.067592
O O10 0.778970 0.482175 0.128854
O O11 0.653998 0.474699 0.086864
O O12 0.325392 0.750000 0.196256
O O13 0.324474 0.486741 0.250009
O O14 0.403270 0.538793 0.148834
O O15 0.156837 0.750000 0.820863
O O16 0.970600 0.750000 0.410611
O O17 0.923451 0.530306 0.481404
O O18 0.024275 0.497553 0.396282
O O19 0.426615 0.750000 0.932020
O O20 0.915951 0.250000 0.981339
#
# Coordination Sequence:
#
# PCOD8251029 Si02
#       8
#     8   8   8   8   8   8   8   8
#     4   9  15  30  56  79  99 134 177 214 257 310
#     4  10  19  31  50  79 109 136 171 214 258 308
#     4   9  16  30  54  78  99 132 176 214 255 311
#     4  10  20  35  55  76 103 138 178 216 258 316
#     4  11  22  36  54  74 104 142 177 216 266 318
#     4   9  17  30  49  75 103 131 161 206 258 303
#     4   9  16  29  52  78 100 126 167 212 252 299
#     4   9  17  31  54  80 105 134 172 215 260 306
#
# _framework density 17.622440000000001
#
# number of rings (size 3 to 8) (size 9 to 14) (size 15 to 20)
#    0.000    2.500    2.500    0.750    0.000    1.000 
#    0.000    3.125    0.000    4.500    0.000    0.000 
#    0.000    0.000    0.000    0.000    0.000    0.000 
#
# Total GULP energy -793464.195395 kJ/mol
# GULP energy per Si atom -12397.878053 kJ/mol
# Density = 1.758233 g / cm^3
# Si number density = 17.622440 Si / 1000 Ang^3
#
#
#
# Elastic Constant Matrix: (Units=GPa)
#
#
# Indices 1 2 3 4 5 6 
#
# 1 151.4244 44.1745 72.4588 0.0000 0.0000 0.0000
# 2 44.1745 48.7400 41.0276 0.0000 0.0000 0.0000
# 3 72.4588 41.0276 117.9864 0.0000 0.0000 0.0000
# 4 0.0000 0.0000 0.0000 27.4496 0.0000 0.0000
# 5 0.0000 0.0000 0.0000 0.0000 26.2894 0.0000
# 6 0.0000 0.0000 0.0000 0.0000 0.0000 23.8868
#
#
#
# Elastic Compliance Matrix: (Units=1/GPa)
#
#
# Indices 1 2 3 4 5 6 
#
# 1 0.010365 -0.005706 -0.004381 0.000000 0.000000 0.000000
# 2 -0.005706 0.032149 -0.007675 0.000000 0.000000 0.000000
# 3 -0.004381 -0.007675 0.013835 0.000000 0.000000 0.000000
# 4 0.000000 0.000000 0.000000 0.036430 0.000000 0.000000
# 5 0.000000 0.000000 0.000000 0.000000 0.038038 0.000000
# 6 0.000000 0.000000 0.000000 0.000000 0.000000 0.041864
#
#
# Mechanical properties :
#
#
# Convention : Reuss Voigt Hill
#
# Bulk Modulus (GPa) = 48.02033 70.38582 59.20307
# Shear Modulus (GPa) = 23.23976 26.22448 24.73212
#
# Velocity S-wave (km/s) = 3.63541 3.86181 3.75032
# Velocity P-wave (km/s) = 6.70301 7.74032 7.24026
#
# Compressibility (1/GPa) = 0.02082452
#
# Stress axis : x y z
#
# Youngs Moduli (GPa) = 96.47746 31.10493 72.28013
#
# Poissons Ratio (x) = 0.17749 0.31668
# Poissons Ratio (y) = 0.55052 0.55475
# Poissons Ratio (z) = 0.42270 0.23873
#
# Static dielectric constant tensor:
#      x y z
#    x 3.571610 0.000000 0.000000 
#    y 0.000000 3.044200 0.000000 
#    z 0.000000 0.000000 3.073340 
# 
# 
# High freq. dielectric constant tensor:
#      x y z
#    x 1.698560 0.000000 0.000000 
#    y 0.000000 1.656380 0.000000 
#    z 0.000000 0.000000 1.653230 
# 
# From -- ./inp_files/27886.got.cif
#   From: 2010.03.12/outbox.cif.g09.slc.cpg/sg62_14_cif.got.tgz:27886.got - 2010.04.10 19:12:36.
