data_PCOD8251616
_publ_section_title
;
Structure prediction by ZEFSAII (Michael W. Deem and Ramdas Pophale) SiO2 
 PCOD8251616
Probable space group: P N M A
;
_chemical_formula_sum "Si O2"
_cell_formula_units_Z 40
_cell_length_a 15.227194
_cell_length_b 9.086082
_cell_length_c 15.153133
_cell_angle_alpha 90.000000
_cell_angle_beta 90.000000
_cell_angle_gamma 90.000000
_cell_volume 2096.519798
_symmetry_space_group_name_H-M "P N M A"
_symmetry_group_IT_number 62
_symmetry_cell_setting 'orthorhombic'
loop_
_space_group_symop_operation_xyz
x,y,z
1/2-x,-y,1/2+z
1/2+x,1/2-y,1/2-z
-x,1/2+y,-z
-x,-y,-z
1/2+x,y,1/2-z
1/2-x,1/2+y,1/2+z
x,1/2-y,z
loop_
_atom_site_type_symbol
_atom_site_label
_atom_site_fract_x
_atom_site_fract_y
_atom_site_fract_z
Si Si1 0.821219 0.424137 0.279722
Si Si2 0.480511 0.582097 0.751492
Si Si3 0.326170 0.075313 0.839984
Si Si4 0.765337 0.424101 0.470228
Si Si5 0.426672 0.582490 0.552346
O O1 0.804719 0.250000 0.270174
O O2 0.749607 0.504513 0.219703
O O3 0.813794 0.478070 0.381367
O O4 0.918485 0.470546 0.248680
O O5 0.475609 0.750000 0.785826
O O6 0.423152 0.479720 0.815161
O O7 0.439235 0.566528 0.655893
O O8 0.320487 0.250000 0.829393
O O9 0.314706 0.024151 0.941599
O O10 0.758320 0.250000 0.466539
O O11 0.666846 0.489424 0.471899
O O12 0.500000 0.500000 0.500000
O O13 0.431415 0.750000 0.521530
#
# Coordination Sequence:
#
# PCOD8251616 Si02
#       5
#     8   8   8   8   8
#     4  10  20  39  62  82 112 153 197 236 283 347
#     4  10  21  37  60  84 111 154 195 234 283 342
#     4  11  22  36  57  85 117 152 189 237 293 342
#     4   9  19  36  56  78 114 154 182 229 294 339
#     4  10  19  34  55  81 111 143 186 235 285 333
#
# _framework density 19.079238
#
# number of rings (size 3 to 8) (size 9 to 14) (size 15 to 20)
#    0.000    2.000    2.000    1.800    0.000    2.400 
#    0.000    3.000    0.000    0.000    0.000    0.000 
#    0.000    0.000    0.000    0.000    0.000    0.000 
#
# Total GULP energy -495985.451794 kJ/mol
# GULP energy per Si atom -12399.636295 kJ/mol
# Density = 1.903581 g / cm^3
# Si number density = 19.079238 Si / 1000 Ang^3
#
#
#
# Elastic Constant Matrix: (Units=GPa)
#
#
# Indices 1 2 3 4 5 6 
#
# 1 72.6365 24.9879 0.0201 0.0000 0.0000 0.0000
# 2 24.9879 50.8901 29.2879 0.0000 0.0000 0.0000
# 3 0.0201 29.2879 64.8700 0.0000 0.0000 0.0000
# 4 0.0000 0.0000 0.0000 23.5776 0.0000 0.0000
# 5 0.0000 0.0000 0.0000 0.0000 41.4858 0.0000
# 6 0.0000 0.0000 0.0000 0.0000 0.0000 33.5611
#
#
#
# Elastic Compliance Matrix: (Units=1/GPa)
#
#
# Indices 1 2 3 4 5 6 
#
# 1 0.017834 -0.011827 0.005334 0.000000 0.000000 0.000000
# 2 -0.011827 0.034391 -0.015524 0.000000 0.000000 0.000000
# 3 0.005334 -0.015524 0.022422 0.000000 0.000000 0.000000
# 4 0.000000 0.000000 0.000000 0.042413 0.000000 0.000000
# 5 0.000000 0.000000 0.000000 0.000000 0.024105 0.000000
# 6 0.000000 0.000000 0.000000 0.000000 0.000000 0.029796
#
#
# Mechanical properties :
#
#
# Convention : Reuss Voigt Hill
#
# Bulk Modulus (GPa) = 32.66307 32.99872 32.83089
# Shear Modulus (GPa) = 22.20251 28.66494 25.43373
#
# Velocity S-wave (km/s) = 3.41501 3.88031 3.65507
# Velocity P-wave (km/s) = 5.71896 6.11628 5.92095
#
# Compressibility (1/GPa) = 0.03061562
#
# Stress axis : x y z
#
# Youngs Moduli (GPa) = 56.07184 29.07711 44.59820
#
# Poissons Ratio (x) = 0.34389 -0.23789
# Poissons Ratio (y) = 0.66315 0.69232
# Poissons Ratio (z) = -0.29909 0.45138
#
# Static dielectric constant tensor:
#      x y z
#    x 3.642480 0.000000 0.000000 
#    y 0.000000 3.313180 0.000000 
#    z 0.000000 0.000000 3.612870 
# 
# 
# High freq. dielectric constant tensor:
#      x y z
#    x 1.755580 0.000000 0.000000 
#    y 0.000000 1.715410 0.000000 
#    z 0.000000 0.000000 1.750970 
# 
# From -- ./inp_files/18593.got.cif
#   From: 2010.03.12/outbox.cif.g09.slc.cpg/sg62_10_cif.got.tgz:18593.got - 2010.04.10 19:12:36.
