data_PCOD8251093
_publ_section_title
;
Structure prediction by ZEFSAII (Michael W. Deem and Ramdas Pophale) SiO2 
 PCOD8251093
Probable space group: P N M A
;
_chemical_formula_sum "Si O2"
_cell_formula_units_Z 48
_cell_length_a 13.626799
_cell_length_b 18.447155
_cell_length_c 11.765598
_cell_angle_alpha 90.000000
_cell_angle_beta 90.000000
_cell_angle_gamma 90.000000
_cell_volume 2957.585119
_symmetry_space_group_name_H-M "P N M A"
_symmetry_group_IT_number 62
_symmetry_cell_setting 'orthorhombic'
loop_
_space_group_symop_operation_xyz
x,y,z
1/2-x,-y,1/2+z
1/2+x,1/2-y,1/2-z
-x,1/2+y,-z
-x,-y,-z
1/2+x,y,1/2-z
1/2-x,1/2+y,1/2+z
x,1/2-y,z
loop_
_atom_site_type_symbol
_atom_site_label
_atom_site_fract_x
_atom_site_fract_y
_atom_site_fract_z
Si Si1 0.076351 0.919319 0.679792
Si Si2 0.908319 0.834126 0.556622
Si Si3 0.060738 0.467806 0.853240
Si Si4 0.799066 0.166842 0.155702
Si Si5 0.868952 0.068380 0.962597
Si Si6 0.338689 0.562467 0.135325
O O1 0.167330 0.873281 0.729883
O O2 0.004634 0.866298 0.614168
O O3 0.022100 0.960092 0.785532
O O4 0.120305 0.982685 0.597799
O O5 0.925760 0.750000 0.528223
O O6 0.817615 0.844623 0.642658
O O7 0.888702 0.875461 0.439368
O O8 0.121258 0.494093 0.964063
O O9 0.132793 0.423078 0.768189
O O10 0.967672 0.419328 0.889207
O O11 0.828531 0.250000 0.165929
O O12 0.854132 0.136887 0.044361
O O13 0.778367 0.062126 0.876259
#
# Coordination Sequence:
#
# PCOD8251093 Si02
#       6
#     8   8   8   8   8   8
#     4   9  18  29  49  73  95 120 166 201 238 273
#     4  10  19  32  48  69 103 130 157 198 243 295
#     4   8  18  29  48  73  93 125 159 202 232 281
#     4   9  18  31  48  70  94 128 162 192 243 290
#     4   9  16  32  48  70 100 120 159 201 237 279
#     4   9  19  30  49  74  94 127 161 199 240 285
#
# _framework density 16.229457
#
# number of rings (size 3 to 8) (size 9 to 14) (size 15 to 20)
#    1.000    2.000    0.000    1.000    2.333    0.000 
#    0.000    0.833    0.000    0.000    0.000    0.000 
#    0.000    0.000    0.000    0.000    0.000    0.000 
#
# Total GULP energy -594732.456845 kJ/mol
# GULP energy per Si atom -12390.259518 kJ/mol
# Density = 1.619252 g / cm^3
# Si number density = 16.229457 Si / 1000 Ang^3
#
#
#
# Elastic Constant Matrix: (Units=GPa)
#
#
# Indices 1 2 3 4 5 6 
#
# 1 69.1712 22.7843 30.3439 0.0000 0.0000 0.0000
# 2 22.7843 77.5930 8.2271 0.0000 0.0000 0.0000
# 3 30.3439 8.2271 54.5311 0.0000 0.0000 0.0000
# 4 0.0000 0.0000 0.0000 20.7300 0.0000 0.0000
# 5 0.0000 0.0000 0.0000 0.0000 30.1689 0.0000
# 6 0.0000 0.0000 0.0000 0.0000 0.0000 17.7909
#
#
#
# Elastic Compliance Matrix: (Units=1/GPa)
#
#
# Indices 1 2 3 4 5 6 
#
# 1 0.020857 -0.004973 -0.010856 0.000000 0.000000 0.000000
# 2 -0.004973 0.014283 0.000613 0.000000 0.000000 0.000000
# 3 -0.010856 0.000613 0.024286 0.000000 0.000000 0.000000
# 4 0.000000 0.000000 0.000000 0.048239 0.000000 0.000000
# 5 0.000000 0.000000 0.000000 0.000000 0.033147 0.000000
# 6 0.000000 0.000000 0.000000 0.000000 0.000000 0.056209
#
#
# Mechanical properties :
#
#
# Convention : Reuss Voigt Hill
#
# Bulk Modulus (GPa) = 34.49024 36.00065 35.24545
# Shear Modulus (GPa) = 21.08645 23.06729 22.07687
#
# Velocity S-wave (km/s) = 3.60845 3.77413 3.69222
# Velocity P-wave (km/s) = 6.21763 6.42048 6.31987
#
# Compressibility (1/GPa) = 0.02899371
#
# Stress axis : x y z
#
# Youngs Moduli (GPa) = 47.94500 70.01224 41.17536
#
# Poissons Ratio (x) = 0.34820 0.44699
# Poissons Ratio (y) = 0.23845 -0.02522
# Poissons Ratio (z) = 0.52048 -0.04289
#
# Static dielectric constant tensor:
#      x y z
#    x 2.978140 0.000000 0.000000 
#    y 0.000000 2.966740 0.000000 
#    z 0.000000 0.000000 2.941950 
# 
# 
# High freq. dielectric constant tensor:
#      x y z
#    x 1.620170 0.000000 0.000000 
#    y 0.000000 1.609640 0.000000 
#    z 0.000000 0.000000 1.611140 
# 
# From -- ./inp_files/13442.got.cif
#   From: 2010.03.12/outbox.cif.g09.slc.cpg/sg62_7_cif.got.tgz:13442.got - 2010.04.10 19:12:36.
