data_PCOD8251966
_publ_section_title
;
Structure prediction by ZEFSAII (Michael W. Deem and Ramdas Pophale) SiO2 
 PCOD8251966
Probable space group: P N M A
;
_chemical_formula_sum "Si O2"
_cell_formula_units_Z 64
_cell_length_a 29.298005
_cell_length_b 8.863183
_cell_length_c 12.691703
_cell_angle_alpha 90.000000
_cell_angle_beta 90.000000
_cell_angle_gamma 90.000000
_cell_volume 3295.699952
_symmetry_space_group_name_H-M "P N M A"
_symmetry_group_IT_number 62
_symmetry_cell_setting 'orthorhombic'
loop_
_space_group_symop_operation_xyz
x,y,z
1/2-x,-y,1/2+z
1/2+x,1/2-y,1/2-z
-x,1/2+y,-z
-x,-y,-z
1/2+x,y,1/2-z
1/2-x,1/2+y,1/2+z
x,1/2-y,z
loop_
_atom_site_type_symbol
_atom_site_label
_atom_site_fract_x
_atom_site_fract_y
_atom_site_fract_z
Si Si1 0.467123 0.071652 0.288214
Si Si2 0.919493 0.575285 0.394508
Si Si3 0.887910 0.928072 0.623835
Si Si4 0.703211 0.579208 0.062393
Si Si5 0.796000 0.422765 0.113624
Si Si6 0.393687 0.428638 0.459737
Si Si7 0.332518 0.082908 0.162973
Si Si8 0.562983 0.570726 0.322407
O O1 0.473792 0.250000 0.289533
O O2 0.426735 0.014964 0.365630
O O3 0.458103 0.018826 0.167489
O O4 0.512593 0.994792 0.330502
O O5 0.931739 0.750000 0.385280
O O6 0.914992 0.524895 0.516869
O O7 0.871508 0.543130 0.337410
O O8 0.889840 0.750000 0.640725
O O9 0.835133 0.977785 0.618776
O O10 0.911582 0.010594 0.719997
O O11 0.696953 0.750000 0.103068
O O12 0.753776 0.524668 0.083944
O O13 0.699425 0.567699 0.937425
O O14 0.787100 0.250000 0.079384
O O15 0.799897 0.439050 0.238584
O O16 0.842149 0.487030 0.059285
O O17 0.393529 0.250000 0.454977
O O18 0.410551 0.486351 0.573302
O O19 0.356000 0.250000 0.167528
O O20 0.560794 0.750000 0.317421
#
# Coordination Sequence:
#
# PCOD8251966 Si02
#       8
#     8   8   8   8   8   8   8   8
#     4  11  21  38  62  87 117 156 195 236 294 354
#     4  10  20  35  59  87 113 143 191 245 288 337
#     4  10  22  41  60  82 115 157 195 236 295 354
#     4  10  21  36  56  86 115 146 190 241 290 342
#     4  10  19  36  59  83 112 151 191 233 288 351
#     4   9  20  38  60  85 117 154 194 239 291 345
#     4   9  18  35  57  78 109 149 188 232 288 346
#     4  11  23  39  59  87 121 156 196 243 289 342
#
# _framework density 19.419243000000002
#
# number of rings (size 3 to 8) (size 9 to 14) (size 15 to 20)
#    0.000    2.000    1.250    2.250    0.000    4.000 
#    0.000    5.625    0.000    0.000    0.000    0.000 
#    0.000    0.000    0.000    0.000    0.000    0.000 
#
# Total GULP energy -793597.411485 kJ/mol
# GULP energy per Si atom -12399.959554 kJ/mol
# Density = 1.937504 g / cm^3
# Si number density = 19.419243 Si / 1000 Ang^3
#
#
#
# Elastic Constant Matrix: (Units=GPa)
#
#
# Indices 1 2 3 4 5 6 
#
# 1 66.1210 24.1474 33.7560 0.0000 0.0000 0.0000
# 2 24.1474 70.1485 35.5568 0.0000 0.0000 0.0000
# 3 33.7560 35.5568 106.8384 0.0000 0.0000 0.0000
# 4 0.0000 0.0000 0.0000 23.9583 0.0000 0.0000
# 5 0.0000 0.0000 0.0000 0.0000 26.6398 0.0000
# 6 0.0000 0.0000 0.0000 0.0000 0.0000 36.5245
#
#
#
# Elastic Compliance Matrix: (Units=1/GPa)
#
#
# Indices 1 2 3 4 5 6 
#
# 1 0.019013 -0.004210 -0.004606 0.000000 0.000000 0.000000
# 2 -0.004210 0.018081 -0.004687 0.000000 0.000000 0.000000
# 3 -0.004606 -0.004687 0.012375 0.000000 0.000000 0.000000
# 4 0.000000 0.000000 0.000000 0.041739 0.000000 0.000000
# 5 0.000000 0.000000 0.000000 0.000000 0.037538 0.000000
# 6 0.000000 0.000000 0.000000 0.000000 0.000000 0.027379
#
#
# Mechanical properties :
#
#
# Convention : Reuss Voigt Hill
#
# Bulk Modulus (GPa) = 44.51986 47.78093 46.15039
# Shear Modulus (GPa) = 26.23042 27.40102 26.81572
#
# Velocity S-wave (km/s) = 3.67923 3.76044 3.72006
# Velocity P-wave (km/s) = 6.40503 6.59643 6.50143
#
# Compressibility (1/GPa) = 0.02246189
#
# Stress axis : x y z
#
# Youngs Moduli (GPa) = 52.59622 55.30795 80.80712
#
# Poissons Ratio (x) = 0.23285 0.37220
# Poissons Ratio (y) = 0.22144 0.37876
# Poissons Ratio (z) = 0.24226 0.25924
#
# Static dielectric constant tensor:
#      x y z
#    x 3.516940 0.000000 0.000000 
#    y 0.000000 3.521980 0.000000 
#    z 0.000000 0.000000 3.822110 
# 
# 
# High freq. dielectric constant tensor:
#      x y z
#    x 1.753820 0.000000 0.000000 
#    y 0.000000 1.749210 0.000000 
#    z 0.000000 0.000000 1.764530 
# 
# From -- ./inp_files/15822.got.cif
#   From: 2010.03.12/outbox.cif.g09.slc.cpg/sg62_8_cif.got.tgz:15822.got - 2010.04.10 19:12:36.
