data_PCOD8251627
_publ_section_title
;
Structure prediction by ZEFSAII (Michael W. Deem and Ramdas Pophale) SiO2 
 PCOD8251627
Probable space group: P N M A
;
_chemical_formula_sum "Si O2"
_cell_formula_units_Z 52
_cell_length_a 5.132942
_cell_length_b 21.568533
_cell_length_c 25.300987
_cell_angle_alpha 90.000000
_cell_angle_beta 90.000000
_cell_angle_gamma 90.000000
_cell_volume 2801.073002
_symmetry_space_group_name_H-M "P N M A"
_symmetry_group_IT_number 62
_symmetry_cell_setting 'orthorhombic'
loop_
_space_group_symop_operation_xyz
x,y,z
1/2-x,-y,1/2+z
1/2+x,1/2-y,1/2-z
-x,1/2+y,-z
-x,-y,-z
1/2+x,y,1/2-z
1/2-x,1/2+y,1/2+z
x,1/2-y,z
loop_
_atom_site_type_symbol
_atom_site_label
_atom_site_fract_x
_atom_site_fract_y
_atom_site_fract_z
Si Si1 0.995132 0.323778 0.607685
Si Si2 0.967382 0.676193 0.925459
Si Si3 0.495381 0.323561 0.545156
Si Si4 0.031942 0.359414 0.363668
Si Si5 0.556283 0.250000 0.216542
Si Si6 0.527762 0.536012 0.784137
Si Si7 0.464202 0.892445 0.216568
O O1 0.996441 0.250000 0.612086
O O2 0.243785 0.348853 0.575709
O O3 0.990464 0.350545 0.666009
O O4 0.746226 0.348942 0.575952
O O5 0.996028 0.750000 0.920492
O O6 0.183336 0.644100 0.889173
O O7 0.681940 0.654327 0.908205
O O8 0.006266 0.652371 0.985150
O O9 0.498850 0.250000 0.544404
O O10 0.998404 0.310765 0.316837
O O11 0.992762 0.427358 0.339169
O O12 0.356467 0.250000 0.265427
O O13 0.293334 0.554214 0.745206
O O14 0.517409 0.464123 0.799896
O O15 0.683717 0.876026 0.259507
#
# Coordination Sequence:
#
# PCOD8251627 Si02
#       7
#     8   8   8   8   4   8   8
#     4  10  19  34  55  84 109 136 169 207 266 308
#     4  11  20  35  52  78 105 135 180 220 268 308
#     4   9  19  33  54  77 108 141 169 212 257 321
#     4  12  21  34  53  74 104 137 179 225 261 312
#     4  12  22  32  46  72 104 132 164 218 276 302
#     4  10  21  38  54  73 101 143 183 208 254 317
#     4  10  21  36  57  80 107 140 174 210 249 313
#
# _framework density 18.564316000000002
#
# number of rings (size 3 to 8) (size 9 to 14) (size 15 to 20)
#    0.000    1.538    1.538    4.615    0.000    3.077 
#    0.000    0.000    0.000    5.538    0.000    0.000 
#    0.000    0.000    0.000    0.000    0.000    0.000 
#
# Total GULP energy -645076.460781 kJ/mol
# GULP energy per Si atom -12405.316553 kJ/mol
# Density = 1.852206 g / cm^3
# Si number density = 18.564316 Si / 1000 Ang^3
#
#
#
# Elastic Constant Matrix: (Units=GPa)
#
#
# Indices 1 2 3 4 5 6 
#
# 1 102.6882 16.7059 23.9057 0.0000 0.0000 0.0000
# 2 16.7059 36.8815 33.5111 0.0000 0.0000 0.0000
# 3 23.9057 33.5111 99.5497 0.0000 0.0000 0.0000
# 4 0.0000 0.0000 0.0000 19.5022 0.0000 0.0000
# 5 0.0000 0.0000 0.0000 0.0000 36.4878 0.0000
# 6 0.0000 0.0000 0.0000 0.0000 0.0000 13.9429
#
#
#
# Elastic Compliance Matrix: (Units=1/GPa)
#
#
# Indices 1 2 3 4 5 6 
#
# 1 0.010636 -0.003597 -0.001343 0.000000 0.000000 0.000000
# 2 -0.003597 0.040278 -0.012695 0.000000 0.000000 0.000000
# 3 -0.001343 -0.012695 0.014641 0.000000 0.000000 0.000000
# 4 0.000000 0.000000 0.000000 0.051276 0.000000 0.000000
# 5 0.000000 0.000000 0.000000 0.000000 0.027406 0.000000
# 6 0.000000 0.000000 0.000000 0.000000 0.000000 0.071721
#
#
# Mechanical properties :
#
#
# Convention : Reuss Voigt Hill
#
# Bulk Modulus (GPa) = 33.01996 43.04055 38.03025
# Shear Modulus (GPa) = 19.13331 24.98636 22.05984
#
# Velocity S-wave (km/s) = 3.21386 3.67268 3.45090
# Velocity P-wave (km/s) = 5.62114 6.42025 6.03394
#
# Compressibility (1/GPa) = 0.03028472
#
# Stress axis : x y z
#
# Youngs Moduli (GPa) = 94.01905 24.82747 68.30053
#
# Poissons Ratio (x) = 0.08931 0.09174
# Poissons Ratio (y) = 0.33822 0.86706
# Poissons Ratio (z) = 0.12629 0.31518
#
# Static dielectric constant tensor:
#      x y z
#    x 3.741580 0.000000 0.000000 
#    y 0.000000 3.171830 0.000000 
#    z 0.000000 0.000000 3.404860 
# 
# 
# High freq. dielectric constant tensor:
#      x y z
#    x 1.744480 0.000000 0.000000 
#    y 0.000000 1.686680 0.000000 
#    z 0.000000 0.000000 1.725560 
# 
# From -- ./inp_files/25344.got.cif
#   From: 2010.03.12/outbox.cif.g09.slc.cpg/sg62_13_cif.got.tgz:25344.got - 2010.04.10 19:12:36.
