data_PCOD8251064
_publ_section_title
;
Structure prediction by ZEFSAII (Michael W. Deem and Ramdas Pophale) SiO2 
 PCOD8251064
Probable space group: P N M A
;
_chemical_formula_sum "Si O2"
_cell_formula_units_Z 40
_cell_length_a 10.669923
_cell_length_b 13.165749
_cell_length_c 15.080285
_cell_angle_alpha 90.000000
_cell_angle_beta 90.000000
_cell_angle_gamma 90.000000
_cell_volume 2118.441159
_symmetry_space_group_name_H-M "P N M A"
_symmetry_group_IT_number 62
_symmetry_cell_setting 'orthorhombic'
loop_
_space_group_symop_operation_xyz
x,y,z
1/2-x,-y,1/2+z
1/2+x,1/2-y,1/2-z
-x,1/2+y,-z
-x,-y,-z
1/2+x,y,1/2-z
1/2-x,1/2+y,1/2+z
x,1/2-y,z
loop_
_atom_site_type_symbol
_atom_site_label
_atom_site_fract_x
_atom_site_fract_y
_atom_site_fract_z
Si Si1 0.771380 0.861542 0.944638
Si Si2 0.862227 0.631954 0.468849
Si Si3 0.502185 0.131417 0.313157
Si Si4 0.024570 0.553336 0.622858
Si Si5 0.866760 0.037156 0.035217
O O1 0.792251 0.750000 0.982971
O O2 0.637188 0.870320 0.899248
O O3 0.872419 0.886824 0.868887
O O4 0.781856 0.934870 0.030688
O O5 0.894526 0.750000 0.452094
O O6 0.932319 0.563713 0.394278
O O7 0.710162 0.616022 0.471056
O O8 0.907580 0.589772 0.564175
O O9 0.479491 0.250000 0.292449
O O10 0.514696 0.065684 0.224540
O O11 0.383137 0.087650 0.368438
O O12 0.000000 0.000000 0.000000
#
# Coordination Sequence:
#
# PCOD8251064 Si02
#       5
#     8   8   8   8   8
#     4   9  18  33  51  74 108 144 178 224 277 326
#     4  10  20  36  57  79 110 151 184 220 275 332
#     4  10  19  31  52  79 107 138 182 233 278 318
#     4  10  21  34  53  82 111 140 183 231 269 325
#     4   9  19  34  52  80 109 139 179 223 269 329
#
# _framework density 18.881807999999999
#
# number of rings (size 3 to 8) (size 9 to 14) (size 15 to 20)
#    0.000    2.400    0.000    2.400    2.800    0.800 
#    0.000    1.000    0.000    6.000    0.000    0.000 
#    0.000    0.000    0.000    0.000    0.000    0.000 
#
# Total GULP energy -495572.439352 kJ/mol
# GULP energy per Si atom -12389.310984 kJ/mol
# Density = 1.883883 g / cm^3
# Si number density = 18.881808 Si / 1000 Ang^3
#
#
#
# Elastic Constant Matrix: (Units=GPa)
#
#
# Indices 1 2 3 4 5 6 
#
# 1 72.7577 31.9244 11.3832 0.0000 0.0000 0.0000
# 2 31.9244 139.2835 56.4351 0.0000 0.0000 0.0000
# 3 11.3832 56.4351 76.4231 0.0000 0.0000 0.0000
# 4 0.0000 0.0000 0.0000 26.5413 0.0000 0.0000
# 5 0.0000 0.0000 0.0000 0.0000 19.6995 0.0000
# 6 0.0000 0.0000 0.0000 0.0000 0.0000 24.2628
#
#
#
# Elastic Compliance Matrix: (Units=1/GPa)
#
#
# Indices 1 2 3 4 5 6 
#
# 1 0.015292 -0.003684 0.000443 0.000000 0.000000 0.000000
# 2 -0.003684 0.011133 -0.007672 0.000000 0.000000 0.000000
# 3 0.000443 -0.007672 0.018685 0.000000 0.000000 0.000000
# 4 0.000000 0.000000 0.000000 0.037677 0.000000 0.000000
# 5 0.000000 0.000000 0.000000 0.000000 0.050763 0.000000
# 6 0.000000 0.000000 0.000000 0.000000 0.000000 0.041215
#
#
# Mechanical properties :
#
#
# Convention : Reuss Voigt Hill
#
# Bulk Modulus (GPa) = 42.95193 54.21663 48.58428
# Shear Modulus (GPa) = 24.46761 26.68218 25.57489
#
# Velocity S-wave (km/s) = 3.60367 3.76322 3.68431
# Velocity P-wave (km/s) = 6.33344 6.90351 6.62461
#
# Compressibility (1/GPa) = 0.02328184
#
# Stress axis : x y z
#
# Youngs Moduli (GPa) = 65.39552 89.82517 53.51985
#
# Poissons Ratio (x) = 0.33096 -0.02372
# Poissons Ratio (y) = 0.24095 0.41062
# Poissons Ratio (z) = -0.02898 0.68916
#
# Static dielectric constant tensor:
#      x y z
#    x 3.785050 0.000000 0.000000 
#    y 0.000000 3.652320 0.000000 
#    z 0.000000 0.000000 3.279980 
# 
# 
# High freq. dielectric constant tensor:
#      x y z
#    x 1.750770 0.000000 0.000000 
#    y 0.000000 1.739320 0.000000 
#    z 0.000000 0.000000 1.694360 
# 
# From -- ./inp_files/17773.got.cif
#   From: 2010.03.12/outbox.cif.g09.slc.cpg/sg62_9_cif.got.tgz:17773.got - 2010.04.10 19:12:36.
