data_PCOD8251981
_publ_section_title
;
Structure prediction by ZEFSAII (Michael W. Deem and Ramdas Pophale) SiO2 
 PCOD8251981
Probable space group: P N M A
;
_chemical_formula_sum "Si O2"
_cell_formula_units_Z 64
_cell_length_a 23.841090
_cell_length_b 9.370249
_cell_length_c 15.279221
_cell_angle_alpha 90.000000
_cell_angle_beta 90.000000
_cell_angle_gamma 90.000000
_cell_volume 3413.331366
_symmetry_space_group_name_H-M "P N M A"
_symmetry_group_IT_number 62
_symmetry_cell_setting 'orthorhombic'
loop_
_space_group_symop_operation_xyz
x,y,z
1/2-x,-y,1/2+z
1/2+x,1/2-y,1/2-z
-x,1/2+y,-z
-x,-y,-z
1/2+x,y,1/2-z
1/2-x,1/2+y,1/2+z
x,1/2-y,z
loop_
_atom_site_type_symbol
_atom_site_label
_atom_site_fract_x
_atom_site_fract_y
_atom_site_fract_z
Si Si1 0.448540 0.082353 0.242345
Si Si2 0.256786 0.580936 0.593085
Si Si3 0.876049 0.410244 0.672980
Si Si4 0.511541 0.090596 0.415971
Si Si5 0.508346 0.914397 0.087837
Si Si6 0.244010 0.580209 0.396087
Si Si7 0.872658 0.590049 0.835800
Si Si8 0.182926 0.917035 0.755641
O O1 0.459998 0.250000 0.223964
O O2 0.479515 0.030689 0.330714
O O3 0.382811 0.050092 0.252041
O O4 0.472838 0.989132 0.163828
O O5 0.258290 0.750000 0.586721
O O6 0.246978 0.521305 0.495555
O O7 0.316583 0.519362 0.625078
O O8 0.209512 0.532177 0.662757
O O9 0.868393 0.250000 0.707250
O O10 0.924912 0.420206 0.601939
O O11 0.817681 0.466480 0.634407
O O12 0.895405 0.505232 0.753342
O O13 0.489532 0.250000 0.433062
O O14 0.578505 0.087885 0.406922
O O15 0.500000 0.000000 0.500000
O O16 0.488333 0.750000 0.079352
O O17 0.500000 0.000000 0.000000
O O18 0.253590 0.750000 0.390966
O O19 0.290269 0.504079 0.335887
O O20 0.859226 0.750000 0.804461
O O21 0.194871 0.750000 0.771329
#
# Coordination Sequence:
#
# PCOD8251981 Si02
#       8
#     8   8   8   8   8   8   8   8
#     4  10  22  40  60  84 117 155 195 239 288 345
#     4   9  19  35  57  82 109 147 187 225 279 341
#     4  10  21  37  59  85 112 146 190 240 289 334
#     4  10  22  37  56  84 115 150 191 237 287 339
#     4  11  24  40  61  88 117 153 195 240 294 350
#     4  10  21  37  58  84 114 148 188 233 283 340
#     4  10  19  36  60  82 108 147 194 235 280 338
#     4  10  21  38  60  83 113 152 190 232 285 341
#
# _framework density 18.750012000000002
#
# number of rings (size 3 to 8) (size 9 to 14) (size 15 to 20)
#    0.000    2.000    2.500    0.375    3.500    2.000 
#    0.000    1.250    0.000    0.000    0.000    0.000 
#    0.000    0.000    0.000    0.000    0.000    0.000 
#
# Total GULP energy -793571.612019 kJ/mol
# GULP energy per Si atom -12399.556438 kJ/mol
# Density = 1.870734 g / cm^3
# Si number density = 18.750012 Si / 1000 Ang^3
#
#
#
# Elastic Constant Matrix: (Units=GPa)
#
#
# Indices 1 2 3 4 5 6 
#
# 1 119.4841 37.9672 48.1972 0.0000 0.0000 0.0000
# 2 37.9672 69.7609 60.6021 0.0000 0.0000 0.0000
# 3 48.1972 60.6021 150.5558 0.0000 0.0000 0.0000
# 4 0.0000 0.0000 0.0000 35.9256 0.0000 0.0000
# 5 0.0000 0.0000 0.0000 0.0000 26.6354 0.0000
# 6 0.0000 0.0000 0.0000 0.0000 0.0000 20.9117
#
#
#
# Elastic Compliance Matrix: (Units=1/GPa)
#
#
# Indices 1 2 3 4 5 6 
#
# 1 0.010367 -0.004243 -0.001611 0.000000 0.000000 0.000000
# 2 -0.004243 0.023779 -0.008213 0.000000 0.000000 0.000000
# 3 -0.001611 -0.008213 0.010464 0.000000 0.000000 0.000000
# 4 0.000000 0.000000 0.000000 0.027835 0.000000 0.000000
# 5 0.000000 0.000000 0.000000 0.000000 0.037544 0.000000
# 6 0.000000 0.000000 0.000000 0.000000 0.000000 0.047820
#
#
# Mechanical properties :
#
#
# Convention : Reuss Voigt Hill
#
# Bulk Modulus (GPa) = 60.69557 70.37040 65.53299
# Shear Modulus (GPa) = 26.11846 29.56352 27.84099
#
# Velocity S-wave (km/s) = 3.73632 3.97510 3.85756
# Velocity P-wave (km/s) = 7.14525 7.66035 7.40728
#
# Compressibility (1/GPa) = 0.01647567
#
# Stress axis : x y z
#
# Youngs Moduli (GPa) = 96.45628 42.05428 95.56761
#
# Poissons Ratio (x) = 0.17843 0.15396
# Poissons Ratio (y) = 0.40925 0.78492
# Poissons Ratio (z) = 0.15539 0.34540
#
# Static dielectric constant tensor:
#      x y z
#    x 3.836410 0.000000 0.000000 
#    y 0.000000 3.333050 0.000000 
#    z 0.000000 0.000000 4.141350 
# 
# 
# High freq. dielectric constant tensor:
#      x y z
#    x 1.743090 0.000000 0.000000 
#    y 0.000000 1.710490 0.000000 
#    z 0.000000 0.000000 1.731310 
# 
# From -- ./inp_files/20784.got.cif
#   From: 2010.03.12/outbox.cif.g09.slc.cpg/sg62_11_cif.got.tgz:20784.got - 2010.04.10 19:12:36.
