data_PCOD8251509
_publ_section_title
;
Structure prediction by ZEFSAII (Michael W. Deem and Ramdas Pophale) SiO2 
 PCOD8251509
Probable space group: P N M A
;
_chemical_formula_sum "Si O2"
_cell_formula_units_Z 48
_cell_length_a 10.110342
_cell_length_b 9.211095
_cell_length_c 27.820647
_cell_angle_alpha 90.000000
_cell_angle_beta 90.000000
_cell_angle_gamma 90.000000
_cell_volume 2590.862314
_symmetry_space_group_name_H-M "P N M A"
_symmetry_group_IT_number 62
_symmetry_cell_setting 'orthorhombic'
loop_
_space_group_symop_operation_xyz
x,y,z
1/2-x,-y,1/2+z
1/2+x,1/2-y,1/2-z
-x,1/2+y,-z
-x,-y,-z
1/2+x,y,1/2-z
1/2-x,1/2+y,1/2+z
x,1/2-y,z
loop_
_atom_site_type_symbol
_atom_site_label
_atom_site_fract_x
_atom_site_fract_y
_atom_site_fract_z
Si Si1 0.851446 0.582246 0.546976
Si Si2 0.658638 0.919070 0.952943
Si Si3 0.028138 0.580338 0.299921
Si Si4 0.002993 0.917146 0.189650
Si Si5 0.775657 0.581988 0.361185
Si Si6 0.239079 0.578898 0.850732
O O1 0.832007 0.750000 0.533693
O O2 0.794027 0.487651 0.503259
O O3 0.772954 0.537245 0.594556
O O4 0.004872 0.546349 0.555822
O O5 0.690423 0.750000 0.954311
O O6 0.740736 0.990136 0.909725
O O7 0.059842 0.750000 0.305638
O O8 0.991799 0.542090 0.245409
O O9 0.905437 0.530752 0.332528
O O10 0.157574 0.492395 0.314394
O O11 0.963287 0.750000 0.180953
O O12 0.151336 0.948510 0.172653
O O13 0.906249 0.019104 0.159502
O O14 0.786802 0.750000 0.375417
O O15 0.243626 0.750000 0.842740
#
# Coordination Sequence:
#
# PCOD8251509 Si02
#       6
#     8   8   8   8   8   8
#     4   9  19  35  54  80 112 142 179 227 277 331
#     4  10  19  33  56  83 110 140 181 231 278 329
#     4  10  20  37  61  83 108 147 193 233 270 322
#     4  10  22  39  57  81 114 152 192 229 270 328
#     4  10  20  35  57  83 112 147 185 230 279 325
#     4  11  22  37  57  85 117 147 181 229 283 331
#
# _framework density 18.526651000000001
#
# number of rings (size 3 to 8) (size 9 to 14) (size 15 to 20)
#    0.000    2.000    1.667    2.000    0.000    6.000 
#    0.000    2.500    0.000    0.000    0.000    0.000 
#    0.000    0.000    0.000    0.000    0.000    0.000 
#
# Total GULP energy -595460.158722 kJ/mol
# GULP energy per Si atom -12405.419973 kJ/mol
# Density = 1.848448 g / cm^3
# Si number density = 18.526651 Si / 1000 Ang^3
#
#
#
# Elastic Constant Matrix: (Units=GPa)
#
#
# Indices 1 2 3 4 5 6 
#
# 1 56.3665 26.1863 24.4208 0.0000 0.0000 0.0000
# 2 26.1863 69.9086 54.7284 0.0000 0.0000 0.0000
# 3 24.4208 54.7284 120.0915 0.0000 0.0000 0.0000
# 4 0.0000 0.0000 0.0000 30.6888 0.0000 0.0000
# 5 0.0000 0.0000 0.0000 0.0000 17.8770 0.0000
# 6 0.0000 0.0000 0.0000 0.0000 0.0000 29.8706
#
#
#
# Elastic Compliance Matrix: (Units=1/GPa)
#
#
# Indices 1 2 3 4 5 6 
#
# 1 0.021571 -0.007223 -0.001095 0.000000 0.000000 0.000000
# 2 -0.007223 0.024657 -0.009768 0.000000 0.000000 0.000000
# 3 -0.001095 -0.009768 0.013001 0.000000 0.000000 0.000000
# 4 0.000000 0.000000 0.000000 0.032585 0.000000 0.000000
# 5 0.000000 0.000000 0.000000 0.000000 0.055938 0.000000
# 6 0.000000 0.000000 0.000000 0.000000 0.000000 0.033478
#
#
# Mechanical properties :
#
#
# Convention : Reuss Voigt Hill
#
# Bulk Modulus (GPa) = 43.36976 50.78195 47.07586
# Shear Modulus (GPa) = 22.21368 25.08934 23.65151
#
# Velocity S-wave (km/s) = 3.46643 3.68398 3.57686
# Velocity P-wave (km/s) = 6.28345 6.75021 6.52101
#
# Compressibility (1/GPa) = 0.02305754
#
# Stress axis : x y z
#
# Youngs Moduli (GPa) = 46.35864 40.55678 76.91678
#
# Poissons Ratio (x) = 0.29294 0.08421
# Poissons Ratio (y) = 0.33485 0.75131
# Poissons Ratio (z) = 0.05075 0.39615
#
# Static dielectric constant tensor:
#      x y z
#    x 3.225870 0.000000 0.000000 
#    y 0.000000 3.378800 0.000000 
#    z 0.000000 0.000000 3.487480 
# 
# 
# High freq. dielectric constant tensor:
#      x y z
#    x 1.702950 0.000000 0.000000 
#    y 0.000000 1.717420 0.000000 
#    z 0.000000 0.000000 1.731290 
# 
# From -- ./inp_files/31922.got.cif
#   From: 2010.03.12/outbox.cif.g09.slc.cpg/sg62_16_cif.got.tgz:31922.got - 2010.04.10 19:12:36.
