data_PCOD8251837
_publ_section_title
;
Structure prediction by ZEFSAII (Michael W. Deem and Ramdas Pophale) SiO2 
 PCOD8251837
Probable space group: P N M A
;
_chemical_formula_sum "Si O2"
_cell_formula_units_Z 48
_cell_length_a 20.013286
_cell_length_b 9.116856
_cell_length_c 14.297456
_cell_angle_alpha 90.000000
_cell_angle_beta 90.000000
_cell_angle_gamma 90.000000
_cell_volume 2608.688752
_symmetry_space_group_name_H-M "P N M A"
_symmetry_group_IT_number 62
_symmetry_cell_setting 'orthorhombic'
loop_
_space_group_symop_operation_xyz
x,y,z
1/2-x,-y,1/2+z
1/2+x,1/2-y,1/2-z
-x,1/2+y,-z
-x,-y,-z
1/2+x,y,1/2-z
1/2-x,1/2+y,1/2+z
x,1/2-y,z
loop_
_atom_site_type_symbol
_atom_site_label
_atom_site_fract_x
_atom_site_fract_y
_atom_site_fract_z
Si Si1 0.326219 0.079151 0.821223
Si Si2 0.697088 0.423930 0.790901
Si Si3 0.069090 0.081656 0.205220
Si Si4 0.416863 0.419764 0.322756
Si Si5 0.619023 0.420115 0.494588
Si Si6 0.225471 0.582097 0.522225
O O1 0.333345 0.250000 0.802066
O O2 0.262818 0.018624 0.763009
O O3 0.393928 0.002923 0.788111
O O4 0.317419 0.045149 0.930522
O O5 0.690351 0.250000 0.784328
O O6 0.632337 0.493058 0.744180
O O7 0.700498 0.473300 0.898000
O O8 0.090759 0.250000 0.211896
O O9 0.092800 0.020436 0.104700
O O10 0.990508 0.060354 0.219604
O O11 0.396008 0.250000 0.326844
O O12 0.417112 0.484161 0.426957
O O13 0.600090 0.250000 0.509471
O O14 0.697789 0.445509 0.503034
O O15 0.214796 0.750000 0.554777
#
# Coordination Sequence:
#
# PCOD8251837 Si02
#       6
#     8   8   8   8   8   8
#     4  10  21  37  58  84 114 148 190 234 281 338
#     4  11  22  38  59  86 115 149 193 235 280 339
#     4  10  22  38  57  84 117 153 192 233 285 340
#     4  11  23  37  56  85 118 154 193 232 281 343
#     4  10  19  35  58  85 120 152 182 234 289 336
#     4  10  20  37  59  86 117 148 185 236 287 332
#
# _framework density 18.400048000000002
#
# number of rings (size 3 to 8) (size 9 to 14) (size 15 to 20)
#    0.000    1.667    3.333    1.500    0.000    4.000 
#    0.000    0.833    0.000    0.000    0.000    0.000 
#    0.000    0.000    0.000    0.000    0.000    0.000 
#
# Total GULP energy -595457.879058 kJ/mol
# GULP energy per Si atom -12405.372480 kJ/mol
# Density = 1.835817 g / cm^3
# Si number density = 18.400048 Si / 1000 Ang^3
#
#
#
# Elastic Constant Matrix: (Units=GPa)
#
#
# Indices 1 2 3 4 5 6 
#
# 1 59.1336 31.0730 19.1774 0.0000 0.0000 0.0000
# 2 31.0730 67.6498 34.4748 0.0000 0.0000 0.0000
# 3 19.1774 34.4748 67.2517 0.0000 0.0000 0.0000
# 4 0.0000 0.0000 0.0000 37.4287 0.0000 0.0000
# 5 0.0000 0.0000 0.0000 0.0000 31.1426 0.0000
# 6 0.0000 0.0000 0.0000 0.0000 0.0000 30.6866
#
#
#
# Elastic Compliance Matrix: (Units=1/GPa)
#
#
# Indices 1 2 3 4 5 6 
#
# 1 0.022403 -0.009522 -0.001507 0.000000 0.000000 0.000000
# 2 -0.009522 0.024056 -0.009617 0.000000 0.000000 0.000000
# 3 -0.001507 -0.009617 0.020229 0.000000 0.000000 0.000000
# 4 0.000000 0.000000 0.000000 0.026717 0.000000 0.000000
# 5 0.000000 0.000000 0.000000 0.000000 0.032110 0.000000
# 6 0.000000 0.000000 0.000000 0.000000 0.000000 0.032587
#
#
# Mechanical properties :
#
#
# Convention : Reuss Voigt Hill
#
# Bulk Modulus (GPa) = 39.37504 40.38726 39.88115
# Shear Modulus (GPa) = 24.05446 27.13891 25.59669
#
# Velocity S-wave (km/s) = 3.61959 3.84466 3.73382
# Velocity P-wave (km/s) = 6.23814 6.45800 6.34902
#
# Compressibility (1/GPa) = 0.02539680
#
# Stress axis : x y z
#
# Youngs Moduli (GPa) = 44.63626 41.56887 49.43401
#
# Poissons Ratio (x) = 0.39583 0.07450
# Poissons Ratio (y) = 0.42504 0.47539
# Poissons Ratio (z) = 0.06727 0.39975
#
# Static dielectric constant tensor:
#      x y z
#    x 3.307440 0.000000 0.000000 
#    y 0.000000 3.350740 0.000000 
#    z 0.000000 0.000000 3.386300 
# 
# 
# High freq. dielectric constant tensor:
#      x y z
#    x 1.711190 0.000000 0.000000 
#    y 0.000000 1.712760 0.000000 
#    z 0.000000 0.000000 1.714820 
# 
# From -- ./inp_files/19520.got.cif
#   From: 2010.03.12/outbox.cif.g09.slc.cpg/sg62_10_cif.got.tgz:19520.got - 2010.04.10 19:12:36.
