data_PCOD8251961
_publ_section_title
;
Structure prediction by ZEFSAII (Michael W. Deem and Ramdas Pophale) SiO2 
 PCOD8251961
Probable space group: P N M A
;
_chemical_formula_sum "Si O2"
_cell_formula_units_Z 56
_cell_length_a 19.389107
_cell_length_b 9.176218
_cell_length_c 15.897803
_cell_angle_alpha 90.000000
_cell_angle_beta 90.000000
_cell_angle_gamma 90.000000
_cell_volume 2828.516008
_symmetry_space_group_name_H-M "P N M A"
_symmetry_group_IT_number 62
_symmetry_cell_setting 'orthorhombic'
loop_
_space_group_symop_operation_xyz
x,y,z
1/2-x,-y,1/2+z
1/2+x,1/2-y,1/2-z
-x,1/2+y,-z
-x,-y,-z
1/2+x,y,1/2-z
1/2-x,1/2+y,1/2+z
x,1/2-y,z
loop_
_atom_site_type_symbol
_atom_site_label
_atom_site_fract_x
_atom_site_fract_y
_atom_site_fract_z
Si Si1 0.372461 0.908662 0.867325
Si Si2 0.978045 0.092234 0.421233
Si Si3 0.207018 0.422475 0.135394
Si Si4 0.773572 0.080779 0.541133
Si Si5 0.908524 0.078539 0.787674
Si Si6 0.441573 0.583281 0.229034
Si Si7 0.790865 0.917950 0.219445
O O1 0.336581 0.750000 0.850975
O O2 0.452586 0.878334 0.871012
O O3 0.343777 0.984958 0.952772
O O4 0.361851 0.023905 0.791638
O O5 0.944834 0.250000 0.445710
O O6 0.928819 0.005963 0.357322
O O7 0.000000 0.000000 0.500000
O O8 0.200588 0.250000 0.147156
O O9 0.130001 0.494066 0.136592
O O10 0.257847 0.484397 0.207176
O O11 0.234583 0.464723 0.043158
O O12 0.792438 0.250000 0.539535
O O13 0.732045 0.035831 0.625653
O O14 0.898610 0.250000 0.797873
O O15 0.989487 0.035456 0.780887
O O16 0.452077 0.750000 0.201381
O O17 0.373749 0.559437 0.284470
O O18 0.772675 0.750000 0.238972
#
# Coordination Sequence:
#
# PCOD8251961 Si02
#       7
#     8   8   8   8   8   8   8
#     4  10  20  34  54  79 109 145 187 233 277 334
#     4  10  21  34  50  77 112 148 186 230 284 343
#     4  11  23  37  57  87 118 151 194 240 289 345
#     4  10  22  38  57  83 116 152 189 235 292 345
#     4  10  19  36  59  82 110 149 190 233 287 343
#     4   9  20  37  58  81 108 147 195 239 289 349
#     4  10  21  40  62  84 114 153 193 240 294 346
#
# _framework density 19.798369000000001
#
# number of rings (size 3 to 8) (size 9 to 14) (size 15 to 20)
#    0.000    2.000    1.429    1.714    2.000    4.000 
#    0.000    0.714    0.000    0.000    0.000    0.000 
#    0.000    0.000    0.000    0.000    0.000    0.000 
#
# Total GULP energy -693917.086709 kJ/mol
# GULP energy per Si atom -12391.376548 kJ/mol
# Density = 1.975331 g / cm^3
# Si number density = 19.798369 Si / 1000 Ang^3
#
#
#
# Elastic Constant Matrix: (Units=GPa)
#
#
# Indices 1 2 3 4 5 6 
#
# 1 66.8670 21.1819 21.9614 0.0000 0.0000 0.0000
# 2 21.1819 89.2381 29.5863 0.0000 0.0000 0.0000
# 3 21.9614 29.5863 94.6215 0.0000 0.0000 0.0000
# 4 0.0000 0.0000 0.0000 29.0461 0.0000 0.0000
# 5 0.0000 0.0000 0.0000 0.0000 18.6662 0.0000
# 6 0.0000 0.0000 0.0000 0.0000 0.0000 25.1268
#
#
#
# Elastic Compliance Matrix: (Units=1/GPa)
#
#
# Indices 1 2 3 4 5 6 
#
# 1 0.016890 -0.003023 -0.002975 0.000000 0.000000 0.000000
# 2 -0.003023 0.013043 -0.003377 0.000000 0.000000 0.000000
# 3 -0.002975 -0.003377 0.012315 0.000000 0.000000 0.000000
# 4 0.000000 0.000000 0.000000 0.034428 0.000000 0.000000
# 5 0.000000 0.000000 0.000000 0.000000 0.053573 0.000000
# 6 0.000000 0.000000 0.000000 0.000000 0.000000 0.039798
#
#
# Mechanical properties :
#
#
# Convention : Reuss Voigt Hill
#
# Bulk Modulus (GPa) = 42.55550 44.02063 43.28807
# Shear Modulus (GPa) = 25.42877 26.43431 25.93154
#
# Velocity S-wave (km/s) = 3.58772 3.65797 3.62302
# Velocity P-wave (km/s) = 6.22121 6.33433 6.27802
#
# Compressibility (1/GPa) = 0.02349872
#
# Stress axis : x y z
#
# Youngs Moduli (GPa) = 59.20794 76.66964 81.20362
#
# Poissons Ratio (x) = 0.23175 0.24157
# Poissons Ratio (y) = 0.17897 0.27420
# Poissons Ratio (z) = 0.17614 0.25889
#
# Static dielectric constant tensor:
#      x y z
#    x 3.930960 0.000000 0.000000 
#    y 0.000000 4.070050 0.000000 
#    z 0.000000 0.000000 3.550380 
# 
# 
# High freq. dielectric constant tensor:
#      x y z
#    x 1.773510 0.000000 0.000000 
#    y 0.000000 1.782520 0.000000 
#    z 0.000000 0.000000 1.749300 
# 
# From -- ./inp_files/20359.got.cif
#   From: 2010.03.12/outbox.cif.g09.slc.cpg/sg62_11_cif.got.tgz:20359.got - 2010.04.10 19:12:36.
