data_PCOD8251231
_publ_section_title
;
Structure prediction by ZEFSAII (Michael W. Deem and Ramdas Pophale) SiO2 
 PCOD8251231
Probable space group: P N M A
;
_chemical_formula_sum "Si O2"
_cell_formula_units_Z 64
_cell_length_a 20.462001
_cell_length_b 9.107948
_cell_length_c 19.318737
_cell_angle_alpha 90.000000
_cell_angle_beta 90.000000
_cell_angle_gamma 90.000000
_cell_volume 3600.371988
_symmetry_space_group_name_H-M "P N M A"
_symmetry_group_IT_number 62
_symmetry_cell_setting 'orthorhombic'
loop_
_space_group_symop_operation_xyz
x,y,z
1/2-x,-y,1/2+z
1/2+x,1/2-y,1/2-z
-x,1/2+y,-z
-x,-y,-z
1/2+x,y,1/2-z
1/2-x,1/2+y,1/2+z
x,1/2-y,z
loop_
_atom_site_type_symbol
_atom_site_label
_atom_site_fract_x
_atom_site_fract_y
_atom_site_fract_z
Si Si1 0.686958 0.420196 0.707711
Si Si2 0.943514 0.920122 0.283513
Si Si3 0.302560 0.576959 0.713502
Si Si4 0.732667 0.081945 0.558050
Si Si5 0.270714 0.079631 0.578454
Si Si6 0.883242 0.078877 0.565564
Si Si7 0.928898 0.922600 0.698604
Si Si8 0.880851 0.581799 0.428839
O O1 0.701717 0.250000 0.725994
O O2 0.615027 0.465853 0.732435
O O3 0.739790 0.517774 0.746447
O O4 0.689152 0.448406 0.625579
O O5 0.961181 0.750000 0.274058
O O6 0.923484 0.954952 0.362148
O O7 0.006173 0.017324 0.263682
O O8 0.295268 0.750000 0.705009
O O9 0.309682 0.504842 0.638134
O O10 0.367082 0.532489 0.755363
O O11 0.727947 0.250000 0.533448
O O12 0.807138 0.042409 0.577148
O O13 0.706393 0.980399 0.496223
O O14 0.288256 0.250000 0.582560
O O15 0.194212 0.048425 0.589792
O O16 0.899020 0.250000 0.570600
O O17 0.924489 0.997302 0.623793
O O18 0.905943 0.021130 0.490666
O O19 0.933951 0.750000 0.688532
O O20 0.888445 0.750000 0.452431
#
# Coordination Sequence:
#
# PCOD8251231 Si02
#       8
#     8   8   8   8   8   8   8   8
#     4  10  19  36  59  83 109 140 179 224 272 321
#     4  10  21  37  56  78 106 144 183 220 268 322
#     4  11  22  35  55  81 109 142 182 225 271 318
#     4   9  18  32  54  83 112 138 173 221 271 323
#     4  10  19  33  55  81 111 141 176 223 270 320
#     4  10  19  32  53  78 106 144 184 219 261 319
#     4  11  24  38  52  76 110 146 182 225 271 316
#     4   9  18  33  52  76 109 143 177 219 264 317
#
# _framework density 17.775939999999999
#
# number of rings (size 3 to 8) (size 9 to 14) (size 15 to 20)
#    0.000    2.000    2.500    1.500    0.000    4.500 
#    0.000    0.000    0.000    0.750    0.000    0.000 
#    0.000    0.000    0.000    0.000    0.000    0.000 
#
# Total GULP energy -793877.004073 kJ/mol
# GULP energy per Si atom -12404.328189 kJ/mol
# Density = 1.773548 g / cm^3
# Si number density = 17.775940 Si / 1000 Ang^3
#
#
#
# Elastic Constant Matrix: (Units=GPa)
#
#
# Indices 1 2 3 4 5 6 
#
# 1 64.2966 35.9150 43.6132 0.0000 0.0000 0.0000
# 2 35.9150 74.1376 48.1142 0.0000 0.0000 0.0000
# 3 43.6132 48.1142 91.3663 0.0000 0.0000 0.0000
# 4 0.0000 0.0000 0.0000 31.8527 0.0000 0.0000
# 5 0.0000 0.0000 0.0000 0.0000 21.2456 0.0000
# 6 0.0000 0.0000 0.0000 0.0000 0.0000 24.0783
#
#
#
# Elastic Compliance Matrix: (Units=1/GPa)
#
#
# Indices 1 2 3 4 5 6 
#
# 1 0.024973 -0.006626 -0.008432 0.000000 0.000000 0.000000
# 2 -0.006626 0.022250 -0.008554 0.000000 0.000000 0.000000
# 3 -0.008432 -0.008554 0.019474 0.000000 0.000000 0.000000
# 4 0.000000 0.000000 0.000000 0.031395 0.000000 0.000000
# 5 0.000000 0.000000 0.000000 0.000000 0.047068 0.000000
# 6 0.000000 0.000000 0.000000 0.000000 0.000000 0.041531
#
#
# Mechanical properties :
#
#
# Convention : Reuss Voigt Hill
#
# Bulk Modulus (GPa) = 51.34995 53.89837 52.62416
# Shear Modulus (GPa) = 20.79813 22.24586 21.52200
#
# Velocity S-wave (km/s) = 3.42426 3.54143 3.48334
# Velocity P-wave (km/s) = 6.67713 6.86361 6.77101
#
# Compressibility (1/GPa) = 0.01947422
#
# Stress axis : x y z
#
# Youngs Moduli (GPa) = 40.04265 44.94433 51.34973
#
# Poissons Ratio (x) = 0.29780 0.43296
# Poissons Ratio (y) = 0.26533 0.43924
# Poissons Ratio (z) = 0.33762 0.38445
#
# Static dielectric constant tensor:
#      x y z
#    x 3.149190 0.000000 0.000000 
#    y 0.000000 3.307240 0.000000 
#    z 0.000000 0.000000 3.349760 
# 
# 
# High freq. dielectric constant tensor:
#      x y z
#    x 1.664790 0.000000 0.000000 
#    y 0.000000 1.693020 0.000000 
#    z 0.000000 0.000000 1.689090 
# 
# From -- ./inp_files/24766.got.cif
#   From: 2010.03.12/outbox.cif.g09.slc.cpg/sg62_13_cif.got.tgz:24766.got - 2010.04.10 19:12:36.
