data_PCOD8251389
_publ_section_title
;
Structure prediction by ZEFSAII (Michael W. Deem and Ramdas Pophale) SiO2 
 PCOD8251389
Probable space group: P N M A
;
_chemical_formula_sum "Si O2"
_cell_formula_units_Z 64
_cell_length_a 27.088631
_cell_length_b 9.529085
_cell_length_c 12.997780
_cell_angle_alpha 90.000000
_cell_angle_beta 90.000000
_cell_angle_gamma 90.000000
_cell_volume 3355.115227
_symmetry_space_group_name_H-M "P N M A"
_symmetry_group_IT_number 62
_symmetry_cell_setting 'orthorhombic'
loop_
_space_group_symop_operation_xyz
x,y,z
1/2-x,-y,1/2+z
1/2+x,1/2-y,1/2-z
-x,1/2+y,-z
-x,-y,-z
1/2+x,y,1/2-z
1/2-x,1/2+y,1/2+z
x,1/2-y,z
loop_
_atom_site_type_symbol
_atom_site_label
_atom_site_fract_x
_atom_site_fract_y
_atom_site_fract_z
Si Si1 0.950746 0.418085 0.472840
Si Si2 0.952884 0.415595 0.035690
Si Si3 0.698790 0.584849 0.705243
Si Si4 0.775198 0.905087 0.874613
Si Si5 0.734631 0.593916 0.086575
Si Si6 0.909647 0.415659 0.253064
Si Si7 0.629967 0.913570 0.371711
Si Si8 0.627981 0.914637 0.140551
O O1 0.958930 0.250000 0.477904
O O2 0.934365 0.469029 0.358746
O O3 0.910637 0.471741 0.556425
O O4 0.000000 0.500000 0.500000
O O5 0.963637 0.250000 0.030756
O O6 0.939660 0.464482 0.151768
O O7 0.909479 0.458053 0.957372
O O8 0.000000 0.500000 0.000000
O O9 0.695749 0.750000 0.681756
O O10 0.742922 0.540774 0.780411
O O11 0.716371 0.499915 0.605649
O O12 0.646296 0.527199 0.744933
O O13 0.797307 0.750000 0.853285
O O14 0.819646 0.008902 0.897155
O O15 0.734424 0.896155 0.963962
O O16 0.740389 0.750000 0.135595
O O17 0.682930 0.522338 0.122424
O O18 0.907556 0.250000 0.256021
O O19 0.641599 0.750000 0.378803
O O20 0.610370 0.952381 0.256610
O O21 0.632304 0.750000 0.122609
#
# Coordination Sequence:
#
# PCOD8251389 Si02
#       8
#     8   8   8   8   8   8   8   8
#     4  10  21  38  60  82 106 142 185 230 277 327
#     4  10  22  38  58  82 107 143 185 227 277 328
#     4  10  19  34  55  80 108 143 182 219 260 317
#     4  10  20  32  52  83 114 143 179 223 268 312
#     4  10  19  33  53  79 112 148 181 216 265 321
#     4   9  19  37  57  79 110 145 181 221 272 332
#     4  10  20  36  57  81 110 146 186 223 269 332
#     4   9  18  34  56  80 108 144 182 220 269 329
#
# _framework density 19.075351999999999
#
# number of rings (size 3 to 8) (size 9 to 14) (size 15 to 20)
#    0.000    2.250    1.250    1.500    1.750    5.000 
#    0.000    2.500    0.000    1.500    0.000    0.000 
#    0.000    0.000    0.000    0.000    0.000    0.000 
#
# Total GULP energy -793264.747249 kJ/mol
# GULP energy per Si atom -12394.761676 kJ/mol
# Density = 1.903194 g / cm^3
# Si number density = 19.075352 Si / 1000 Ang^3
#
#
#
# Elastic Constant Matrix: (Units=GPa)
#
#
# Indices 1 2 3 4 5 6 
#
# 1 140.4842 43.9383 63.5406 0.0000 0.0000 0.0000
# 2 43.9383 38.0356 24.7356 0.0000 0.0000 0.0000
# 3 63.5406 24.7356 133.1772 0.0000 0.0000 0.0000
# 4 0.0000 0.0000 0.0000 18.7404 0.0000 0.0000
# 5 0.0000 0.0000 0.0000 0.0000 35.1814 0.0000
# 6 0.0000 0.0000 0.0000 0.0000 0.0000 33.6552
#
#
#
# Elastic Compliance Matrix: (Units=1/GPa)
#
#
# Indices 1 2 3 4 5 6 
#
# 1 0.012613 -0.012121 -0.003766 0.000000 0.000000 0.000000
# 2 -0.012121 0.041551 -0.001935 0.000000 0.000000 0.000000
# 3 -0.003766 -0.001935 0.009665 0.000000 0.000000 0.000000
# 4 0.000000 0.000000 0.000000 0.053361 0.000000 0.000000
# 5 0.000000 0.000000 0.000000 0.000000 0.028424 0.000000
# 6 0.000000 0.000000 0.000000 0.000000 0.000000 0.029713
#
#
# Mechanical properties :
#
#
# Convention : Reuss Voigt Hill
#
# Bulk Modulus (GPa) = 35.47929 64.01400 49.74664
# Shear Modulus (GPa) = 22.68966 29.48090 26.08528
#
# Velocity S-wave (km/s) = 3.45262 3.93555 3.70197
# Velocity P-wave (km/s) = 5.87657 7.36768 6.66396
#
# Compressibility (1/GPa) = 0.02818546
#
# Stress axis : x y z
#
# Youngs Moduli (GPa) = 79.28532 24.06693 103.46471
#
# Poissons Ratio (x) = 0.29171 0.38970
# Poissons Ratio (y) = 0.96098 0.20015
# Poissons Ratio (z) = 0.29863 0.04656
#
# Static dielectric constant tensor:
#      x y z
#    x 3.474910 0.000000 0.000000 
#    y 0.000000 3.197110 0.000000 
#    z 0.000000 0.000000 3.855280 
# 
# 
# High freq. dielectric constant tensor:
#      x y z
#    x 1.742060 0.000000 0.000000 
#    y 0.000000 1.706670 0.000000 
#    z 0.000000 0.000000 1.761230 
# 
# From -- ./inp_files/15341.got.cif
#   From: 2010.03.12/outbox.cif.g09.slc.cpg/sg62_8_cif.got.tgz:15341.got - 2010.04.10 19:12:36.
