data_PCOD8251643
_publ_section_title
;
Structure prediction by ZEFSAII (Michael W. Deem and Ramdas Pophale) SiO2 
 PCOD8251643
Probable space group: P N M A
;
_chemical_formula_sum "Si O2"
_cell_formula_units_Z 56
_cell_length_a 20.695265
_cell_length_b 15.023131
_cell_length_c 9.474912
_cell_angle_alpha 90.000000
_cell_angle_beta 90.000000
_cell_angle_gamma 90.000000
_cell_volume 2945.822881
_symmetry_space_group_name_H-M "P N M A"
_symmetry_group_IT_number 62
_symmetry_cell_setting 'orthorhombic'
loop_
_space_group_symop_operation_xyz
x,y,z
1/2-x,-y,1/2+z
1/2+x,1/2-y,1/2-z
-x,1/2+y,-z
-x,-y,-z
1/2+x,y,1/2-z
1/2-x,1/2+y,1/2+z
x,1/2-y,z
loop_
_atom_site_type_symbol
_atom_site_label
_atom_site_fract_x
_atom_site_fract_y
_atom_site_fract_z
Si Si1 0.270162 0.352054 0.755091
Si Si2 0.270545 0.850195 0.939727
Si Si3 0.386827 0.544895 0.043128
Si Si4 0.573382 0.031443 0.500077
Si Si5 0.317546 0.012299 0.300272
Si Si6 0.595693 0.554782 0.224211
Si Si7 0.467073 0.648404 0.271360
O O1 0.261908 0.250000 0.808834
O O2 0.267806 0.355299 0.586238
O O3 0.213940 0.413654 0.823148
O O4 0.338485 0.392269 0.799941
O O5 0.271867 0.750000 0.880565
O O6 0.235437 0.911561 0.824044
O O7 0.343723 0.882634 0.961119
O O8 0.341306 0.480529 0.138217
O O9 0.437715 0.592022 0.144042
O O10 0.424340 0.487367 0.925825
O O11 0.569160 0.127382 0.579245
O O12 0.500000 0.000000 0.500000
O O13 0.621967 0.971865 0.594933
O O14 0.600668 0.025945 0.340268
O O15 0.542793 0.625067 0.278828
O O16 0.456470 0.750000 0.235377
#
# Coordination Sequence:
#
# PCOD8251643 Si02
#       7
#     8   8   8   8   8   8   8
#     4  10  20  33  58  86 112 152 199 242 294 354
#     4  10  19  34  56  81 110 155 198 237 289 348
#     4  10  21  35  59  81 118 156 195 233 300 355
#     4   9  20  36  60  83 109 150 196 243 297 347
#     4  10  19  36  56  81 119 153 192 246 294 355
#     4  11  19  36  60  85 115 150 196 244 300 350
#     4  10  21  38  58  84 115 153 200 245 291 354
#
# _framework density 19.009968000000001
#
# number of rings (size 3 to 8) (size 9 to 14) (size 15 to 20)
#    0.000    2.000    2.857    1.286    0.000    3.429 
#    0.000    2.857    0.000    0.000    0.000    0.000 
#    0.000    0.000    0.000    0.000    0.000    0.000 
#
# Total GULP energy -693995.870065 kJ/mol
# GULP energy per Si atom -12392.783394 kJ/mol
# Density = 1.896670 g / cm^3
# Si number density = 19.009968 Si / 1000 Ang^3
#
#
#
# Elastic Constant Matrix: (Units=GPa)
#
#
# Indices 1 2 3 4 5 6 
#
# 1 70.6490 18.2071 17.9813 0.0000 0.0000 0.0000
# 2 18.2071 90.9205 36.0774 0.0000 0.0000 0.0000
# 3 17.9813 36.0774 82.0022 0.0000 0.0000 0.0000
# 4 0.0000 0.0000 0.0000 22.2765 0.0000 0.0000
# 5 0.0000 0.0000 0.0000 0.0000 31.3996 0.0000
# 6 0.0000 0.0000 0.0000 0.0000 0.0000 21.3761
#
#
#
# Elastic Compliance Matrix: (Units=1/GPa)
#
#
# Indices 1 2 3 4 5 6 
#
# 1 0.015315 -0.002101 -0.002434 0.000000 0.000000 0.000000
# 2 -0.002101 0.013613 -0.005528 0.000000 0.000000 0.000000
# 3 -0.002434 -0.005528 0.015161 0.000000 0.000000 0.000000
# 4 0.000000 0.000000 0.000000 0.044890 0.000000 0.000000
# 5 0.000000 0.000000 0.000000 0.000000 0.031848 0.000000
# 6 0.000000 0.000000 0.000000 0.000000 0.000000 0.046781
#
#
# Mechanical properties :
#
#
# Convention : Reuss Voigt Hill
#
# Bulk Modulus (GPa) = 41.73230 43.12260 42.42745
# Shear Modulus (GPa) = 25.54633 26.43083 25.98858
#
# Velocity S-wave (km/s) = 3.66982 3.73281 3.70145
# Velocity P-wave (km/s) = 6.32118 6.42743 6.37453
#
# Compressibility (1/GPa) = 0.02396225
#
# Stress axis : x y z
#
# Youngs Moduli (GPa) = 65.29358 73.45882 65.95972
#
# Poissons Ratio (x) = 0.15435 0.16054
# Poissons Ratio (y) = 0.13719 0.36465
# Poissons Ratio (z) = 0.15892 0.40611
#
# Static dielectric constant tensor:
#      x y z
#    x 3.545520 0.000000 0.000000 
#    y 0.000000 3.378830 0.000000 
#    z 0.000000 0.000000 3.571470 
# 
# 
# High freq. dielectric constant tensor:
#      x y z
#    x 1.753500 0.000000 0.000000 
#    y 0.000000 1.712590 0.000000 
#    z 0.000000 0.000000 1.730890 
# 
# From -- ./inp_files/8703.got.cif
#   From: 2010.03.12/outbox.cif.g09.slc.cpg/sg62_5_cif.got.tgz:8703.got - 2010.04.10 19:12:36.
