data_PCOD8251619
_publ_section_title
;
Structure prediction by ZEFSAII (Michael W. Deem and Ramdas Pophale) SiO2 
 PCOD8251619
Probable space group: P N M A
;
_chemical_formula_sum "Si O2"
_cell_formula_units_Z 64
_cell_length_a 19.934500
_cell_length_b 8.636249
_cell_length_c 18.716649
_cell_angle_alpha 90.000000
_cell_angle_beta 90.000000
_cell_angle_gamma 90.000000
_cell_volume 3222.245297
_symmetry_space_group_name_H-M "P N M A"
_symmetry_group_IT_number 62
_symmetry_cell_setting 'orthorhombic'
loop_
_space_group_symop_operation_xyz
x,y,z
1/2-x,-y,1/2+z
1/2+x,1/2-y,1/2-z
-x,1/2+y,-z
-x,-y,-z
1/2+x,y,1/2-z
1/2-x,1/2+y,1/2+z
x,1/2-y,z
loop_
_atom_site_type_symbol
_atom_site_label
_atom_site_fract_x
_atom_site_fract_y
_atom_site_fract_z
Si Si1 0.946071 0.567536 0.946314
Si Si2 0.905428 0.067286 0.306206
Si Si3 0.345688 0.069574 0.785254
Si Si4 0.027877 0.066451 0.214746
Si Si5 0.698412 0.930995 0.464344
Si Si6 0.309818 0.069044 0.946853
Si Si7 0.064061 0.566865 0.538076
Si Si8 0.256762 0.068323 0.177802
O O1 0.951003 0.750000 0.949172
O O2 0.962254 0.508573 0.866194
O O3 0.872422 0.516398 0.969342
O O4 0.000000 0.500000 0.000000
O O5 0.904474 0.250000 0.312107
O O6 0.933601 0.001778 0.381184
O O7 0.829286 0.009427 0.294066
O O8 0.953357 0.016310 0.240851
O O9 0.334392 0.250000 0.768608
O O10 0.331147 0.028582 0.866813
O O11 0.421198 0.021869 0.766749
O O12 0.296585 0.965856 0.738460
O O13 0.039472 0.250000 0.221732
O O14 0.684082 0.750000 0.464225
O O15 0.742050 0.977381 0.533494
O O16 0.738636 0.978428 0.393882
O O17 0.295815 0.250000 0.957216
O O18 0.369025 0.010205 0.998192
O O19 0.059360 0.750000 0.535125
O O20 0.000000 0.500000 0.500000
O O21 0.256770 0.250000 0.159653
#
# Coordination Sequence:
#
# PCOD8251619 Si02
#       8
#     8   8   8   8   8   8   8   8
#     4  11  24  42  66  94 127 167 212 262 321 379
#     4   9  19  36  60  86 115 154 202 247 296 364
#     4  11  23  38  60  92 126 161 205 256 308 375
#     4  10  21  39  63  90 123 165 208 255 310 375
#     4  12  24  40  65  93 123 161 214 268 314 378
#     4  10  22  40  60  87 126 165 204 253 317 376
#     4  10  19  34  55  81 117 158 197 242 296 358
#     4  11  21  39  64  87 121 167 207 253 313 373
#
# _framework density 19.861927000000001
#
# number of rings (size 3 to 8) (size 9 to 14) (size 15 to 20)
#    0.000    1.500    2.500    3.000    0.000    3.000 
#    0.000    2.500    0.000    0.000    0.000    0.000 
#    0.000    0.000    0.000    0.000    0.000    0.000 
#
# Total GULP energy -793783.733151 kJ/mol
# GULP energy per Si atom -12402.870830 kJ/mol
# Density = 1.981672 g / cm^3
# Si number density = 19.861927 Si / 1000 Ang^3
#
#
#
# Elastic Constant Matrix: (Units=GPa)
#
#
# Indices 1 2 3 4 5 6 
#
# 1 135.6385 14.3860 45.0976 0.0000 0.0000 0.0000
# 2 14.3860 35.8439 23.2707 0.0000 0.0000 0.0000
# 3 45.0976 23.2707 105.7434 0.0000 0.0000 0.0000
# 4 0.0000 0.0000 0.0000 26.8062 0.0000 0.0000
# 5 0.0000 0.0000 0.0000 0.0000 43.0982 0.0000
# 6 0.0000 0.0000 0.0000 0.0000 0.0000 30.5501
#
#
#
# Elastic Compliance Matrix: (Units=1/GPa)
#
#
# Indices 1 2 3 4 5 6 
#
# 1 0.008639 -0.001255 -0.003408 0.000000 0.000000 0.000000
# 2 -0.001255 0.032731 -0.006668 0.000000 0.000000 0.000000
# 3 -0.003408 -0.006668 0.012378 0.000000 0.000000 0.000000
# 4 0.000000 0.000000 0.000000 0.037305 0.000000 0.000000
# 5 0.000000 0.000000 0.000000 0.000000 0.023203 0.000000
# 6 0.000000 0.000000 0.000000 0.000000 0.000000 0.032733
#
#
# Mechanical properties :
#
#
# Convention : Reuss Voigt Hill
#
# Bulk Modulus (GPa) = 32.16847 49.19271 40.68059
# Shear Modulus (GPa) = 27.77588 33.05566 30.41577
#
# Velocity S-wave (km/s) = 3.74364 4.08398 3.91751
# Velocity P-wave (km/s) = 5.90912 6.86000 6.40224
#
# Compressibility (1/GPa) = 0.03108634
#
# Stress axis : x y z
#
# Youngs Moduli (GPa) = 115.75734 30.55179 80.78975
#
# Poissons Ratio (x) = 0.03833 0.27535
# Poissons Ratio (y) = 0.14522 0.53871
# Poissons Ratio (z) = 0.39452 0.20372
#
# Static dielectric constant tensor:
#      x y z
#    x 3.831020 0.000000 0.000000 
#    y 0.000000 3.525290 0.000000 
#    z 0.000000 0.000000 3.746490 
# 
# 
# High freq. dielectric constant tensor:
#      x y z
#    x 1.790160 0.000000 0.000000 
#    y 0.000000 1.760590 0.000000 
#    z 0.000000 0.000000 1.779250 
# 
# From -- ./inp_files/24719.got.cif
#   From: 2010.03.12/outbox.cif.g09.slc.cpg/sg62_13_cif.got.tgz:24719.got - 2010.04.10 19:12:36.
