data_PCOD8251664
_publ_section_title
;
Structure prediction by ZEFSAII (Michael W. Deem and Ramdas Pophale) SiO2 
 PCOD8251664
Probable space group: P N M A
;
_chemical_formula_sum "Si O2"
_cell_formula_units_Z 64
_cell_length_a 12.731290
_cell_length_b 8.897058
_cell_length_c 28.197140
_cell_angle_alpha 90.000000
_cell_angle_beta 90.000000
_cell_angle_gamma 90.000000
_cell_volume 3193.918965
_symmetry_space_group_name_H-M "P N M A"
_symmetry_group_IT_number 62
_symmetry_cell_setting 'orthorhombic'
loop_
_space_group_symop_operation_xyz
x,y,z
1/2-x,-y,1/2+z
1/2+x,1/2-y,1/2-z
-x,1/2+y,-z
-x,-y,-z
1/2+x,y,1/2-z
1/2-x,1/2+y,1/2+z
x,1/2-y,z
loop_
_atom_site_type_symbol
_atom_site_label
_atom_site_fract_x
_atom_site_fract_y
_atom_site_fract_z
Si Si1 0.691886 0.429554 0.537695
Si Si2 0.617802 0.573013 0.901188
Si Si3 0.474128 0.423701 0.393910
Si Si4 0.045639 0.926123 0.702922
Si Si5 0.671299 0.571048 0.438444
Si Si6 0.860988 0.421404 0.200067
Si Si7 0.416469 0.416814 0.929260
Si Si8 0.153269 0.915111 0.321750
O O1 0.678191 0.250000 0.540230
O O2 0.625784 0.504879 0.579583
O O3 0.647847 0.494178 0.488743
O O4 0.815669 0.474627 0.540901
O O5 0.637606 0.750000 0.907339
O O6 0.600510 0.525905 0.846332
O O7 0.717411 0.480956 0.918333
O O8 0.516536 0.527986 0.933418
O O9 0.487128 0.250000 0.409628
O O10 0.579561 0.516551 0.403660
O O11 0.456381 0.434910 0.337304
O O12 0.034344 0.750000 0.705581
O O13 0.109263 0.986841 0.748247
O O14 0.928816 0.989075 0.708283
O O15 0.669096 0.750000 0.443378
O O16 0.823924 0.250000 0.204892
O O17 0.767152 0.516507 0.179721
O O18 0.449947 0.250000 0.946617
O O19 0.380502 0.409505 0.875655
O O20 0.156085 0.750000 0.299348
#
# Coordination Sequence:
#
# PCOD8251664 Si02
#       8
#     8   8   8   8   8   8   8   8
#     4  11  22  40  64  90 120 155 198 247 299 356
#     4  10  21  39  62  86 117 157 200 246 296 352
#     4  11  23  40  62  88 119 156 201 247 296 354
#     4   9  20  38  59  85 116 154 197 241 292 351
#     4  12  26  42  60  84 121 162 200 245 300 359
#     4  10  21  37  60  87 116 153 197 242 290 351
#     4   9  19  36  60  87 117 151 189 240 294 349
#     4  10  19  34  56  84 116 149 188 240 296 345
#
# _framework density 20.038077000000001
#
# number of rings (size 3 to 8) (size 9 to 14) (size 15 to 20)
#    0.000    1.750    1.250    3.000    0.000    4.500 
#    0.000    5.000    0.000    0.000    0.000    0.000 
#    0.000    0.000    0.000    0.000    0.000    0.000 
#
# Total GULP energy -793619.146914 kJ/mol
# GULP energy per Si atom -12400.299171 kJ/mol
# Density = 1.999247 g / cm^3
# Si number density = 20.038077 Si / 1000 Ang^3
#
#
#
# Elastic Constant Matrix: (Units=GPa)
#
#
# Indices 1 2 3 4 5 6 
#
# 1 92.8617 33.4953 11.0279 0.0000 0.0000 0.0000
# 2 33.4953 74.0920 26.1425 0.0000 0.0000 0.0000
# 3 11.0279 26.1425 46.0186 0.0000 0.0000 0.0000
# 4 0.0000 0.0000 0.0000 21.1279 0.0000 0.0000
# 5 0.0000 0.0000 0.0000 0.0000 154.8589 0.0000
# 6 0.0000 0.0000 0.0000 0.0000 0.0000 36.7983
#
#
#
# Elastic Compliance Matrix: (Units=1/GPa)
#
#
# Indices 1 2 3 4 5 6 
#
# 1 0.012870 -0.005916 0.000277 0.000000 0.000000 0.000000
# 2 -0.005916 0.019599 -0.009717 0.000000 0.000000 0.000000
# 3 0.000277 -0.009717 0.027184 0.000000 0.000000 0.000000
# 4 0.000000 0.000000 0.000000 0.047331 0.000000 0.000000
# 5 0.000000 0.000000 0.000000 0.000000 0.006457 0.000000
# 6 0.000000 0.000000 0.000000 0.000000 0.000000 0.027175
#
#
# Mechanical properties :
#
#
# Convention : Reuss Voigt Hill
#
# Bulk Modulus (GPa) = 34.55229 39.36708 36.95968
# Shear Modulus (GPa) = 27.62812 52.04411 39.83611
#
# Velocity S-wave (km/s) = 3.71722 5.10186 4.46356
# Velocity P-wave (km/s) = 5.97532 7.37524 6.71187
#
# Compressibility (1/GPa) = 0.02894164
#
# Stress axis : x y z
#
# Youngs Moduli (GPa) = 77.70222 51.02188 36.78651
#
# Poissons Ratio (x) = 0.30183 -0.01017
# Poissons Ratio (y) = 0.45966 0.35744
# Poissons Ratio (z) = -0.02149 0.49576
#
# Static dielectric constant tensor:
#      x y z
#    x 3.774270 0.000000 0.000000 
#    y 0.000000 0.465960 0.000000 
#    z 0.000000 0.000000 3.812910 
# 
# 
# High freq. dielectric constant tensor:
#      x y z
#    x 1.786390 0.000000 0.000000 
#    y 0.000000 1.786630 0.000000 
#    z 0.000000 0.000000 1.779360 
# 
# From -- ./inp_files/32548.got.cif
#   From: 2010.03.12/outbox.cif.g09.slc.cpg/sg62_17_cif.got.tgz:32548.got - 2010.04.10 19:12:36.
