data_PCOD8251651
_publ_section_title
;
Structure prediction by ZEFSAII (Michael W. Deem and Ramdas Pophale) SiO2 
 PCOD8251651
Probable space group: P N M A
;
_chemical_formula_sum "Si O2"
_cell_formula_units_Z 40
_cell_length_a 15.763371
_cell_length_b 8.792822
_cell_length_c 15.519053
_cell_angle_alpha 90.000000
_cell_angle_beta 90.000000
_cell_angle_gamma 90.000000
_cell_volume 2151.010819
_symmetry_space_group_name_H-M "P N M A"
_symmetry_group_IT_number 62
_symmetry_cell_setting 'orthorhombic'
loop_
_space_group_symop_operation_xyz
x,y,z
1/2-x,-y,1/2+z
1/2+x,1/2-y,1/2-z
-x,1/2+y,-z
-x,-y,-z
1/2+x,y,1/2-z
1/2-x,1/2+y,1/2+z
x,1/2-y,z
loop_
_atom_site_type_symbol
_atom_site_label
_atom_site_fract_x
_atom_site_fract_y
_atom_site_fract_z
Si Si1 0.462532 0.426827 0.369182
Si Si2 0.119469 0.573033 0.049277
Si Si3 0.929472 0.928308 0.307462
Si Si4 0.563439 0.925173 0.064252
Si Si5 0.299734 0.070864 0.059208
O O1 0.464275 0.250000 0.346219
O O2 0.402999 0.463804 0.450473
O O3 0.557962 0.481018 0.387399
O O4 0.422092 0.518484 0.290352
O O5 0.108026 0.750000 0.069767
O O6 0.214323 0.522948 0.068966
O O7 0.907886 0.750000 0.314276
O O8 0.027726 0.961100 0.339681
O O9 0.862503 0.021861 0.364175
O O10 0.556076 0.750000 0.044229
O O11 0.658981 0.973054 0.035367
O O12 0.500000 0.000000 0.000000
O O13 0.280523 0.250000 0.066443
#
# Coordination Sequence:
#
# PCOD8251651 Si02
#       5
#     8   8   8   8   8
#     4  10  21  38  58  79 107 145 186 228 275 328
#     4  10  21  38  58  79 106 143 186 227 275 330
#     4  10  19  34  56  82 113 146 182 225 273 324
#     4   8  16  30  50  76 106 141 175 213 262 318
#     4  10  19  34  56  82 112 143 181 226 275 326
#
# _framework density 18.595907
#
# number of rings (size 3 to 8) (size 9 to 14) (size 15 to 20)
#    0.000    2.400    0.000    2.400    0.000    4.000 
#    3.600    0.000    0.000    0.000    0.000    0.000 
#    0.000    0.000    0.000    0.000    0.000    0.000 
#
# Total GULP energy -495633.269179 kJ/mol
# GULP energy per Si atom -12390.831729 kJ/mol
# Density = 1.855358 g / cm^3
# Si number density = 18.595907 Si / 1000 Ang^3
#
#
#
# Elastic Constant Matrix: (Units=GPa)
#
#
# Indices 1 2 3 4 5 6 
#
# 1 87.6094 7.2961 22.6477 0.0000 0.0000 0.0000
# 2 7.2961 32.6021 13.7570 0.0000 0.0000 0.0000
# 3 22.6477 13.7570 71.8110 0.0000 0.0000 0.0000
# 4 0.0000 0.0000 0.0000 29.5581 0.0000 0.0000
# 5 0.0000 0.0000 0.0000 0.0000 15.4289 0.0000
# 6 0.0000 0.0000 0.0000 0.0000 0.0000 30.2219
#
#
#
# Elastic Compliance Matrix: (Units=1/GPa)
#
#
# Indices 1 2 3 4 5 6 
#
# 1 0.012473 -0.001231 -0.003698 0.000000 0.000000 0.000000
# 2 -0.001231 0.033492 -0.006028 0.000000 0.000000 0.000000
# 3 -0.003698 -0.006028 0.016246 0.000000 0.000000 0.000000
# 4 0.000000 0.000000 0.000000 0.033832 0.000000 0.000000
# 5 0.000000 0.000000 0.000000 0.000000 0.064814 0.000000
# 6 0.000000 0.000000 0.000000 0.000000 0.000000 0.033089
#
#
# Mechanical properties :
#
#
# Convention : Reuss Voigt Hill
#
# Bulk Modulus (GPa) = 24.81528 31.04712 27.93120
# Shear Modulus (GPa) = 21.80636 24.92988 23.36812
#
# Velocity S-wave (km/s) = 3.42810 3.66541 3.54874
# Velocity P-wave (km/s) = 5.38912 5.88605 5.64306
#
# Compressibility (1/GPa) = 0.04029776
#
# Stress axis : x y z
#
# Youngs Moduli (GPa) = 80.17494 29.85789 61.55196
#
# Poissons Ratio (x) = 0.03675 0.22761
# Poissons Ratio (y) = 0.09869 0.37103
# Poissons Ratio (z) = 0.29647 0.17998
#
# Static dielectric constant tensor:
#      x y z
#    x 3.502740 0.000000 0.000000 
#    y 0.000000 3.503310 0.000000 
#    z 0.000000 0.000000 3.544050 
# 
# 
# High freq. dielectric constant tensor:
#      x y z
#    x 1.714080 0.000000 0.000000 
#    y 0.000000 1.735550 0.000000 
#    z 0.000000 0.000000 1.712090 
# 
# From -- ./inp_files/18609.got.cif
#   From: 2010.03.12/outbox.cif.g09.slc.cpg/sg62_10_cif.got.tgz:18609.got - 2010.04.10 19:12:36.
