data_PCOD8251545
_publ_section_title
;
Structure prediction by ZEFSAII (Michael W. Deem and Ramdas Pophale) SiO2 
 PCOD8251545
Probable space group: P N M A
;
_chemical_formula_sum "Si O2"
_cell_formula_units_Z 44
_cell_length_a 13.374566
_cell_length_b 7.681684
_cell_length_c 21.467642
_cell_angle_alpha 90.000000
_cell_angle_beta 90.000000
_cell_angle_gamma 90.000000
_cell_volume 2205.568143
_symmetry_space_group_name_H-M "P N M A"
_symmetry_group_IT_number 62
_symmetry_cell_setting 'orthorhombic'
loop_
_space_group_symop_operation_xyz
x,y,z
1/2-x,-y,1/2+z
1/2+x,1/2-y,1/2-z
-x,1/2+y,-z
-x,-y,-z
1/2+x,y,1/2-z
1/2-x,1/2+y,1/2+z
x,1/2-y,z
loop_
_atom_site_type_symbol
_atom_site_label
_atom_site_fract_x
_atom_site_fract_y
_atom_site_fract_z
Si Si1 0.793320 0.058444 0.142920
Si Si2 0.199214 0.250000 0.648719
Si Si3 0.778101 0.250000 0.720030
Si Si4 0.478759 0.250000 0.856836
Si Si5 0.109011 0.549203 0.978163
Si Si6 0.794158 0.055857 0.447385
Si Si7 0.593256 0.443751 0.063761
O O1 0.807018 0.250000 0.173456
O O2 0.885283 0.012891 0.096538
O O3 0.698553 0.056103 0.098033
O O4 0.782595 0.919350 0.197544
O O5 0.278241 0.250000 0.705370
O O6 0.217402 0.423069 0.609150
O O7 0.086307 0.250000 0.676627
O O8 0.891733 0.250000 0.694973
O O9 0.477305 0.420417 0.900699
O O10 0.133571 0.750000 0.992038
O O11 0.190466 0.436435 0.014738
O O12 0.000000 0.500000 0.000000
O O13 0.814279 0.250000 0.421517
O O14 0.887429 0.001569 0.492175
O O15 0.545588 0.250000 0.065486
#
# Coordination Sequence:
#
# PCOD8251545 Si02
#       7
#     8   4   4   4   8   8   8
#     4   8  17  33  58  84 110 150 201 247 290 347
#     4  12  26  42  56  90 128 157 207 256 297 361
#     4  10  22  42  62  78 112 168 209 249 287 363
#     4  10  22  40  64  86 112 163 208 239 310 364
#     4  10  19  33  58  95 128 156 199 247 305 372
#     4  11  21  38  58  87 131 159 185 253 319 352
#     4   9  16  34  61  89 119 146 189 245 301 371
#
# _framework density 19.949507000000001
#
# number of rings (size 3 to 8) (size 9 to 14) (size 15 to 20)
#    0.000    2.182    2.727    1.636    5.091    2.182 
#    3.273    0.000    0.000    0.000    0.000    0.000 
#    0.000    0.000    0.000    0.000    0.000    0.000 
#
# Total GULP energy -545538.514399 kJ/mol
# GULP energy per Si atom -12398.602600 kJ/mol
# Density = 1.990410 g / cm^3
# Si number density = 19.949507 Si / 1000 Ang^3
#
#
#
# Elastic Constant Matrix: (Units=GPa)
#
#
# Indices 1 2 3 4 5 6 
#
# 1 51.4625 10.9785 12.2888 0.0000 0.0000 0.0000
# 2 10.9785 161.4493 55.8702 0.0000 0.0000 0.0000
# 3 12.2888 55.8702 104.4681 0.0000 0.0000 0.0000
# 4 0.0000 0.0000 0.0000 24.3943 0.0000 0.0000
# 5 0.0000 0.0000 0.0000 0.0000 24.6240 0.0000
# 6 0.0000 0.0000 0.0000 0.0000 0.0000 13.7787
#
#
#
# Elastic Compliance Matrix: (Units=1/GPa)
#
#
# Indices 1 2 3 4 5 6 
#
# 1 0.020052 -0.000672 -0.002000 0.000000 0.000000 0.000000
# 2 -0.000672 0.007623 -0.003998 0.000000 0.000000 0.000000
# 3 -0.002000 -0.003998 0.011946 0.000000 0.000000 0.000000
# 4 0.000000 0.000000 0.000000 0.040993 0.000000 0.000000
# 5 0.000000 0.000000 0.000000 0.000000 0.040611 0.000000
# 6 0.000000 0.000000 0.000000 0.000000 0.000000 0.072576
#
#
# Mechanical properties :
#
#
# Convention : Reuss Voigt Hill
#
# Bulk Modulus (GPa) = 38.04757 52.85055 45.44906
# Shear Modulus (GPa) = 23.15891 28.44224 25.80058
#
# Velocity S-wave (km/s) = 3.41086 3.77996 3.60014
# Velocity P-wave (km/s) = 5.88433 6.75281 6.33347
#
# Compressibility (1/GPa) = 0.02628289
#
# Stress axis : x y z
#
# Youngs Moduli (GPa) = 49.86938 131.18143 83.71286
#
# Poissons Ratio (x) = 0.08810 0.16740
# Poissons Ratio (y) = 0.03349 0.33467
# Poissons Ratio (z) = 0.09972 0.52444
#
# Static dielectric constant tensor:
#      x y z
#    x 3.532420 0.000000 0.000000 
#    y 0.000000 4.037090 0.000000 
#    z 0.000000 0.000000 3.292680 
# 
# 
# High freq. dielectric constant tensor:
#      x y z
#    x 1.770100 0.000000 0.000000 
#    y 0.000000 1.797600 0.000000 
#    z 0.000000 0.000000 1.741780 
# 
# From -- ./inp_files/23602.got.cif
#   From: 2010.03.12/outbox.cif.g09.slc.cpg/sg62_12_cif.got.tgz:23602.got - 2010.04.10 19:12:36.
