data_PCOD8251289
_publ_section_title
;
Structure prediction by ZEFSAII (Michael W. Deem and Ramdas Pophale) SiO2 
 PCOD8251289
Probable space group: P N M A
;
_chemical_formula_sum "Si O2"
_cell_formula_units_Z 64
_cell_length_a 20.534241
_cell_length_b 8.851020
_cell_length_c 19.107951
_cell_angle_alpha 90.000000
_cell_angle_beta 90.000000
_cell_angle_gamma 90.000000
_cell_volume 3472.850562
_symmetry_space_group_name_H-M "P N M A"
_symmetry_group_IT_number 62
_symmetry_cell_setting 'orthorhombic'
loop_
_space_group_symop_operation_xyz
x,y,z
1/2-x,-y,1/2+z
1/2+x,1/2-y,1/2-z
-x,1/2+y,-z
-x,-y,-z
1/2+x,y,1/2-z
1/2-x,1/2+y,1/2+z
x,1/2-y,z
loop_
_atom_site_type_symbol
_atom_site_label
_atom_site_fract_x
_atom_site_fract_y
_atom_site_fract_z
Si Si1 0.819712 0.923738 0.535683
Si Si2 0.253287 0.924035 0.827637
Si Si3 0.251912 0.927288 0.669942
Si Si4 0.435594 0.926921 0.470152
Si Si5 0.613252 0.429015 0.829381
Si Si6 0.313819 0.425632 0.545118
Si Si7 0.938980 0.072030 0.461961
Si Si8 0.381083 0.575427 0.325635
O O1 0.841996 0.750000 0.525801
O O2 0.810581 0.966374 0.617807
O O3 0.751245 0.953938 0.498614
O O4 0.873656 0.032745 0.504062
O O5 0.235800 0.750000 0.836363
O O6 0.275880 0.962135 0.748905
O O7 0.187057 0.005586 0.848489
O O8 0.239344 0.750000 0.657976
O O9 0.186130 0.017814 0.652769
O O10 0.308058 0.989359 0.619455
O O11 0.434781 0.750000 0.486939
O O12 0.433897 0.957070 0.386184
O O13 0.500000 0.000000 0.500000
O O14 0.373797 0.003568 0.504760
O O15 0.609033 0.250000 0.839714
O O16 0.563770 0.507770 0.883001
O O17 0.594387 0.483255 0.750480
O O18 0.327450 0.250000 0.558278
O O19 0.947931 0.250000 0.458730
O O20 0.000000 0.000000 0.500000
O O21 0.366339 0.750000 0.317179
#
# Coordination Sequence:
#
# PCOD8251289 Si02
#       8
#     8   8   8   8   8   8   8   8
#     4  10  20  36  58  84 115 147 185 231 282 336
#     4   9  18  33  55  83 114 147 185 233 283 333
#     4  10  19  32  54  85 116 147 188 234 281 332
#     4  11  23  39  58  84 117 152 194 238 283 339
#     4  10  19  35  57  83 113 146 185 230 282 337
#     4  11  21  35  58  84 115 151 187 231 284 334
#     4  12  25  40  59  84 115 151 191 235 284 340
#     4   9  19  34  56  83 112 145 185 233 280 334
#
# _framework density 18.428666
#
# number of rings (size 3 to 8) (size 9 to 14) (size 15 to 20)
#    0.000    1.750    2.500    2.625    0.000    2.500 
#    0.000    1.250    0.000    0.000    0.000    0.000 
#    0.000    0.000    0.000    0.000    0.000    0.000 
#
# Total GULP energy -793602.928586 kJ/mol
# GULP energy per Si atom -12400.045759 kJ/mol
# Density = 1.838672 g / cm^3
# Si number density = 18.428666 Si / 1000 Ang^3
#
#
#
# Elastic Constant Matrix: (Units=GPa)
#
#
# Indices 1 2 3 4 5 6 
#
# 1 86.2700 48.6174 55.7067 0.0000 0.0000 0.0000
# 2 48.6174 97.6353 53.4898 0.0000 0.0000 0.0000
# 3 55.7067 53.4898 132.3146 0.0000 0.0000 0.0000
# 4 0.0000 0.0000 0.0000 27.6513 0.0000 0.0000
# 5 0.0000 0.0000 0.0000 0.0000 28.7414 0.0000
# 6 0.0000 0.0000 0.0000 0.0000 0.0000 31.8677
#
#
#
# Elastic Compliance Matrix: (Units=1/GPa)
#
#
# Indices 1 2 3 4 5 6 
#
# 1 0.018568 -0.006375 -0.005240 0.000000 0.000000 0.000000
# 2 -0.006375 0.015345 -0.003519 0.000000 0.000000 0.000000
# 3 -0.005240 -0.003519 0.011187 0.000000 0.000000 0.000000
# 4 0.000000 0.000000 0.000000 0.036165 0.000000 0.000000
# 5 0.000000 0.000000 0.000000 0.000000 0.034793 0.000000
# 6 0.000000 0.000000 0.000000 0.000000 0.000000 0.031380
#
#
# Mechanical properties :
#
#
# Convention : Reuss Voigt Hill
#
# Bulk Modulus (GPa) = 67.42985 70.20529 68.81757
# Shear Modulus (GPa) = 27.37488 28.21246 27.79367
#
# Velocity S-wave (km/s) = 3.85834 3.91692 3.88774
# Velocity P-wave (km/s) = 7.51785 7.65733 7.58791
#
# Compressibility (1/GPa) = 0.01483023
#
# Stress axis : x y z
#
# Youngs Moduli (GPa) = 53.85647 65.16920 89.39195
#
# Poissons Ratio (x) = 0.41545 0.46843
# Poissons Ratio (y) = 0.34333 0.31460
# Poissons Ratio (z) = 0.28222 0.22935
#
# Static dielectric constant tensor:
#      x y z
#    x 3.263750 0.000000 0.000000 
#    y 0.000000 3.407360 0.000000 
#    z 0.000000 0.000000 4.034710 
# 
# 
# High freq. dielectric constant tensor:
#      x y z
#    x 1.680080 0.000000 0.000000 
#    y 0.000000 1.724010 0.000000 
#    z 0.000000 0.000000 1.737200 
# 
# From -- ./inp_files/24810.got.cif
#   From: 2010.03.12/outbox.cif.g09.slc.cpg/sg62_13_cif.got.tgz:24810.got - 2010.04.10 19:12:36.
