data_PCOD8251444
_publ_section_title
;
Structure prediction by ZEFSAII (Michael W. Deem and Ramdas Pophale) SiO2 
 PCOD8251444
Probable space group: P N M A
;
_chemical_formula_sum "Si O2"
_cell_formula_units_Z 56
_cell_length_a 14.917234
_cell_length_b 8.904101
_cell_length_c 21.414266
_cell_angle_alpha 90.000000
_cell_angle_beta 90.000000
_cell_angle_gamma 90.000000
_cell_volume 2844.340420
_symmetry_space_group_name_H-M "P N M A"
_symmetry_group_IT_number 62
_symmetry_cell_setting 'orthorhombic'
loop_
_space_group_symop_operation_xyz
x,y,z
1/2-x,-y,1/2+z
1/2+x,1/2-y,1/2-z
-x,1/2+y,-z
-x,-y,-z
1/2+x,y,1/2-z
1/2-x,1/2+y,1/2+z
x,1/2-y,z
loop_
_atom_site_type_symbol
_atom_site_label
_atom_site_fract_x
_atom_site_fract_y
_atom_site_fract_z
Si Si1 0.184571 0.924347 0.655951
Si Si2 0.434231 0.072348 0.950380
Si Si3 0.625294 0.427942 0.296642
Si Si4 0.376809 0.913742 0.482782
Si Si5 0.289665 0.573824 0.025649
Si Si6 0.003013 0.585647 0.903530
Si Si7 0.485056 0.924702 0.822529
O O1 0.199013 0.750000 0.638170
O O2 0.270825 0.982829 0.696126
O O3 0.091257 0.946802 0.693895
O O4 0.174804 0.016177 0.592076
O O5 0.438892 0.250000 0.956038
O O6 0.459342 0.024219 0.881171
O O7 0.500000 0.000000 0.000000
O O8 0.336615 0.010672 0.967856
O O9 0.624165 0.250000 0.298224
O O10 0.565777 0.489381 0.354266
O O11 0.578170 0.485070 0.233333
O O12 0.331204 0.750000 0.471127
O O13 0.458270 0.889515 0.529681
O O14 0.313664 0.034140 0.516697
O O15 0.411666 0.977541 0.415833
O O16 0.307278 0.750000 0.021682
O O17 0.035393 0.750000 0.878657
O O18 0.466118 0.750000 0.836955
#
# Coordination Sequence:
#
# PCOD8251444 Si02
#       7
#     8   8   8   8   8   8   8
#     4  10  19  36  61  85 115 157 200 244 294 349
#     4  12  24  40  62  88 120 152 189 243 306 358
#     4   9  18  36  59  86 119 160 206 246 291 358
#     4  10  19  33  54  82 118 154 193 245 299 347
#     4  12  23  36  59  88 116 150 197 245 296 359
#     4   9  17  32  54  81 116 155 198 242 290 349
#     4  10  21  38  62  88 118 157 201 246 298 355
#
# _framework density 19.688220999999999
#
# number of rings (size 3 to 8) (size 9 to 14) (size 15 to 20)
#    0.000    1.714    2.857    3.000    0.000    0.571 
#    2.571    1.429    0.000    0.000    0.000    0.000 
#    0.000    0.000    0.000    0.000    0.000    0.000 
#
# Total GULP energy -694117.107740 kJ/mol
# GULP energy per Si atom -12394.948352 kJ/mol
# Density = 1.964341 g / cm^3
# Si number density = 19.688221 Si / 1000 Ang^3
#
#
#
# Elastic Constant Matrix: (Units=GPa)
#
#
# Indices 1 2 3 4 5 6 
#
# 1 87.7829 38.8690 50.7805 0.0000 0.0000 0.0000
# 2 38.8690 110.2899 41.8152 0.0000 0.0000 0.0000
# 3 50.7805 41.8152 101.8079 0.0000 0.0000 0.0000
# 4 0.0000 0.0000 0.0000 24.4028 0.0000 0.0000
# 5 0.0000 0.0000 0.0000 0.0000 37.1988 0.0000
# 6 0.0000 0.0000 0.0000 0.0000 0.0000 24.7449
#
#
#
# Elastic Compliance Matrix: (Units=1/GPa)
#
#
# Indices 1 2 3 4 5 6 
#
# 1 0.016958 -0.003280 -0.007111 0.000000 0.000000 0.000000
# 2 -0.003280 0.011374 -0.003035 0.000000 0.000000 0.000000
# 3 -0.007111 -0.003035 0.014616 0.000000 0.000000 0.000000
# 4 0.000000 0.000000 0.000000 0.040979 0.000000 0.000000
# 5 0.000000 0.000000 0.000000 0.000000 0.026883 0.000000
# 6 0.000000 0.000000 0.000000 0.000000 0.000000 0.040412
#
#
# Mechanical properties :
#
#
# Convention : Reuss Voigt Hill
#
# Bulk Modulus (GPa) = 62.13384 62.53446 62.33415
# Shear Modulus (GPa) = 27.25692 28.49704 27.87698
#
# Velocity S-wave (km/s) = 3.72483 3.80862 3.76696
# Velocity P-wave (km/s) = 7.08001 7.15347 7.11683
#
# Compressibility (1/GPa) = 0.01609429
#
# Stress axis : x y z
#
# Youngs Moduli (GPa) = 58.97003 87.92052 68.41810
#
# Poissons Ratio (x) = 0.28841 0.48652
# Poissons Ratio (y) = 0.19344 0.20768
# Poissons Ratio (z) = 0.41934 0.26687
#
# Static dielectric constant tensor:
#      x y z
#    x -3.492860 0.000000 0.000000 
#    y 0.000000 3.668340 0.000000 
#    z 0.000000 0.000000 3.961760 
# 
# 
# High freq. dielectric constant tensor:
#      x y z
#    x 1.772780 0.000000 0.000000 
#    y 0.000000 1.752900 0.000000 
#    z 0.000000 0.000000 1.744870 
# 
# From -- ./inp_files/27078.got.cif
#   From: 2010.03.12/outbox.cif.g09.slc.cpg/sg62_14_cif.got.tgz:27078.got - 2010.04.10 19:12:36.
