data_PCOD8251938
_publ_section_title
;
Structure prediction by ZEFSAII (Michael W. Deem and Ramdas Pophale) SiO2 
 PCOD8251938
Probable space group: P N M A
;
_chemical_formula_sum "Si O2"
_cell_formula_units_Z 56
_cell_length_a 9.038228
_cell_length_b 23.673930
_cell_length_c 13.681314
_cell_angle_alpha 90.000000
_cell_angle_beta 90.000000
_cell_angle_gamma 90.000000
_cell_volume 2927.395914
_symmetry_space_group_name_H-M "P N M A"
_symmetry_group_IT_number 62
_symmetry_cell_setting 'orthorhombic'
loop_
_space_group_symop_operation_xyz
x,y,z
1/2-x,-y,1/2+z
1/2+x,1/2-y,1/2-z
-x,1/2+y,-z
-x,-y,-z
1/2+x,y,1/2-z
1/2-x,1/2+y,1/2+z
x,1/2-y,z
loop_
_atom_site_type_symbol
_atom_site_label
_atom_site_fract_x
_atom_site_fract_y
_atom_site_fract_z
Si Si1 0.232664 0.250000 0.846664
Si Si2 0.081861 0.250000 0.634322
Si Si3 0.075678 0.356728 0.930650
Si Si4 0.833914 0.570158 0.241501
Si Si5 0.090422 0.058784 0.093713
Si Si6 0.260810 0.855208 0.090991
Si Si7 0.232531 0.533565 0.972367
Si Si8 0.917377 0.507559 0.709943
O O1 0.171636 0.250000 0.736780
O O2 0.409418 0.250000 0.842744
O O3 0.184517 0.305366 0.907420
O O4 0.132639 0.197304 0.566434
O O5 0.104068 0.412729 0.865066
O O6 0.909609 0.335132 0.910006
O O7 0.101015 0.379217 0.042543
O O8 0.826167 0.627060 0.303863
O O9 0.665880 0.550096 0.237798
O O10 0.915925 0.515752 0.288421
O O11 0.110822 0.058805 0.211890
O O12 0.924635 0.035064 0.081442
O O13 0.217032 0.016775 0.051098
O O14 0.278798 0.907468 0.019271
O O15 0.366898 0.525084 0.897534
#
# Coordination Sequence:
#
# PCOD8251938 Si02
#       8
#     4   4   8   8   8   8   8   8
#     4  12  26  40  60  85 112 153 192 245 292 344
#     4  12  26  40  58  85 116 147 196 241 294 342
#     4  11  22  39  60  81 115 158 196 233 290 347
#     4  12  21  32  57  86 121 151 190 234 279 343
#     4  10  19  36  57  82 117 156 189 234 286 351
#     4  11  23  39  58  84 115 157 194 239 287 347
#     4  10  20  36  57  82 118 156 192 230 291 345
#     4  12  21  36  55  88 120 157 191 233 285 342
#
# _framework density 19.129629999999999
#
# number of rings (size 3 to 8) (size 9 to 14) (size 15 to 20)
#    0.000    0.857    7.143    2.143    2.000    0.571 
#    2.571    0.000    0.000    0.857    0.000    0.000 
#    0.000    0.000    0.000    0.000    0.000    0.000 
#
# Total GULP energy -693996.953852 kJ/mol
# GULP energy per Si atom -12392.802747 kJ/mol
# Density = 1.908609 g / cm^3
# Si number density = 19.129630 Si / 1000 Ang^3
#
#
#
# Elastic Constant Matrix: (Units=GPa)
#
#
# Indices 1 2 3 4 5 6 
#
# 1 80.7357 38.8963 27.0875 0.0000 0.0000 0.0000
# 2 38.8963 97.0385 21.7381 0.0000 0.0000 0.0000
# 3 27.0875 21.7381 30.5843 0.0000 0.0000 0.0000
# 4 0.0000 0.0000 0.0000 25.1926 0.0000 0.0000
# 5 0.0000 0.0000 0.0000 0.0000 22.5900 0.0000
# 6 0.0000 0.0000 0.0000 0.0000 0.0000 27.7172
#
#
#
# Elastic Compliance Matrix: (Units=1/GPa)
#
#
# Indices 1 2 3 4 5 6 
#
# 1 0.019225 -0.004629 -0.013737 0.000000 0.000000 0.000000
# 2 -0.004629 0.013371 -0.005404 0.000000 0.000000 0.000000
# 3 -0.013737 -0.005404 0.048704 0.000000 0.000000 0.000000
# 4 0.000000 0.000000 0.000000 0.039694 0.000000 0.000000
# 5 0.000000 0.000000 0.000000 0.000000 0.044267 0.000000
# 6 0.000000 0.000000 0.000000 0.000000 0.000000 0.036079
#
#
# Mechanical properties :
#
#
# Convention : Reuss Voigt Hill
#
# Bulk Modulus (GPa) = 29.62058 42.64471 36.13265
# Shear Modulus (GPa) = 19.22089 23.14240 21.18165
#
# Velocity S-wave (km/s) = 3.17325 3.48194 3.33118
# Velocity P-wave (km/s) = 5.37994 6.20533 5.80732
#
# Compressibility (1/GPa) = 0.03376031
#
# Stress axis : x y z
#
# Youngs Moduli (GPa) = 52.01568 74.78779 20.53218
#
# Poissons Ratio (x) = 0.34617 0.28205
# Poissons Ratio (y) = 0.24077 0.11096
# Poissons Ratio (z) = 0.71454 0.40417
#
# Static dielectric constant tensor:
#      x y z
#    x 3.475780 0.000000 0.000000 
#    y 0.000000 3.339910 0.000000 
#    z 0.000000 0.000000 3.388700 
# 
# 
# High freq. dielectric constant tensor:
#      x y z
#    x 1.751920 0.000000 0.000000 
#    y 0.000000 1.726540 0.000000 
#    z 0.000000 0.000000 1.723270 
# 
# From -- ./inp_files/17239.got.cif
#   From: 2010.03.12/outbox.cif.g09.slc.cpg/sg62_9_cif.got.tgz:17239.got - 2010.04.10 19:12:36.
