data_PCOD8251978
_publ_section_title
;
Structure prediction by ZEFSAII (Michael W. Deem and Ramdas Pophale) SiO2 
 PCOD8251978
Probable space group: P N M A
;
_chemical_formula_sum "Si O2"
_cell_formula_units_Z 56
_cell_length_a 22.660638
_cell_length_b 13.559839
_cell_length_c 8.985391
_cell_angle_alpha 90.000000
_cell_angle_beta 90.000000
_cell_angle_gamma 90.000000
_cell_volume 2760.982452
_symmetry_space_group_name_H-M "P N M A"
_symmetry_group_IT_number 62
_symmetry_cell_setting 'orthorhombic'
loop_
_space_group_symop_operation_xyz
x,y,z
1/2-x,-y,1/2+z
1/2+x,1/2-y,1/2-z
-x,1/2+y,-z
-x,-y,-z
1/2+x,y,1/2-z
1/2-x,1/2+y,1/2+z
x,1/2-y,z
loop_
_atom_site_type_symbol
_atom_site_label
_atom_site_fract_x
_atom_site_fract_y
_atom_site_fract_z
Si Si1 0.255119 0.866120 0.415452
Si Si2 0.777101 0.861825 0.747402
Si Si3 0.363837 0.955069 0.238935
Si Si4 0.345319 0.136940 0.406259
Si Si5 0.545988 0.363260 0.557730
Si Si6 0.356204 0.490866 0.902316
Si Si7 0.576109 0.546682 0.363199
O O1 0.261415 0.750000 0.387365
O O2 0.263799 0.898309 0.586092
O O3 0.299844 0.922470 0.304094
O O4 0.188237 0.899101 0.388357
O O5 0.796253 0.750000 0.754836
O O6 0.724055 0.877237 0.628439
O O7 0.833481 0.919423 0.695541
O O8 0.413179 0.879324 0.296712
O O9 0.380485 0.066031 0.292272
O O10 0.366644 0.961927 0.062564
O O11 0.364231 0.250000 0.379401
O O12 0.364484 0.098656 0.569503
O O13 0.552588 0.250000 0.504555
O O14 0.567388 0.436270 0.427477
O O15 0.478624 0.383554 0.600064
O O16 0.416061 0.458387 0.816293
#
# Coordination Sequence:
#
# PCOD8251978 Si02
#       7
#     8   8   8   8   8   8   8
#     4  11  22  38  58  87 124 168 202 244 307 370
#     4  10  21  36  57  85 123 162 200 245 298 362
#     4  11  23  37  62  88 125 164 206 252 308 368
#     4  10  19  36  59  87 120 160 205 249 301 365
#     4  10  22  45  66  87 118 162 213 262 307 362
#     4  12  23  38  58  92 128 156 202 252 311 370
#     4  10  24  40  66  92 119 162 208 260 312 364
#
# _framework density 20.282636
#
# number of rings (size 3 to 8) (size 9 to 14) (size 15 to 20)
#    0.000    1.429    2.857    2.571    2.000    4.571 
#    0.000    0.000    0.000    0.000    0.000    0.000 
#    0.000    0.000    0.000    0.000    0.000    0.000 
#
# Total GULP energy -694056.009420 kJ/mol
# GULP energy per Si atom -12393.857311 kJ/mol
# Density = 2.023647 g / cm^3
# Si number density = 20.282636 Si / 1000 Ang^3
#
#
#
# Elastic Constant Matrix: (Units=GPa)
#
#
# Indices 1 2 3 4 5 6 
#
# 1 48.7168 22.6251 24.9584 0.0000 0.0000 0.0000
# 2 22.6251 114.9433 36.5642 0.0000 0.0000 0.0000
# 3 24.9584 36.5642 92.2686 0.0000 0.0000 0.0000
# 4 0.0000 0.0000 0.0000 22.2873 0.0000 0.0000
# 5 0.0000 0.0000 0.0000 0.0000 24.6405 0.0000
# 6 0.0000 0.0000 0.0000 0.0000 0.0000 23.2450
#
#
#
# Elastic Compliance Matrix: (Units=1/GPa)
#
#
# Indices 1 2 3 4 5 6 
#
# 1 0.024782 -0.003142 -0.005459 0.000000 0.000000 0.000000
# 2 -0.003142 0.010353 -0.003253 0.000000 0.000000 0.000000
# 3 -0.005459 -0.003253 0.013604 0.000000 0.000000 0.000000
# 4 0.000000 0.000000 0.000000 0.044869 0.000000 0.000000
# 5 0.000000 0.000000 0.000000 0.000000 0.040584 0.000000
# 6 0.000000 0.000000 0.000000 0.000000 0.000000 0.043020
#
#
# Mechanical properties :
#
#
# Convention : Reuss Voigt Hill
#
# Bulk Modulus (GPa) = 39.94778 47.13599 43.54189
# Shear Modulus (GPa) = 23.89351 25.48663 24.69007
#
# Velocity S-wave (km/s) = 3.43596 3.54866 3.49277
# Velocity P-wave (km/s) = 5.95646 6.33093 6.14655
#
# Compressibility (1/GPa) = 0.02503268
#
# Stress axis : x y z
#
# Youngs Moduli (GPa) = 40.35123 96.58936 73.51043
#
# Poissons Ratio (x) = 0.30345 0.40126
# Poissons Ratio (y) = 0.12677 0.23912
# Poissons Ratio (z) = 0.22026 0.31420
#
# Static dielectric constant tensor:
#      x y z
#    x 3.567590 0.000000 0.000000 
#    y 0.000000 3.858230 0.000000 
#    z 0.000000 0.000000 3.715500 
# 
# 
# High freq. dielectric constant tensor:
#      x y z
#    x 1.774860 0.000000 0.000000 
#    y 0.000000 1.807410 0.000000 
#    z 0.000000 0.000000 1.784200 
# 
# From -- ./inp_files/8704.got.cif
#   From: 2010.03.12/outbox.cif.g09.slc.cpg/sg62_5_cif.got.tgz:8704.got - 2010.04.10 19:12:36.
