data_PCOD8251715
_publ_section_title
;
Structure prediction by ZEFSAII (Michael W. Deem and Ramdas Pophale) SiO2 
 PCOD8251715
Probable space group: P N M A
;
_chemical_formula_sum "Si O2"
_cell_formula_units_Z 40
_cell_length_a 13.401212
_cell_length_b 9.620365
_cell_length_c 14.142583
_cell_angle_alpha 90.000000
_cell_angle_beta 90.000000
_cell_angle_gamma 90.000000
_cell_volume 1823.326162
_symmetry_space_group_name_H-M "P N M A"
_symmetry_group_IT_number 62
_symmetry_cell_setting 'orthorhombic'
loop_
_space_group_symop_operation_xyz
x,y,z
1/2-x,-y,1/2+z
1/2+x,1/2-y,1/2-z
-x,1/2+y,-z
-x,-y,-z
1/2+x,y,1/2-z
1/2-x,1/2+y,1/2+z
x,1/2-y,z
loop_
_atom_site_type_symbol
_atom_site_label
_atom_site_fract_x
_atom_site_fract_y
_atom_site_fract_z
Si Si1 0.277818 0.012917 0.610972
Si Si2 0.618092 0.250000 0.890826
Si Si3 0.910706 0.250000 0.520191
Si Si4 0.415463 0.250000 0.587604
Si Si5 0.620908 0.250000 0.679082
Si Si6 0.189853 0.750000 0.887547
Si Si7 0.258094 0.457850 0.912894
Si Si8 0.687535 0.750000 0.817182
O O1 0.182110 0.111578 0.592735
O O2 0.370495 0.112308 0.639581
O O3 0.301643 0.936986 0.511627
O O4 0.256519 0.889533 0.684852
O O5 0.528605 0.250000 0.965855
O O6 0.575407 0.250000 0.783817
O O7 0.865846 0.114020 0.572919
O O8 0.887257 0.250000 0.406943
O O9 0.533279 0.250000 0.601614
O O10 0.388201 0.250000 0.475135
O O11 0.691792 0.115711 0.667680
O O12 0.265971 0.620707 0.890954
O O13 0.132005 0.750000 0.785592
#
# Coordination Sequence:
#
# PCOD8251715 Si02
#       8
#     8   4   4   4   4   4   8   4
#     4   9  20  39  59  81 114 153 194 240 292 343
#     4  11  22  37  61  89 115 152 200 239 279 346
#     4   9  21  39  61  84 116 158 195 235 291 347
#     4   9  21  39  61  84 116 158 195 235 291 347
#     4  11  22  37  61  89 115 152 200 239 279 346
#     4  10  19  34  58  85 117 154 193 242 292 341
#     4   9  20  39  59  81 114 153 194 240 292 343
#     4  10  19  34  58  85 117 154 193 242 292 341
#
# _framework density 21.937929
#
# number of rings (size 3 to 8) (size 9 to 14) (size 15 to 20)
#    0.000    2.400    0.000    2.400    0.000   11.200 
#    0.000    2.000    0.000   33.600    0.000    0.000 
#    0.000    0.000    0.000    0.000    0.000    0.000 
#
# Total GULP energy -495600.237112 kJ/mol
# GULP energy per Si atom -12390.005928 kJ/mol
# Density = 2.188800 g / cm^3
# Si number density = 21.937929 Si / 1000 Ang^3
#
#
#
# Elastic Constant Matrix: (Units=GPa)
#
#
# Indices 1 2 3 4 5 6 
#
# 1 81.4840 31.0344 19.4993 0.0000 0.0000 0.0000
# 2 31.0344 149.4898 14.4958 0.0000 0.0000 0.0000
# 3 19.4993 14.4958 114.1476 0.0000 0.0000 0.0000
# 4 0.0000 0.0000 0.0000 20.2296 0.0000 0.0000
# 5 0.0000 0.0000 0.0000 0.0000 24.8421 0.0000
# 6 0.0000 0.0000 0.0000 0.0000 0.0000 2.6731
#
#
#
# Elastic Compliance Matrix: (Units=1/GPa)
#
#
# Indices 1 2 3 4 5 6 
#
# 1 0.013769 -0.002663 -0.002014 0.000000 0.000000 0.000000
# 2 -0.002663 0.007288 -0.000471 0.000000 0.000000 0.000000
# 3 -0.002014 -0.000471 0.009164 0.000000 0.000000 0.000000
# 4 0.000000 0.000000 0.000000 0.049433 0.000000 0.000000
# 5 0.000000 0.000000 0.000000 0.000000 0.040254 0.000000
# 6 0.000000 0.000000 0.000000 0.000000 0.000000 0.374094
#
#
# Mechanical properties :
#
#
# Convention : Reuss Voigt Hill
#
# Bulk Modulus (GPa) = 50.18619 52.79784 51.49201
# Shear Modulus (GPa) = 9.78591 28.22173 19.00382
#
# Velocity S-wave (km/s) = 2.11433 3.59058 2.94641
# Velocity P-wave (km/s) = 5.37463 6.42720 5.92434
#
# Compressibility (1/GPa) = 0.01992580
#
# Stress axis : x y z
#
# Youngs Moduli (GPa) = 72.62929 137.21337 109.11835
#
# Poissons Ratio (x) = 0.36541 0.21975
# Poissons Ratio (y) = 0.19342 0.05135
# Poissons Ratio (z) = 0.14626 0.06457
#
# Static dielectric constant tensor:
#      x y z
#    x 3.311990 0.000000 0.000000 
#    y 0.000000 4.296000 0.000000 
#    z 0.000000 0.000000 4.088070 
# 
# 
# High freq. dielectric constant tensor:
#      x y z
#    x 1.803680 0.000000 0.000000 
#    y 0.000000 1.884320 0.000000 
#    z 0.000000 0.000000 1.871030 
# 
# From -- ./inp_files/17861.got.cif
#   From: 2010.03.12/outbox.cif.g09.slc.cpg/sg62_9_cif.got.tgz:17861.got - 2010.04.10 19:12:36.
