data_PCOD8251965
_publ_section_title
;
Structure prediction by ZEFSAII (Michael W. Deem and Ramdas Pophale) SiO2 
 PCOD8251965
Probable space group: P N M A
;
_chemical_formula_sum "Si O2"
_cell_formula_units_Z 48
_cell_length_a 17.585738
_cell_length_b 9.025094
_cell_length_c 16.430725
_cell_angle_alpha 90.000000
_cell_angle_beta 90.000000
_cell_angle_gamma 90.000000
_cell_volume 2607.768647
_symmetry_space_group_name_H-M "P N M A"
_symmetry_group_IT_number 62
_symmetry_cell_setting 'orthorhombic'
loop_
_space_group_symop_operation_xyz
x,y,z
1/2-x,-y,1/2+z
1/2+x,1/2-y,1/2-z
-x,1/2+y,-z
-x,-y,-z
1/2+x,y,1/2-z
1/2-x,1/2+y,1/2+z
x,1/2-y,z
loop_
_atom_site_type_symbol
_atom_site_label
_atom_site_fract_x
_atom_site_fract_y
_atom_site_fract_z
Si Si1 0.398090 0.922660 0.176834
Si Si2 0.079138 0.922260 0.515359
Si Si3 0.819170 0.420599 0.640858
Si Si4 0.168656 0.577395 0.825688
Si Si5 0.014044 0.922794 0.914752
Si Si6 0.552905 0.578855 0.265940
O O1 0.382792 0.750000 0.163891
O O2 0.484481 0.955441 0.203703
O O3 0.380295 0.007517 0.093614
O O4 0.339945 0.984236 0.243386
O O5 0.063954 0.750000 0.530143
O O6 0.132535 0.950813 0.439084
O O7 0.000000 0.000000 0.500000
O O8 0.793017 0.250000 0.645402
O O9 0.746843 0.526876 0.633392
O O10 0.868895 0.461905 0.720484
O O11 0.170722 0.750000 0.804100
O O12 0.099947 0.541430 0.887217
O O13 0.999314 0.750000 0.925163
O O14 0.954637 0.982402 0.847525
O O15 0.000000 0.000000 0.000000
O O16 0.550715 0.750000 0.291972
#
# Coordination Sequence:
#
# PCOD8251965 Si02
#       6
#     8   8   8   8   8   8
#     4  10  19  36  59  83 111 150 188 227 281 334
#     4  11  21  35  57  87 119 151 192 235 280 340
#     4  10  21  38  57  83 117 152 187 230 284 339
#     4  10  22  39  58  84 114 147 189 236 285 338
#     4  10  21  38  60  85 110 144 191 238 282 334
#     4   9  18  35  58  82 110 144 185 228 275 335
#
# _framework density 18.40654
#
# number of rings (size 3 to 8) (size 9 to 14) (size 15 to 20)
#    0.000    2.000    1.667    2.000    0.000    4.667 
#    3.000    0.000    0.000    0.000    0.000    0.000 
#    0.000    0.000    0.000    0.000    0.000    0.000 
#
# Total GULP energy -595394.651166 kJ/mol
# GULP energy per Si atom -12404.055233 kJ/mol
# Density = 1.836465 g / cm^3
# Si number density = 18.406540 Si / 1000 Ang^3
#
#
#
# Elastic Constant Matrix: (Units=GPa)
#
#
# Indices 1 2 3 4 5 6 
#
# 1 82.5044 50.7437 45.5343 0.0000 0.0000 0.0000
# 2 50.7437 110.4195 79.9715 0.0000 0.0000 0.0000
# 3 45.5343 79.9715 143.5979 0.0000 0.0000 0.0000
# 4 0.0000 0.0000 0.0000 39.5149 0.0000 0.0000
# 5 0.0000 0.0000 0.0000 0.0000 14.1959 0.0000
# 6 0.0000 0.0000 0.0000 0.0000 0.0000 32.6100
#
#
#
# Elastic Compliance Matrix: (Units=1/GPa)
#
#
# Indices 1 2 3 4 5 6 
#
# 1 0.017157 -0.006611 -0.001759 0.000000 0.000000 0.000000
# 2 -0.006611 0.017726 -0.007775 0.000000 0.000000 0.000000
# 3 -0.001759 -0.007775 0.011852 0.000000 0.000000 0.000000
# 4 0.000000 0.000000 0.000000 0.025307 0.000000 0.000000
# 5 0.000000 0.000000 0.000000 0.000000 0.070443 0.000000
# 6 0.000000 0.000000 0.000000 0.000000 0.000000 0.030665
#
#
# Mechanical properties :
#
#
# Convention : Reuss Voigt Hill
#
# Bulk Modulus (GPa) = 69.22982 76.55786 72.89384
# Shear Modulus (GPa) = 23.78067 27.94901 25.86484
#
# Velocity S-wave (km/s) = 3.59830 3.90093 3.75266
# Velocity P-wave (km/s) = 7.41329 7.87227 7.64623
#
# Compressibility (1/GPa) = 0.01444464
#
# Stress axis : x y z
#
# Youngs Moduli (GPa) = 58.28454 56.41507 84.37509
#
# Poissons Ratio (x) = 0.37295 0.14840
# Poissons Ratio (y) = 0.38531 0.65605
# Poissons Ratio (z) = 0.10251 0.43865
#
# Static dielectric constant tensor:
#      x y z
#    x 3.237860 0.000000 0.000000 
#    y 0.000000 3.512060 0.000000 
#    z 0.000000 0.000000 3.607540 
# 
# 
# High freq. dielectric constant tensor:
#      x y z
#    x 1.699960 0.000000 0.000000 
#    y 0.000000 1.724170 0.000000 
#    z 0.000000 0.000000 1.719550 
# 
# From -- ./inp_files/19655.got.cif
#   From: 2010.03.12/outbox.cif.g09.slc.cpg/sg62_10_cif.got.tgz:19655.got - 2010.04.10 19:12:36.
