data_PCOD8251304
_publ_section_title
;
Structure prediction by ZEFSAII (Michael W. Deem and Ramdas Pophale) SiO2 
 PCOD8251304
Probable space group: P N M A
;
_chemical_formula_sum "Si O2"
_cell_formula_units_Z 64
_cell_length_a 12.776356
_cell_length_b 8.836493
_cell_length_c 28.900088
_cell_angle_alpha 90.000000
_cell_angle_beta 90.000000
_cell_angle_gamma 90.000000
_cell_volume 3262.767347
_symmetry_space_group_name_H-M "P N M A"
_symmetry_group_IT_number 62
_symmetry_cell_setting 'orthorhombic'
loop_
_space_group_symop_operation_xyz
x,y,z
1/2-x,-y,1/2+z
1/2+x,1/2-y,1/2-z
-x,1/2+y,-z
-x,-y,-z
1/2+x,y,1/2-z
1/2-x,1/2+y,1/2+z
x,1/2-y,z
loop_
_atom_site_type_symbol
_atom_site_label
_atom_site_fract_x
_atom_site_fract_y
_atom_site_fract_z
Si Si1 0.090560 0.076029 0.412784
Si Si2 0.378576 0.425392 0.300833
Si Si3 0.329441 0.429878 0.564096
Si Si4 0.797533 0.075714 0.038806
Si Si5 0.543630 0.429136 0.608476
Si Si6 0.447884 0.919567 0.210441
Si Si7 0.386558 0.928777 0.107385
Si Si8 0.172272 0.580286 0.323116
O O1 0.082215 0.250000 0.396630
O O2 0.171435 0.060191 0.455543
O O3 0.138042 0.972042 0.373254
O O4 0.974601 0.012465 0.424133
O O5 0.394439 0.250000 0.310814
O O6 0.445279 0.515959 0.338906
O O7 0.414359 0.463464 0.249316
O O8 0.256908 0.466096 0.303101
O O9 0.328408 0.250000 0.563714
O O10 0.326943 0.490599 0.511431
O O11 0.434078 0.493317 0.588347
O O12 0.227200 0.487746 0.591597
O O13 0.831524 0.250000 0.043597
O O14 0.858835 0.985054 0.078224
O O15 0.542352 0.250000 0.607749
O O16 0.406646 0.750000 0.221707
O O17 0.401611 0.973347 0.161139
O O18 0.573298 0.920441 0.210683
O O19 0.400379 0.750000 0.100158
O O20 0.219283 0.750000 0.326944
#
# Coordination Sequence:
#
# PCOD8251304 Si02
#       8
#     8   8   8   8   8   8   8   8
#     4  10  19  32  55  85 117 149 187 236 288 339
#     4  12  24  37  57  86 117 149 187 238 297 350
#     4   9  20  38  59  84 116 156 196 240 293 346
#     4  10  20  36  58  85 118 153 191 242 299 345
#     4  11  22  37  59  84 114 153 202 246 285 345
#     4   9  20  37  58  84 110 146 193 238 285 344
#     4   9  19  38  60  81 113 155 197 240 289 346
#     4  10  20  37  60  82 109 147 191 236 281 337
#
# _framework density 19.615252000000002
#
# number of rings (size 3 to 8) (size 9 to 14) (size 15 to 20)
#    0.000    2.000    1.250    3.375    0.000    4.500 
#    0.000    5.000    0.000    0.000    0.000    0.000 
#    0.000    0.000    0.000    0.000    0.000    0.000 
#
# Total GULP energy -793612.734240 kJ/mol
# GULP energy per Si atom -12400.198973 kJ/mol
# Density = 1.957061 g / cm^3
# Si number density = 19.615252 Si / 1000 Ang^3
#
#
#
# Elastic Constant Matrix: (Units=GPa)
#
#
# Indices 1 2 3 4 5 6 
#
# 1 113.5389 24.8632 30.3158 0.0000 0.0000 0.0000
# 2 24.8632 62.9161 18.3674 0.0000 0.0000 0.0000
# 3 30.3158 18.3674 65.2453 0.0000 0.0000 0.0000
# 4 0.0000 0.0000 0.0000 17.9409 0.0000 0.0000
# 5 0.0000 0.0000 0.0000 0.0000 21.6326 0.0000
# 6 0.0000 0.0000 0.0000 0.0000 0.0000 26.3425
#
#
#
# Elastic Compliance Matrix: (Units=1/GPa)
#
#
# Indices 1 2 3 4 5 6 
#
# 1 0.010545 -0.002982 -0.004060 0.000000 0.000000 0.000000
# 2 -0.002982 0.018161 -0.003727 0.000000 0.000000 0.000000
# 3 -0.004060 -0.003727 0.018262 0.000000 0.000000 0.000000
# 4 0.000000 0.000000 0.000000 0.055739 0.000000 0.000000
# 5 0.000000 0.000000 0.000000 0.000000 0.046227 0.000000
# 6 0.000000 0.000000 0.000000 0.000000 0.000000 0.037962
#
#
# Mechanical properties :
#
#
# Convention : Reuss Voigt Hill
#
# Bulk Modulus (GPa) = 39.32364 43.19923 41.26143
# Shear Modulus (GPa) = 23.05118 24.39343 23.72231
#
# Velocity S-wave (km/s) = 3.43179 3.53029 3.48139
# Velocity P-wave (km/s) = 5.98280 6.22000 6.10255
#
# Compressibility (1/GPa) = 0.02543000
#
# Stress axis : x y z
#
# Youngs Moduli (GPa) = 94.83541 55.06440 54.75717
#
# Poissons Ratio (x) = 0.16419 0.22232
# Poissons Ratio (y) = 0.28278 0.20408
# Poissons Ratio (z) = 0.38504 0.20522
#
# Static dielectric constant tensor:
#      x y z
#    x 4.122740 0.000000 0.000000 
#    y 0.000000 3.451970 0.000000 
#    z 0.000000 0.000000 3.484370 
# 
# 
# High freq. dielectric constant tensor:
#      x y z
#    x 1.773050 0.000000 0.000000 
#    y 0.000000 1.752340 0.000000 
#    z 0.000000 0.000000 1.756080 
# 
# From -- ./inp_files/32433.got.cif
#   From: 2010.03.12/outbox.cif.g09.slc.cpg/sg62_17_cif.got.tgz:32433.got - 2010.04.10 19:12:36.
