data_PCOD8251712
_publ_section_title
;
Structure prediction by ZEFSAII (Michael W. Deem and Ramdas Pophale) SiO2 
 PCOD8251712
Probable space group: P N M A
;
_chemical_formula_sum "Si O2"
_cell_formula_units_Z 64
_cell_length_a 14.179405
_cell_length_b 12.627166
_cell_length_c 17.329720
_cell_angle_alpha 90.000000
_cell_angle_beta 90.000000
_cell_angle_gamma 90.000000
_cell_volume 3102.811861
_symmetry_space_group_name_H-M "P N M A"
_symmetry_group_IT_number 62
_symmetry_cell_setting 'orthorhombic'
loop_
_space_group_symop_operation_xyz
x,y,z
1/2-x,-y,1/2+z
1/2+x,1/2-y,1/2-z
-x,1/2+y,-z
-x,-y,-z
1/2+x,y,1/2-z
1/2-x,1/2+y,1/2+z
x,1/2-y,z
loop_
_atom_site_type_symbol
_atom_site_label
_atom_site_fract_x
_atom_site_fract_y
_atom_site_fract_z
Si Si1 0.864558 0.541007 0.023615
Si Si2 0.221389 0.072270 0.561042
Si Si3 0.268374 0.472839 0.849913
Si Si4 0.095266 0.367921 0.431465
Si Si5 0.465220 0.539513 0.620470
Si Si6 0.164558 0.868685 0.199382
Si Si7 0.383306 0.367940 0.281007
Si Si8 0.386320 0.129829 0.102708
O O1 0.783717 0.592011 0.079711
O O2 0.958030 0.526223 0.072801
O O3 0.815743 0.430276 0.993398
O O4 0.895691 0.598023 0.942340
O O5 0.192858 0.948819 0.571208
O O6 0.138825 0.135329 0.517836
O O7 0.244355 0.126444 0.642777
O O8 0.355924 0.542258 0.879697
O O9 0.303229 0.389643 0.786921
O O10 0.192172 0.551517 0.813795
O O11 0.107208 0.250000 0.394671
O O12 0.984884 0.394042 0.440080
O O13 0.410897 0.455994 0.674328
O O14 0.516111 0.624071 0.675008
O O15 0.121802 0.750000 0.196189
O O16 0.343508 0.250000 0.292740
O O17 0.403493 0.392640 0.192548
O O18 0.351967 0.250000 0.087757
#
# Coordination Sequence:
#
# PCOD8251712 Si02
#       8
#     8   8   8   8   8   8   8   8
#     4   8  18  35  58  81 113 151 186 238 301 335
#     4  10  19  37  58  82 114 150 191 247 287 352
#     4  10  19  36  57  83 118 148 191 245 289 346
#     4  10  20  34  57  84 110 148 193 239 294 346
#     4   9  18  37  57  84 117 147 192 246 290 345
#     4  11  22  37  58  81 113 158 199 238 295 359
#     4  10  19  34  58  85 114 147 187 233 294 353
#     4  10  20  34  53  82 115 149 188 237 299 351
#
# _framework density 20.626450999999999
#
# number of rings (size 3 to 8) (size 9 to 14) (size 15 to 20)
#    0.000    2.250    1.250    1.875    0.000    0.000 
#    0.000   21.875    0.000    3.750    0.000    0.000 
#    0.000    0.000    0.000    0.000    0.000    0.000 
#
# Total GULP energy -792875.664933 kJ/mol
# GULP energy per Si atom -12388.682265 kJ/mol
# Density = 2.057950 g / cm^3
# Si number density = 20.626451 Si / 1000 Ang^3
#
#
#
# Elastic Constant Matrix: (Units=GPa)
#
#
# Indices 1 2 3 4 5 6 
#
# 1 64.5952 21.4844 13.3577 0.0000 0.0000 0.0000
# 2 21.4844 60.4589 17.4558 0.0000 0.0000 0.0000
# 3 13.3577 17.4558 84.7438 0.0000 0.0000 0.0000
# 4 0.0000 0.0000 0.0000 14.5136 0.0000 0.0000
# 5 0.0000 0.0000 0.0000 0.0000 38.9395 0.0000
# 6 0.0000 0.0000 0.0000 0.0000 0.0000 19.5480
#
#
#
# Elastic Compliance Matrix: (Units=1/GPa)
#
#
# Indices 1 2 3 4 5 6 
#
# 1 0.017756 -0.005850 -0.001594 0.000000 0.000000 0.000000
# 2 -0.005850 0.019513 -0.003097 0.000000 0.000000 0.000000
# 3 -0.001594 -0.003097 0.012690 0.000000 0.000000 0.000000
# 4 0.000000 0.000000 0.000000 0.068901 0.000000 0.000000
# 5 0.000000 0.000000 0.000000 0.000000 0.025681 0.000000
# 6 0.000000 0.000000 0.000000 0.000000 0.000000 0.051156
#
#
# Mechanical properties :
#
#
# Convention : Reuss Voigt Hill
#
# Bulk Modulus (GPa) = 34.62939 34.93263 34.78101
# Shear Modulus (GPa) = 22.08441 25.10023 23.59232
#
# Velocity S-wave (km/s) = 3.27568 3.49219 3.38566
# Velocity P-wave (km/s) = 5.57961 5.76482 5.67297
#
# Compressibility (1/GPa) = 0.02887721
#
# Stress axis : x y z
#
# Youngs Moduli (GPa) = 56.31832 51.24757 78.80525
#
# Poissons Ratio (x) = 0.29978 0.12561
# Poissons Ratio (y) = 0.32944 0.24409
# Poissons Ratio (z) = 0.08977 0.15873
#
# Static dielectric constant tensor:
#      x y z
#    x 3.841050 0.000000 0.000000 
#    y 0.000000 3.324290 0.000000 
#    z 0.000000 0.000000 4.112730 
# 
# 
# High freq. dielectric constant tensor:
#      x y z
#    x 1.812120 0.000000 0.000000 
#    y 0.000000 1.762650 0.000000 
#    z 0.000000 0.000000 1.824370 
# 
# From -- ./inp_files/24016.got.cif
#   From: 2010.03.12/outbox.cif.g09.slc.cpg/sg62_13_cif.got.tgz:24016.got - 2010.04.10 19:12:36.
