data_PCOD8251830
_publ_section_title
;
Structure prediction by ZEFSAII (Michael W. Deem and Ramdas Pophale) SiO2 
 PCOD8251830
Probable space group: P N M A
;
_chemical_formula_sum "Si O2"
_cell_formula_units_Z 64
_cell_length_a 12.719561
_cell_length_b 9.177347
_cell_length_c 28.311853
_cell_angle_alpha 90.000000
_cell_angle_beta 90.000000
_cell_angle_gamma 90.000000
_cell_volume 3304.894269
_symmetry_space_group_name_H-M "P N M A"
_symmetry_group_IT_number 62
_symmetry_cell_setting 'orthorhombic'
loop_
_space_group_symop_operation_xyz
x,y,z
1/2-x,-y,1/2+z
1/2+x,1/2-y,1/2-z
-x,1/2+y,-z
-x,-y,-z
1/2+x,y,1/2-z
1/2-x,1/2+y,1/2+z
x,1/2-y,z
loop_
_atom_site_type_symbol
_atom_site_label
_atom_site_fract_x
_atom_site_fract_y
_atom_site_fract_z
Si Si1 0.038422 0.916333 0.293809
Si Si2 0.365256 0.419043 0.694580
Si Si3 0.037847 0.419079 0.112739
Si Si4 0.704535 0.421640 0.466371
Si Si5 0.653981 0.912134 0.818720
Si Si6 0.423716 0.088049 0.075158
Si Si7 0.180330 0.578842 0.937632
Si Si8 0.119511 0.579932 0.396951
O O1 0.998765 0.750000 0.294955
O O2 0.112759 0.947279 0.249586
O O3 0.101345 0.952301 0.341681
O O4 0.937553 0.018453 0.287095
O O5 0.361820 0.250000 0.682316
O O6 0.453425 0.491678 0.661389
O O7 0.254274 0.487748 0.683597
O O8 0.049584 0.250000 0.125164
O O9 0.925513 0.455421 0.090651
O O10 0.131456 0.466917 0.077553
O O11 0.693139 0.250000 0.476619
O O12 0.826489 0.464087 0.457281
O O13 0.664773 0.512730 0.510695
O O14 0.679134 0.750000 0.799805
O O15 0.617715 0.906233 0.872108
O O16 0.460894 0.250000 0.059872
O O17 0.521834 0.977846 0.071298
O O18 0.202063 0.750000 0.941549
O O19 0.275516 0.503500 0.910472
O O20 0.132821 0.750000 0.407998
#
# Coordination Sequence:
#
# PCOD8251830 Si02
#       8
#     8   8   8   8   8   8   8   8
#     4   9  21  39  57  83 115 150 194 241 289 344
#     4  11  22  36  59  88 118 152 192 240 291 349
#     4  10  22  41  60  84 119 154 196 246 290 344
#     4  10  20  38  62  86 116 152 192 243 297 349
#     4  10  19  35  58  83 113 148 187 238 292 342
#     4   9  18  35  60  85 112 146 187 240 289 337
#     4  11  24  39  58  85 120 156 195 242 291 351
#     4  10  21  39  60  81 114 156 195 239 292 350
#
# _framework density 19.365219
#
# number of rings (size 3 to 8) (size 9 to 14) (size 15 to 20)
#    0.000    2.000    1.250    1.875    0.000    5.500 
#    0.000    3.750    0.000    0.000    0.000    0.000 
#    0.000    0.000    0.000    0.000    0.000    0.000 
#
# Total GULP energy -793739.739189 kJ/mol
# GULP energy per Si atom -12402.183425 kJ/mol
# Density = 1.932114 g / cm^3
# Si number density = 19.365219 Si / 1000 Ang^3
#
#
#
# Elastic Constant Matrix: (Units=GPa)
#
#
# Indices 1 2 3 4 5 6 
#
# 1 105.6404 50.7644 19.6940 0.0000 0.0000 0.0000
# 2 50.7644 88.0202 30.2072 0.0000 0.0000 0.0000
# 3 19.6940 30.2072 34.6700 0.0000 0.0000 0.0000
# 4 0.0000 0.0000 0.0000 23.4776 0.0000 0.0000
# 5 0.0000 0.0000 0.0000 0.0000 3.5268 0.0000
# 6 0.0000 0.0000 0.0000 0.0000 0.0000 31.9851
#
#
#
# Elastic Compliance Matrix: (Units=1/GPa)
#
#
# Indices 1 2 3 4 5 6 
#
# 1 0.013132 -0.007152 -0.001228 0.000000 0.000000 0.000000
# 2 -0.007152 0.020103 -0.013452 0.000000 0.000000 0.000000
# 3 -0.001228 -0.013452 0.041261 0.000000 0.000000 0.000000
# 4 0.000000 0.000000 0.000000 0.042594 0.000000 0.000000
# 5 0.000000 0.000000 0.000000 0.000000 0.283543 0.000000
# 6 0.000000 0.000000 0.000000 0.000000 0.000000 0.031265
#
#
# Mechanical properties :
#
#
# Convention : Reuss Voigt Hill
#
# Bulk Modulus (GPa) = 32.43447 47.74019 40.08733
# Shear Modulus (GPa) = 10.29148 20.30889 15.30018
#
# Velocity S-wave (km/s) = 2.30780 3.24192 2.81390
# Velocity P-wave (km/s) = 4.88738 6.22250 5.59491
#
# Compressibility (1/GPa) = 0.03083139
#
# Stress axis : x y z
#
# Youngs Moduli (GPa) = 76.15028 49.74489 24.23569
#
# Poissons Ratio (x) = 0.35579 0.02976
# Poissons Ratio (y) = 0.54465 0.32602
# Poissons Ratio (z) = 0.09350 0.66918
#
# Static dielectric constant tensor:
#      x y z
#    x 3.605920 0.000000 0.000000 
#    y 0.000000 3.759700 0.000000 
#    z 0.000000 0.000000 3.721130 
# 
# 
# High freq. dielectric constant tensor:
#      x y z
#    x 1.759330 0.000000 0.000000 
#    y 0.000000 1.759990 0.000000 
#    z 0.000000 0.000000 1.749850 
# 
# From -- ./inp_files/32550.got.cif
#   From: 2010.03.12/outbox.cif.g09.slc.cpg/sg62_17_cif.got.tgz:32550.got - 2010.04.10 19:12:36.
