data_PCOD8251527
_publ_section_title
;
Structure prediction by ZEFSAII (Michael W. Deem and Ramdas Pophale) SiO2 
 PCOD8251527
Probable space group: P N M A
;
_chemical_formula_sum "Si O2"
_cell_formula_units_Z 64
_cell_length_a 15.061979
_cell_length_b 12.358857
_cell_length_c 17.494749
_cell_angle_alpha 90.000000
_cell_angle_beta 90.000000
_cell_angle_gamma 90.000000
_cell_volume 3256.627313
_symmetry_space_group_name_H-M "P N M A"
_symmetry_group_IT_number 62
_symmetry_cell_setting 'orthorhombic'
loop_
_space_group_symop_operation_xyz
x,y,z
1/2-x,-y,1/2+z
1/2+x,1/2-y,1/2-z
-x,1/2+y,-z
-x,-y,-z
1/2+x,y,1/2-z
1/2-x,1/2+y,1/2+z
x,1/2-y,z
loop_
_atom_site_type_symbol
_atom_site_label
_atom_site_fract_x
_atom_site_fract_y
_atom_site_fract_z
Si Si1 0.722281 0.626493 0.602375
Si Si2 0.254859 0.515238 0.740371
Si Si3 0.102481 0.518785 0.013463
Si Si4 0.754237 0.624021 0.917300
Si Si5 0.594445 0.875160 0.328623
Si Si6 0.517667 0.871710 0.088611
Si Si7 0.368389 0.971170 0.990484
Si Si8 0.920914 0.873178 0.252787
O O1 0.695600 0.750000 0.616100
O O2 0.760424 0.577194 0.680028
O O3 0.637680 0.563929 0.567515
O O4 0.798178 0.616289 0.538597
O O5 0.258289 0.604343 0.673412
O O6 0.338948 0.436960 0.728588
O O7 0.163836 0.448708 0.743266
O O8 0.154818 0.409672 0.038496
O O9 0.117280 0.603414 0.082815
O O10 0.000000 0.500000 0.000000
O O11 0.736849 0.750000 0.933478
O O12 0.673063 0.550879 0.946394
O O13 0.608234 0.750000 0.309732
O O14 0.491377 0.908166 0.313016
O O15 0.551985 0.750000 0.076094
O O16 0.474736 0.886500 0.169981
O O17 0.447300 0.899856 0.023183
O O18 0.600102 0.953377 0.079982
O O19 0.888392 0.750000 0.240481
#
# Coordination Sequence:
#
# PCOD8251527 Si02
#       8
#     8   8   8   8   8   8   8   8
#     4  11  23  38  59  82 112 153 194 237 289 347
#     4  11  21  38  57  82 117 153 194 245 289 351
#     4  10  22  40  60  86 116 153 199 249 293 350
#     4  10  21  37  58  83 114 154 190 233 291 345
#     4  10  21  37  60  87 118 154 196 247 301 355
#     4  10  19  33  57  84 115 146 180 228 282 340
#     4  10  20  36  55  83 115 146 184 231 278 343
#     4  10  20  35  57  85 113 149 191 238 296 349
#
# _framework density 19.652232000000001
#
# number of rings (size 3 to 8) (size 9 to 14) (size 15 to 20)
#    0.000    1.750    1.250    3.375    0.000    1.000 
#    0.000    6.875    0.000    3.000    0.000    0.000 
#    0.000    0.000    0.000    0.000    0.000    0.000 
#
# Total GULP energy -793520.368699 kJ/mol
# GULP energy per Si atom -12398.755761 kJ/mol
# Density = 1.960750 g / cm^3
# Si number density = 19.652232 Si / 1000 Ang^3
#
#
#
# Elastic Constant Matrix: (Units=GPa)
#
#
# Indices 1 2 3 4 5 6 
#
# 1 75.7703 17.4900 8.4078 0.0000 0.0000 0.0000
# 2 17.4900 80.4922 31.2864 0.0000 0.0000 0.0000
# 3 8.4078 31.2864 81.9349 0.0000 0.0000 0.0000
# 4 0.0000 0.0000 0.0000 20.8581 0.0000 0.0000
# 5 0.0000 0.0000 0.0000 0.0000 21.3098 0.0000
# 6 0.0000 0.0000 0.0000 0.0000 0.0000 14.8702
#
#
#
# Elastic Compliance Matrix: (Units=1/GPa)
#
#
# Indices 1 2 3 4 5 6 
#
# 1 0.013902 -0.002896 -0.000321 0.000000 0.000000 0.000000
# 2 -0.002896 0.015192 -0.005504 0.000000 0.000000 0.000000
# 3 -0.000321 -0.005504 0.014339 0.000000 0.000000 0.000000
# 4 0.000000 0.000000 0.000000 0.047943 0.000000 0.000000
# 5 0.000000 0.000000 0.000000 0.000000 0.046927 0.000000
# 6 0.000000 0.000000 0.000000 0.000000 0.000000 0.067249
#
#
# Mechanical properties :
#
#
# Convention : Reuss Voigt Hill
#
# Bulk Modulus (GPa) = 38.47322 39.17398 38.82360
# Shear Modulus (GPa) = 21.58363 23.47516 22.52940
#
# Velocity S-wave (km/s) = 3.31762 3.45995 3.38953
# Velocity P-wave (km/s) = 5.85620 5.99487 5.92594
#
# Compressibility (1/GPa) = 0.02599210
#
# Stress axis : x y z
#
# Youngs Moduli (GPa) = 71.93276 65.82350 69.73823
#
# Poissons Ratio (x) = 0.19063 0.02237
# Poissons Ratio (y) = 0.20832 0.38383
# Poissons Ratio (z) = 0.02307 0.36228
#
# Static dielectric constant tensor:
#      x y z
#    x 3.693710 0.000000 0.000000 
#    y 0.000000 3.562560 0.000000 
#    z 0.000000 0.000000 3.721640 
# 
# 
# High freq. dielectric constant tensor:
#      x y z
#    x 1.770810 0.000000 0.000000 
#    y 0.000000 1.758960 0.000000 
#    z 0.000000 0.000000 1.773300 
# 
# From -- ./inp_files/24031.got.cif
#   From: 2010.03.12/outbox.cif.g09.slc.cpg/sg62_13_cif.got.tgz:24031.got - 2010.04.10 19:12:36.
