data_PCOD8251733
_publ_section_title
;
Structure prediction by ZEFSAII (Michael W. Deem and Ramdas Pophale) SiO2 
 PCOD8251733
Probable space group: P N M A
;
_chemical_formula_sum "Si O2"
_cell_formula_units_Z 48
_cell_length_a 25.973385
_cell_length_b 13.641124
_cell_length_c 7.118076
_cell_angle_alpha 90.000000
_cell_angle_beta 90.000000
_cell_angle_gamma 90.000000
_cell_volume 2521.978213
_symmetry_space_group_name_H-M "P N M A"
_symmetry_group_IT_number 62
_symmetry_cell_setting 'orthorhombic'
loop_
_space_group_symop_operation_xyz
x,y,z
1/2-x,-y,1/2+z
1/2+x,1/2-y,1/2-z
-x,1/2+y,-z
-x,-y,-z
1/2+x,y,1/2-z
1/2-x,1/2+y,1/2+z
x,1/2-y,z
loop_
_atom_site_type_symbol
_atom_site_label
_atom_site_fract_x
_atom_site_fract_y
_atom_site_fract_z
Si Si1 0.754892 0.638386 0.842114
Si Si2 0.940052 0.862369 0.988520
Si Si3 0.663399 0.140759 0.659704
Si Si4 0.926688 0.529021 0.612515
Si Si5 0.998430 0.861381 0.347242
Si Si6 0.691152 0.475934 0.015705
O O1 0.737348 0.750000 0.792742
O O2 0.768512 0.578535 0.652658
O O3 0.805399 0.640806 0.967346
O O4 0.710064 0.585398 0.963341
O O5 0.928989 0.750000 0.927609
O O6 0.891907 0.904347 0.107302
O O7 0.990128 0.868691 0.122196
O O8 0.948490 0.927289 0.805886
O O9 0.656583 0.250000 0.740375
O O10 0.691561 0.080085 0.819320
O O11 0.951211 0.421254 0.590194
O O12 0.865171 0.520580 0.609265
O O13 0.946654 0.598794 0.446735
O O14 0.007655 0.750000 0.410604
#
# Coordination Sequence:
#
# PCOD8251733 Si02
#       6
#     8   8   8   8   8   8
#     4  11  24  39  59  87 117 152 195 242 295 354
#     4  10  19  34  59  87 113 144 191 242 285 336
#     4  10  20  35  58  87 115 145 189 245 293 340
#     4  11  22  35  60  86 114 154 191 239 289 344
#     4  10  22  38  55  84 120 154 192 234 288 348
#     4  12  22  39  62  86 118 154 197 243 298 352
#
# _framework density 19.032679000000002
#
# number of rings (size 3 to 8) (size 9 to 14) (size 15 to 20)
#    0.000    1.333    5.000    1.500    0.000    2.000 
#    0.000    0.000    0.000    1.000    0.000    0.000 
#    0.000    0.000    0.000    0.000    0.000    0.000 
#
# Total GULP energy -595196.402275 kJ/mol
# GULP energy per Si atom -12399.925047 kJ/mol
# Density = 1.898936 g / cm^3
# Si number density = 19.032679 Si / 1000 Ang^3
#
#
#
# Elastic Constant Matrix: (Units=GPa)
#
#
# Indices 1 2 3 4 5 6 
#
# 1 52.9090 39.3789 15.6303 0.0000 0.0000 0.0000
# 2 39.3789 128.8939 42.5725 0.0000 0.0000 0.0000
# 3 15.6303 42.5725 80.3772 0.0000 0.0000 0.0000
# 4 0.0000 0.0000 0.0000 28.4560 0.0000 0.0000
# 5 0.0000 0.0000 0.0000 0.0000 20.2855 0.0000
# 6 0.0000 0.0000 0.0000 0.0000 0.0000 18.4782
#
#
#
# Elastic Compliance Matrix: (Units=1/GPa)
#
#
# Indices 1 2 3 4 5 6 
#
# 1 0.024525 -0.007172 -0.000970 0.000000 0.000000 0.000000
# 2 -0.007172 0.011501 -0.004697 0.000000 0.000000 0.000000
# 3 -0.000970 -0.004697 0.015118 0.000000 0.000000 0.000000
# 4 0.000000 0.000000 0.000000 0.035142 0.000000 0.000000
# 5 0.000000 0.000000 0.000000 0.000000 0.049296 0.000000
# 6 0.000000 0.000000 0.000000 0.000000 0.000000 0.054118
#
#
# Mechanical properties :
#
#
# Convention : Reuss Voigt Hill
#
# Bulk Modulus (GPa) = 39.26971 50.81595 45.04283
# Shear Modulus (GPa) = 22.33466 24.41715 23.37591
#
# Velocity S-wave (km/s) = 3.42934 3.58565 3.50837
# Velocity P-wave (km/s) = 6.02977 6.62570 6.33474
#
# Compressibility (1/GPa) = 0.02546492
#
# Stress axis : x y z
#
# Youngs Moduli (GPa) = 40.77432 86.94988 66.14749
#
# Poissons Ratio (x) = 0.62363 0.06419
# Poissons Ratio (y) = 0.29245 0.31068
# Poissons Ratio (z) = 0.03957 0.40839
#
# Static dielectric constant tensor:
#      x y z
#    x 3.253450 0.000000 0.000000 
#    y 0.000000 3.537690 0.000000 
#    z 0.000000 0.000000 3.473790 
# 
# 
# High freq. dielectric constant tensor:
#      x y z
#    x 1.723490 0.000000 0.000000 
#    y 0.000000 1.736600 0.000000 
#    z 0.000000 0.000000 1.749320 
# 
# From -- ./inp_files/3175.got.cif
#   From: 2010.03.12/outbox.cif.g09.slc.cpg/sg62_2_cif.got.tgz:3175.got - 2010.04.10 19:12:36.
