data_PCOD8251310
_publ_section_title
;
Structure prediction by ZEFSAII (Michael W. Deem and Ramdas Pophale) SiO2 
 PCOD8251310
Probable space group: P N M A
;
_chemical_formula_sum "Si O2"
_cell_formula_units_Z 64
_cell_length_a 29.218916
_cell_length_b 9.306365
_cell_length_c 12.596348
_cell_angle_alpha 90.000000
_cell_angle_beta 90.000000
_cell_angle_gamma 90.000000
_cell_volume 3425.222846
_symmetry_space_group_name_H-M "P N M A"
_symmetry_group_IT_number 62
_symmetry_cell_setting 'orthorhombic'
loop_
_space_group_symop_operation_xyz
x,y,z
1/2-x,-y,1/2+z
1/2+x,1/2-y,1/2-z
-x,1/2+y,-z
-x,-y,-z
1/2+x,y,1/2-z
1/2-x,1/2+y,1/2+z
x,1/2-y,z
loop_
_atom_site_type_symbol
_atom_site_label
_atom_site_fract_x
_atom_site_fract_y
_atom_site_fract_z
Si Si1 0.584804 0.581844 0.888439
Si Si2 0.293018 0.587559 0.941473
Si Si3 0.704710 0.412979 0.607325
Si Si4 0.619377 0.918184 0.116741
Si Si5 0.603894 0.081913 0.531969
Si Si6 0.567145 0.581917 0.330010
Si Si7 0.535345 0.418264 0.718598
Si Si8 0.168634 0.408523 0.669405
O O1 0.577830 0.750000 0.872663
O O2 0.543135 0.499860 0.830788
O O3 0.630715 0.531793 0.828849
O O4 0.589114 0.539686 0.012981
O O5 0.292918 0.750000 0.897381
O O6 0.243441 0.519742 0.930353
O O7 0.332490 0.501277 0.879748
O O8 0.300800 0.582930 0.066117
O O9 0.717297 0.250000 0.574850
O O10 0.656210 0.457439 0.556881
O O11 0.702799 0.430607 0.733636
O O12 0.630900 0.750000 0.113674
O O13 0.590919 0.963244 0.219786
O O14 0.596960 0.250000 0.512302
O O15 0.572419 0.032977 0.630892
O O16 0.590434 0.000524 0.425848
O O17 0.573045 0.750000 0.351011
O O18 0.514205 0.537186 0.324865
O O19 0.537610 0.250000 0.743122
O O20 0.144698 0.250000 0.679047
#
# Coordination Sequence:
#
# PCOD8251310 Si02
#       8
#     8   8   8   8   8   8   8   8
#     4  10  19  32  56  84 109 139 183 234 274 320
#     4  10  21  35  56  84 108 139 186 232 273 332
#     4  10  20  36  57  79 108 146 180 223 284 336
#     4   9  20  39  56  78 114 151 184 227 285 335
#     4  10  21  37  57  81 113 147 185 233 282 329
#     4  10  22  38  58  81 113 155 191 226 276 337
#     4  10  20  37  58  82 113 150 187 228 282 337
#     4   9  18  36  56  74 104 144 180 219 277 333
#
# _framework density 18.684916000000001
#
# number of rings (size 3 to 8) (size 9 to 14) (size 15 to 20)
#    0.000    2.250    1.250    1.125    0.000    5.000 
#    0.000    3.750    0.000    0.000    0.000    0.000 
#    0.000    0.000    0.000    0.000    0.000    0.000 
#
# Total GULP energy -793624.450513 kJ/mol
# GULP energy per Si atom -12400.382039 kJ/mol
# Density = 1.864239 g / cm^3
# Si number density = 18.684916 Si / 1000 Ang^3
#
#
#
# Elastic Constant Matrix: (Units=GPa)
#
#
# Indices 1 2 3 4 5 6 
#
# 1 100.1381 49.8696 55.8996 0.0000 0.0000 0.0000
# 2 49.8696 70.6168 50.5359 0.0000 0.0000 0.0000
# 3 55.8996 50.5359 104.3080 0.0000 0.0000 0.0000
# 4 0.0000 0.0000 0.0000 30.5470 0.0000 0.0000
# 5 0.0000 0.0000 0.0000 0.0000 20.6194 0.0000
# 6 0.0000 0.0000 0.0000 0.0000 0.0000 29.1083
#
#
#
# Elastic Compliance Matrix: (Units=1/GPa)
#
#
# Indices 1 2 3 4 5 6 
#
# 1 0.016971 -0.008382 -0.005033 0.000000 0.000000 0.000000
# 2 -0.008382 0.025817 -0.008016 0.000000 0.000000 0.000000
# 3 -0.005033 -0.008016 0.016168 0.000000 0.000000 0.000000
# 4 0.000000 0.000000 0.000000 0.032736 0.000000 0.000000
# 5 0.000000 0.000000 0.000000 0.000000 0.048498 0.000000
# 6 0.000000 0.000000 0.000000 0.000000 0.000000 0.034354
#
#
# Mechanical properties :
#
#
# Convention : Reuss Voigt Hill
#
# Bulk Modulus (GPa) = 62.14213 65.29702 63.71958
# Shear Modulus (GPa) = 22.44448 23.97214 23.20831
#
# Velocity S-wave (km/s) = 3.46961 3.58574 3.52815
# Velocity P-wave (km/s) = 7.02716 7.22258 7.12554
#
# Compressibility (1/GPa) = 0.01609214
#
# Stress axis : x y z
#
# Youngs Moduli (GPa) = 58.92559 38.73417 61.85042
#
# Poissons Ratio (x) = 0.32469 0.31132
# Poissons Ratio (y) = 0.49394 0.49578
# Poissons Ratio (z) = 0.29660 0.31048
#
# Static dielectric constant tensor:
#      x y z
#    x 3.354490 0.000000 0.000000 
#    y 0.000000 3.461150 0.000000 
#    z 0.000000 0.000000 3.550820 
# 
# 
# High freq. dielectric constant tensor:
#      x y z
#    x 1.722190 0.000000 0.000000 
#    y 0.000000 1.722720 0.000000 
#    z 0.000000 0.000000 1.730740 
# 
# From -- ./inp_files/15809.got.cif
#   From: 2010.03.12/outbox.cif.g09.slc.cpg/sg62_8_cif.got.tgz:15809.got - 2010.04.10 19:12:36.
