data_PCOD8251637
_publ_section_title
;
Structure prediction by ZEFSAII (Michael W. Deem and Ramdas Pophale) SiO2 
 PCOD8251637
Probable space group: P N M A
;
_chemical_formula_sum "Si O2"
_cell_formula_units_Z 56
_cell_length_a 19.611110
_cell_length_b 9.307353
_cell_length_c 16.443679
_cell_angle_alpha 90.000000
_cell_angle_beta 90.000000
_cell_angle_gamma 90.000000
_cell_volume 3001.424005
_symmetry_space_group_name_H-M "P N M A"
_symmetry_group_IT_number 62
_symmetry_cell_setting 'orthorhombic'
loop_
_space_group_symop_operation_xyz
x,y,z
1/2-x,-y,1/2+z
1/2+x,1/2-y,1/2-z
-x,1/2+y,-z
-x,-y,-z
1/2+x,y,1/2-z
1/2-x,1/2+y,1/2+z
x,1/2-y,z
loop_
_atom_site_type_symbol
_atom_site_label
_atom_site_fract_x
_atom_site_fract_y
_atom_site_fract_z
Si Si1 0.768050 0.087841 0.250004
Si Si2 0.509848 0.417059 0.737850
Si Si3 0.311420 0.416180 0.431997
Si Si4 0.130361 0.419135 0.648315
Si Si5 0.163092 0.419570 0.471086
Si Si6 0.945691 0.581277 0.054717
Si Si7 0.883124 0.582480 0.699901
O O1 0.778916 0.250000 0.279862
O O2 0.805320 0.064338 0.164487
O O3 0.688305 0.052312 0.243992
O O4 0.800353 0.984028 0.316518
O O5 0.496137 0.250000 0.752028
O O6 0.564431 0.476687 0.803544
O O7 0.537583 0.448522 0.648489
O O8 0.439587 0.499083 0.749763
O O9 0.326469 0.250000 0.454487
O O10 0.241435 0.473913 0.473003
O O11 0.371773 0.515855 0.465666
O O12 0.137119 0.250000 0.658413
O O13 0.124044 0.463851 0.553476
O O14 0.168442 0.250000 0.458505
O O15 0.121516 0.478534 0.392951
O O16 0.945916 0.750000 0.034081
O O17 0.000000 0.500000 0.000000
O O18 0.901688 0.750000 0.700567
#
# Coordination Sequence:
#
# PCOD8251637 Si02
#       7
#     8   8   8   8   8   8   8
#     4   9  18  33  54  78 105 138 181 228 272 323
#     4  10  22  37  53  79 112 144 181 225 272 324
#     4   9  17  34  57  78 103 137 177 221 272 324
#     4  10  19  34  56  80 109 144 183 223 272 326
#     4   8  17  34  56  81 108 142 180 223 273 324
#     4  11  23  38  55  79 110 144 183 225 274 326
#     4   9  19  36  56  79 110 147 184 222 270 327
#
# _framework density 18.657810999999999
#
# number of rings (size 3 to 8) (size 9 to 14) (size 15 to 20)
#    0.000    2.571    1.429    2.143    0.000    4.000 
#    0.000    7.857    0.000    0.000    0.000    0.000 
#    0.000    0.000    0.000    0.000    0.000    0.000 
#
# Total GULP energy -694357.993753 kJ/mol
# GULP energy per Si atom -12399.249888 kJ/mol
# Density = 1.861534 g / cm^3
# Si number density = 18.657811 Si / 1000 Ang^3
#
#
#
# Elastic Constant Matrix: (Units=GPa)
#
#
# Indices 1 2 3 4 5 6 
#
# 1 87.6901 35.9101 14.7438 0.0000 0.0000 0.0000
# 2 35.9101 50.7959 21.8332 0.0000 0.0000 0.0000
# 3 14.7438 21.8332 36.1816 0.0000 0.0000 0.0000
# 4 0.0000 0.0000 0.0000 24.7536 0.0000 0.0000
# 5 0.0000 0.0000 0.0000 0.0000 30.4946 0.0000
# 6 0.0000 0.0000 0.0000 0.0000 0.0000 33.9760
#
#
#
# Elastic Compliance Matrix: (Units=1/GPa)
#
#
# Indices 1 2 3 4 5 6 
#
# 1 0.016055 -0.011528 0.000414 0.000000 0.000000 0.000000
# 2 -0.011528 0.034858 -0.016337 0.000000 0.000000 0.000000
# 3 0.000414 -0.016337 0.037328 0.000000 0.000000 0.000000
# 4 0.000000 0.000000 0.000000 0.040398 0.000000 0.000000
# 5 0.000000 0.000000 0.000000 0.000000 0.032793 0.000000
# 6 0.000000 0.000000 0.000000 0.000000 0.000000 0.029433
#
#
# Mechanical properties :
#
#
# Convention : Reuss Voigt Hill
#
# Bulk Modulus (GPa) = 29.99468 35.51577 32.75522
# Shear Modulus (GPa) = 19.46433 24.65689 22.06061
#
# Velocity S-wave (km/s) = 3.23341 3.63923 3.44230
# Velocity P-wave (km/s) = 5.48188 6.06097 5.77868
#
# Compressibility (1/GPa) = 0.03333925
#
# Stress axis : x y z
#
# Youngs Moduli (GPa) = 62.28565 28.68744 26.78954
#
# Poissons Ratio (x) = 0.33071 -0.01109
# Poissons Ratio (y) = 0.71804 0.43766
# Poissons Ratio (z) = -0.02579 0.46867
#
# Static dielectric constant tensor:
#      x y z
#    x 3.395840 0.000000 0.000000 
#    y 0.000000 3.229930 0.000000 
#    z 0.000000 0.000000 3.471600 
# 
# 
# High freq. dielectric constant tensor:
#      x y z
#    x 1.727630 0.000000 0.000000 
#    y 0.000000 1.704710 0.000000 
#    z 0.000000 0.000000 1.722670 
# 
# From -- ./inp_files/24651.got.cif
#   From: 2010.03.12/outbox.cif.g09.slc.cpg/sg62_13_cif.got.tgz:24651.got - 2010.04.10 19:12:36.
