data_PCOD8251521
_publ_section_title
;
Structure prediction by ZEFSAII (Michael W. Deem and Ramdas Pophale) SiO2 
 PCOD8251521
Probable space group: P N M A
;
_chemical_formula_sum "Si O2"
_cell_formula_units_Z 64
_cell_length_a 24.453572
_cell_length_b 9.172086
_cell_length_c 14.883431
_cell_angle_alpha 90.000000
_cell_angle_beta 90.000000
_cell_angle_gamma 90.000000
_cell_volume 3338.208689
_symmetry_space_group_name_H-M "P N M A"
_symmetry_group_IT_number 62
_symmetry_cell_setting 'orthorhombic'
loop_
_space_group_symop_operation_xyz
x,y,z
1/2-x,-y,1/2+z
1/2+x,1/2-y,1/2-z
-x,1/2+y,-z
-x,-y,-z
1/2+x,y,1/2-z
1/2-x,1/2+y,1/2+z
x,1/2-y,z
loop_
_atom_site_type_symbol
_atom_site_label
_atom_site_fract_x
_atom_site_fract_y
_atom_site_fract_z
Si Si1 0.435801 0.917084 0.166778
Si Si2 0.230787 0.084664 0.279605
Si Si3 0.776825 0.081991 0.543311
Si Si4 0.601751 0.582346 0.004077
Si Si5 0.438528 0.418004 0.803108
Si Si6 0.130158 0.417840 0.157234
Si Si7 0.169643 0.919588 0.994280
Si Si8 0.353329 0.084490 0.288672
O O1 0.420867 0.750000 0.151269
O O2 0.496745 0.937535 0.202721
O O3 0.395792 0.978716 0.242163
O O4 0.430303 0.995151 0.071454
O O5 0.227598 0.250000 0.318777
O O6 0.191608 0.065075 0.194822
O O7 0.292907 0.053229 0.248972
O O8 0.212056 0.972183 0.355604
O O9 0.758214 0.250000 0.546172
O O10 0.833258 0.063820 0.488843
O O11 0.729971 0.988177 0.495684
O O12 0.583938 0.750000 0.995854
O O13 0.583789 0.522924 0.101589
O O14 0.420852 0.250000 0.789609
O O15 0.413729 0.515117 0.724460
O O16 0.114805 0.250000 0.141040
O O17 0.128067 0.502976 0.062922
O O18 0.173828 0.750000 0.017780
O O19 0.146457 0.946524 0.894949
O O20 0.370993 0.250000 0.267995
#
# Coordination Sequence:
#
# PCOD8251521 Si02
#       8
#     8   8   8   8   8   8   8   8
#     4  11  24  38  59  87 115 151 200 249 290 345
#     4   9  19  35  55  82 116 151 185 232 289 343
#     4  10  19  33  56  85 116 153 191 231 281 343
#     4  10  21  37  58  83 117 158 193 231 289 350
#     4  10  22  42  60  83 119 156 196 243 295 345
#     4  11  22  36  60  91 118 151 197 243 290 352
#     4  10  22  39  59  84 119 158 191 239 296 347
#     4   9  20  40  60  80 115 156 193 236 294 349
#
# _framework density 19.171958
#
# number of rings (size 3 to 8) (size 9 to 14) (size 15 to 20)
#    0.000    2.000    1.250    2.625    1.750    5.500 
#    0.000    0.625    0.000    0.000    0.000    0.000 
#    0.000    0.000    0.000    0.000    0.000    0.000 
#
# Total GULP energy -793832.768568 kJ/mol
# GULP energy per Si atom -12403.637009 kJ/mol
# Density = 1.912832 g / cm^3
# Si number density = 19.171958 Si / 1000 Ang^3
#
#
#
# Elastic Constant Matrix: (Units=GPa)
#
#
# Indices 1 2 3 4 5 6 
#
# 1 77.8635 42.0461 29.0125 0.0000 0.0000 0.0000
# 2 42.0461 99.3017 30.5969 0.0000 0.0000 0.0000
# 3 29.0125 30.5969 51.4561 0.0000 0.0000 0.0000
# 4 0.0000 0.0000 0.0000 33.3856 0.0000 0.0000
# 5 0.0000 0.0000 0.0000 0.0000 27.6680 0.0000
# 6 0.0000 0.0000 0.0000 0.0000 0.0000 30.7338
#
#
#
# Elastic Compliance Matrix: (Units=1/GPa)
#
#
# Indices 1 2 3 4 5 6 
#
# 1 0.018544 -0.005669 -0.007085 0.000000 0.000000 0.000000
# 2 -0.005669 0.014062 -0.005165 0.000000 0.000000 0.000000
# 3 -0.007085 -0.005165 0.026500 0.000000 0.000000 0.000000
# 4 0.000000 0.000000 0.000000 0.029953 0.000000 0.000000
# 5 0.000000 0.000000 0.000000 0.000000 0.036143 0.000000
# 6 0.000000 0.000000 0.000000 0.000000 0.000000 0.032537
#
#
# Mechanical properties :
#
#
# Convention : Reuss Voigt Hill
#
# Bulk Modulus (GPa) = 42.97724 47.99248 45.48486
# Shear Modulus (GPa) = 24.83436 26.82188 25.82812
#
# Velocity S-wave (km/s) = 3.60300 3.74440 3.67438
# Velocity P-wave (km/s) = 6.30668 6.61672 6.46356
#
# Compressibility (1/GPa) = 0.02326813
#
# Stress axis : x y z
#
# Youngs Moduli (GPa) = 53.92572 71.11259 37.73563
#
# Poissons Ratio (x) = 0.40313 0.26735
# Poissons Ratio (y) = 0.30570 0.19492
# Poissons Ratio (z) = 0.38205 0.36733
#
# Static dielectric constant tensor:
#      x y z
#    x 3.400660 0.000000 0.000000 
#    y 0.000000 3.576850 0.000000 
#    z 0.000000 0.000000 3.384000 
# 
# 
# High freq. dielectric constant tensor:
#      x y z
#    x 1.738570 0.000000 0.000000 
#    y 0.000000 1.751950 0.000000 
#    z 0.000000 0.000000 1.741700 
# 
# From -- ./inp_files/20765.got.cif
#   From: 2010.03.12/outbox.cif.g09.slc.cpg/sg62_11_cif.got.tgz:20765.got - 2010.04.10 19:12:36.
