data_PCOD8251468
_publ_section_title
;
Structure prediction by ZEFSAII (Michael W. Deem and Ramdas Pophale) SiO2 
 PCOD8251468
Probable space group: P N M A
;
_chemical_formula_sum "Si O2"
_cell_formula_units_Z 48
_cell_length_a 27.618735
_cell_length_b 9.126459
_cell_length_c 9.770272
_cell_angle_alpha 90.000000
_cell_angle_beta 90.000000
_cell_angle_gamma 90.000000
_cell_volume 2462.706999
_symmetry_space_group_name_H-M "P N M A"
_symmetry_group_IT_number 62
_symmetry_cell_setting 'orthorhombic'
loop_
_space_group_symop_operation_xyz
x,y,z
1/2-x,-y,1/2+z
1/2+x,1/2-y,1/2-z
-x,1/2+y,-z
-x,-y,-z
1/2+x,y,1/2-z
1/2-x,1/2+y,1/2+z
x,1/2-y,z
loop_
_atom_site_type_symbol
_atom_site_label
_atom_site_fract_x
_atom_site_fract_y
_atom_site_fract_z
Si Si1 0.790788 0.077028 0.841166
Si Si2 0.888883 0.414964 0.209047
Si Si3 0.294757 0.922488 0.367039
Si Si4 0.545608 0.913363 0.452172
Si Si5 0.450063 0.077917 0.037025
Si Si6 0.390330 0.423381 0.782971
O O1 0.794320 0.250000 0.869600
O O2 0.747071 0.037781 0.740390
O O3 0.838160 0.014536 0.761750
O O4 0.784487 0.999437 0.987711
O O5 0.872280 0.250000 0.250302
O O6 0.843345 0.522154 0.206856
O O7 0.911116 0.414920 0.059559
O O8 0.930265 0.470302 0.314531
O O9 0.298341 0.750000 0.393586
O O10 0.527201 0.750000 0.423548
O O11 0.567615 0.986396 0.315905
O O12 0.500000 0.000000 0.500000
O O13 0.460597 0.250000 0.028687
O O14 0.406288 0.031273 0.935139
O O15 0.500000 0.000000 0.000000
O O16 0.388181 0.250000 0.764976
#
# Coordination Sequence:
#
# PCOD8251468 Si02
#       6
#     8   8   8   8   8   8
#     4  10  22  42  63  86 120 155 194 243 296 358
#     4  10  21  38  59  82 118 160 193 233 295 360
#     4  11  24  39  63  94 118 151 198 248 298 348
#     4  10  19  33  55  80 108 148 190 233 287 340
#     4  10  21  36  58  85 115 156 198 238 291 348
#     4   9  18  36  58  79 109 153 192 226 282 352
#
# _framework density 19.490746999999999
#
# number of rings (size 3 to 8) (size 9 to 14) (size 15 to 20)
#    0.000    2.000    1.667    1.500    2.333    2.667 
#    0.000    0.833    0.000    0.000    0.000    0.000 
#    0.000    0.000    0.000    0.000    0.000    0.000 
#
# Total GULP energy -595091.322210 kJ/mol
# GULP energy per Si atom -12397.735879 kJ/mol
# Density = 1.944639 g / cm^3
# Si number density = 19.490747 Si / 1000 Ang^3
#
#
#
# Elastic Constant Matrix: (Units=GPa)
#
#
# Indices 1 2 3 4 5 6 
#
# 1 109.7762 43.6778 23.2632 0.0000 0.0000 0.0000
# 2 43.6778 59.3831 29.4161 0.0000 0.0000 0.0000
# 3 23.2632 29.4161 90.3920 0.0000 0.0000 0.0000
# 4 0.0000 0.0000 0.0000 26.5263 0.0000 0.0000
# 5 0.0000 0.0000 0.0000 0.0000 35.4483 0.0000
# 6 0.0000 0.0000 0.0000 0.0000 0.0000 33.7592
#
#
#
# Elastic Compliance Matrix: (Units=1/GPa)
#
#
# Indices 1 2 3 4 5 6 
#
# 1 0.012884 -0.009340 -0.000276 0.000000 0.000000 0.000000
# 2 -0.009340 0.026846 -0.006333 0.000000 0.000000 0.000000
# 3 -0.000276 -0.006333 0.013195 0.000000 0.000000 0.000000
# 4 0.000000 0.000000 0.000000 0.037698 0.000000 0.000000
# 5 0.000000 0.000000 0.000000 0.000000 0.028210 0.000000
# 6 0.000000 0.000000 0.000000 0.000000 0.000000 0.029622
#
#
# Mechanical properties :
#
#
# Convention : Reuss Voigt Hill
#
# Bulk Modulus (GPa) = 47.55689 50.25173 48.90431
# Shear Modulus (GPa) = 26.68619 30.02638 28.35628
#
# Velocity S-wave (km/s) = 3.70425 3.92924 3.81840
# Velocity P-wave (km/s) = 6.53819 6.81348 6.67725
#
# Compressibility (1/GPa) = 0.02102745
#
# Stress axis : x y z
#
# Youngs Moduli (GPa) = 77.61519 37.24888 75.78625
#
# Poissons Ratio (x) = 0.34789 0.02095
# Poissons Ratio (y) = 0.72490 0.47995
# Poissons Ratio (z) = 0.02146 0.23590
#
# Static dielectric constant tensor:
#      x y z
#    x 3.617780 0.000000 0.000000 
#    y 0.000000 3.383440 0.000000 
#    z 0.000000 0.000000 3.731420 
# 
# 
# High freq. dielectric constant tensor:
#      x y z
#    x 1.768390 0.000000 0.000000 
#    y 0.000000 1.731290 0.000000 
#    z 0.000000 0.000000 1.775600 
# 
# From -- ./inp_files/10170.got.cif
#   From: 2010.03.12/outbox.cif.g09.slc.cpg/sg62_6_cif.got.tgz:10170.got - 2010.04.10 19:12:36.
