data_PCOD8251067
_publ_section_title
;
Structure prediction by ZEFSAII (Michael W. Deem and Ramdas Pophale) SiO2 
 PCOD8251067
Probable space group: P N M A
;
_chemical_formula_sum "Si O2"
_cell_formula_units_Z 64
_cell_length_a 33.569134
_cell_length_b 9.030231
_cell_length_c 11.556487
_cell_angle_alpha 90.000000
_cell_angle_beta 90.000000
_cell_angle_gamma 90.000000
_cell_volume 3503.199198
_symmetry_space_group_name_H-M "P N M A"
_symmetry_group_IT_number 62
_symmetry_cell_setting 'orthorhombic'
loop_
_space_group_symop_operation_xyz
x,y,z
1/2-x,-y,1/2+z
1/2+x,1/2-y,1/2-z
-x,1/2+y,-z
-x,-y,-z
1/2+x,y,1/2-z
1/2-x,1/2+y,1/2+z
x,1/2-y,z
loop_
_atom_site_type_symbol
_atom_site_label
_atom_site_fract_x
_atom_site_fract_y
_atom_site_fract_z
Si Si1 0.464593 0.422143 0.648529
Si Si2 0.626992 0.424175 0.734426
Si Si3 0.553185 0.422976 0.586823
Si Si4 0.196314 0.076827 0.937531
Si Si5 0.167247 0.577807 0.164373
Si Si6 0.356081 0.574931 0.012304
Si Si7 0.786428 0.420216 0.607100
Si Si8 0.902652 0.575087 0.712921
O O1 0.454252 0.250000 0.652453
O O2 0.511790 0.450984 0.653434
O O3 0.445527 0.488929 0.532622
O O4 0.445537 0.502144 0.760664
O O5 0.621667 0.250000 0.743673
O O6 0.588377 0.487388 0.667577
O O7 0.667217 0.466469 0.667364
O O8 0.629387 0.490000 0.864389
O O9 0.559101 0.250000 0.557730
O O10 0.192455 0.250000 0.969156
O O11 0.185529 0.977450 0.045876
O O12 0.240598 0.032550 0.899694
O O13 0.155989 0.750000 0.155994
O O14 0.199975 0.546983 0.262528
O O15 0.127611 0.485356 0.190599
O O16 0.351664 0.750000 0.016704
O O17 0.312437 0.512831 0.983702
O O18 0.388086 0.526313 0.914828
O O19 0.792484 0.250000 0.574046
O O20 0.905846 0.750000 0.724184
#
# Coordination Sequence:
#
# PCOD8251067 Si02
#       8
#     8   8   8   8   8   8   8   8
#     4  10  19  31  52  80 109 137 171 215 262 310
#     4   9  18  34  55  75  99 134 174 212 256 311
#     4   9  18  33  53  79 108 139 173 215 262 309
#     4  10  20  33  52  76 102 134 169 208 260 316
#     4  10  20  34  52  75 103 131 168 216 258 301
#     4   9  19  35  56  75  96 134 179 218 252 304
#     4   9  20  35  50  73 104 135 167 209 261 309
#     4  10  19  33  53  76 101 134 175 214 257 307
#
# _framework density 18.269015
#
# number of rings (size 3 to 8) (size 9 to 14) (size 15 to 20)
#    0.000    2.500    0.000    1.875    1.750    3.000 
#    0.000    1.875    0.000    0.000    0.000    0.000 
#    0.000    0.000    0.000    0.000    0.000    0.000 
#
# Total GULP energy -793684.601580 kJ/mol
# GULP energy per Si atom -12401.321900 kJ/mol
# Density = 1.822743 g / cm^3
# Si number density = 18.269015 Si / 1000 Ang^3
#
#
#
# Elastic Constant Matrix: (Units=GPa)
#
#
# Indices 1 2 3 4 5 6 
#
# 1 122.8993 34.7260 62.4712 0.0000 0.0000 0.0000
# 2 34.7260 51.6710 35.9790 0.0000 0.0000 0.0000
# 3 62.4712 35.9790 109.6962 0.0000 0.0000 0.0000
# 4 0.0000 0.0000 0.0000 21.9418 0.0000 0.0000
# 5 0.0000 0.0000 0.0000 0.0000 20.3764 0.0000
# 6 0.0000 0.0000 0.0000 0.0000 0.0000 28.7521
#
#
#
# Elastic Compliance Matrix: (Units=1/GPa)
#
#
# Indices 1 2 3 4 5 6 
#
# 1 0.012160 -0.004342 -0.005501 0.000000 0.000000 0.000000
# 2 -0.004342 0.026632 -0.006262 0.000000 0.000000 0.000000
# 3 -0.005501 -0.006262 0.014303 0.000000 0.000000 0.000000
# 4 0.000000 0.000000 0.000000 0.045575 0.000000 0.000000
# 5 0.000000 0.000000 0.000000 0.000000 0.049076 0.000000
# 6 0.000000 0.000000 0.000000 0.000000 0.000000 0.034780
#
#
# Mechanical properties :
#
#
# Convention : Reuss Voigt Hill
#
# Bulk Modulus (GPa) = 47.88275 61.17987 54.53131
# Shear Modulus (GPa) = 22.55337 24.28676 23.42007
#
# Velocity S-wave (km/s) = 3.51738 3.65004 3.58433
# Velocity P-wave (km/s) = 6.53932 7.16413 6.85884
#
# Compressibility (1/GPa) = 0.02088435
#
# Stress axis : x y z
#
# Youngs Moduli (GPa) = 82.23922 37.54945 69.91699
#
# Poissons Ratio (x) = 0.16303 0.38460
# Poissons Ratio (y) = 0.35706 0.43784
# Poissons Ratio (z) = 0.45238 0.23514
#
# Static dielectric constant tensor:
#      x y z
#    x 3.562560 0.000000 0.000000 
#    y 0.000000 3.247440 0.000000 
#    z 0.000000 0.000000 3.460920 
# 
# 
# High freq. dielectric constant tensor:
#      x y z
#    x 1.713700 0.000000 0.000000 
#    y 0.000000 1.696560 0.000000 
#    z 0.000000 0.000000 1.704000 
# 
# From -- ./inp_files/15798.got.cif
#   From: 2010.03.12/outbox.cif.g09.slc.cpg/sg62_8_cif.got.tgz:15798.got - 2010.04.10 19:12:36.
