data_PCOD8251206
_publ_section_title
;
Structure prediction by ZEFSAII (Michael W. Deem and Ramdas Pophale) SiO2 
 PCOD8251206
Probable space group: P N M A
;
_chemical_formula_sum "Si O2"
_cell_formula_units_Z 56
_cell_length_a 14.039055
_cell_length_b 9.125120
_cell_length_c 23.222862
_cell_angle_alpha 90.000000
_cell_angle_beta 90.000000
_cell_angle_gamma 90.000000
_cell_volume 2975.035835
_symmetry_space_group_name_H-M "P N M A"
_symmetry_group_IT_number 62
_symmetry_cell_setting 'orthorhombic'
loop_
_space_group_symop_operation_xyz
x,y,z
1/2-x,-y,1/2+z
1/2+x,1/2-y,1/2-z
-x,1/2+y,-z
-x,-y,-z
1/2+x,y,1/2-z
1/2-x,1/2+y,1/2+z
x,1/2-y,z
loop_
_atom_site_type_symbol
_atom_site_label
_atom_site_fract_x
_atom_site_fract_y
_atom_site_fract_z
Si Si1 0.101408 0.422430 0.000689
Si Si2 0.388238 0.419857 0.722218
Si Si3 0.389772 0.923789 0.839584
Si Si4 0.603163 0.583406 0.832691
Si Si5 0.608999 0.081843 0.719927
Si Si6 0.203555 0.082099 0.117715
Si Si7 0.722719 0.423408 0.608685
O O1 0.082962 0.250000 0.997507
O O2 0.160445 0.468244 0.057144
O O3 0.164403 0.475985 0.946985
O O4 0.000000 0.500000 0.000000
O O5 0.364058 0.250000 0.733369
O O6 0.356375 0.510536 0.778293
O O7 0.498407 0.445634 0.709006
O O8 0.333933 0.475509 0.666568
O O9 0.376743 0.750000 0.839256
O O10 0.499066 0.973271 0.852701
O O11 0.324640 0.994735 0.889538
O O12 0.591162 0.750000 0.812891
O O13 0.643868 0.499870 0.777036
O O14 0.680796 0.566656 0.883804
O O15 0.633351 0.250000 0.730211
O O16 0.663498 0.022920 0.664083
O O17 0.174756 0.250000 0.131518
O O18 0.739701 0.250000 0.607379
#
# Coordination Sequence:
#
# PCOD8251206 Si02
#       7
#     8   8   8   8   8   8   8
#     4  10  22  39  58  79 106 138 175 218 263 312
#     4  10  19  32  52  79 109 138 169 212 261 312
#     4  10  20  34  52  76 105 137 173 215 260 311
#     4   9  19  34  51  73 103 134 168 210 256 305
#     4   9  18  31  49  74 104 135 167 205 256 311
#     4  10  20  35  54  76 103 139 177 214 259 310
#     4  10  20  35  53  75 104 139 176 216 262 311
#
# _framework density 18.823302000000002
#
# number of rings (size 3 to 8) (size 9 to 14) (size 15 to 20)
#    0.000    2.286    0.000    2.571    0.000    6.857 
#    0.000    0.714    0.000    0.000    0.000    0.000 
#    0.000    0.000    0.000    0.000    0.000    0.000 
#
# Total GULP energy -694420.528733 kJ/mol
# GULP energy per Si atom -12400.366585 kJ/mol
# Density = 1.878046 g / cm^3
# Si number density = 18.823302 Si / 1000 Ang^3
#
#
#
# Elastic Constant Matrix: (Units=GPa)
#
#
# Indices 1 2 3 4 5 6 
#
# 1 119.9762 43.7773 87.7233 0.0000 0.0000 0.0000
# 2 43.7773 54.3401 36.9046 0.0000 0.0000 0.0000
# 3 87.7233 36.9046 106.8741 0.0000 0.0000 0.0000
# 4 0.0000 0.0000 0.0000 22.8970 0.0000 0.0000
# 5 0.0000 0.0000 0.0000 0.0000 34.6606 0.0000
# 6 0.0000 0.0000 0.0000 0.0000 0.0000 27.9801
#
#
#
# Elastic Compliance Matrix: (Units=1/GPa)
#
#
# Indices 1 2 3 4 5 6 
#
# 1 0.022936 -0.007436 -0.016258 0.000000 0.000000 0.000000
# 2 -0.007436 0.026451 -0.003030 0.000000 0.000000 0.000000
# 3 -0.016258 -0.003030 0.023748 0.000000 0.000000 0.000000
# 4 0.000000 0.000000 0.000000 0.043674 0.000000 0.000000
# 5 0.000000 0.000000 0.000000 0.000000 0.028851 0.000000
# 6 0.000000 0.000000 0.000000 0.000000 0.000000 0.035740
#
#
# Mechanical properties :
#
#
# Convention : Reuss Voigt Hill
#
# Bulk Modulus (GPa) = 50.79733 68.66674 59.73203
# Shear Modulus (GPa) = 20.71162 24.62658 22.66910
#
# Velocity S-wave (km/s) = 3.32070 3.62097 3.47408
# Velocity P-wave (km/s) = 6.46125 7.35124 6.92057
#
# Compressibility (1/GPa) = 0.01968607
#
# Stress axis : x y z
#
# Youngs Moduli (GPa) = 43.60011 37.80567 42.10860
#
# Poissons Ratio (x) = 0.28111 0.68461
# Poissons Ratio (y) = 0.32420 0.12761
# Poissons Ratio (z) = 0.70886 0.11457
#
# Static dielectric constant tensor:
#      x y z
#    x 3.708550 0.000000 0.000000 
#    y 0.000000 3.379190 0.000000 
#    z 0.000000 0.000000 3.424580 
# 
# 
# High freq. dielectric constant tensor:
#      x y z
#    x 1.749190 0.000000 0.000000 
#    y 0.000000 1.726540 0.000000 
#    z 0.000000 0.000000 1.709540 
# 
# From -- ./inp_files/27178.got.cif
#   From: 2010.03.12/outbox.cif.g09.slc.cpg/sg62_14_cif.got.tgz:27178.got - 2010.04.10 19:12:36.
