data_PCOD8251348
_publ_section_title
;
Structure prediction by ZEFSAII (Michael W. Deem and Ramdas Pophale) SiO2 
 PCOD8251348
Probable space group: P N M A
;
_chemical_formula_sum "Si O2"
_cell_formula_units_Z 56
_cell_length_a 19.796734
_cell_length_b 8.869876
_cell_length_c 16.875104
_cell_angle_alpha 90.000000
_cell_angle_beta 90.000000
_cell_angle_gamma 90.000000
_cell_volume 2963.176728
_symmetry_space_group_name_H-M "P N M A"
_symmetry_group_IT_number 62
_symmetry_cell_setting 'orthorhombic'
loop_
_space_group_symop_operation_xyz
x,y,z
1/2-x,-y,1/2+z
1/2+x,1/2-y,1/2-z
-x,1/2+y,-z
-x,-y,-z
1/2+x,y,1/2-z
1/2-x,1/2+y,1/2+z
x,1/2-y,z
loop_
_atom_site_type_symbol
_atom_site_label
_atom_site_fract_x
_atom_site_fract_y
_atom_site_fract_z
Si Si1 0.948077 0.428986 0.939049
Si Si2 0.883679 0.925973 0.318292
Si Si3 0.236718 0.576802 0.228765
Si Si4 0.337133 0.071225 0.026200
Si Si5 0.519130 0.570521 0.262291
Si Si6 0.189693 0.073277 0.076877
Si Si7 0.132301 0.925229 0.354932
O O1 0.951581 0.250000 0.944941
O O2 0.966634 0.488632 0.850837
O O3 0.873064 0.485268 0.961908
O O4 0.000000 0.500000 0.000000
O O5 0.891844 0.750000 0.334325
O O6 0.815889 0.963622 0.269034
O O7 0.945848 0.987293 0.266262
O O8 0.882624 0.004701 0.403721
O O9 0.225336 0.750000 0.201637
O O10 0.195985 0.470640 0.168928
O O11 0.205884 0.549068 0.315552
O O12 0.342174 0.250000 0.030357
O O13 0.258816 0.021847 0.033850
O O14 0.365609 0.004733 0.943198
O O15 0.523496 0.750000 0.263288
O O16 0.574085 0.502782 0.200436
O O17 0.176563 0.250000 0.068244
O O18 0.116551 0.750000 0.363969
#
# Coordination Sequence:
#
# PCOD8251348 Si02
#       7
#     8   8   8   8   8   8   8
#     4  11  22  37  57  81 108 141 179 221 271 322
#     4   9  18  32  52  77 105 135 174 220 264 312
#     4   9  16  30  53  74  95 134 178 217 260 313
#     4   9  19  33  52  78 107 140 178 221 266 315
#     4   9  18  33  54  78 103 136 179 221 260 314
#     4  10  19  33  52  76 105 136 173 219 267 314
#     4   9  16  30  53  76  99 137 185 219 256 316
#
# _framework density 18.898636
#
# number of rings (size 3 to 8) (size 9 to 14) (size 15 to 20)
#    0.000    2.571    1.429    0.857    0.000    2.286 
#    0.000    6.429    0.000    3.429    0.000    0.000 
#    0.000    0.000    0.000    0.000    0.000    0.000 
#
# Total GULP energy -694262.979499 kJ/mol
# GULP energy per Si atom -12397.553205 kJ/mol
# Density = 1.885562 g / cm^3
# Si number density = 18.898636 Si / 1000 Ang^3
#
#
#
# Elastic Constant Matrix: (Units=GPa)
#
#
# Indices 1 2 3 4 5 6 
#
# 1 117.0706 21.6456 57.4519 0.0000 0.0000 0.0000
# 2 21.6456 34.0939 20.0398 0.0000 0.0000 0.0000
# 3 57.4519 20.0398 111.4661 0.0000 0.0000 0.0000
# 4 0.0000 0.0000 0.0000 25.9906 0.0000 0.0000
# 5 0.0000 0.0000 0.0000 0.0000 29.7450 0.0000
# 6 0.0000 0.0000 0.0000 0.0000 0.0000 21.6763
#
#
#
# Elastic Compliance Matrix: (Units=1/GPa)
#
#
# Indices 1 2 3 4 5 6 
#
# 1 0.012011 -0.004458 -0.005389 0.000000 0.000000 0.000000
# 2 -0.004458 0.034451 -0.003896 0.000000 0.000000 0.000000
# 3 -0.005389 -0.003896 0.012449 0.000000 0.000000 0.000000
# 4 0.000000 0.000000 0.000000 0.038475 0.000000 0.000000
# 5 0.000000 0.000000 0.000000 0.000000 0.033619 0.000000
# 6 0.000000 0.000000 0.000000 0.000000 0.000000 0.046133
#
#
# Mechanical properties :
#
#
# Convention : Reuss Voigt Hill
#
# Bulk Modulus (GPa) = 31.82163 51.21170 41.51667
# Shear Modulus (GPa) = 23.24496 26.38192 24.81344
#
# Velocity S-wave (km/s) = 3.51091 3.74032 3.62743
# Velocity P-wave (km/s) = 5.77148 6.76833 6.28968
#
# Compressibility (1/GPa) = 0.03142516
#
# Stress axis : x y z
#
# Youngs Moduli (GPa) = 83.25850 29.02672 80.32456
#
# Poissons Ratio (x) = 0.12939 0.43288
# Poissons Ratio (y) = 0.37115 0.31295
# Poissons Ratio (z) = 0.44869 0.11309
#
# Static dielectric constant tensor:
#      x y z
#    x 3.722260 0.000000 0.000000 
#    y 0.000000 3.163350 0.000000 
#    z 0.000000 0.000000 3.556860 
# 
# 
# High freq. dielectric constant tensor:
#      x y z
#    x 1.743530 0.000000 0.000000 
#    y 0.000000 1.699500 0.000000 
#    z 0.000000 0.000000 1.729710 
# 
# From -- ./inp_files/24584.got.cif
#   From: 2010.03.12/outbox.cif.g09.slc.cpg/sg62_13_cif.got.tgz:24584.got - 2010.04.10 19:12:36.
