data_PCOD8251553
_publ_section_title
;
Structure prediction by ZEFSAII (Michael W. Deem and Ramdas Pophale) SiO2 
 PCOD8251553
Probable space group: P N M A
;
_chemical_formula_sum "Si O2"
_cell_formula_units_Z 64
_cell_length_a 9.242089
_cell_length_b 16.377721
_cell_length_c 25.455007
_cell_angle_alpha 90.000000
_cell_angle_beta 90.000000
_cell_angle_gamma 90.000000
_cell_volume 3852.980719
_symmetry_space_group_name_H-M "P N M A"
_symmetry_group_IT_number 62
_symmetry_cell_setting 'orthorhombic'
loop_
_space_group_symop_operation_xyz
x,y,z
1/2-x,-y,1/2+z
1/2+x,1/2-y,1/2-z
-x,1/2+y,-z
-x,-y,-z
1/2+x,y,1/2-z
1/2-x,1/2+y,1/2+z
x,1/2-y,z
loop_
_atom_site_type_symbol
_atom_site_label
_atom_site_fract_x
_atom_site_fract_y
_atom_site_fract_z
Si Si1 0.180863 0.930199 0.973160
Si Si2 0.838038 0.446430 0.451957
Si Si3 0.287719 0.655389 0.207173
Si Si4 0.616644 0.155964 0.490204
Si Si5 0.709974 0.077465 0.595815
Si Si6 0.043976 0.155269 0.811828
Si Si7 0.542064 0.080467 0.886442
Si Si8 0.067718 0.158789 0.507447
O O1 0.286831 0.851345 0.972201
O O2 0.022444 0.900747 0.987341
O O3 0.181715 0.982667 0.919495
O O4 0.240726 0.985855 0.019925
O O5 0.727473 0.370110 0.442776
O O6 0.910334 0.486830 0.400695
O O7 0.961417 0.414055 0.491057
O O8 0.312346 0.750000 0.193514
O O9 0.119098 0.631457 0.204415
O O10 0.345831 0.635240 0.264974
O O11 0.381197 0.601671 0.167579
O O12 0.574801 0.250000 0.484720
O O13 0.696114 0.137537 0.545574
O O14 0.590014 0.101719 0.638364
O O15 0.869520 0.086946 0.620290
O O16 0.053288 0.250000 0.827673
O O17 0.596835 0.144454 0.930688
O O18 0.006460 0.250000 0.497911
#
# Coordination Sequence:
#
# PCOD8251553 Si02
#       8
#     8   8   8   8   8   8   8   8
#     4  10  20  34  46  70 103 139 171 212 253 299
#     4  10  19  34  48  71 101 137 174 209 249 297
#     4  10  22  37  53  75 101 131 168 213 254 295
#     4  11  22  32  48  74 104 139 176 212 253 298
#     4  11  20  34  51  71 101 139 172 207 253 302
#     4  10  22  37  53  74 101 131 168 212 253 294
#     4  11  20  33  52  73 100 137 174 205 253 301
#     4  11  19  31  50  73 104 138 177 211 243 298
#
# _framework density 16.610516000000001
#
# number of rings (size 3 to 8) (size 9 to 14) (size 15 to 20)
#    0.000    1.500    3.750    4.500    5.250    2.500 
#    0.000    0.000    0.000    0.000    0.000    0.000 
#    0.000    6.000    0.000    0.000    0.000    0.000 
#
# Total GULP energy -793273.227032 kJ/mol
# GULP energy per Si atom -12394.894172 kJ/mol
# Density = 1.657271 g / cm^3
# Si number density = 16.610516 Si / 1000 Ang^3
#
#
#
# Elastic Constant Matrix: (Units=GPa)
#
#
# Indices 1 2 3 4 5 6 
#
# 1 107.6758 20.5291 26.5449 0.0000 0.0000 0.0000
# 2 20.5291 70.6753 27.7756 0.0000 0.0000 0.0000
# 3 26.5449 27.7756 50.8358 0.0000 0.0000 0.0000
# 4 0.0000 0.0000 0.0000 23.1458 0.0000 0.0000
# 5 0.0000 0.0000 0.0000 0.0000 30.3511 0.0000
# 6 0.0000 0.0000 0.0000 0.0000 0.0000 29.4011
#
#
#
# Elastic Compliance Matrix: (Units=1/GPa)
#
#
# Indices 1 2 3 4 5 6 
#
# 1 0.010734 -0.001165 -0.004968 0.000000 0.000000 0.000000
# 2 -0.001165 0.018145 -0.009305 0.000000 0.000000 0.000000
# 3 -0.004968 -0.009305 0.027350 0.000000 0.000000 0.000000
# 4 0.000000 0.000000 0.000000 0.043204 0.000000 0.000000
# 5 0.000000 0.000000 0.000000 0.000000 0.032948 0.000000
# 6 0.000000 0.000000 0.000000 0.000000 0.000000 0.034012
#
#
# Mechanical properties :
#
#
# Convention : Reuss Voigt Hill
#
# Bulk Modulus (GPa) = 39.44696 42.09846 40.77271
# Shear Modulus (GPa) = 24.30471 26.86876 25.58673
#
# Velocity S-wave (km/s) = 3.82935 4.02627 3.92904
# Velocity P-wave (km/s) = 6.58419 6.85667 6.72181
#
# Compressibility (1/GPa) = 0.02535050
#
# Stress axis : x y z
#
# Youngs Moduli (GPa) = 93.16068 55.11222 36.56339
#
# Poissons Ratio (x) = 0.06423 0.18166
# Poissons Ratio (y) = 0.10857 0.34024
# Poissons Ratio (z) = 0.46285 0.51284
#
# Static dielectric constant tensor:
#      x y z
#    x 3.437730 0.000000 0.000000 
#    y 0.000000 3.258400 0.000000 
#    z 0.000000 0.000000 2.827900 
# 
# 
# High freq. dielectric constant tensor:
#      x y z
#    x 1.668360 0.000000 0.000000 
#    y 0.000000 1.627610 0.000000 
#    z 0.000000 0.000000 1.594220 
# 
# From -- ./inp_files/29061.got.cif
#   From: 2010.03.12/outbox.cif.g09.slc.cpg/sg62_15_cif.got.tgz:29061.got - 2010.04.10 19:12:36.
