data_PCOD8251661
_publ_section_title
;
Structure prediction by ZEFSAII (Michael W. Deem and Ramdas Pophale) SiO2 
 PCOD8251661
Probable space group: P N M A
;
_chemical_formula_sum "Si O2"
_cell_formula_units_Z 56
_cell_length_a 23.144840
_cell_length_b 8.668708
_cell_length_c 13.841483
_cell_angle_alpha 90.000000
_cell_angle_beta 90.000000
_cell_angle_gamma 90.000000
_cell_volume 2777.097841
_symmetry_space_group_name_H-M "P N M A"
_symmetry_group_IT_number 62
_symmetry_cell_setting 'orthorhombic'
loop_
_space_group_symop_operation_xyz
x,y,z
1/2-x,-y,1/2+z
1/2+x,1/2-y,1/2-z
-x,1/2+y,-z
-x,-y,-z
1/2+x,y,1/2-z
1/2-x,1/2+y,1/2+z
x,1/2-y,z
loop_
_atom_site_type_symbol
_atom_site_label
_atom_site_fract_x
_atom_site_fract_y
_atom_site_fract_z
Si Si1 0.631654 0.418341 0.307141
Si Si2 0.521662 0.065749 0.400298
Si Si3 0.333215 0.930358 0.178886
Si Si4 0.238342 0.434898 0.301213
Si Si5 0.033986 0.070088 0.714198
Si Si6 0.326537 0.068729 0.978395
Si Si7 0.435051 0.579487 0.891997
O O1 0.647781 0.250000 0.347955
O O2 0.587811 0.499392 0.383265
O O3 0.691628 0.501873 0.278342
O O4 0.594452 0.401549 0.210709
O O5 0.522500 0.250000 0.402235
O O6 0.500000 0.000000 0.500000
O O7 0.479879 0.011990 0.315069
O O8 0.321859 0.750000 0.166268
O O9 0.400132 0.968182 0.191640
O O10 0.299962 0.993727 0.273511
O O11 0.308531 0.020409 0.086143
O O12 0.239486 0.250000 0.300463
O O13 0.219442 0.488990 0.407177
O O14 0.021752 0.250000 0.726393
O O15 0.996055 0.007406 0.623849
O O16 0.322150 0.250000 0.964152
O O17 0.392553 0.014672 0.961921
O O18 0.445812 0.750000 0.937229
#
# Coordination Sequence:
#
# PCOD8251661 Si02
#       7
#     8   8   8   8   8   8   8
#     4   7  14  30  53  78 104 140 181 229 282 334
#     4  10  19  34  56  83 116 152 193 239 295 356
#     4  11  24  41  59  85 122 160 200 249 301 354
#     4  10  20  39  63  85 113 152 198 249 300 354
#     4  10  21  37  57  83 117 155 194 242 299 353
#     4  11  22  38  62  89 116 154 200 243 295 358
#     4   9  17  33  58  85 115 148 185 233 287 345
#
# _framework density 20.164936000000001
#
# number of rings (size 3 to 8) (size 9 to 14) (size 15 to 20)
#    0.000    2.286    0.000    5.143    0.000    2.857 
#    2.571    2.143    0.000    0.000    0.000    0.000 
#    0.000    0.000    0.000    0.000    0.000    0.000 
#
# Total GULP energy -694077.187383 kJ/mol
# GULP energy per Si atom -12394.235489 kJ/mol
# Density = 2.011904 g / cm^3
# Si number density = 20.164936 Si / 1000 Ang^3
#
#
#
# Elastic Constant Matrix: (Units=GPa)
#
#
# Indices 1 2 3 4 5 6 
#
# 1 92.7890 42.7432 21.9229 0.0000 0.0000 0.0000
# 2 42.7432 97.7583 22.0917 0.0000 0.0000 0.0000
# 3 21.9229 22.0917 68.0933 0.0000 0.0000 0.0000
# 4 0.0000 0.0000 0.0000 31.1099 0.0000 0.0000
# 5 0.0000 0.0000 0.0000 0.0000 25.8253 0.0000
# 6 0.0000 0.0000 0.0000 0.0000 0.0000 31.3512
#
#
#
# Elastic Compliance Matrix: (Units=1/GPa)
#
#
# Indices 1 2 3 4 5 6 
#
# 1 0.013944 -0.005484 -0.002710 0.000000 0.000000 0.000000
# 2 -0.005484 0.013196 -0.002515 0.000000 0.000000 0.000000
# 3 -0.002710 -0.002515 0.016374 0.000000 0.000000 0.000000
# 4 0.000000 0.000000 0.000000 0.032144 0.000000 0.000000
# 5 0.000000 0.000000 0.000000 0.000000 0.038722 0.000000
# 6 0.000000 0.000000 0.000000 0.000000 0.000000 0.031897
#
#
# Mechanical properties :
#
#
# Convention : Reuss Voigt Hill
#
# Bulk Modulus (GPa) = 45.26032 48.01732 46.63882
# Shear Modulus (GPa) = 28.56159 29.11614 28.83886
#
# Velocity S-wave (km/s) = 3.76759 3.80399 3.78583
# Velocity P-wave (km/s) = 6.43585 6.56946 6.50299
#
# Compressibility (1/GPa) = 0.02209441
#
# Stress axis : x y z
#
# Youngs Moduli (GPa) = 71.71680 75.78251 61.07133
#
# Poissons Ratio (x) = 0.41561 0.16550
# Poissons Ratio (y) = 0.39331 0.15362
# Poissons Ratio (z) = 0.19435 0.19062
#
# Static dielectric constant tensor:
#      x y z
#    x 4.055590 0.000000 0.000000 
#    y 0.000000 3.635890 0.000000 
#    z 0.000000 0.000000 3.569330 
# 
# 
# High freq. dielectric constant tensor:
#      x y z
#    x 1.788700 0.000000 0.000000 
#    y 0.000000 1.784360 0.000000 
#    z 0.000000 0.000000 1.774400 
# 
# From -- ./inp_files/20434.got.cif
#   From: 2010.03.12/outbox.cif.g09.slc.cpg/sg62_11_cif.got.tgz:20434.got - 2010.04.10 19:12:36.
