data_PCOD8251683
_publ_section_title
;
Structure prediction by ZEFSAII (Michael W. Deem and Ramdas Pophale) SiO2 
 PCOD8251683
Probable space group: P N M A
;
_chemical_formula_sum "Si O2"
_cell_formula_units_Z 48
_cell_length_a 15.093320
_cell_length_b 8.740041
_cell_length_c 18.853475
_cell_angle_alpha 90.000000
_cell_angle_beta 90.000000
_cell_angle_gamma 90.000000
_cell_volume 2487.079450
_symmetry_space_group_name_H-M "P N M A"
_symmetry_group_IT_number 62
_symmetry_cell_setting 'orthorhombic'
loop_
_space_group_symop_operation_xyz
x,y,z
1/2-x,-y,1/2+z
1/2+x,1/2-y,1/2-z
-x,1/2+y,-z
-x,-y,-z
1/2+x,y,1/2-z
1/2-x,1/2+y,1/2+z
x,1/2-y,z
loop_
_atom_site_type_symbol
_atom_site_label
_atom_site_fract_x
_atom_site_fract_y
_atom_site_fract_z
Si Si1 0.744922 0.567966 0.417091
Si Si2 0.628815 0.430419 0.672503
Si Si3 0.092966 0.569475 0.977808
Si Si4 0.943357 0.568256 0.436899
Si Si5 0.486068 0.431760 0.786946
Si Si6 0.797461 0.068766 0.761263
O O1 0.744367 0.750000 0.414135
O O2 0.670030 0.505867 0.470517
O O3 0.841580 0.511614 0.442991
O O4 0.724807 0.500811 0.338817
O O5 0.622007 0.250000 0.657178
O O6 0.617657 0.523370 0.601080
O O7 0.553754 0.486095 0.726738
O O8 0.722802 0.477819 0.705231
O O9 0.085787 0.750000 0.984515
O O10 0.000000 0.500000 0.000000
O O11 0.948918 0.750000 0.439954
O O12 0.000000 0.500000 0.500000
O O13 0.983380 0.504861 0.363117
O O14 0.484669 0.250000 0.789892
O O15 0.389897 0.499307 0.767291
O O16 0.803608 0.250000 0.768038
#
# Coordination Sequence:
#
# PCOD8251683 Si02
#       6
#     8   8   8   8   8   8
#     4   9  18  35  56  79 111 147 181 220 274 331
#     4  10  19  34  57  83 108 137 181 233 276 323
#     4  11  23  38  57  81 112 148 185 229 278 333
#     4  10  20  35  54  79 110 146 184 224 270 326
#     4   9  17  31  54  81 106 138 182 226 267 321
#     4   9  16  29  53  80 103 134 180 223 261 316
#
# _framework density 19.299744
#
# number of rings (size 3 to 8) (size 9 to 14) (size 15 to 20)
#    0.000    2.333    1.667    1.500    2.333    2.667 
#    0.000    1.667    0.000    5.000    0.000    0.000 
#    0.000    0.000    0.000    0.000    0.000    0.000 
#
# Total GULP energy -595196.378896 kJ/mol
# GULP energy per Si atom -12399.924560 kJ/mol
# Density = 1.925582 g / cm^3
# Si number density = 19.299744 Si / 1000 Ang^3
#
#
#
# Elastic Constant Matrix: (Units=GPa)
#
#
# Indices 1 2 3 4 5 6 
#
# 1 209.7985 25.3661 97.0828 0.0000 0.0000 0.0000
# 2 25.3661 23.2095 25.2191 0.0000 0.0000 0.0000
# 3 97.0828 25.2191 168.3514 0.0000 0.0000 0.0000
# 4 0.0000 0.0000 0.0000 28.3924 0.0000 0.0000
# 5 0.0000 0.0000 0.0000 0.0000 42.3619 0.0000
# 6 0.0000 0.0000 0.0000 0.0000 0.0000 17.4624
#
#
#
# Elastic Compliance Matrix: (Units=1/GPa)
#
#
# Indices 1 2 3 4 5 6 
#
# 1 0.006767 -0.003769 -0.003337 0.000000 0.000000 0.000000
# 2 -0.003769 0.053562 -0.005850 0.000000 0.000000 0.000000
# 3 -0.003337 -0.005850 0.008741 0.000000 0.000000 0.000000
# 4 0.000000 0.000000 0.000000 0.035221 0.000000 0.000000
# 5 0.000000 0.000000 0.000000 0.000000 0.023606 0.000000
# 6 0.000000 0.000000 0.000000 0.000000 0.000000 0.057266
#
#
# Mechanical properties :
#
#
# Convention : Reuss Voigt Hill
#
# Bulk Modulus (GPa) = 23.17171 77.41058 50.29114
# Shear Modulus (GPa) = 22.17688 34.55611 28.36650
#
# Velocity S-wave (km/s) = 3.39348 4.23602 3.83794
# Velocity P-wave (km/s) = 5.23322 8.00761 6.76418
#
# Compressibility (1/GPa) = 0.04315608
#
# Stress axis : x y z
#
# Youngs Moduli (GPa) = 147.78580 18.67010 114.40433
#
# Poissons Ratio (x) = 0.07036 0.38182
# Poissons Ratio (y) = 0.55698 0.66928
# Poissons Ratio (z) = 0.49323 0.10922
#
# Static dielectric constant tensor:
#      x y z
#    x 3.898420 0.000000 0.000000 
#    y 0.000000 2.950790 0.000000 
#    z 0.000000 0.000000 3.718860 
# 
# 
# High freq. dielectric constant tensor:
#      x y z
#    x 1.773750 0.000000 0.000000 
#    y 0.000000 1.691690 0.000000 
#    z 0.000000 0.000000 1.766470 
# 
# From -- ./inp_files/23663.got.cif
#   From: 2010.03.12/outbox.cif.g09.slc.cpg/sg62_12_cif.got.tgz:23663.got - 2010.04.10 19:12:36.
