data_PCOD8251426
_publ_section_title
;
Structure prediction by ZEFSAII (Michael W. Deem and Ramdas Pophale) SiO2 
 PCOD8251426
Probable space group: P N M A
;
_chemical_formula_sum "Si O2"
_cell_formula_units_Z 56
_cell_length_a 14.486472
_cell_length_b 9.324944
_cell_length_c 21.511636
_cell_angle_alpha 90.000000
_cell_angle_beta 90.000000
_cell_angle_gamma 90.000000
_cell_volume 2905.910969
_symmetry_space_group_name_H-M "P N M A"
_symmetry_group_IT_number 62
_symmetry_cell_setting 'orthorhombic'
loop_
_space_group_symop_operation_xyz
x,y,z
1/2-x,-y,1/2+z
1/2+x,1/2-y,1/2-z
-x,1/2+y,-z
-x,-y,-z
1/2+x,y,1/2-z
1/2-x,1/2+y,1/2+z
x,1/2-y,z
loop_
_atom_site_type_symbol
_atom_site_label
_atom_site_fract_x
_atom_site_fract_y
_atom_site_fract_z
Si Si1 0.668374 0.416947 0.777673
Si Si2 0.006226 0.584302 0.064339
Si Si3 0.322363 0.581890 0.363003
Si Si4 0.350729 0.414079 0.033514
Si Si5 0.474914 0.409875 0.152027
Si Si6 0.793156 0.082980 0.891392
Si Si7 0.846782 0.581713 0.585133
O O1 0.649745 0.250000 0.777849
O O2 0.687718 0.470030 0.708141
O O3 0.571653 0.483704 0.799598
O O4 0.754003 0.459015 0.822765
O O5 0.003996 0.750000 0.045685
O O6 0.098538 0.547757 0.103529
O O7 0.923129 0.544763 0.110549
O O8 0.000000 0.500000 0.000000
O O9 0.299319 0.750000 0.369915
O O10 0.251612 0.487892 0.401850
O O11 0.328828 0.250000 0.015015
O O12 0.429436 0.423500 0.084674
O O13 0.256455 0.486811 0.057136
O O14 0.388182 0.502887 0.975035
O O15 0.461608 0.250000 0.178441
O O16 0.583210 0.445358 0.142723
O O17 0.772492 0.250000 0.904859
O O18 0.835676 0.750000 0.571505
#
# Coordination Sequence:
#
# PCOD8251426 Si02
#       7
#     8   8   8   8   8   8   8
#     4   9  19  36  58  81 105 136 176 219 267 319
#     4  10  21  36  54  77 107 140 178 222 268 318
#     4  10  22  38  55  79 108 139 179 227 270 316
#     4  10  19  33  54  80 108 137 171 216 263 312
#     4   9  20  36  54  78 109 141 174 213 260 315
#     4   9  18  34  55  78 105 139 175 215 265 323
#     4  11  22  35  52  77 108 142 176 214 263 317
#
# _framework density 19.271066000000001
#
# number of rings (size 3 to 8) (size 9 to 14) (size 15 to 20)
#    0.000    2.286    0.000    2.143    0.000    6.857 
#    0.000    2.857    0.000    0.000    0.000    0.000 
#    0.000    0.000    0.000    0.000    0.000    0.000 
#
# Total GULP energy -694412.621229 kJ/mol
# GULP energy per Si atom -12400.225379 kJ/mol
# Density = 1.922720 g / cm^3
# Si number density = 19.271066 Si / 1000 Ang^3
#
#
#
# Elastic Constant Matrix: (Units=GPa)
#
#
# Indices 1 2 3 4 5 6 
#
# 1 99.4031 31.9414 15.9474 0.0000 0.0000 0.0000
# 2 31.9414 66.9415 31.4145 0.0000 0.0000 0.0000
# 3 15.9474 31.4145 82.0053 0.0000 0.0000 0.0000
# 4 0.0000 0.0000 0.0000 26.0851 0.0000 0.0000
# 5 0.0000 0.0000 0.0000 0.0000 20.5013 0.0000
# 6 0.0000 0.0000 0.0000 0.0000 0.0000 29.5723
#
#
#
# Elastic Compliance Matrix: (Units=1/GPa)
#
#
# Indices 1 2 3 4 5 6 
#
# 1 0.011884 -0.005591 -0.000169 0.000000 0.000000 0.000000
# 2 -0.005591 0.020843 -0.006897 0.000000 0.000000 0.000000
# 3 -0.000169 -0.006897 0.014869 0.000000 0.000000 0.000000
# 4 0.000000 0.000000 0.000000 0.038336 0.000000 0.000000
# 5 0.000000 0.000000 0.000000 0.000000 0.048777 0.000000
# 6 0.000000 0.000000 0.000000 0.000000 0.000000 0.033815
#
#
# Mechanical properties :
#
#
# Convention : Reuss Voigt Hill
#
# Bulk Modulus (GPa) = 44.88075 45.21739 45.04907
# Shear Modulus (GPa) = 24.84262 26.50150 25.67206
#
# Velocity S-wave (km/s) = 3.59432 3.71239 3.65383
# Velocity P-wave (km/s) = 6.36909 6.47229 6.42090
#
# Compressibility (1/GPa) = 0.02228127
#
# Stress axis : x y z
#
# Youngs Moduli (GPa) = 84.14849 47.97790 67.25213
#
# Poissons Ratio (x) = 0.26824 0.01138
# Poissons Ratio (y) = 0.47047 0.46385
# Poissons Ratio (z) = 0.01424 0.33091
#
# Static dielectric constant tensor:
#      x y z
#    x 3.548530 0.000000 0.000000 
#    y 0.000000 3.560770 0.000000 
#    z 0.000000 0.000000 3.583000 
# 
# 
# High freq. dielectric constant tensor:
#      x y z
#    x 1.753420 0.000000 0.000000 
#    y 0.000000 1.748870 0.000000 
#    z 0.000000 0.000000 1.743410 
# 
# From -- ./inp_files/27193.got.cif
#   From: 2010.03.12/outbox.cif.g09.slc.cpg/sg62_14_cif.got.tgz:27193.got - 2010.04.10 19:12:36.
