data_PCOD8251044
_publ_section_title
;
Structure prediction by ZEFSAII (Michael W. Deem and Ramdas Pophale) SiO2 
 PCOD8251044
Probable space group: P N M A
;
_chemical_formula_sum "Si O2"
_cell_formula_units_Z 64
_cell_length_a 24.538462
_cell_length_b 8.921001
_cell_length_c 14.700487
_cell_angle_alpha 90.000000
_cell_angle_beta 90.000000
_cell_angle_gamma 90.000000
_cell_volume 3218.048975
_symmetry_space_group_name_H-M "P N M A"
_symmetry_group_IT_number 62
_symmetry_cell_setting 'orthorhombic'
loop_
_space_group_symop_operation_xyz
x,y,z
1/2-x,-y,1/2+z
1/2+x,1/2-y,1/2-z
-x,1/2+y,-z
-x,-y,-z
1/2+x,y,1/2-z
1/2-x,1/2+y,1/2+z
x,1/2-y,z
loop_
_atom_site_type_symbol
_atom_site_label
_atom_site_fract_x
_atom_site_fract_y
_atom_site_fract_z
Si Si1 0.438454 0.080271 0.047008
Si Si2 0.088017 0.427273 0.367892
Si Si3 0.201890 0.571895 0.332869
Si Si4 0.504572 0.076662 0.787082
Si Si5 0.169182 0.584281 0.642539
Si Si6 0.194241 0.077551 0.951999
Si Si7 0.223375 0.574981 0.128492
Si Si8 0.888692 0.921053 0.198182
O O1 0.463308 0.250000 0.045600
O O2 0.373720 0.090899 0.060810
O O3 0.461333 0.978841 0.126911
O O4 0.448006 0.992774 0.952154
O O5 0.091478 0.250000 0.371081
O O6 0.148120 0.494110 0.371507
O O7 0.052234 0.482444 0.280039
O O8 0.195240 0.750000 0.337617
O O9 0.255004 0.518856 0.390017
O O10 0.207390 0.515984 0.228613
O O11 0.488578 0.250000 0.797425
O O12 0.545486 0.051053 0.700632
O O13 0.194314 0.750000 0.657764
O O14 0.214570 0.469293 0.609016
O O15 0.142170 0.533954 0.736203
O O16 0.205135 0.250000 0.973442
O O17 0.136364 0.052430 0.901596
O O18 0.187148 0.994452 0.048028
O O19 0.216037 0.750000 0.123339
O O20 0.876473 0.750000 0.230013
#
# Coordination Sequence:
#
# PCOD8251044 Si02
#       8
#     8   8   8   8   8   8   8   8
#     4  10  20  34  52  78 112 148 186 227 275 329
#     4  12  24  36  52  77 110 145 187 233 278 332
#     4  10  22  40  58  78 114 154 186 226 277 333
#     4  10  20  35  57  80 107 146 188 229 278 333
#     4  10  19  31  51  78 109 144 181 224 270 322
#     4  10  20  37  59  84 113 145 181 228 279 331
#     4  11  22  36  55  81 113 149 187 229 278 335
#     4   9  18  35  57  80 107 142 181 223 271 327
#
# _framework density 19.887827000000001
#
# number of rings (size 3 to 8) (size 9 to 14) (size 15 to 20)
#    0.000    1.750    1.250    3.750    0.000    7.000 
#    0.000    0.000    0.000    0.750    0.000    0.000 
#    0.000    0.000    0.000    0.000    0.000    0.000 
#
# Total GULP energy -793334.116113 kJ/mol
# GULP energy per Si atom -12395.845564 kJ/mol
# Density = 1.984256 g / cm^3
# Si number density = 19.887827 Si / 1000 Ang^3
#
#
#
# Elastic Constant Matrix: (Units=GPa)
#
#
# Indices 1 2 3 4 5 6 
#
# 1 38.7816 6.5569 -8.8272 0.0000 0.0000 0.0000
# 2 6.5569 52.5551 20.8991 0.0000 0.0000 0.0000
# 3 -8.8272 20.8991 67.5099 0.0000 0.0000 0.0000
# 4 0.0000 0.0000 0.0000 28.2456 0.0000 0.0000
# 5 0.0000 0.0000 0.0000 0.0000 22.0621 0.0000
# 6 0.0000 0.0000 0.0000 0.0000 0.0000 26.8000
#
#
#
# Elastic Compliance Matrix: (Units=1/GPa)
#
#
# Indices 1 2 3 4 5 6 
#
# 1 0.027968 -0.005638 0.005402 0.000000 0.000000 0.000000
# 2 -0.005638 0.022835 -0.007806 0.000000 0.000000 0.000000
# 3 0.005402 -0.007806 0.017936 0.000000 0.000000 0.000000
# 4 0.000000 0.000000 0.000000 0.035404 0.000000 0.000000
# 5 0.000000 0.000000 0.000000 0.000000 0.045327 0.000000
# 6 0.000000 0.000000 0.000000 0.000000 0.000000 0.037313
#
#
# Mechanical properties :
#
#
# Convention : Reuss Voigt Hill
#
# Bulk Modulus (GPa) = 18.99130 21.78936 20.39033
# Shear Modulus (GPa) = 22.68415 24.76939 23.72677
#
# Velocity S-wave (km/s) = 3.38095 3.53293 3.45777
# Velocity P-wave (km/s) = 4.98107 5.25567 5.12021
#
# Compressibility (1/GPa) = 0.05265569
#
# Stress axis : x y z
#
# Youngs Moduli (GPa) = 35.75484 43.79191 55.75506
#
# Poissons Ratio (x) = 0.24688 -0.30120
# Poissons Ratio (y) = 0.20157 0.43524
# Poissons Ratio (z) = -0.19316 0.34185
#
# Static dielectric constant tensor:
#      x y z
#    x 3.881380 0.000000 0.000000 
#    y 0.000000 3.615390 0.000000 
#    z 0.000000 0.000000 3.515370 
# 
# 
# High freq. dielectric constant tensor:
#      x y z
#    x 1.775490 0.000000 0.000000 
#    y 0.000000 1.778650 0.000000 
#    z 0.000000 0.000000 1.746570 
# 
# From -- ./inp_files/20776.got.cif
#   From: 2010.03.12/outbox.cif.g09.slc.cpg/sg62_11_cif.got.tgz:20776.got - 2010.04.10 19:12:36.
