data_PCOD8251109
_publ_section_title
;
Structure prediction by ZEFSAII (Michael W. Deem and Ramdas Pophale) SiO2 
 PCOD8251109
Probable space group: P N M A
;
_chemical_formula_sum "Si O2"
_cell_formula_units_Z 56
_cell_length_a 18.464987
_cell_length_b 8.829067
_cell_length_c 18.911286
_cell_angle_alpha 90.000000
_cell_angle_beta 90.000000
_cell_angle_gamma 90.000000
_cell_volume 3083.080620
_symmetry_space_group_name_H-M "P N M A"
_symmetry_group_IT_number 62
_symmetry_cell_setting 'orthorhombic'
loop_
_space_group_symop_operation_xyz
x,y,z
1/2-x,-y,1/2+z
1/2+x,1/2-y,1/2-z
-x,1/2+y,-z
-x,-y,-z
1/2+x,y,1/2-z
1/2-x,1/2+y,1/2+z
x,1/2-y,z
loop_
_atom_site_type_symbol
_atom_site_label
_atom_site_fract_x
_atom_site_fract_y
_atom_site_fract_z
Si Si1 0.311194 0.929055 0.887761
Si Si2 0.335059 0.070530 0.452296
Si Si3 0.386207 0.428450 0.602682
Si Si4 0.471325 0.569175 0.928143
Si Si5 0.850874 0.573634 0.761288
Si Si6 0.505264 0.574724 0.210289
Si Si7 0.452179 0.577207 0.357717
O O1 0.311848 0.750000 0.893952
O O2 0.244087 0.996799 0.932373
O O3 0.388071 0.986931 0.918238
O O4 0.299437 0.974022 0.804767
O O5 0.331960 0.250000 0.455839
O O6 0.358952 0.003516 0.528162
O O7 0.391936 0.026897 0.392318
O O8 0.380205 0.250000 0.603652
O O9 0.333455 0.488393 0.665269
O O10 0.468916 0.479643 0.615837
O O11 0.479340 0.750000 0.927558
O O12 0.520020 0.495032 0.864929
O O13 0.500000 0.500000 0.000000
O O14 0.845938 0.750000 0.777171
O O15 0.930536 0.531712 0.735993
O O16 0.529740 0.750000 0.201933
O O17 0.444816 0.563426 0.272164
O O18 0.440222 0.750000 0.381937
#
# Coordination Sequence:
#
# PCOD8251109 Si02
#       7
#     8   8   8   8   8   8   8
#     4   8  17  33  50  70  96 126 161 201 246 292
#     4  10  19  32  50  70  97 133 165 196 242 299
#     4   9  18  31  48  71  97 127 164 201 237 285
#     4  10  19  33  54  77 100 127 163 207 251 292
#     4   9  16  29  50  70  90 120 158 200 243 286
#     4   9  17  31  50  72  98 124 156 198 240 287
#     4   9  18  31  46  70 101 127 158 203 244 279
#
# _framework density 18.163651000000002
#
# number of rings (size 3 to 8) (size 9 to 14) (size 15 to 20)
#    0.000    2.857    0.000    3.429    0.000    3.429 
#    0.000    5.714    0.000    5.143    0.000    0.000 
#    0.000    0.000    0.000    0.000    0.000    0.000 
#
# Total GULP energy -693893.585516 kJ/mol
# GULP energy per Si atom -12390.956884 kJ/mol
# Density = 1.812231 g / cm^3
# Si number density = 18.163651 Si / 1000 Ang^3
#
#
#
# Elastic Constant Matrix: (Units=GPa)
#
#
# Indices 1 2 3 4 5 6 
#
# 1 73.4239 21.8215 63.0146 0.0000 0.0000 0.0000
# 2 21.8215 22.9073 33.1890 0.0000 0.0000 0.0000
# 3 63.0146 33.1890 172.0754 0.0000 0.0000 0.0000
# 4 0.0000 0.0000 0.0000 34.0006 0.0000 0.0000
# 5 0.0000 0.0000 0.0000 0.0000 22.3700 0.0000
# 6 0.0000 0.0000 0.0000 0.0000 0.0000 14.3553
#
#
#
# Elastic Compliance Matrix: (Units=1/GPa)
#
#
# Indices 1 2 3 4 5 6 
#
# 1 0.022379 -0.013107 -0.005667 0.000000 0.000000 0.000000
# 2 -0.013107 0.068261 -0.008366 0.000000 0.000000 0.000000
# 3 -0.005667 -0.008366 0.009500 0.000000 0.000000 0.000000
# 4 0.000000 0.000000 0.000000 0.029411 0.000000 0.000000
# 5 0.000000 0.000000 0.000000 0.000000 0.044703 0.000000
# 6 0.000000 0.000000 0.000000 0.000000 0.000000 0.069661
#
#
# Mechanical properties :
#
#
# Convention : Reuss Voigt Hill
#
# Bulk Modulus (GPa) = 21.80575 56.05076 38.92825
# Shear Modulus (GPa) = 15.94988 24.17060 20.06024
#
# Velocity S-wave (km/s) = 2.96653 3.65185 3.32688
# Velocity P-wave (km/s) = 4.87493 6.97905 6.01964
#
# Compressibility (1/GPa) = 0.04585947
#
# Stress axis : x y z
#
# Youngs Moduli (GPa) = 44.68540 14.64965 105.26003
#
# Poissons Ratio (x) = 0.19202 0.59652
# Poissons Ratio (y) = 0.58570 0.88060
# Poissons Ratio (z) = 0.25324 0.12256
#
# Static dielectric constant tensor:
#      x y z
#    x 3.247740 0.000000 0.000000 
#    y 0.000000 3.229260 0.000000 
#    z 0.000000 0.000000 3.992180 
# 
# 
# High freq. dielectric constant tensor:
#      x y z
#    x 1.660310 0.000000 0.000000 
#    y 0.000000 1.692790 0.000000 
#    z 0.000000 0.000000 1.723520 
# 
# From -- ./inp_files/24623.got.cif
#   From: 2010.03.12/outbox.cif.g09.slc.cpg/sg62_13_cif.got.tgz:24623.got - 2010.04.10 19:12:36.
