data_PCOD8251774
_publ_section_title
;
Structure prediction by ZEFSAII (Michael W. Deem and Ramdas Pophale) SiO2 
 PCOD8251774
Probable space group: P N M A
;
_chemical_formula_sum "Si O2"
_cell_formula_units_Z 64
_cell_length_a 23.767862
_cell_length_b 9.066840
_cell_length_c 15.165635
_cell_angle_alpha 90.000000
_cell_angle_beta 90.000000
_cell_angle_gamma 90.000000
_cell_volume 3268.185272
_symmetry_space_group_name_H-M "P N M A"
_symmetry_group_IT_number 62
_symmetry_cell_setting 'orthorhombic'
loop_
_space_group_symop_operation_xyz
x,y,z
1/2-x,-y,1/2+z
1/2+x,1/2-y,1/2-z
-x,1/2+y,-z
-x,-y,-z
1/2+x,y,1/2-z
1/2-x,1/2+y,1/2+z
x,1/2-y,z
loop_
_atom_site_type_symbol
_atom_site_label
_atom_site_fract_x
_atom_site_fract_y
_atom_site_fract_z
Si Si1 0.670043 0.574665 0.568707
Si Si2 0.033956 0.923945 0.577220
Si Si3 0.980851 0.575062 0.756234
Si Si4 0.243096 0.925922 0.763808
Si Si5 0.959464 0.425655 0.069882
Si Si6 0.634551 0.075660 0.191955
Si Si7 0.251689 0.916550 0.082414
Si Si8 0.870254 0.915504 0.495743
O O1 0.673599 0.750000 0.570480
O O2 0.700189 0.516998 0.659388
O O3 0.605333 0.519950 0.563886
O O4 0.700855 0.518321 0.478622
O O5 0.028313 0.750000 0.569758
O O6 0.011021 0.985045 0.669322
O O7 0.098962 0.973809 0.571395
O O8 0.000000 0.000000 0.500000
O O9 0.982096 0.750000 0.756213
O O10 0.915304 0.521737 0.757772
O O11 0.015710 0.514666 0.838321
O O12 0.241103 0.750000 0.759469
O O13 0.305317 0.991908 0.782522
O O14 0.229772 0.987432 0.666648
O O15 0.962825 0.250000 0.060242
O O16 0.000000 0.500000 0.000000
O O17 0.641405 0.250000 0.194525
O O18 0.616465 0.027760 0.094125
O O19 0.237735 0.750000 0.113612
O O20 0.303797 0.917579 0.016088
O O21 0.893957 0.750000 0.482051
#
# Coordination Sequence:
#
# PCOD8251774 Si02
#       8
#     8   8   8   8   8   8   8   8
#     4   9  19  38  60  81 112 152 191 228 281 350
#     4  11  21  34  55  84 116 150 184 225 275 335
#     4   9  19  34  55  79 108 147 187 223 270 333
#     4  10  20  35  60  86 106 142 193 237 276 336
#     4  10  22  40  60  81 109 148 194 241 281 329
#     4   9  16  32  56  79 105 142 187 227 273 337
#     4  10  21  37  57  81 112 150 184 228 292 343
#     4  10  19  35  56  78 110 149 186 225 278 344
#
# _framework density 19.582733999999999
#
# number of rings (size 3 to 8) (size 9 to 14) (size 15 to 20)
#    0.000    2.250    2.500    0.375    3.500    0.500 
#    0.000    3.125    0.000    0.000    0.000    0.000 
#    0.000    0.000    0.000    0.000    0.000    0.000 
#
# Total GULP energy -793168.521838 kJ/mol
# GULP energy per Si atom -12393.258154 kJ/mol
# Density = 1.953816 g / cm^3
# Si number density = 19.582734 Si / 1000 Ang^3
#
#
#
# Elastic Constant Matrix: (Units=GPa)
#
#
# Indices 1 2 3 4 5 6 
#
# 1 143.9389 20.5229 60.5724 0.0000 0.0000 0.0000
# 2 20.5229 31.5730 27.1192 0.0000 0.0000 0.0000
# 3 60.5724 27.1192 129.5734 0.0000 0.0000 0.0000
# 4 0.0000 0.0000 0.0000 26.2407 0.0000 0.0000
# 5 0.0000 0.0000 0.0000 0.0000 36.3604 0.0000
# 6 0.0000 0.0000 0.0000 0.0000 0.0000 23.3363
#
#
#
# Elastic Compliance Matrix: (Units=1/GPa)
#
#
# Indices 1 2 3 4 5 6 
#
# 1 0.008830 -0.002675 -0.003568 0.000000 0.000000 0.000000
# 2 -0.002675 0.039425 -0.007001 0.000000 0.000000 0.000000
# 3 -0.003568 -0.007001 0.010851 0.000000 0.000000 0.000000
# 4 0.000000 0.000000 0.000000 0.038109 0.000000 0.000000
# 5 0.000000 0.000000 0.000000 0.000000 0.027502 0.000000
# 6 0.000000 0.000000 0.000000 0.000000 0.000000 0.042852
#
#
# Mechanical properties :
#
#
# Convention : Reuss Voigt Hill
#
# Bulk Modulus (GPa) = 30.65805 57.94604 44.30204
# Shear Modulus (GPa) = 24.39862 30.31221 27.35542
#
# Velocity S-wave (km/s) = 3.53360 3.93861 3.74159
# Velocity P-wave (km/s) = 5.68665 7.09494 6.42947
#
# Compressibility (1/GPa) = 0.03261786
#
# Stress axis : x y z
#
# Youngs Moduli (GPa) = 113.24602 25.36474 92.15841
#
# Poissons Ratio (x) = 0.06785 0.32883
# Poissons Ratio (y) = 0.30294 0.64519
# Poissons Ratio (z) = 0.40407 0.17758
#
# Static dielectric constant tensor:
#      x y z
#    x 3.954470 0.000000 0.000000 
#    y 0.000000 3.203750 0.000000 
#    z 0.000000 0.000000 3.811190 
# 
# 
# High freq. dielectric constant tensor:
#      x y z
#    x 1.781560 0.000000 0.000000 
#    y 0.000000 1.710900 0.000000 
#    z 0.000000 0.000000 1.767220 
# 
# From -- ./inp_files/20790.got.cif
#   From: 2010.03.12/outbox.cif.g09.slc.cpg/sg62_11_cif.got.tgz:20790.got - 2010.04.10 19:12:36.
