data_PCOD8251346
_publ_section_title
;
Structure prediction by ZEFSAII (Michael W. Deem and Ramdas Pophale) SiO2 
 PCOD8251346
Probable space group: P N M A
;
_chemical_formula_sum "Si O2"
_cell_formula_units_Z 48
_cell_length_a 15.323332
_cell_length_b 8.454237
_cell_length_c 19.070130
_cell_angle_alpha 90.000000
_cell_angle_beta 90.000000
_cell_angle_gamma 90.000000
_cell_volume 2470.479664
_symmetry_space_group_name_H-M "P N M A"
_symmetry_group_IT_number 62
_symmetry_cell_setting 'orthorhombic'
loop_
_space_group_symop_operation_xyz
x,y,z
1/2-x,-y,1/2+z
1/2+x,1/2-y,1/2-z
-x,1/2+y,-z
-x,-y,-z
1/2+x,y,1/2-z
1/2-x,1/2+y,1/2+z
x,1/2-y,z
loop_
_atom_site_type_symbol
_atom_site_label
_atom_site_fract_x
_atom_site_fract_y
_atom_site_fract_z
Si Si1 0.344586 0.562766 0.926945
Si Si2 0.652930 0.935104 0.416523
Si Si3 0.999137 0.937798 0.670652
Si Si4 0.149258 0.563234 0.926015
Si Si5 0.000767 0.436212 0.172790
Si Si6 0.160417 0.935770 0.577981
O O1 0.351378 0.750000 0.940431
O O2 0.411629 0.501834 0.868119
O O3 0.246925 0.515693 0.901959
O O4 0.368024 0.475524 0.999031
O O5 0.635061 0.750000 0.409586
O O6 0.631868 0.998536 0.494985
O O7 0.593144 0.027415 0.362033
O O8 0.753214 0.971126 0.398714
O O9 0.996630 0.750000 0.673120
O O10 0.001541 0.009469 0.749083
O O11 0.083999 0.996322 0.629015
O O12 0.139350 0.750000 0.926475
O O13 0.078252 0.487968 0.873091
O O14 0.987781 0.250000 0.177666
O O15 0.177065 0.750000 0.585862
#
# Coordination Sequence:
#
# PCOD8251346 Si02
#       6
#     8   8   8   8   8   8
#     4   9  17  33  53  75 102 134 168 210 258 304
#     4  10  20  35  52  74 102 135 171 213 259 302
#     4   9  19  32  51  78 106 133 167 208 255 304
#     4   8  16  30  51  73  97 129 166 204 249 298
#     4  10  19  33  52  76 102 133 169 208 252 307
#     4  10  19  33  53  78 102 132 173 215 252 299
#
# _framework density 19.429425999999999
#
# number of rings (size 3 to 8) (size 9 to 14) (size 15 to 20)
#    0.000    2.667    0.000    3.000    0.000    1.333 
#    0.000   11.667    0.000    0.000    0.000    0.000 
#    0.000    0.000    0.000    0.000    0.000    0.000 
#
# Total GULP energy -595156.384744 kJ/mol
# GULP energy per Si atom -12399.091349 kJ/mol
# Density = 1.938520 g / cm^3
# Si number density = 19.429426 Si / 1000 Ang^3
#
#
#
# Elastic Constant Matrix: (Units=GPa)
#
#
# Indices 1 2 3 4 5 6 
#
# 1 142.3154 1.8086 100.0312 0.0000 0.0000 0.0000
# 2 1.8086 14.8306 7.2812 0.0000 0.0000 0.0000
# 3 100.0312 7.2812 150.0651 0.0000 0.0000 0.0000
# 4 0.0000 0.0000 0.0000 19.0834 0.0000 0.0000
# 5 0.0000 0.0000 0.0000 0.0000 21.3716 0.0000
# 6 0.0000 0.0000 0.0000 0.0000 0.0000 21.7484
#
#
#
# Elastic Compliance Matrix: (Units=1/GPa)
#
#
# Indices 1 2 3 4 5 6 
#
# 1 0.013334 0.002805 -0.009024 0.000000 0.000000 0.000000
# 2 0.002805 0.069663 -0.005250 0.000000 0.000000 0.000000
# 3 -0.009024 -0.005250 0.012934 0.000000 0.000000 0.000000
# 4 0.000000 0.000000 0.000000 0.052402 0.000000 0.000000
# 5 0.000000 0.000000 0.000000 0.000000 0.046791 0.000000
# 6 0.000000 0.000000 0.000000 0.000000 0.000000 0.045980
#
#
# Mechanical properties :
#
#
# Convention : Reuss Voigt Hill
#
# Bulk Modulus (GPa) = 13.70003 58.38369 36.04186
# Shear Modulus (GPa) = 17.33859 25.64669 21.49264
#
# Velocity S-wave (km/s) = 2.99053 3.63711 3.32955
# Velocity P-wave (km/s) = 4.35785 6.91031 5.77682
#
# Compressibility (1/GPa) = 0.07299256
#
# Stress axis : x y z
#
# Youngs Moduli (GPa) = 74.99565 14.35476 77.31547
#
# Poissons Ratio (x) = -0.04026 0.69773
# Poissons Ratio (y) = -0.21033 0.40587
# Poissons Ratio (z) = 0.67679 0.07536
#
# Static dielectric constant tensor:
#      x y z
#    x 3.746500 0.000000 0.000000 
#    y 0.000000 3.140550 0.000000 
#    z 0.000000 0.000000 3.799650 
# 
# 
# High freq. dielectric constant tensor:
#      x y z
#    x 1.769740 0.000000 0.000000 
#    y 0.000000 1.719760 0.000000 
#    z 0.000000 0.000000 1.753400 
# 
# From -- ./inp_files/23701.got.cif
#   From: 2010.03.12/outbox.cif.g09.slc.cpg/sg62_12_cif.got.tgz:23701.got - 2010.04.10 19:12:36.
