data_PCOD8251162
_publ_section_title
;
Structure prediction by ZEFSAII (Michael W. Deem and Ramdas Pophale) SiO2 
 PCOD8251162
Probable space group: P N M A
;
_chemical_formula_sum "Si O2"
_cell_formula_units_Z 64
_cell_length_a 12.656396
_cell_length_b 9.314103
_cell_length_c 28.729229
_cell_angle_alpha 90.000000
_cell_angle_beta 90.000000
_cell_angle_gamma 90.000000
_cell_volume 3386.687011
_symmetry_space_group_name_H-M "P N M A"
_symmetry_group_IT_number 62
_symmetry_cell_setting 'orthorhombic'
loop_
_space_group_symop_operation_xyz
x,y,z
1/2-x,-y,1/2+z
1/2+x,1/2-y,1/2-z
-x,1/2+y,-z
-x,-y,-z
1/2+x,y,1/2-z
1/2-x,1/2+y,1/2+z
x,1/2-y,z
loop_
_atom_site_type_symbol
_atom_site_label
_atom_site_fract_x
_atom_site_fract_y
_atom_site_fract_z
Si Si1 0.515162 0.091582 0.557544
Si Si2 0.292993 0.080302 0.157584
Si Si3 0.081540 0.080327 0.210636
Si Si4 0.720639 0.583780 0.429805
Si Si5 0.703301 0.585270 0.531108
Si Si6 0.099890 0.410040 0.840950
Si Si7 0.981175 0.581200 0.688002
Si Si8 0.288408 0.919317 0.871103
O O1 0.503724 0.250000 0.534697
O O2 0.400154 0.028260 0.569136
O O3 0.579413 0.103504 0.604857
O O4 0.587900 0.990234 0.525009
O O5 0.297152 0.250000 0.150277
O O6 0.196639 0.035633 0.191236
O O7 0.400937 0.018889 0.180462
O O8 0.284835 0.010777 0.106578
O O9 0.062881 0.250000 0.204869
O O10 0.071246 0.027866 0.263913
O O11 0.993849 0.996780 0.182315
O O12 0.726314 0.750000 0.414360
O O13 0.766641 0.562260 0.482489
O O14 0.675279 0.750000 0.539018
O O15 0.773511 0.531973 0.574881
O O16 0.110882 0.250000 0.818980
O O17 0.208335 0.499523 0.836189
O O18 0.992008 0.750000 0.690686
O O19 0.906171 0.536181 0.644876
O O20 0.269373 0.750000 0.864471
#
# Coordination Sequence:
#
# PCOD8251162 Si02
#       8
#     8   8   8   8   8   8   8   8
#     4   9  17  29  46  70 106 142 169 211 268 314
#     4  10  21  36  55  81 107 137 181 224 266 322
#     4  10  20  34  56  80 102 133 176 221 268 323
#     4  10  19  33  50  73 109 147 178 217 270 320
#     4   9  18  30  50  78 105 139 184 221 262 320
#     4  10  19  32  51  78 110 141 170 210 264 321
#     4   9  20  37  58  80 105 137 178 229 274 312
#     4   9  18  35  57  79 107 142 180 225 268 312
#
# _framework density 18.897523
#
# number of rings (size 3 to 8) (size 9 to 14) (size 15 to 20)
#    0.000    2.500    1.250    0.750    1.750    1.500 
#    0.000    2.500    0.000    0.000    0.000    0.000 
#    0.000    0.000    0.000    0.000    0.000    0.000 
#
# Total GULP energy -793252.675391 kJ/mol
# GULP energy per Si atom -12394.573053 kJ/mol
# Density = 1.885451 g / cm^3
# Si number density = 18.897523 Si / 1000 Ang^3
#
#
#
# Elastic Constant Matrix: (Units=GPa)
#
#
# Indices 1 2 3 4 5 6 
#
# 1 133.1866 33.6231 68.3542 0.0000 0.0000 0.0000
# 2 33.6231 42.4497 32.0606 0.0000 0.0000 0.0000
# 3 68.3542 32.0606 96.7670 0.0000 0.0000 0.0000
# 4 0.0000 0.0000 0.0000 22.7107 0.0000 0.0000
# 5 0.0000 0.0000 0.0000 0.0000 23.0855 0.0000
# 6 0.0000 0.0000 0.0000 0.0000 0.0000 14.1043
#
#
#
# Elastic Compliance Matrix: (Units=1/GPa)
#
#
# Indices 1 2 3 4 5 6 
#
# 1 0.012328 -0.004251 -0.007300 0.000000 0.000000 0.000000
# 2 -0.004251 0.032886 -0.007892 0.000000 0.000000 0.000000
# 3 -0.007300 -0.007892 0.018105 0.000000 0.000000 0.000000
# 4 0.000000 0.000000 0.000000 0.044032 0.000000 0.000000
# 5 0.000000 0.000000 0.000000 0.000000 0.043317 0.000000
# 6 0.000000 0.000000 0.000000 0.000000 0.000000 0.070901
#
#
# Mechanical properties :
#
#
# Convention : Reuss Voigt Hill
#
# Bulk Modulus (GPa) = 40.93021 60.05321 50.49171
# Shear Modulus (GPa) = 18.61508 21.20445 19.90976
#
# Velocity S-wave (km/s) = 3.14196 3.35337 3.24939
# Velocity P-wave (km/s) = 5.90497 6.84404 6.39177
#
# Compressibility (1/GPa) = 0.02443183
#
# Stress axis : x y z
#
# Youngs Moduli (GPa) = 81.11731 30.40845 55.23259
#
# Poissons Ratio (x) = 0.12928 0.40317
# Poissons Ratio (y) = 0.34486 0.43592
# Poissons Ratio (z) = 0.59212 0.24000
#
# Static dielectric constant tensor:
#      x y z
#    x 3.472150 0.000000 0.000000 
#    y 0.000000 3.474110 0.000000 
#    z 0.000000 0.000000 3.694490 
# 
# 
# High freq. dielectric constant tensor:
#      x y z
#    x 1.718650 0.000000 0.000000 
#    y 0.000000 1.713940 0.000000 
#    z 0.000000 0.000000 1.739700 
# 
# From -- ./inp_files/32504.got.cif
#   From: 2010.03.12/outbox.cif.g09.slc.cpg/sg62_17_cif.got.tgz:32504.got - 2010.04.10 19:12:36.
