data_PCOD8251215
_publ_section_title
;
Structure prediction by ZEFSAII (Michael W. Deem and Ramdas Pophale) SiO2 
 PCOD8251215
Probable space group: P N M A
;
_chemical_formula_sum "Si O2"
_cell_formula_units_Z 40
_cell_length_a 9.780372
_cell_length_b 7.726455
_cell_length_c 28.318830
_cell_angle_alpha 90.000000
_cell_angle_beta 90.000000
_cell_angle_gamma 90.000000
_cell_volume 2139.986135
_symmetry_space_group_name_H-M "P N M A"
_symmetry_group_IT_number 62
_symmetry_cell_setting 'orthorhombic'
loop_
_space_group_symop_operation_xyz
x,y,z
1/2-x,-y,1/2+z
1/2+x,1/2-y,1/2-z
-x,1/2+y,-z
-x,-y,-z
1/2+x,y,1/2-z
1/2-x,1/2+y,1/2+z
x,1/2-y,z
loop_
_atom_site_type_symbol
_atom_site_label
_atom_site_fract_x
_atom_site_fract_y
_atom_site_fract_z
Si Si1 0.662259 0.750000 0.295577
Si Si2 0.153163 0.949172 0.867960
Si Si3 0.359061 0.546982 0.949420
Si Si4 0.157440 0.250000 0.797002
Si Si5 0.841427 0.941247 0.863701
Si Si6 0.156630 0.053914 0.554976
O O1 0.502048 0.750000 0.282795
O O2 0.750214 0.750000 0.248797
O O3 0.704930 0.580421 0.325053
O O4 0.183034 0.750000 0.852960
O O5 0.237028 0.001954 0.914393
O O6 0.995252 0.979765 0.880927
O O7 0.195613 0.076378 0.825664
O O8 0.388161 0.750000 0.951387
O O9 0.496812 0.455609 0.931313
O O10 0.320761 0.480676 0.001942
O O11 0.832462 0.750000 0.840592
O O12 0.744953 0.940983 0.909247
O O13 0.208463 0.250000 0.559216
#
# Coordination Sequence:
#
# PCOD8251215 Si02
#       6
#     4   8   8   4   8   8
#     4  10  22  40  56  84 110 138 186 230 275 334
#     4   9  20  38  57  80 110 144 183 226 273 328
#     4   9  19  34  51  78 114 149 186 227 271 323
#     4  10  22  38  60  82 110 142 182 232 279 328
#     4  10  20  37  58  79 110 146 180 226 276 325
#     4  10  19  32  52  80 114 148 186 228 269 323
#
# _framework density 18.69171
#
# number of rings (size 3 to 8) (size 9 to 14) (size 15 to 20)
#    0.000    2.400    1.000    0.600    1.400    4.000 
#    0.000    0.000    0.000    0.000    0.000    0.000 
#    0.000    0.000    0.000    0.000    0.000    0.000 
#
# Total GULP energy -496049.305106 kJ/mol
# GULP energy per Si atom -12401.232628 kJ/mol
# Density = 1.864917 g / cm^3
# Si number density = 18.691710 Si / 1000 Ang^3
#
#
#
# Elastic Constant Matrix: (Units=GPa)
#
#
# Indices 1 2 3 4 5 6 
#
# 1 52.7084 29.9698 50.0700 0.0000 0.0000 0.0000
# 2 29.9698 93.8098 47.2203 0.0000 0.0000 0.0000
# 3 50.0700 47.2203 106.6296 0.0000 0.0000 0.0000
# 4 0.0000 0.0000 0.0000 2.9643 0.0000 0.0000
# 5 0.0000 0.0000 0.0000 0.0000 41.4047 0.0000
# 6 0.0000 0.0000 0.0000 0.0000 0.0000 23.6253
#
#
#
# Elastic Compliance Matrix: (Units=1/GPa)
#
#
# Indices 1 2 3 4 5 6 
#
# 1 0.035257 -0.003771 -0.014886 0.000000 0.000000 0.000000
# 2 -0.003771 0.014121 -0.004483 0.000000 0.000000 0.000000
# 3 -0.014886 -0.004483 0.018353 0.000000 0.000000 0.000000
# 4 0.000000 0.000000 0.000000 0.337344 0.000000 0.000000
# 5 0.000000 0.000000 0.000000 0.000000 0.024152 0.000000
# 6 0.000000 0.000000 0.000000 0.000000 0.000000 0.042327
#
#
# Mechanical properties :
#
#
# Convention : Reuss Voigt Hill
#
# Bulk Modulus (GPa) = 46.61407 56.40756 51.51082
# Shear Modulus (GPa) = 9.52409 21.99139 15.75774
#
# Velocity S-wave (km/s) = 2.25974 3.43378 2.90665
# Velocity P-wave (km/s) = 5.63924 6.77971 6.23561
#
# Compressibility (1/GPa) = 0.02145275
#
# Stress axis : x y z
#
# Youngs Moduli (GPa) = 28.36315 70.81664 54.48597
#
# Poissons Ratio (x) = 0.26703 0.81107
# Poissons Ratio (y) = 0.10695 0.24425
# Poissons Ratio (z) = 0.42221 0.31746
#
# Static dielectric constant tensor:
#      x y z
#    x 3.361720 0.000000 0.000000 
#    y 0.000000 3.594220 0.000000 
#    z 0.000000 0.000000 3.247350 
# 
# 
# High freq. dielectric constant tensor:
#      x y z
#    x 1.722270 0.000000 0.000000 
#    y 0.000000 1.740040 0.000000 
#    z 0.000000 0.000000 1.708130 
# 
# From -- ./inp_files/28621.got.cif
#   From: 2010.03.12/outbox.cif.g09.slc.cpg/sg62_15_cif.got.tgz:28621.got - 2010.04.10 19:12:36.
