data_PCOD8251559
_publ_section_title
;
Structure prediction by ZEFSAII (Michael W. Deem and Ramdas Pophale) SiO2 
 PCOD8251559
Probable space group: P N M A
;
_chemical_formula_sum "Si O2"
_cell_formula_units_Z 64
_cell_length_a 19.083810
_cell_length_b 8.552498
_cell_length_c 23.037679
_cell_angle_alpha 90.000000
_cell_angle_beta 90.000000
_cell_angle_gamma 90.000000
_cell_volume 3760.077427
_symmetry_space_group_name_H-M "P N M A"
_symmetry_group_IT_number 62
_symmetry_cell_setting 'orthorhombic'
loop_
_space_group_symop_operation_xyz
x,y,z
1/2-x,-y,1/2+z
1/2+x,1/2-y,1/2-z
-x,1/2+y,-z
-x,-y,-z
1/2+x,y,1/2-z
1/2-x,1/2+y,1/2+z
x,1/2-y,z
loop_
_atom_site_type_symbol
_atom_site_label
_atom_site_fract_x
_atom_site_fract_y
_atom_site_fract_z
Si Si1 0.150392 0.931352 0.563678
Si Si2 0.497508 0.933252 0.249073
Si Si3 0.364278 0.930396 0.940393
Si Si4 0.256525 0.566239 0.157290
Si Si5 0.638840 0.432025 0.274094
Si Si6 0.993694 0.432902 0.376725
Si Si7 0.285914 0.067506 0.835865
Si Si8 0.155780 0.066127 0.765290
O O1 0.162678 0.750000 0.574798
O O2 0.076024 0.985711 0.589666
O O3 0.153014 0.965245 0.495753
O O4 0.213650 0.024240 0.594261
O O5 0.506565 0.750000 0.260610
O O6 0.422941 0.998559 0.273417
O O7 0.557414 0.026169 0.283900
O O8 0.501733 0.964806 0.180608
O O9 0.359334 0.750000 0.958014
O O10 0.441489 0.974158 0.918224
O O11 0.306964 0.966206 0.891215
O O12 0.244296 0.750000 0.162892
O O13 0.182038 0.481538 0.168562
O O14 0.310701 0.499872 0.205718
O O15 0.647835 0.250000 0.260963
O O16 0.664792 0.529743 0.218635
O O17 0.993583 0.250000 0.360170
O O18 0.293631 0.250000 0.850363
O O19 0.205461 0.022627 0.819696
O O20 0.151257 0.250000 0.757284
#
# Coordination Sequence:
#
# PCOD8251559 Si02
#       8
#     8   8   8   8   8   8   8   8
#     4  11  22  35  51  73 101 138 177 215 256 299
#     4  11  19  31  52  76 101 137 171 205 253 304
#     4  11  22  35  50  71 101 139 178 215 250 297
#     4  10  19  35  53  73  98 132 172 213 255 302
#     4  11  21  33  49  74 104 133 166 210 256 305
#     4  10  21  34  47  70 104 138 176 213 249 294
#     4  10  19  34  52  73  98 131 171 213 255 302
#     4   8  17  31  50  74  99 126 164 208 253 300
#
# _framework density 17.020927
#
# number of rings (size 3 to 8) (size 9 to 14) (size 15 to 20)
#    0.000    1.750    2.500    4.125    0.000    1.000 
#    0.000    1.875    0.000    0.000    0.000    0.875 
#    0.000    0.000    0.000    0.000    0.000    0.000 
#
# Total GULP energy -793725.264890 kJ/mol
# GULP energy per Si atom -12401.957264 kJ/mol
# Density = 1.698219 g / cm^3
# Si number density = 17.020927 Si / 1000 Ang^3
#
#
#
# Elastic Constant Matrix: (Units=GPa)
#
#
# Indices 1 2 3 4 5 6 
#
# 1 108.4305 22.0396 31.1477 0.0000 0.0000 0.0000
# 2 22.0396 45.2565 9.0514 0.0000 0.0000 0.0000
# 3 31.1477 9.0514 53.7767 0.0000 0.0000 0.0000
# 4 0.0000 0.0000 0.0000 25.9577 0.0000 0.0000
# 5 0.0000 0.0000 0.0000 0.0000 24.1126 0.0000
# 6 0.0000 0.0000 0.0000 0.0000 0.0000 23.3471
#
#
#
# Elastic Compliance Matrix: (Units=1/GPa)
#
#
# Indices 1 2 3 4 5 6 
#
# 1 0.011914 -0.004576 -0.006130 0.000000 0.000000 0.000000
# 2 -0.004576 0.024623 -0.001494 0.000000 0.000000 0.000000
# 3 -0.006130 -0.001494 0.022398 0.000000 0.000000 0.000000
# 4 0.000000 0.000000 0.000000 0.038524 0.000000 0.000000
# 5 0.000000 0.000000 0.000000 0.000000 0.041472 0.000000
# 6 0.000000 0.000000 0.000000 0.000000 0.000000 0.042832
#
#
# Mechanical properties :
#
#
# Convention : Reuss Voigt Hill
#
# Bulk Modulus (GPa) = 28.95677 36.88234 32.91956
# Shear Modulus (GPa) = 22.97009 24.36515 23.66762
#
# Velocity S-wave (km/s) = 3.67757 3.78760 3.73299
# Velocity P-wave (km/s) = 5.92301 6.39091 6.16140
#
# Compressibility (1/GPa) = 0.03453423
#
# Stress axis : x y z
#
# Youngs Moduli (GPa) = 83.93824 40.61167 44.64776
#
# Poissons Ratio (x) = 0.18583 0.27370
# Poissons Ratio (y) = 0.38408 0.06671
# Poissons Ratio (z) = 0.51456 0.06068
#
# Static dielectric constant tensor:
#      x y z
#    x 3.557120 0.000000 0.000000 
#    y 0.000000 3.109740 0.000000 
#    z 0.000000 0.000000 2.919490 
# 
# 
# High freq. dielectric constant tensor:
#      x y z
#    x 1.657420 0.000000 0.000000 
#    y 0.000000 1.660180 0.000000 
#    z 0.000000 0.000000 1.622300 
# 
# From -- ./inp_files/27975.got.cif
#   From: 2010.03.12/outbox.cif.g09.slc.cpg/sg62_14_cif.got.tgz:27975.got - 2010.04.10 19:12:36.
