data_PCOD8251705
_publ_section_title
;
Structure prediction by ZEFSAII (Michael W. Deem and Ramdas Pophale) SiO2 
 PCOD8251705
Probable space group: P N M A
;
_chemical_formula_sum "Si O2"
_cell_formula_units_Z 56
_cell_length_a 19.497542
_cell_length_b 8.837028
_cell_length_c 17.380366
_cell_angle_alpha 90.000000
_cell_angle_beta 90.000000
_cell_angle_gamma 90.000000
_cell_volume 2994.642703
_symmetry_space_group_name_H-M "P N M A"
_symmetry_group_IT_number 62
_symmetry_cell_setting 'orthorhombic'
loop_
_space_group_symop_operation_xyz
x,y,z
1/2-x,-y,1/2+z
1/2+x,1/2-y,1/2-z
-x,1/2+y,-z
-x,-y,-z
1/2+x,y,1/2-z
1/2-x,1/2+y,1/2+z
x,1/2-y,z
loop_
_atom_site_type_symbol
_atom_site_label
_atom_site_fract_x
_atom_site_fract_y
_atom_site_fract_z
Si Si1 0.569312 0.423217 0.973174
Si Si2 0.616147 0.070465 0.208371
Si Si3 0.440563 0.071212 0.347044
Si Si4 0.814625 0.426678 0.571106
Si Si5 0.340737 0.927499 0.467045
Si Si6 0.472958 0.923323 0.193870
Si Si7 0.593229 0.071433 0.377474
O O1 0.569405 0.250000 0.001300
O O2 0.575080 0.434462 0.880954
O O3 0.500000 0.500000 0.000000
O O4 0.634321 0.506817 0.008254
O O5 0.618052 0.250000 0.202496
O O6 0.626344 0.015029 0.296812
O O7 0.675489 0.001099 0.155126
O O8 0.542891 0.014113 0.177263
O O9 0.437186 0.250000 0.336570
O O10 0.513899 0.019377 0.382003
O O11 0.380256 0.016271 0.401233
O O12 0.430477 0.995793 0.263757
O O13 0.828543 0.250000 0.579158
O O14 0.738935 0.463289 0.541488
O O15 0.356828 0.750000 0.459137
O O16 0.365256 0.993505 0.549703
O O17 0.491763 0.750000 0.212779
O O18 0.597299 0.250000 0.379452
#
# Coordination Sequence:
#
# PCOD8251705 Si02
#       7
#     8   8   8   8   8   8   8
#     4  11  22  36  59  84 112 147 190 239 284 337
#     4  10  19  34  58  83 111 143 185 237 286 336
#     4  10  20  35  59  88 114 144 189 239 288 339
#     4  11  23  37  55  80 115 156 193 230 286 347
#     4  10  21  39  58  79 115 154 191 234 285 344
#     4  10  20  35  57  85 114 144 184 230 285 341
#     4   8  17  35  59  85 109 142 188 235 283 334
#
# _framework density 18.700061000000002
#
# number of rings (size 3 to 8) (size 9 to 14) (size 15 to 20)
#    0.000    2.000    1.429    3.429    0.000    2.857 
#    2.571    3.571    0.000    0.000    0.000    0.000 
#    0.000    0.000    0.000    0.000    0.000    0.000 
#
# Total GULP energy -694462.271558 kJ/mol
# GULP energy per Si atom -12401.111992 kJ/mol
# Density = 1.865750 g / cm^3
# Si number density = 18.700061 Si / 1000 Ang^3
#
#
#
# Elastic Constant Matrix: (Units=GPa)
#
#
# Indices 1 2 3 4 5 6 
#
# 1 99.2403 57.6116 67.7792 0.0000 0.0000 0.0000
# 2 57.6116 99.4126 56.0707 0.0000 0.0000 0.0000
# 3 67.7792 56.0707 130.6425 0.0000 0.0000 0.0000
# 4 0.0000 0.0000 0.0000 28.6565 0.0000 0.0000
# 5 0.0000 0.0000 0.0000 0.0000 17.0858 0.0000
# 6 0.0000 0.0000 0.0000 0.0000 0.0000 26.4102
#
#
#
# Elastic Compliance Matrix: (Units=1/GPa)
#
#
# Indices 1 2 3 4 5 6 
#
# 1 0.018769 -0.007105 -0.006688 0.000000 0.000000 0.000000
# 2 -0.007105 0.015961 -0.003164 0.000000 0.000000 0.000000
# 3 -0.006688 -0.003164 0.012483 0.000000 0.000000 0.000000
# 4 0.000000 0.000000 0.000000 0.034896 0.000000 0.000000
# 5 0.000000 0.000000 0.000000 0.000000 0.058528 0.000000
# 6 0.000000 0.000000 0.000000 0.000000 0.000000 0.037864
#
#
# Mechanical properties :
#
#
# Convention : Reuss Voigt Hill
#
# Bulk Modulus (GPa) = 75.19953 76.91317 76.05635
# Shear Modulus (GPa) = 23.05752 24.28607 23.67180
#
# Velocity S-wave (km/s) = 3.51525 3.60768 3.56176
# Velocity P-wave (km/s) = 7.53504 7.65330 7.59440
#
# Compressibility (1/GPa) = 0.01329796
#
# Stress axis : x y z
#
# Youngs Moduli (GPa) = 53.27928 62.65206 80.11119
#
# Poissons Ratio (x) = 0.44512 0.53581
# Poissons Ratio (y) = 0.37853 0.25351
# Poissons Ratio (z) = 0.35635 0.19826
#
# Static dielectric constant tensor:
#      x y z
#    x 3.255710 0.000000 0.000000 
#    y 0.000000 3.453590 0.000000 
#    z 0.000000 0.000000 3.875060 
# 
# 
# High freq. dielectric constant tensor:
#      x y z
#    x 1.703880 0.000000 0.000000 
#    y 0.000000 1.727310 0.000000 
#    z 0.000000 0.000000 1.743320 
# 
# From -- ./inp_files/24656.got.cif
#   From: 2010.03.12/outbox.cif.g09.slc.cpg/sg62_13_cif.got.tgz:24656.got - 2010.04.10 19:12:36.
