data_PCOD8251883
_publ_section_title
;
Structure prediction by ZEFSAII (Michael W. Deem and Ramdas Pophale) SiO2 
 PCOD8251883
Probable space group: P N M A
;
_chemical_formula_sum "Si O2"
_cell_formula_units_Z 48
_cell_length_a 28.990126
_cell_length_b 8.877469
_cell_length_c 10.138492
_cell_angle_alpha 90.000000
_cell_angle_beta 90.000000
_cell_angle_gamma 90.000000
_cell_volume 2609.231604
_symmetry_space_group_name_H-M "P N M A"
_symmetry_group_IT_number 62
_symmetry_cell_setting 'orthorhombic'
loop_
_space_group_symop_operation_xyz
x,y,z
1/2-x,-y,1/2+z
1/2+x,1/2-y,1/2-z
-x,1/2+y,-z
-x,-y,-z
1/2+x,y,1/2-z
1/2-x,1/2+y,1/2+z
x,1/2-y,z
loop_
_atom_site_type_symbol
_atom_site_label
_atom_site_fract_x
_atom_site_fract_y
_atom_site_fract_z
Si Si1 0.524036 0.571764 0.876247
Si Si2 0.718258 0.574593 0.489194
Si Si3 0.472732 0.926030 0.616951
Si Si4 0.288874 0.073256 0.208040
Si Si5 0.124055 0.077569 0.016714
Si Si6 0.385062 0.923586 0.212935
O O1 0.524596 0.750000 0.889027
O O2 0.493647 0.515233 0.753213
O O3 0.576209 0.514049 0.865910
O O4 0.500000 0.500000 0.000000
O O5 0.726750 0.750000 0.461512
O O6 0.750924 0.476559 0.396796
O O7 0.727326 0.533106 0.642765
O O8 0.665906 0.533628 0.450625
O O9 0.479796 0.750000 0.600332
O O10 0.418338 0.966366 0.611899
O O11 0.500000 0.000000 0.500000
O O12 0.297971 0.250000 0.196060
O O13 0.335518 0.987139 0.171209
O O14 0.140306 0.250000 0.038083
O O15 0.106452 0.054066 0.867940
O O16 0.387466 0.750000 0.170804
#
# Coordination Sequence:
#
# PCOD8251883 Si02
#       6
#     8   8   8   8   8   8
#     4  11  23  38  56  81 116 154 190 232 280 335
#     4  10  21  37  58  85 113 146 187 231 279 333
#     4  10  20  35  58  85 111 144 186 231 277 327
#     4  10  21  38  60  85 114 147 184 230 279 333
#     4   9  18  34  57  84 111 143 183 231 282 331
#     4  10  19  35  60  84 111 148 187 228 278 339
#
# _framework density 18.396221000000001
#
# number of rings (size 3 to 8) (size 9 to 14) (size 15 to 20)
#    0.000    2.000    1.667    2.000    0.000    4.000 
#    3.000    0.000    0.000    0.000    0.000    0.000 
#    0.000    0.000    0.000    0.000    0.000    0.000 
#
# Total GULP energy -595332.806205 kJ/mol
# GULP energy per Si atom -12402.766796 kJ/mol
# Density = 1.835435 g / cm^3
# Si number density = 18.396221 Si / 1000 Ang^3
#
#
#
# Elastic Constant Matrix: (Units=GPa)
#
#
# Indices 1 2 3 4 5 6 
#
# 1 104.4606 37.2265 65.7683 0.0000 0.0000 0.0000
# 2 37.2265 68.1972 43.4803 0.0000 0.0000 0.0000
# 3 65.7683 43.4803 107.0029 0.0000 0.0000 0.0000
# 4 0.0000 0.0000 0.0000 28.4537 0.0000 0.0000
# 5 0.0000 0.0000 0.0000 0.0000 31.9821 0.0000
# 6 0.0000 0.0000 0.0000 0.0000 0.0000 38.0571
#
#
#
# Elastic Compliance Matrix: (Units=1/GPa)
#
#
# Indices 1 2 3 4 5 6 
#
# 1 0.016167 -0.003360 -0.008572 0.000000 0.000000 0.000000
# 2 -0.003360 0.020489 -0.006260 0.000000 0.000000 0.000000
# 3 -0.008572 -0.006260 0.017158 0.000000 0.000000 0.000000
# 4 0.000000 0.000000 0.000000 0.035145 0.000000 0.000000
# 5 0.000000 0.000000 0.000000 0.000000 0.031268 0.000000
# 6 0.000000 0.000000 0.000000 0.000000 0.000000 0.026276
#
#
# Mechanical properties :
#
#
# Convention : Reuss Voigt Hill
#
# Bulk Modulus (GPa) = 57.37302 63.62343 60.49822
# Shear Modulus (GPa) = 26.49757 28.57760 27.53759
#
# Velocity S-wave (km/s) = 3.79935 3.94566 3.87320
# Velocity P-wave (km/s) = 7.10647 7.44431 7.27735
#
# Compressibility (1/GPa) = 0.01742980
#
# Stress axis : x y z
#
# Youngs Moduli (GPa) = 61.85412 48.80688 58.28238
#
# Poissons Ratio (x) = 0.16400 0.49957
# Poissons Ratio (y) = 0.20784 0.36487
# Poissons Ratio (z) = 0.53019 0.30555
#
# Static dielectric constant tensor:
#      x y z
#    x 3.386180 0.000000 0.000000 
#    y 0.000000 3.428700 0.000000 
#    z 0.000000 0.000000 3.376310 
# 
# 
# High freq. dielectric constant tensor:
#      x y z
#    x 1.722300 0.000000 0.000000 
#    y 0.000000 1.722260 0.000000 
#    z 0.000000 0.000000 1.699540 
# 
# From -- ./inp_files/10229.got.cif
#   From: 2010.03.12/outbox.cif.g09.slc.cpg/sg62_6_cif.got.tgz:10229.got - 2010.04.10 19:12:36.
