data_PCOD8251720
_publ_section_title
;
Structure prediction by ZEFSAII (Michael W. Deem and Ramdas Pophale) SiO2 
 PCOD8251720
Probable space group: P N M A
;
_chemical_formula_sum "Si O2"
_cell_formula_units_Z 64
_cell_length_a 15.393912
_cell_length_b 9.011226
_cell_length_c 23.625094
_cell_angle_alpha 90.000000
_cell_angle_beta 90.000000
_cell_angle_gamma 90.000000
_cell_volume 3277.226263
_symmetry_space_group_name_H-M "P N M A"
_symmetry_group_IT_number 62
_symmetry_cell_setting 'orthorhombic'
loop_
_space_group_symop_operation_xyz
x,y,z
1/2-x,-y,1/2+z
1/2+x,1/2-y,1/2-z
-x,1/2+y,-z
-x,-y,-z
1/2+x,y,1/2-z
1/2-x,1/2+y,1/2+z
x,1/2-y,z
loop_
_atom_site_type_symbol
_atom_site_label
_atom_site_fract_x
_atom_site_fract_y
_atom_site_fract_z
Si Si1 0.160587 0.074485 0.120028
Si Si2 0.330224 0.075474 0.877819
Si Si3 0.909892 0.080760 0.505864
Si Si4 0.906447 0.572883 0.000079
Si Si5 0.501076 0.076025 0.307888
Si Si6 0.341716 0.075731 0.389581
Si Si7 0.498576 0.923865 0.189079
Si Si8 0.853054 0.079465 0.381764
O O1 0.152624 0.250000 0.119073
O O2 0.257539 0.026526 0.138847
O O3 0.089970 0.011954 0.164565
O O4 0.140595 0.017709 0.056963
O O5 0.309273 0.250000 0.876330
O O6 0.406932 0.033094 0.834599
O O7 0.245624 0.982660 0.858977
O O8 0.356174 0.019753 0.940695
O O9 0.933433 0.250000 0.518452
O O10 0.853082 0.061538 0.449560
O O11 0.000000 0.000000 0.500000
O O12 0.914741 0.750000 0.003438
O O13 0.850259 0.513732 0.052169
O O14 0.000000 0.500000 0.000000
O O15 0.507624 0.250000 0.296279
O O16 0.422595 0.038015 0.349732
O O17 0.482990 0.996877 0.249236
O O18 0.335917 0.250000 0.401932
O O19 0.488272 0.750000 0.195546
O O20 0.425578 0.977590 0.145654
O O21 0.870754 0.250000 0.364550
#
# Coordination Sequence:
#
# PCOD8251720 Si02
#       8
#     8   8   8   8   8   8   8   8
#     4   9  19  38  62  86 117 154 193 237 287 345
#     4  10  22  40  60  86 122 158 190 240 305 354
#     4  10  19  34  58  87 120 155 191 231 292 355
#     4  11  20  36  62  91 126 159 192 239 296 355
#     4  10  22  42  62  82 114 154 201 246 288 349
#     4  11  23  39  61  91 120 155 202 245 291 354
#     4  11  24  41  60  84 117 153 195 248 302 349
#     4  10  20  36  62  89 114 154 196 233 287 351
#
# _framework density 19.52871
#
# number of rings (size 3 to 8) (size 9 to 14) (size 15 to 20)
#    0.000    1.750    2.500    1.875    0.000    5.500 
#    0.000    6.875    0.000    0.000    0.000    0.000 
#    0.000    0.000    0.000    0.000    0.000    0.000 
#
# Total GULP energy -793737.339849 kJ/mol
# GULP energy per Si atom -12402.145935 kJ/mol
# Density = 1.948426 g / cm^3
# Si number density = 19.528710 Si / 1000 Ang^3
#
#
#
# Elastic Constant Matrix: (Units=GPa)
#
#
# Indices 1 2 3 4 5 6 
#
# 1 113.1965 35.8766 6.9173 0.0000 0.0000 0.0000
# 2 35.8766 53.3460 28.7716 0.0000 0.0000 0.0000
# 3 6.9173 28.7716 71.2505 0.0000 0.0000 0.0000
# 4 0.0000 0.0000 0.0000 25.7058 0.0000 0.0000
# 5 0.0000 0.0000 0.0000 0.0000 14.4077 0.0000
# 6 0.0000 0.0000 0.0000 0.0000 0.0000 33.4294
#
#
#
# Elastic Compliance Matrix: (Units=1/GPa)
#
#
# Indices 1 2 3 4 5 6 
#
# 1 0.011588 -0.009188 0.002585 0.000000 0.000000 0.000000
# 2 -0.009188 0.031249 -0.011727 0.000000 0.000000 0.000000
# 3 0.002585 -0.011727 0.018519 0.000000 0.000000 0.000000
# 4 0.000000 0.000000 0.000000 0.038902 0.000000 0.000000
# 5 0.000000 0.000000 0.000000 0.000000 0.069407 0.000000
# 6 0.000000 0.000000 0.000000 0.000000 0.000000 0.029914
#
#
# Mechanical properties :
#
#
# Convention : Reuss Voigt Hill
#
# Bulk Modulus (GPa) = 40.48892 42.32489 41.40691
# Shear Modulus (GPa) = 20.45236 25.79041 23.12139
#
# Velocity S-wave (km/s) = 3.23971 3.63800 3.44462
# Velocity P-wave (km/s) = 5.89680 6.27431 6.08848
#
# Compressibility (1/GPa) = 0.02469811
#
# Stress axis : x y z
#
# Youngs Moduli (GPa) = 86.29518 32.00090 53.99744
#
# Poissons Ratio (x) = 0.29401 -0.13958
# Poissons Ratio (y) = 0.79284 0.63321
# Poissons Ratio (z) = -0.22307 0.37527
#
# Static dielectric constant tensor:
#      x y z
#    x 3.767720 0.000000 0.000000 
#    y 0.000000 3.246200 0.000000 
#    z 0.000000 0.000000 3.672870 
# 
# 
# High freq. dielectric constant tensor:
#      x y z
#    x 1.776730 0.000000 0.000000 
#    y 0.000000 1.744860 0.000000 
#    z 0.000000 0.000000 1.759710 
# 
# From -- ./inp_files/29898.got.cif
#   From: 2010.03.12/outbox.cif.g09.slc.cpg/sg62_15_cif.got.tgz:29898.got - 2010.04.10 19:12:36.
