data_PCOD8251875
_publ_section_title
;
Structure prediction by ZEFSAII (Michael W. Deem and Ramdas Pophale) SiO2 
 PCOD8251875
Probable space group: P N M A
;
_chemical_formula_sum "Si O2"
_cell_formula_units_Z 64
_cell_length_a 19.230229
_cell_length_b 9.067025
_cell_length_c 19.950315
_cell_angle_alpha 90.000000
_cell_angle_beta 90.000000
_cell_angle_gamma 90.000000
_cell_volume 3478.556217
_symmetry_space_group_name_H-M "P N M A"
_symmetry_group_IT_number 62
_symmetry_cell_setting 'orthorhombic'
loop_
_space_group_symop_operation_xyz
x,y,z
1/2-x,-y,1/2+z
1/2+x,1/2-y,1/2-z
-x,1/2+y,-z
-x,-y,-z
1/2+x,y,1/2-z
1/2-x,1/2+y,1/2+z
x,1/2-y,z
loop_
_atom_site_type_symbol
_atom_site_label
_atom_site_fract_x
_atom_site_fract_y
_atom_site_fract_z
Si Si1 0.936082 0.078089 0.831543
Si Si2 0.902194 0.076288 0.684177
Si Si3 0.753295 0.075795 0.718440
Si Si4 0.288685 0.419306 0.011830
Si Si5 0.531367 0.924422 0.564796
Si Si6 0.221977 0.922320 0.136748
Si Si7 0.938255 0.424946 0.539703
Si Si8 0.330052 0.919856 0.405818
O O1 0.952387 0.250000 0.844303
O O2 0.943733 0.039228 0.752567
O O3 0.859748 0.038070 0.859506
O O4 0.992080 0.978367 0.868986
O O5 0.894115 0.250000 0.676060
O O6 0.824870 0.006337 0.689515
O O7 0.940659 0.017874 0.617222
O O8 0.764928 0.250000 0.720875
O O9 0.740851 0.021155 0.794641
O O10 0.688405 0.036156 0.670936
O O11 0.291501 0.250000 0.032126
O O12 0.259267 0.502684 0.075355
O O13 0.365309 0.476221 0.992775
O O14 0.239122 0.444803 0.948564
O O15 0.524944 0.750000 0.557664
O O16 0.500000 0.000000 0.500000
O O17 0.611636 0.969567 0.568539
O O18 0.231819 0.750000 0.127226
O O19 0.947101 0.250000 0.535558
O O20 0.000000 0.500000 0.500000
O O21 0.355686 0.750000 0.410655
#
# Coordination Sequence:
#
# PCOD8251875 Si02
#       8
#     8   8   8   8   8   8   8   8
#     4   9  18  35  59  84 109 143 185 231 272 316
#     4   8  14  31  59  82 103 137 185 226 262 315
#     4   8  14  30  56  81 101 130 177 223 261 311
#     4  10  20  34  55  81 109 142 177 218 271 326
#     4  12  25  39  54  78 113 148 183 224 273 329
#     4   9  18  32  55  84 110 137 176 225 268 314
#     4  10  20  36  56  80 108 142 182 224 269 323
#     4  10  19  35  60  82 104 140 185 228 270 321
#
# _framework density 18.398437999999999
#
# number of rings (size 3 to 8) (size 9 to 14) (size 15 to 20)
#    0.000    2.500    1.250    3.375    0.000    3.500 
#    2.250    1.250    0.000    1.500    0.000    0.000 
#    0.000    0.000    0.000    0.000    0.000    0.000 
#
# Total GULP energy -793322.978970 kJ/mol
# GULP energy per Si atom -12395.671546 kJ/mol
# Density = 1.835656 g / cm^3
# Si number density = 18.398438 Si / 1000 Ang^3
#
#
#
# Elastic Constant Matrix: (Units=GPa)
#
#
# Indices 1 2 3 4 5 6 
#
# 1 89.5848 38.9630 37.9458 0.0000 0.0000 0.0000
# 2 38.9630 57.3839 34.4079 0.0000 0.0000 0.0000
# 3 37.9458 34.4079 109.3402 0.0000 0.0000 0.0000
# 4 0.0000 0.0000 0.0000 23.4343 0.0000 0.0000
# 5 0.0000 0.0000 0.0000 0.0000 26.1843 0.0000
# 6 0.0000 0.0000 0.0000 0.0000 0.0000 29.1444
#
#
#
# Elastic Compliance Matrix: (Units=1/GPa)
#
#
# Indices 1 2 3 4 5 6 
#
# 1 0.016466 -0.009557 -0.002707 0.000000 0.000000 0.000000
# 2 -0.009557 0.027026 -0.005188 0.000000 0.000000 0.000000
# 3 -0.002707 -0.005188 0.011718 0.000000 0.000000 0.000000
# 4 0.000000 0.000000 0.000000 0.042673 0.000000 0.000000
# 5 0.000000 0.000000 0.000000 0.000000 0.038191 0.000000
# 6 0.000000 0.000000 0.000000 0.000000 0.000000 0.034312
#
#
# Mechanical properties :
#
#
# Convention : Reuss Voigt Hill
#
# Bulk Modulus (GPa) = 49.24666 53.21581 51.23124
# Shear Modulus (GPa) = 23.57845 25.41875 24.49860
#
# Velocity S-wave (km/s) = 3.58375 3.72098 3.65301
# Velocity P-wave (km/s) = 6.62942 6.88824 6.76007
#
# Compressibility (1/GPa) = 0.02030595
#
# Stress axis : x y z
#
# Youngs Moduli (GPa) = 60.73193 37.00077 85.34014
#
# Poissons Ratio (x) = 0.35362 0.23101
# Poissons Ratio (y) = 0.58042 0.44276
# Poissons Ratio (z) = 0.16439 0.19197
#
# Static dielectric constant tensor:
#      x y z
#    x 3.317700 0.000000 0.000000 
#    y 0.000000 3.061760 0.000000 
#    z 0.000000 0.000000 3.794400 
# 
# 
# High freq. dielectric constant tensor:
#      x y z
#    x 1.704060 0.000000 0.000000 
#    y 0.000000 1.676830 0.000000 
#    z 0.000000 0.000000 1.733340 
# 
# From -- ./inp_files/27675.got.cif
#   From: 2010.03.12/outbox.cif.g09.slc.cpg/sg62_14_cif.got.tgz:27675.got - 2010.04.10 19:12:36.
