data_PCOD8251780
_publ_section_title
;
Structure prediction by ZEFSAII (Michael W. Deem and Ramdas Pophale) SiO2 
 PCOD8251780
Probable space group: P N M A
;
_chemical_formula_sum "Si O2"
_cell_formula_units_Z 32
_cell_length_a 9.053428
_cell_length_b 14.478729
_cell_length_c 13.706536
_cell_angle_alpha 90.000000
_cell_angle_beta 90.000000
_cell_angle_gamma 90.000000
_cell_volume 1796.681941
_symmetry_space_group_name_H-M "P N M A"
_symmetry_group_IT_number 62
_symmetry_cell_setting 'orthorhombic'
loop_
_space_group_symop_operation_xyz
x,y,z
1/2-x,-y,1/2+z
1/2+x,1/2-y,1/2-z
-x,1/2+y,-z
-x,-y,-z
1/2+x,y,1/2-z
1/2-x,1/2+y,1/2+z
x,1/2-y,z
loop_
_atom_site_type_symbol
_atom_site_label
_atom_site_fract_x
_atom_site_fract_y
_atom_site_fract_z
Si Si1 0.215132 0.018915 0.354699
Si Si2 0.100034 0.457847 0.687966
Si Si3 0.715544 0.643586 0.474049
Si Si4 0.092886 0.354548 0.874783
O O1 0.264527 0.107824 0.415936
O O2 0.287233 0.025794 0.246322
O O3 0.276053 0.924523 0.406874
O O4 0.038722 0.016746 0.348788
O O5 0.179138 0.414763 0.595391
O O6 0.045367 0.377092 0.762541
O O7 0.762329 0.750000 0.468690
O O8 0.545886 0.630086 0.444736
O O9 0.152029 0.250000 0.881220
#
# Coordination Sequence:
#
# PCOD8251780 Si02
#       4
#     8   8   8   8
#     4  10  21  35  56  84 112 144 180 225 274 322
#     4  10  19  35  57  78 112 138 183 225 275 312
#     4  11  21  36  57  84 111 143 183 226 269 323
#     4   9  18  33  56  82 108 139 177 223 270 316
#
# _framework density 17.81061
#
# number of rings (size 3 to 8) (size 9 to 14) (size 15 to 20)
#    1.500    0.500    2.500    2.250    0.000    2.000 
#    0.000    1.250    0.000    1.500    0.000    0.000 
#    0.000    0.000    0.000    0.000    0.000    0.000 
#
# Total GULP energy -396637.815670 kJ/mol
# GULP energy per Si atom -12394.931740 kJ/mol
# Density = 1.777007 g / cm^3
# Si number density = 17.810610 Si / 1000 Ang^3
#
#
#
# Elastic Constant Matrix: (Units=GPa)
#
#
# Indices 1 2 3 4 5 6 
#
# 1 70.0156 14.5774 26.2390 0.0000 0.0000 0.0000
# 2 14.5774 27.2662 32.5614 0.0000 0.0000 0.0000
# 3 26.2390 32.5614 69.8775 0.0000 0.0000 0.0000
# 4 0.0000 0.0000 0.0000 24.1885 0.0000 0.0000
# 5 0.0000 0.0000 0.0000 0.0000 19.8668 0.0000
# 6 0.0000 0.0000 0.0000 0.0000 0.0000 16.7088
#
#
#
# Elastic Compliance Matrix: (Units=1/GPa)
#
#
# Indices 1 2 3 4 5 6 
#
# 1 0.016749 -0.003256 -0.004772 0.000000 0.000000 0.000000
# 2 -0.003256 0.083323 -0.037604 0.000000 0.000000 0.000000
# 3 -0.004772 -0.037604 0.033625 0.000000 0.000000 0.000000
# 4 0.000000 0.000000 0.000000 0.041342 0.000000 0.000000
# 5 0.000000 0.000000 0.000000 0.000000 0.050335 0.000000
# 6 0.000000 0.000000 0.000000 0.000000 0.000000 0.059849
#
#
# Mechanical properties :
#
#
# Convention : Reuss Voigt Hill
#
# Bulk Modulus (GPa) = 23.56634 34.87942 29.22288
# Shear Modulus (GPa) = 12.79981 18.40493 15.60237
#
# Velocity S-wave (km/s) = 2.68370 3.21809 2.96297
# Velocity P-wave (km/s) = 4.78156 5.78223 5.30554
#
# Compressibility (1/GPa) = 0.04243340
#
# Stress axis : x y z
#
# Youngs Moduli (GPa) = 59.70595 12.00151 29.73945
#
# Poissons Ratio (x) = 0.03907 0.14192
# Poissons Ratio (y) = 0.19437 1.11833
# Poissons Ratio (z) = 0.28493 0.45131
#
# Static dielectric constant tensor:
#      x y z
#    x 3.162850 0.000000 0.000000 
#    y 0.000000 3.055350 0.000000 
#    z 0.000000 0.000000 3.160150 
# 
# 
# High freq. dielectric constant tensor:
#      x y z
#    x 1.691550 0.000000 0.000000 
#    y 0.000000 1.663200 0.000000 
#    z 0.000000 0.000000 1.677770 
# 
# From -- ./inp_files/10940.got.cif
#   From: 2010.03.12/outbox.cif.g09.slc.cpg/sg62_6_cif.got.tgz:10940.got - 2010.04.10 19:12:36.
