data_PCOD8251200
_publ_section_title
;
Structure prediction by ZEFSAII (Michael W. Deem and Ramdas Pophale) SiO2 
 PCOD8251200
Probable space group: P N M A
;
_chemical_formula_sum "Si O2"
_cell_formula_units_Z 64
_cell_length_a 15.163552
_cell_length_b 9.048845
_cell_length_c 24.669519
_cell_angle_alpha 90.000000
_cell_angle_beta 90.000000
_cell_angle_gamma 90.000000
_cell_volume 3384.969625
_symmetry_space_group_name_H-M "P N M A"
_symmetry_group_IT_number 62
_symmetry_cell_setting 'orthorhombic'
loop_
_space_group_symop_operation_xyz
x,y,z
1/2-x,-y,1/2+z
1/2+x,1/2-y,1/2-z
-x,1/2+y,-z
-x,-y,-z
1/2+x,y,1/2-z
1/2-x,1/2+y,1/2+z
x,1/2-y,z
loop_
_atom_site_type_symbol
_atom_site_label
_atom_site_fract_x
_atom_site_fract_y
_atom_site_fract_z
Si Si1 0.693472 0.080829 0.821846
Si Si2 0.620352 0.078397 0.539002
Si Si3 0.110112 0.921025 0.183191
Si Si4 0.045088 0.419013 0.387422
Si Si5 0.797986 0.924952 0.536097
Si Si6 0.491957 0.577538 0.219317
Si Si7 0.048381 0.078207 0.078576
Si Si8 0.645636 0.919755 0.928263
O O1 0.680146 0.250000 0.841438
O O2 0.789421 0.060813 0.794002
O O3 0.613229 0.039743 0.780449
O O4 0.690344 0.973516 0.873069
O O5 0.627320 0.250000 0.553199
O O6 0.606102 0.051294 0.475109
O O7 0.708372 0.996426 0.557701
O O8 0.542467 0.010208 0.574534
O O9 0.090641 0.750000 0.169517
O O10 0.040108 0.984635 0.226914
O O11 0.103194 0.016090 0.128818
O O12 0.057365 0.250000 0.369993
O O13 0.126768 0.477061 0.422454
O O14 0.039402 0.511978 0.332960
O O15 0.959278 0.438867 0.424731
O O16 0.788628 0.750000 0.533902
O O17 0.819274 0.981448 0.476520
O O18 0.509683 0.750000 0.217178
O O19 0.027245 0.250000 0.086741
O O20 0.673288 0.750000 0.938188
#
# Coordination Sequence:
#
# PCOD8251200 Si02
#       8
#     8   8   8   8   8   8   8   8
#     4   9  18  34  55  77 105 140 178 224 276 321
#     4  10  21  37  56  80 110 143 178 219 266 320
#     4  10  20  35  56  81 107 140 182 226 272 321
#     4   9  20  36  52  73 107 144 178 224 274 322
#     4  11  21  33  51  78 111 145 179 217 269 329
#     4   9  19  36  55  77 106 141 183 230 273 320
#     4  10  21  37  57  80 108 140 176 220 269 320
#     4  10  19  32  52  78 107 139 182 226 266 319
#
# _framework density 18.907112000000001
#
# number of rings (size 3 to 8) (size 9 to 14) (size 15 to 20)
#    0.000    2.250    0.000    2.625    0.000    6.000 
#    2.250    0.000    0.000    0.000    0.000    0.000 
#    0.000    0.000    0.000    0.000    0.000    0.000 
#
# Total GULP energy -793678.472194 kJ/mol
# GULP energy per Si atom -12401.226128 kJ/mol
# Density = 1.886408 g / cm^3
# Si number density = 18.907112 Si / 1000 Ang^3
#
#
#
# Elastic Constant Matrix: (Units=GPa)
#
#
# Indices 1 2 3 4 5 6 
#
# 1 127.3778 41.7642 45.9931 0.0000 0.0000 0.0000
# 2 41.7642 68.8644 20.4588 0.0000 0.0000 0.0000
# 3 45.9931 20.4588 51.2139 0.0000 0.0000 0.0000
# 4 0.0000 0.0000 0.0000 27.5437 0.0000 0.0000
# 5 0.0000 0.0000 0.0000 0.0000 23.4954 0.0000
# 6 0.0000 0.0000 0.0000 0.0000 0.0000 29.7722
#
#
#
# Elastic Compliance Matrix: (Units=1/GPa)
#
#
# Indices 1 2 3 4 5 6 
#
# 1 0.012977 -0.005002 -0.009656 0.000000 0.000000 0.000000
# 2 -0.005002 0.018404 -0.002860 0.000000 0.000000 0.000000
# 3 -0.009656 -0.002860 0.029341 0.000000 0.000000 0.000000
# 4 0.000000 0.000000 0.000000 0.036306 0.000000 0.000000
# 5 0.000000 0.000000 0.000000 0.000000 0.042561 0.000000
# 6 0.000000 0.000000 0.000000 0.000000 0.000000 0.033588
#
#
# Mechanical properties :
#
#
# Convention : Reuss Voigt Hill
#
# Bulk Modulus (GPa) = 38.93240 51.54316 45.23778
# Shear Modulus (GPa) = 23.06524 25.44493 24.25508
#
# Velocity S-wave (km/s) = 3.49653 3.67248 3.58558
# Velocity P-wave (km/s) = 6.07759 6.73077 6.41250
#
# Compressibility (1/GPa) = 0.02568555
#
# Stress axis : x y z
#
# Youngs Moduli (GPa) = 77.05823 54.33493 34.08251
#
# Poissons Ratio (x) = 0.27176 0.32911
# Poissons Ratio (y) = 0.38541 0.09749
# Poissons Ratio (z) = 0.74410 0.15542
#
# Static dielectric constant tensor:
#      x y z
#    x 3.735790 0.000000 0.000000 
#    y 0.000000 3.482550 0.000000 
#    z 0.000000 0.000000 3.263950 
# 
# 
# High freq. dielectric constant tensor:
#      x y z
#    x 1.749400 0.000000 0.000000 
#    y 0.000000 1.737960 0.000000 
#    z 0.000000 0.000000 1.709870 
# 
# From -- ./inp_files/29866.got.cif
#   From: 2010.03.12/outbox.cif.g09.slc.cpg/sg62_15_cif.got.tgz:29866.got - 2010.04.10 19:12:36.
