data_PCOD8251748
_publ_section_title
;
Structure prediction by ZEFSAII (Michael W. Deem and Ramdas Pophale) SiO2 
 PCOD8251748
Probable space group: P N M A
;
_chemical_formula_sum "Si O2"
_cell_formula_units_Z 64
_cell_length_a 12.604583
_cell_length_b 17.433118
_cell_length_c 14.523904
_cell_angle_alpha 90.000000
_cell_angle_beta 90.000000
_cell_angle_gamma 90.000000
_cell_volume 3191.441748
_symmetry_space_group_name_H-M "P N M A"
_symmetry_group_IT_number 62
_symmetry_cell_setting 'orthorhombic'
loop_
_space_group_symop_operation_xyz
x,y,z
1/2-x,-y,1/2+z
1/2+x,1/2-y,1/2-z
-x,1/2+y,-z
-x,-y,-z
1/2+x,y,1/2-z
1/2-x,1/2+y,1/2+z
x,1/2-y,z
loop_
_atom_site_type_symbol
_atom_site_label
_atom_site_fract_x
_atom_site_fract_y
_atom_site_fract_z
Si Si1 0.206342 0.836962 0.660014
Si Si2 0.604261 0.960120 0.727150
Si Si3 0.028109 0.162590 0.928026
Si Si4 0.906984 0.575689 0.892978
Si Si5 0.719388 0.404450 0.661350
Si Si6 0.817880 0.091911 0.858683
Si Si7 0.390275 0.403988 0.987911
Si Si8 0.599796 0.442549 0.911521
O O1 0.200740 0.750000 0.691560
O O2 0.175121 0.887549 0.747304
O O3 0.325328 0.856902 0.630322
O O4 0.121351 0.852135 0.578598
O O5 0.497736 0.927805 0.683253
O O6 0.673061 0.009081 0.654521
O O7 0.579038 0.016078 0.813313
O O8 0.033345 0.250000 0.965101
O O9 0.116222 0.151410 0.847246
O O10 0.910951 0.149475 0.886353
O O11 0.045718 0.098318 0.007289
O O12 0.845887 0.494973 0.888808
O O13 0.793149 0.395839 0.750884
O O14 0.790887 0.383541 0.574868
O O15 0.706079 0.109468 0.909490
O O16 0.501543 0.386784 0.936489
O O17 0.386443 0.494155 0.009509
#
# Coordination Sequence:
#
# PCOD8251748 Si02
#       8
#     8   8   8   8   8   8   8   8
#     4  11  23  41  59  92 133 166 209 259 327 390
#     4  10  22  37  64  94 120 162 213 263 316 374
#     4  12  27  42  63  97 135 171 213 272 336 383
#     4  12  21  41  68  95 125 170 214 270 319 389
#     4  11  21  37  66  92 121 161 214 264 311 376
#     4  11  22  40  66  95 124 165 222 265 314 384
#     4  10  19  34  61  89 121 157 203 254 313 369
#     4   9  19  36  59  95 119 157 206 265 308 368
#
# _framework density 20.053632
#
# number of rings (size 3 to 8) (size 9 to 14) (size 15 to 20)
#    0.000    1.250    6.250    1.500    3.500    1.500 
#    0.000    0.625    0.000    0.000    0.000    0.000 
#    0.000    0.000    0.000    0.000    0.000    0.000 
#
# Total GULP energy -793353.337770 kJ/mol
# GULP energy per Si atom -12396.145903 kJ/mol
# Density = 2.000799 g / cm^3
# Si number density = 20.053632 Si / 1000 Ang^3
#
#
#
# Elastic Constant Matrix: (Units=GPa)
#
#
# Indices 1 2 3 4 5 6 
#
# 1 136.7971 30.3013 41.5633 0.0000 0.0000 0.0000
# 2 30.3013 73.6437 16.2337 0.0000 0.0000 0.0000
# 3 41.5633 16.2337 61.9349 0.0000 0.0000 0.0000
# 4 0.0000 0.0000 0.0000 18.3791 0.0000 0.0000
# 5 0.0000 0.0000 0.0000 0.0000 39.5144 0.0000
# 6 0.0000 0.0000 0.0000 0.0000 0.0000 22.2031
#
#
#
# Elastic Compliance Matrix: (Units=1/GPa)
#
#
# Indices 1 2 3 4 5 6 
#
# 1 0.009664 -0.002703 -0.005777 0.000000 0.000000 0.000000
# 2 -0.002703 0.015168 -0.002162 0.000000 0.000000 0.000000
# 3 -0.005777 -0.002162 0.020589 0.000000 0.000000 0.000000
# 4 0.000000 0.000000 0.000000 0.054410 0.000000 0.000000
# 5 0.000000 0.000000 0.000000 0.000000 0.025307 0.000000
# 6 0.000000 0.000000 0.000000 0.000000 0.000000 0.045039
#
#
# Mechanical properties :
#
#
# Convention : Reuss Voigt Hill
#
# Bulk Modulus (GPa) = 41.42852 49.84136 45.63494
# Shear Modulus (GPa) = 25.06199 28.30448 26.68323
#
# Velocity S-wave (km/s) = 3.53901 3.76099 3.65169
# Velocity P-wave (km/s) = 6.11581 6.61574 6.37068
#
# Compressibility (1/GPa) = 0.02413796
#
# Stress axis : x y z
#
# Youngs Moduli (GPa) = 103.47678 65.93028 48.56888
#
# Poissons Ratio (x) = 0.17820 0.28058
# Poissons Ratio (y) = 0.27969 0.10499
# Poissons Ratio (z) = 0.59777 0.14252
#
# Static dielectric constant tensor:
#      x y z
#    x 4.065360 0.000000 0.000000 
#    y 0.000000 3.308090 0.000000 
#    z 0.000000 0.000000 3.632640 
# 
# 
# High freq. dielectric constant tensor:
#      x y z
#    x 1.804410 0.000000 0.000000 
#    y 0.000000 1.745300 0.000000 
#    z 0.000000 0.000000 1.777390 
# 
# From -- ./inp_files/18267.got.cif
#   From: 2010.03.12/outbox.cif.g09.slc.cpg/sg62_10_cif.got.tgz:18267.got - 2010.04.10 19:12:36.
