data_PCOD8251572
_publ_section_title
;
Structure prediction by ZEFSAII (Michael W. Deem and Ramdas Pophale) SiO2 
 PCOD8251572
Probable space group: P N M A
;
_chemical_formula_sum "Si O2"
_cell_formula_units_Z 64
_cell_length_a 12.201649
_cell_length_b 27.824463
_cell_length_c 8.613959
_cell_angle_alpha 90.000000
_cell_angle_beta 90.000000
_cell_angle_gamma 90.000000
_cell_volume 2924.476389
_symmetry_space_group_name_H-M "P N M A"
_symmetry_group_IT_number 62
_symmetry_cell_setting 'orthorhombic'
loop_
_space_group_symop_operation_xyz
x,y,z
1/2-x,-y,1/2+z
1/2+x,1/2-y,1/2-z
-x,1/2+y,-z
-x,-y,-z
1/2+x,y,1/2-z
1/2-x,1/2+y,1/2+z
x,1/2-y,z
loop_
_atom_site_type_symbol
_atom_site_label
_atom_site_fract_x
_atom_site_fract_y
_atom_site_fract_z
Si Si1 0.285511 0.196132 0.141967
Si Si2 0.132659 0.854022 0.936224
Si Si3 0.784344 0.877889 0.286827
Si Si4 0.016695 0.931702 0.724177
Si Si5 0.585782 0.306312 0.564277
Si Si6 0.806241 0.956711 0.873933
Si Si7 0.133527 0.888762 0.481441
Si Si8 0.854261 0.522559 0.217457
O O1 0.321575 0.250000 0.112824
O O2 0.311452 0.183304 0.318773
O O3 0.363542 0.167237 0.023875
O O4 0.157894 0.188117 0.093095
O O5 0.090862 0.901310 0.846318
O O6 0.236123 0.865303 0.046792
O O7 0.033371 0.829184 0.032146
O O8 0.851074 0.834297 0.204949
O O9 0.866352 0.923743 0.288705
O O10 0.673805 0.895443 0.193189
O O11 0.019464 0.911273 0.544506
O O12 0.892251 0.927231 0.772664
O O13 0.047939 0.988281 0.725437
O O14 0.573707 0.250000 0.610921
O O15 0.714609 0.917014 0.901442
O O16 0.761629 0.001345 0.774900
O O17 0.859311 0.976126 0.031697
#
# Coordination Sequence:
#
# PCOD8251572 Si02
#       8
#     8   8   8   8   8   8   8   8
#     4   9  18  35  60  86 112 146 193 246 293 348
#     4  11  21  37  63  92 117 153 200 248 300 354
#     4  10  21  38  56  83 123 154 189 240 292 350
#     4  10  19  34  57  80 110 153 196 241 292 346
#     4  10  22  41  62  85 118 157 194 240 300 358
#     4  10  19  34  53  76 111 146 188 241 289 343
#     4   8  18  35  52  77 110 148 186 227 285 350
#     4  10  20  34  53  81 111 147 192 235 287 351
#
# _framework density 21.884259
#
# number of rings (size 3 to 8) (size 9 to 14) (size 15 to 20)
#    0.000    2.250    0.000    3.750    0.000    2.000 
#    0.000   15.625    0.000    0.000    0.000    0.000 
#    0.000    0.000    0.000    0.000    0.000    0.000 
#
# Total GULP energy -792963.266201 kJ/mol
# GULP energy per Si atom -12390.051034 kJ/mol
# Density = 2.183445 g / cm^3
# Si number density = 21.884259 Si / 1000 Ang^3
#
#
#
# Elastic Constant Matrix: (Units=GPa)
#
#
# Indices 1 2 3 4 5 6 
#
# 1 37.1711 8.0586 -1.9102 0.0000 0.0000 0.0000
# 2 8.0586 117.0053 8.9711 0.0000 0.0000 0.0000
# 3 -1.9102 8.9711 26.3392 0.0000 0.0000 0.0000
# 4 0.0000 0.0000 0.0000 27.4429 0.0000 0.0000
# 5 0.0000 0.0000 0.0000 0.0000 20.3541 0.0000
# 6 0.0000 0.0000 0.0000 0.0000 0.0000 26.1684
#
#
#
# Elastic Compliance Matrix: (Units=1/GPa)
#
#
# Indices 1 2 3 4 5 6 
#
# 1 0.027498 -0.002102 0.002710 0.000000 0.000000 0.000000
# 2 -0.002102 0.008936 -0.003196 0.000000 0.000000 0.000000
# 3 0.002710 -0.003196 0.039251 0.000000 0.000000 0.000000
# 4 0.000000 0.000000 0.000000 0.036439 0.000000 0.000000
# 5 0.000000 0.000000 0.000000 0.000000 0.049130 0.000000
# 6 0.000000 0.000000 0.000000 0.000000 0.000000 0.038214
#
#
# Mechanical properties :
#
#
# Convention : Reuss Voigt Hill
#
# Bulk Modulus (GPa) = 14.18242 23.41716 18.79979
# Shear Modulus (GPa) = 21.91563 25.81948 23.86756
#
# Velocity S-wave (km/s) = 3.16798 3.43858 3.30605
# Velocity P-wave (km/s) = 4.45827 5.14672 4.81482
#
# Compressibility (1/GPa) = 0.07050981
#
# Stress axis : x y z
#
# Youngs Moduli (GPa) = 36.36690 111.90161 25.47681
#
# Poissons Ratio (x) = 0.23518 -0.06904
# Poissons Ratio (y) = 0.07643 0.08143
# Poissons Ratio (z) = -0.09855 0.35765
#
# Static dielectric constant tensor:
#      x y z
#    x 3.831140 0.000000 0.000000 
#    y 0.000000 4.142100 0.000000 
#    z 0.000000 0.000000 3.895190 
# 
# 
# High freq. dielectric constant tensor:
#      x y z
#    x 1.844010 0.000000 0.000000 
#    y 0.000000 1.871130 0.000000 
#    z 0.000000 0.000000 1.852350 
# 
# From -- ./inp_files/5527.got.cif
#   From: 2010.03.12/outbox.cif.g09.slc.cpg/sg62_3_cif.got.tgz:5527.got - 2010.04.10 19:12:36.
