data_PCOD8251908
_publ_section_title
;
Structure prediction by ZEFSAII (Michael W. Deem and Ramdas Pophale) SiO2 
 PCOD8251908
Probable space group: P N M A
;
_chemical_formula_sum "Si O2"
_cell_formula_units_Z 64
_cell_length_a 16.191752
_cell_length_b 8.597582
_cell_length_c 22.617140
_cell_angle_alpha 90.000000
_cell_angle_beta 90.000000
_cell_angle_gamma 90.000000
_cell_volume 3148.530149
_symmetry_space_group_name_H-M "P N M A"
_symmetry_group_IT_number 62
_symmetry_cell_setting 'orthorhombic'
loop_
_space_group_symop_operation_xyz
x,y,z
1/2-x,-y,1/2+z
1/2+x,1/2-y,1/2-z
-x,1/2+y,-z
-x,-y,-z
1/2+x,y,1/2-z
1/2-x,1/2+y,1/2+z
x,1/2-y,z
loop_
_atom_site_type_symbol
_atom_site_label
_atom_site_fract_x
_atom_site_fract_y
_atom_site_fract_z
Si Si1 0.929039 0.066436 0.457558
Si Si2 0.812446 0.574181 0.843090
Si Si3 0.249418 0.931483 0.042300
Si Si4 0.178340 0.924288 0.746314
Si Si5 0.386921 0.422889 0.359750
Si Si6 0.587603 0.429639 0.520239
Si Si7 0.456976 0.571110 0.170318
Si Si8 0.038424 0.425237 0.225901
O O1 0.926609 0.250000 0.464652
O O2 0.837561 0.004712 0.476474
O O3 0.951684 0.025053 0.390281
O O4 0.000000 0.000000 0.500000
O O5 0.817519 0.750000 0.870023
O O6 0.765792 0.463311 0.888756
O O7 0.768938 0.573071 0.779929
O O8 0.901351 0.504472 0.824892
O O9 0.255471 0.750000 0.029545
O O10 0.169038 0.996250 0.008386
O O11 0.139502 0.750000 0.738277
O O12 0.191679 0.960854 0.817411
O O13 0.125208 0.046956 0.708653
O O14 0.384346 0.250000 0.389021
O O15 0.403271 0.549813 0.409433
O O16 0.451215 0.431434 0.305957
O O17 0.500000 0.500000 0.500000
O O18 0.585431 0.250000 0.503419
O O19 0.467449 0.750000 0.152892
O O20 0.534185 0.517442 0.211763
O O21 0.067820 0.250000 0.239701
#
# Coordination Sequence:
#
# PCOD8251908 Si02
#       8
#     8   8   8   8   8   8   8   8
#     4  12  25  45  69  93 124 166 217 271 327 385
#     4  10  19  35  61  91 121 158 203 252 308 371
#     4  12  25  42  66  97 129 170 219 269 322 385
#     4   9  18  34  59  85 116 156 194 243 304 364
#     4   9  18  35  56  82 119 161 202 248 306 373
#     4  12  25  42  64  92 128 173 217 269 325 385
#     4  11  21  36  59  88 121 159 202 251 308 370
#     4   9  19  35  58  88 122 160 201 248 308 372
#
# _framework density 20.326944000000001
#
# number of rings (size 3 to 8) (size 9 to 14) (size 15 to 20)
#    0.000    1.500    1.250    6.000    0.000    3.500 
#    2.250    0.000    0.000    0.000    0.000    0.000 
#    0.000    0.000    0.000    0.000    0.000    0.000 
#
# Total GULP energy -792936.002831 kJ/mol
# GULP energy per Si atom -12389.625044 kJ/mol
# Density = 2.028068 g / cm^3
# Si number density = 20.326944 Si / 1000 Ang^3
#
#
#
# Elastic Constant Matrix: (Units=GPa)
#
#
# Indices 1 2 3 4 5 6 
#
# 1 108.9881 49.6302 45.3044 0.0000 0.0000 0.0000
# 2 49.6302 133.5268 39.6961 0.0000 0.0000 0.0000
# 3 45.3044 39.6961 109.2571 0.0000 0.0000 0.0000
# 4 0.0000 0.0000 0.0000 33.9967 0.0000 0.0000
# 5 0.0000 0.0000 0.0000 0.0000 31.5318 0.0000
# 6 0.0000 0.0000 0.0000 0.0000 0.0000 26.9902
#
#
#
# Elastic Compliance Matrix: (Units=1/GPa)
#
#
# Indices 1 2 3 4 5 6 
#
# 1 0.012351 -0.003440 -0.003872 0.000000 0.000000 0.000000
# 2 -0.003440 0.009354 -0.001972 0.000000 0.000000 0.000000
# 3 -0.003872 -0.001972 0.011475 0.000000 0.000000 0.000000
# 4 0.000000 0.000000 0.000000 0.029415 0.000000 0.000000
# 5 0.000000 0.000000 0.000000 0.000000 0.031714 0.000000
# 6 0.000000 0.000000 0.000000 0.000000 0.000000 0.037050
#
#
# Mechanical properties :
#
#
# Convention : Reuss Voigt Hill
#
# Bulk Modulus (GPa) = 68.43506 69.00370 68.71938
# Shear Modulus (GPa) = 32.30037 32.97984 32.64010
#
# Velocity S-wave (km/s) = 3.99060 4.03236 4.01154
# Velocity P-wave (km/s) = 7.41441 7.46328 7.43888
#
# Compressibility (1/GPa) = 0.01461239
#
# Stress axis : x y z
#
# Youngs Moduli (GPa) = 80.96460 106.90664 87.14788
#
# Poissons Ratio (x) = 0.36773 0.33741
# Poissons Ratio (y) = 0.27849 0.17188
# Poissons Ratio (z) = 0.31347 0.21085
#
# Static dielectric constant tensor:
#      x y z
#    x 3.830330 0.000000 0.000000 
#    y 0.000000 3.674230 0.000000 
#    z 0.000000 0.000000 3.830020 
# 
# 
# High freq. dielectric constant tensor:
#      x y z
#    x 1.792810 0.000000 0.000000 
#    y 0.000000 1.784790 0.000000 
#    z 0.000000 0.000000 1.798510 
# 
# From -- ./inp_files/27752.got.cif
#   From: 2010.03.12/outbox.cif.g09.slc.cpg/sg62_14_cif.got.tgz:27752.got - 2010.04.10 19:12:36.
