data_PCOD8251297
_publ_section_title
;
Structure prediction by ZEFSAII (Michael W. Deem and Ramdas Pophale) SiO2 
 PCOD8251297
Probable space group: P N M A
;
_chemical_formula_sum "Si O2"
_cell_formula_units_Z 48
_cell_length_a 28.851314
_cell_length_b 9.237213
_cell_length_c 10.181581
_cell_angle_alpha 90.000000
_cell_angle_beta 90.000000
_cell_angle_gamma 90.000000
_cell_volume 2713.449705
_symmetry_space_group_name_H-M "P N M A"
_symmetry_group_IT_number 62
_symmetry_cell_setting 'orthorhombic'
loop_
_space_group_symop_operation_xyz
x,y,z
1/2-x,-y,1/2+z
1/2+x,1/2-y,1/2-z
-x,1/2+y,-z
-x,-y,-z
1/2+x,y,1/2-z
1/2-x,1/2+y,1/2+z
x,1/2-y,z
loop_
_atom_site_type_symbol
_atom_site_label
_atom_site_fract_x
_atom_site_fract_y
_atom_site_fract_z
Si Si1 0.216564 0.079243 0.512738
Si Si2 0.113829 0.085431 0.244078
Si Si3 0.875873 0.082443 0.497127
Si Si4 0.026800 0.582947 0.611809
Si Si5 0.781909 0.915400 0.791172
Si Si6 0.481388 0.916882 0.623063
O O1 0.211751 0.250000 0.531529
O O2 0.228301 0.041644 0.360755
O O3 0.168191 0.006496 0.554696
O O4 0.255813 0.020632 0.609416
O O5 0.110238 0.250000 0.299325
O O6 0.163766 0.063176 0.177062
O O7 0.073735 0.055624 0.138123
O O8 0.106763 0.975163 0.362891
O O9 0.861942 0.250000 0.510918
O O10 0.917831 0.060340 0.395013
O O11 0.013262 0.750000 0.595342
O O12 0.000000 0.500000 0.500000
O O13 0.008966 0.523532 0.750772
O O14 0.766436 0.750000 0.816544
O O15 0.492585 0.750000 0.600961
O O16 0.500000 0.000000 0.500000
#
# Coordination Sequence:
#
# PCOD8251297 Si02
#       6
#     8   8   8   8   8   8
#     4  10  21  37  57  81 109 143 178 219 271 322
#     4   9  18  35  57  78 108 145 181 220 268 321
#     4  10  19  32  55  84 109 137 178 224 268 317
#     4  10  20  34  56  82 108 139 178 223 266 312
#     4   9  19  36  57  80 107 138 177 223 267 318
#     4  10  21  37  54  77 112 147 180 222 268 319
#
# _framework density 17.68966
#
# number of rings (size 3 to 8) (size 9 to 14) (size 15 to 20)
#    0.000    2.333    1.667    2.000    0.000    5.333 
#    3.000    0.000    0.000    0.000    0.000    0.000 
#    0.000    0.000    0.000    0.000    0.000    0.000 
#
# Total GULP energy -595200.414022 kJ/mol
# GULP energy per Si atom -12400.008625 kJ/mol
# Density = 1.764940 g / cm^3
# Si number density = 17.689660 Si / 1000 Ang^3
#
#
#
# Elastic Constant Matrix: (Units=GPa)
#
#
# Indices 1 2 3 4 5 6 
#
# 1 128.6190 63.2357 77.7916 0.0000 0.0000 0.0000
# 2 63.2357 88.5198 60.7325 0.0000 0.0000 0.0000
# 3 77.7916 60.7325 120.7015 0.0000 0.0000 0.0000
# 4 0.0000 0.0000 0.0000 33.4366 0.0000 0.0000
# 5 0.0000 0.0000 0.0000 0.0000 30.6855 0.0000
# 6 0.0000 0.0000 0.0000 0.0000 0.0000 31.5584
#
#
#
# Elastic Compliance Matrix: (Units=1/GPa)
#
#
# Indices 1 2 3 4 5 6 
#
# 1 0.014606 -0.006071 -0.006358 0.000000 0.000000 0.000000
# 2 -0.006071 0.019777 -0.006038 0.000000 0.000000 0.000000
# 3 -0.006358 -0.006038 0.015421 0.000000 0.000000 0.000000
# 4 0.000000 0.000000 0.000000 0.029907 0.000000 0.000000
# 5 0.000000 0.000000 0.000000 0.000000 0.032589 0.000000
# 6 0.000000 0.000000 0.000000 0.000000 0.000000 0.031687
#
#
# Mechanical properties :
#
#
# Convention : Reuss Voigt Hill
#
# Bulk Modulus (GPa) = 77.71298 82.37333 80.04315
# Shear Modulus (GPa) = 26.99626 28.20814 27.60220
#
# Velocity S-wave (km/s) = 3.91078 3.99759 3.95442
# Velocity P-wave (km/s) = 8.02614 8.24467 8.13614
#
# Compressibility (1/GPa) = 0.01286786
#
# Stress axis : x y z
#
# Youngs Moduli (GPa) = 68.46710 50.56473 64.84719
#
# Poissons Ratio (x) = 0.30700 0.41232
# Poissons Ratio (y) = 0.41569 0.39154
# Poissons Ratio (z) = 0.43534 0.30531
#
# Static dielectric constant tensor:
#      x y z
#    x 3.800870 0.000000 0.000000 
#    y 0.000000 3.320880 0.000000 
#    z 0.000000 0.000000 3.445680 
# 
# 
# High freq. dielectric constant tensor:
#      x y z
#    x 1.696010 0.000000 0.000000 
#    y 0.000000 1.689130 0.000000 
#    z 0.000000 0.000000 1.663060 
# 
# From -- ./inp_files/10256.got.cif
#   From: 2010.03.12/outbox.cif.g09.slc.cpg/sg62_6_cif.got.tgz:10256.got - 2010.04.10 19:12:36.
