data_PCOD8251991
_publ_section_title
;
Structure prediction by ZEFSAII (Michael W. Deem and Ramdas Pophale) SiO2 
 PCOD8251991
Probable space group: P N M A
;
_chemical_formula_sum "Si O2"
_cell_formula_units_Z 40
_cell_length_a 10.217757
_cell_length_b 7.701282
_cell_length_c 27.354301
_cell_angle_alpha 90.000000
_cell_angle_beta 90.000000
_cell_angle_gamma 90.000000
_cell_volume 2152.505243
_symmetry_space_group_name_H-M "P N M A"
_symmetry_group_IT_number 62
_symmetry_cell_setting 'orthorhombic'
loop_
_space_group_symop_operation_xyz
x,y,z
1/2-x,-y,1/2+z
1/2+x,1/2-y,1/2-z
-x,1/2+y,-z
-x,-y,-z
1/2+x,y,1/2-z
1/2-x,1/2+y,1/2+z
x,1/2-y,z
loop_
_atom_site_type_symbol
_atom_site_label
_atom_site_fract_x
_atom_site_fract_y
_atom_site_fract_z
Si Si1 0.294722 0.750000 0.297307
Si Si2 0.880948 0.953985 0.465395
Si Si3 0.984712 0.058011 0.365133
Si Si4 0.988227 0.750000 0.293209
Si Si5 0.213934 0.550236 0.871765
Si Si6 0.364000 0.047105 0.476409
O O1 0.142951 0.750000 0.279447
O O2 0.397252 0.750000 0.253760
O O3 0.325987 0.575779 0.327700
O O4 0.872041 0.750000 0.457287
O O5 0.750605 0.033616 0.490239
O O6 0.893211 0.040572 0.412376
O O7 0.000000 0.000000 0.500000
O O8 0.964703 0.250000 0.342514
O O9 0.132760 0.031437 0.383183
O O10 0.948905 0.919874 0.323784
O O11 0.177023 0.750000 0.858321
O O12 0.140902 0.480778 0.920464
O O13 0.339290 0.250000 0.474276
O O14 0.500000 0.000000 0.500000
#
# Coordination Sequence:
#
# PCOD8251991 Si02
#       6
#     4   8   8   4   8   8
#     4  10  22  40  66  82 108 154 188 246 299 336
#     4  11  20  33  56  87 118 152 195 238 282 344
#     4  10  19  36  60  85 114 149 190 244 287 340
#     4  10  22  42  60  88 112 144 200 242 295 348
#     4   9  19  37  58  83 114 150 196 229 281 356
#     4  10  22  36  52  82 122 158 192 235 283 350
#
# _framework density 18.582998
#
# number of rings (size 3 to 8) (size 9 to 14) (size 15 to 20)
#    0.000    2.000    3.000    0.600    1.400    2.400 
#    3.600    0.000    0.000    0.000    0.000    0.000 
#    0.000    0.000    0.000    0.000    0.000    0.000 
#
# Total GULP energy -495969.817474 kJ/mol
# GULP energy per Si atom -12399.245437 kJ/mol
# Density = 1.854070 g / cm^3
# Si number density = 18.582998 Si / 1000 Ang^3
#
#
#
# Elastic Constant Matrix: (Units=GPa)
#
#
# Indices 1 2 3 4 5 6 
#
# 1 113.1818 32.5520 79.7516 0.0000 0.0000 0.0000
# 2 32.5520 108.9342 66.1943 0.0000 0.0000 0.0000
# 3 79.7516 66.1943 157.4123 0.0000 0.0000 0.0000
# 4 0.0000 0.0000 0.0000 23.0758 0.0000 0.0000
# 5 0.0000 0.0000 0.0000 0.0000 40.0296 0.0000
# 6 0.0000 0.0000 0.0000 0.0000 0.0000 22.1019
#
#
#
# Elastic Compliance Matrix: (Units=1/GPa)
#
#
# Indices 1 2 3 4 5 6 
#
# 1 0.013743 0.000167 -0.007033 0.000000 0.000000 0.000000
# 2 0.000167 0.012333 -0.005271 0.000000 0.000000 0.000000
# 3 -0.007033 -0.005271 0.012132 0.000000 0.000000 0.000000
# 4 0.000000 0.000000 0.000000 0.043335 0.000000 0.000000
# 5 0.000000 0.000000 0.000000 0.000000 0.024982 0.000000
# 6 0.000000 0.000000 0.000000 0.000000 0.000000 0.045245
#
#
# Mechanical properties :
#
#
# Convention : Reuss Voigt Hill
#
# Bulk Modulus (GPa) = 71.76382 81.83600 76.79991
# Shear Modulus (GPa) = 27.67199 30.44349 29.05774
#
# Velocity S-wave (km/s) = 3.86308 4.05191 3.95862
# Velocity P-wave (km/s) = 7.65504 8.12554 7.89380
#
# Compressibility (1/GPa) = 0.01393460
#
# Stress axis : x y z
#
# Youngs Moduli (GPa) = 72.76436 81.08513 82.42452
#
# Poissons Ratio (x) = -0.01353 0.57969
# Poissons Ratio (y) = -0.01214 0.43443
# Poissons Ratio (z) = 0.51175 0.42737
#
# Static dielectric constant tensor:
#      x y z
#    x 3.212670 0.000000 0.000000 
#    y 0.000000 3.728020 0.000000 
#    z 0.000000 0.000000 3.387790 
# 
# 
# High freq. dielectric constant tensor:
#      x y z
#    x 1.702550 0.000000 0.000000 
#    y 0.000000 1.734410 0.000000 
#    z 0.000000 0.000000 1.712690 
# 
# From -- ./inp_files/28632.got.cif
#   From: 2010.03.12/outbox.cif.g09.slc.cpg/sg62_15_cif.got.tgz:28632.got - 2010.04.10 19:12:36.
