data_PCOD8251573
_publ_section_title
;
Structure prediction by ZEFSAII (Michael W. Deem and Ramdas Pophale) SiO2 
 PCOD8251573
Probable space group: P N M A
;
_chemical_formula_sum "Si O2"
_cell_formula_units_Z 64
_cell_length_a 12.386198
_cell_length_b 15.129617
_cell_length_c 17.394587
_cell_angle_alpha 90.000000
_cell_angle_beta 90.000000
_cell_angle_gamma 90.000000
_cell_volume 3259.718326
_symmetry_space_group_name_H-M "P N M A"
_symmetry_group_IT_number 62
_symmetry_cell_setting 'orthorhombic'
loop_
_space_group_symop_operation_xyz
x,y,z
1/2-x,-y,1/2+z
1/2+x,1/2-y,1/2-z
-x,1/2+y,-z
-x,-y,-z
1/2+x,y,1/2-z
1/2-x,1/2+y,1/2+z
x,1/2-y,z
loop_
_atom_site_type_symbol
_atom_site_label
_atom_site_fract_x
_atom_site_fract_y
_atom_site_fract_z
Si Si1 0.759977 0.413002 0.825664
Si Si2 0.520962 0.415222 0.052836
Si Si3 0.893703 0.150085 0.695672
Si Si4 0.257379 0.851165 0.011481
Si Si5 0.136971 0.471499 0.988506
Si Si6 0.048564 0.506584 0.709444
Si Si7 0.517339 0.497477 0.369112
Si Si8 0.328050 0.347782 0.972596
O O1 0.786873 0.356134 0.749696
O O2 0.713152 0.356840 0.897224
O O3 0.675683 0.491845 0.806287
O O4 0.876160 0.448658 0.849765
O O5 0.508345 0.436947 0.143154
O O6 0.500000 0.500000 0.000000
O O7 0.637514 0.373505 0.039117
O O8 0.430612 0.344166 0.029205
O O9 0.936773 0.250000 0.695011
O O10 0.861251 0.117842 0.611204
O O11 0.994189 0.089779 0.721250
O O12 0.220450 0.750000 0.993285
O O13 0.165580 0.922977 0.990620
O O14 0.243987 0.417022 0.006158
O O15 0.084183 0.446917 0.905371
O O16 0.052990 0.440203 0.055812
O O17 0.026861 0.553786 0.792868
O O18 0.277271 0.250000 0.968084
#
# Coordination Sequence:
#
# PCOD8251573 Si02
#       8
#     8   8   8   8   8   8   8   8
#     4  10  19  34  53  81 115 145 182 226 285 349
#     4  12  19  35  55  82 115 151 188 235 265 324
#     4  10  20  31  47  80 117 143 177 226 280 349
#     4  11  21  34  58  85 114 153 189 229 283 335
#     4  10  19  40  58  80 114 145 192 230 282 337
#     4  11  20  34  56  79 109 148 188 227 287 333
#     4   9  21  36  59  83 108 148 187 237 279 338
#     4  11  21  35  57  83 113 152 189 230 283 334
#
# _framework density 19.633600000000001
#
# number of rings (size 3 to 8) (size 9 to 14) (size 15 to 20)
#    0.000    1.500    3.750    2.250    0.000    3.000 
#    0.000    9.375    0.000    4.500    0.000    0.000 
#    0.000    0.000    0.000    0.000    0.000    0.000 
#
# Total GULP energy -792900.943115 kJ/mol
# GULP energy per Si atom -12389.077236 kJ/mol
# Density = 1.958891 g / cm^3
# Si number density = 19.633600 Si / 1000 Ang^3
#
#
#
# Elastic Constant Matrix: (Units=GPa)
#
#
# Indices 1 2 3 4 5 6 
#
# 1 102.0210 28.6726 45.6371 0.0000 0.0000 0.0000
# 2 28.6726 60.2381 19.2263 0.0000 0.0000 0.0000
# 3 45.6371 19.2263 157.4191 0.0000 0.0000 0.0000
# 4 0.0000 0.0000 0.0000 15.3778 0.0000 0.0000
# 5 0.0000 0.0000 0.0000 0.0000 30.8456 0.0000
# 6 0.0000 0.0000 0.0000 0.0000 0.0000 14.7073
#
#
#
# Elastic Compliance Matrix: (Units=1/GPa)
#
#
# Indices 1 2 3 4 5 6 
#
# 1 0.012567 -0.005014 -0.003031 0.000000 0.000000 0.000000
# 2 -0.005014 0.019275 -0.000900 0.000000 0.000000 0.000000
# 3 -0.003031 -0.000900 0.007341 0.000000 0.000000 0.000000
# 4 0.000000 0.000000 0.000000 0.065029 0.000000 0.000000
# 5 0.000000 0.000000 0.000000 0.000000 0.032420 0.000000
# 6 0.000000 0.000000 0.000000 0.000000 0.000000 0.067994
#
#
# Mechanical properties :
#
#
# Convention : Reuss Voigt Hill
#
# Bulk Modulus (GPa) = 46.96654 56.30558 51.63606
# Shear Modulus (GPa) = 21.77571 27.26227 24.51899
#
# Velocity S-wave (km/s) = 3.33393 3.73037 3.53771
# Velocity P-wave (km/s) = 6.22845 6.87711 6.56080
#
# Compressibility (1/GPa) = 0.02129176
#
# Stress axis : x y z
#
# Youngs Moduli (GPa) = 79.57372 51.88083 136.21920
#
# Poissons Ratio (x) = 0.26015 0.41286
# Poissons Ratio (y) = 0.39901 0.12266
# Poissons Ratio (z) = 0.24118 0.04671
#
# Static dielectric constant tensor:
#      x y z
#    x 3.716580 0.000000 0.000000 
#    y 0.000000 3.192870 0.000000 
#    z 0.000000 0.000000 4.198770 
# 
# 
# High freq. dielectric constant tensor:
#      x y z
#    x 1.775210 0.000000 0.000000 
#    y 0.000000 1.712590 0.000000 
#    z 0.000000 0.000000 1.780000 
# 
# From -- ./inp_files/23232.got.cif
#   From: 2010.03.12/outbox.cif.g09.slc.cpg/sg62_12_cif.got.tgz:23232.got - 2010.04.10 19:12:36.
