data_PCOD8251487
_publ_section_title
;
Structure prediction by ZEFSAII (Michael W. Deem and Ramdas Pophale) SiO2 
 PCOD8251487
Probable space group: P N M A
;
_chemical_formula_sum "Si O2"
_cell_formula_units_Z 64
_cell_length_a 21.956664
_cell_length_b 9.022766
_cell_length_c 17.099043
_cell_angle_alpha 90.000000
_cell_angle_beta 90.000000
_cell_angle_gamma 90.000000
_cell_volume 3387.488697
_symmetry_space_group_name_H-M "P N M A"
_symmetry_group_IT_number 62
_symmetry_cell_setting 'orthorhombic'
loop_
_space_group_symop_operation_xyz
x,y,z
1/2-x,-y,1/2+z
1/2+x,1/2-y,1/2-z
-x,1/2+y,-z
-x,-y,-z
1/2+x,y,1/2-z
1/2-x,1/2+y,1/2+z
x,1/2-y,z
loop_
_atom_site_type_symbol
_atom_site_label
_atom_site_fract_x
_atom_site_fract_y
_atom_site_fract_z
Si Si1 0.283895 0.923636 0.664827
Si Si2 0.379242 0.421446 0.765411
Si Si3 0.972050 0.075606 0.869096
Si Si4 0.071465 0.576929 0.429339
Si Si5 0.627469 0.426196 0.472100
Si Si6 0.931307 0.577025 0.417249
Si Si7 0.102268 0.576433 0.872836
Si Si8 0.349922 0.421681 0.203574
O O1 0.285450 0.750000 0.676629
O O2 0.314653 0.968817 0.582235
O O3 0.214922 0.981858 0.671788
O O4 0.321189 0.990103 0.736405
O O5 0.362541 0.250000 0.761731
O O6 0.438797 0.453346 0.713230
O O7 0.391291 0.474273 0.853543
O O8 0.977658 0.250000 0.888289
O O9 0.934540 0.995507 0.937825
O O10 0.037856 0.003490 0.862408
O O11 0.078484 0.750000 0.445262
O O12 0.098370 0.491971 0.504384
O O13 0.001795 0.533215 0.414237
O O14 0.619583 0.250000 0.479506
O O15 0.639135 0.500075 0.556236
O O16 0.919989 0.750000 0.418629
O O17 0.902057 0.512168 0.339531
O O18 0.091929 0.750000 0.889483
O O19 0.143431 0.551360 0.796130
O O20 0.358187 0.250000 0.182676
#
# Coordination Sequence:
#
# PCOD8251487 Si02
#       8
#     8   8   8   8   8   8   8   8
#     4   9  20  39  58  75 103 142 182 223 267 316
#     4   9  18  33  55  81 107 141 179 221 267 313
#     4  10  19  33  55  83 116 145 174 218 269 319
#     4   9  18  34  54  80 114 143 174 218 272 325
#     4  10  20  36  57  80 107 142 182 222 266 319
#     4  10  20  34  55  82 109 141 180 223 267 319
#     4  11  22  35  54  81 110 142 178 218 269 325
#     4  10  22  40  57  75 107 147 180 222 276 322
#
# _framework density 18.893051
#
# number of rings (size 3 to 8) (size 9 to 14) (size 15 to 20)
#    0.000    2.250    0.000    2.625    0.000    4.500 
#    2.250    0.000    0.000    0.000    0.000    0.000 
#    0.000    0.000    0.000    0.000    0.000    0.000 
#
# Total GULP energy -793729.754939 kJ/mol
# GULP energy per Si atom -12402.027421 kJ/mol
# Density = 1.885005 g / cm^3
# Si number density = 18.893051 Si / 1000 Ang^3
#
#
#
# Elastic Constant Matrix: (Units=GPa)
#
#
# Indices 1 2 3 4 5 6 
#
# 1 76.1053 38.9257 38.8579 0.0000 0.0000 0.0000
# 2 38.9257 68.0816 41.8540 0.0000 0.0000 0.0000
# 3 38.8579 41.8540 109.3812 0.0000 0.0000 0.0000
# 4 0.0000 0.0000 0.0000 35.2138 0.0000 0.0000
# 5 0.0000 0.0000 0.0000 0.0000 17.8087 0.0000
# 6 0.0000 0.0000 0.0000 0.0000 0.0000 23.8014
#
#
#
# Elastic Compliance Matrix: (Units=1/GPa)
#
#
# Indices 1 2 3 4 5 6 
#
# 1 0.019537 -0.009027 -0.003486 0.000000 0.000000 0.000000
# 2 -0.009027 0.023377 -0.005738 0.000000 0.000000 0.000000
# 3 -0.003486 -0.005738 0.012577 0.000000 0.000000 0.000000
# 4 0.000000 0.000000 0.000000 0.028398 0.000000 0.000000
# 5 0.000000 0.000000 0.000000 0.000000 0.056152 0.000000
# 6 0.000000 0.000000 0.000000 0.000000 0.000000 0.042014
#
#
# Mechanical properties :
#
#
# Convention : Reuss Voigt Hill
#
# Bulk Modulus (GPa) = 52.66663 54.76037 53.71350
# Shear Modulus (GPa) = 22.23338 24.29348 23.26343
#
# Velocity S-wave (km/s) = 3.43418 3.58975 3.51283
# Velocity P-wave (km/s) = 6.60768 6.79920 6.70412
#
# Compressibility (1/GPa) = 0.01898735
#
# Stress axis : x y z
#
# Youngs Moduli (GPa) = 51.18559 42.77703 79.51270
#
# Poissons Ratio (x) = 0.38614 0.27721
# Poissons Ratio (y) = 0.46204 0.45627
# Poissons Ratio (z) = 0.17845 0.24547
#
# Static dielectric constant tensor:
#      x y z
#    x 3.373710 0.000000 0.000000 
#    y 0.000000 3.481830 0.000000 
#    z 0.000000 0.000000 3.735290 
# 
# 
# High freq. dielectric constant tensor:
#      x y z
#    x 1.716970 0.000000 0.000000 
#    y 0.000000 1.737740 0.000000 
#    z 0.000000 0.000000 1.745170 
# 
# From -- ./inp_files/24688.got.cif
#   From: 2010.03.12/outbox.cif.g09.slc.cpg/sg62_13_cif.got.tgz:24688.got - 2010.04.10 19:12:36.
