data_PCOD8251526
_publ_section_title
;
Structure prediction by ZEFSAII (Michael W. Deem and Ramdas Pophale) SiO2 
 PCOD8251526
Probable space group: P N M A
;
_chemical_formula_sum "Si O2"
_cell_formula_units_Z 48
_cell_length_a 9.024212
_cell_length_b 14.404155
_cell_length_c 18.930192
_cell_angle_alpha 90.000000
_cell_angle_beta 90.000000
_cell_angle_gamma 90.000000
_cell_volume 2460.662747
_symmetry_space_group_name_H-M "P N M A"
_symmetry_group_IT_number 62
_symmetry_cell_setting 'orthorhombic'
loop_
_space_group_symop_operation_xyz
x,y,z
1/2-x,-y,1/2+z
1/2+x,1/2-y,1/2-z
-x,1/2+y,-z
-x,-y,-z
1/2+x,y,1/2-z
1/2-x,1/2+y,1/2+z
x,1/2-y,z
loop_
_atom_site_type_symbol
_atom_site_label
_atom_site_fract_x
_atom_site_fract_y
_atom_site_fract_z
Si Si1 0.880756 0.644838 0.371851
Si Si2 0.633202 0.077317 0.713034
Si Si3 0.360832 0.357362 0.165717
Si Si4 0.115839 0.046138 0.245262
Si Si5 0.781259 0.352895 0.584095
Si Si6 0.152694 0.522841 0.535233
O O1 0.828974 0.750000 0.390422
O O2 0.848453 0.625402 0.289580
O O3 0.792152 0.569290 0.421455
O O4 0.055051 0.631665 0.384031
O O5 0.662882 0.146428 0.648208
O O6 0.468743 0.035336 0.702092
O O7 0.757374 0.996918 0.705016
O O8 0.389590 0.250000 0.170847
O O9 0.490461 0.406076 0.208730
O O10 0.195676 0.381732 0.192990
O O11 0.374356 0.390435 0.086132
O O12 0.770566 0.250000 0.549638
O O13 0.741764 0.434153 0.526617
O O14 0.000000 0.500000 0.500000
#
# Coordination Sequence:
#
# PCOD8251526 Si02
#       6
#     8   8   8   8   8   8
#     4  10  19  33  57  83 112 151 199 247 288 343
#     4  11  18  37  56  87 118 153 192 244 300 346
#     4  11  21  37  60  87 119 157 198 242 290 352
#     4  10  20  34  59  85 116 153 193 243 296 336
#     4  10  20  33  55  87 116 153 195 238 295 355
#     4  10  19  36  56  83 119 154 194 243 294 351
#
# _framework density 19.506938999999999
#
# number of rings (size 3 to 8) (size 9 to 14) (size 15 to 20)
#    0.000    1.667    5.000    2.500    0.000    0.667 
#    0.000    0.833    0.000    2.000    0.000    0.000 
#    0.000    0.000    0.000    0.000    0.000    0.000 
#
# Total GULP energy -594724.306387 kJ/mol
# GULP energy per Si atom -12390.089716 kJ/mol
# Density = 1.946254 g / cm^3
# Si number density = 19.506939 Si / 1000 Ang^3
#
#
#
# Elastic Constant Matrix: (Units=GPa)
#
#
# Indices 1 2 3 4 5 6 
#
# 1 54.5409 -0.5194 9.2589 0.0000 0.0000 0.0000
# 2 -0.5194 68.8989 19.0427 0.0000 0.0000 0.0000
# 3 9.2589 19.0427 102.7278 0.0000 0.0000 0.0000
# 4 0.0000 0.0000 0.0000 28.1434 0.0000 0.0000
# 5 0.0000 0.0000 0.0000 0.0000 27.0366 0.0000
# 6 0.0000 0.0000 0.0000 0.0000 0.0000 24.3816
#
#
#
# Elastic Compliance Matrix: (Units=1/GPa)
#
#
# Indices 1 2 3 4 5 6 
#
# 1 0.018646 0.000638 -0.001799 0.000000 0.000000 0.000000
# 2 0.000638 0.015320 -0.002897 0.000000 0.000000 0.000000
# 3 -0.001799 -0.002897 0.010434 0.000000 0.000000 0.000000
# 4 0.000000 0.000000 0.000000 0.035532 0.000000 0.000000
# 5 0.000000 0.000000 0.000000 0.000000 0.036987 0.000000
# 6 0.000000 0.000000 0.000000 0.000000 0.000000 0.041015
#
#
# Mechanical properties :
#
#
# Convention : Reuss Voigt Hill
#
# Bulk Modulus (GPa) = 27.56125 31.30357 29.43241
# Shear Modulus (GPa) = 28.06713 29.13802 28.60257
#
# Velocity S-wave (km/s) = 3.79730 3.86907 3.83335
# Velocity P-wave (km/s) = 5.77803 6.00348 5.89184
#
# Compressibility (1/GPa) = 0.03628282
#
# Stress axis : x y z
#
# Youngs Moduli (GPa) = 53.62997 65.27591 95.84365
#
# Poissons Ratio (x) = -0.04163 0.17241
# Poissons Ratio (y) = -0.03420 0.27769
# Poissons Ratio (z) = 0.09647 0.18912
#
# Static dielectric constant tensor:
#      x y z
#    x 3.409930 0.000000 0.000000 
#    y 0.000000 3.895200 0.000000 
#    z 0.000000 0.000000 3.693950 
# 
# 
# High freq. dielectric constant tensor:
#      x y z
#    x 1.730050 0.000000 0.000000 
#    y 0.000000 1.767780 0.000000 
#    z 0.000000 0.000000 1.755940 
# 
# From -- ./inp_files/22219.got.cif
#   From: 2010.03.12/outbox.cif.g09.slc.cpg/sg62_12_cif.got.tgz:22219.got - 2010.04.10 19:12:36.
