data_PCOD8251560
_publ_section_title
;
Structure prediction by ZEFSAII (Michael W. Deem and Ramdas Pophale) SiO2 
 PCOD8251560
Probable space group: P N M A
;
_chemical_formula_sum "Si O2"
_cell_formula_units_Z 48
_cell_length_a 5.065245
_cell_length_b 24.636057
_cell_length_c 23.445470
_cell_angle_alpha 90.000000
_cell_angle_beta 90.000000
_cell_angle_gamma 90.000000
_cell_volume 2925.705445
_symmetry_space_group_name_H-M "P N M A"
_symmetry_group_IT_number 62
_symmetry_cell_setting 'orthorhombic'
loop_
_space_group_symop_operation_xyz
x,y,z
1/2-x,-y,1/2+z
1/2+x,1/2-y,1/2-z
-x,1/2+y,-z
-x,-y,-z
1/2+x,y,1/2-z
1/2-x,1/2+y,1/2+z
x,1/2-y,z
loop_
_atom_site_type_symbol
_atom_site_label
_atom_site_fract_x
_atom_site_fract_y
_atom_site_fract_z
Si Si1 0.392396 0.810877 0.410456
Si Si2 0.189613 0.549895 0.505964
Si Si3 0.884771 0.875693 0.440052
Si Si4 0.908901 0.022957 0.908956
Si Si5 0.053840 0.165022 0.784584
Si Si6 0.559703 0.463193 0.715020
O O1 0.358414 0.750000 0.434715
O O2 0.616744 0.841063 0.448564
O O3 0.495583 0.808109 0.345760
O O4 0.109045 0.840565 0.408669
O O5 0.329492 0.537236 0.566773
O O6 0.393258 0.551585 0.453425
O O7 0.000000 0.500000 0.500000
O O8 0.012360 0.605039 0.501402
O O9 0.826733 0.931556 0.403830
O O10 0.033484 0.010576 0.847602
O O11 0.327105 0.185124 0.757989
O O12 0.045647 0.100859 0.792978
O O13 0.830391 0.483513 0.742747
#
# Coordination Sequence:
#
# PCOD8251560 Si02
#       6
#     8   8   8   8   8   8
#     4  12  24  35  49  65  89 127 164 211 260 297
#     4   9  19  31  57  76  92 121 155 216 255 289
#     4  11  20  36  51  68  95 117 159 214 249 300
#     4  10  19  34  52  76  97 121 164 209 251 300
#     4  10  20  32  47  60  83 120 167 213 255 286
#     4  10  21  30  47  69  96 133 160 198 251 298
#
# _framework density 16.406299000000001
#
# number of rings (size 3 to 8) (size 9 to 14) (size 15 to 20)
#    0.000    1.667    3.333    1.500    9.333    0.667 
#    0.000    0.000    0.000    0.000    0.000    0.000 
#    0.000    0.000    0.000    0.000    0.000   16.667 
#
# Total GULP energy -594735.444849 kJ/mol
# GULP energy per Si atom -12390.321768 kJ/mol
# Density = 1.636896 g / cm^3
# Si number density = 16.406299 Si / 1000 Ang^3
#
#
#
# Elastic Constant Matrix: (Units=GPa)
#
#
# Indices 1 2 3 4 5 6 
#
# 1 79.1312 22.4336 12.8119 0.0000 0.0000 0.0000
# 2 22.4336 51.3880 28.7850 0.0000 0.0000 0.0000
# 3 12.8119 28.7850 62.3016 0.0000 0.0000 0.0000
# 4 0.0000 0.0000 0.0000 16.4240 0.0000 0.0000
# 5 0.0000 0.0000 0.0000 0.0000 22.3131 0.0000
# 6 0.0000 0.0000 0.0000 0.0000 0.0000 18.1360
#
#
#
# Elastic Compliance Matrix: (Units=1/GPa)
#
#
# Indices 1 2 3 4 5 6 
#
# 1 0.014422 -0.006253 -0.000077 0.000000 0.000000 0.000000
# 2 -0.006253 0.028966 -0.012097 0.000000 0.000000 0.000000
# 3 -0.000077 -0.012097 0.021656 0.000000 0.000000 0.000000
# 4 0.000000 0.000000 0.000000 0.060886 0.000000 0.000000
# 5 0.000000 0.000000 0.000000 0.000000 0.044817 0.000000
# 6 0.000000 0.000000 0.000000 0.000000 0.000000 0.055139
#
#
# Mechanical properties :
#
#
# Convention : Reuss Voigt Hill
#
# Bulk Modulus (GPa) = 35.47330 35.65351 35.56340
# Shear Modulus (GPa) = 18.37311 19.96064 19.16688
#
# Velocity S-wave (km/s) = 3.35009 3.49183 3.42169
# Velocity P-wave (km/s) = 6.05251 6.16733 6.11019
#
# Compressibility (1/GPa) = 0.02819022
#
# Stress axis : x y z
#
# Youngs Moduli (GPa) = 69.33638 34.52348 46.17682
#
# Poissons Ratio (x) = 0.21588 0.00354
# Poissons Ratio (y) = 0.43357 0.55860
# Poissons Ratio (z) = 0.00532 0.41763
#
# Static dielectric constant tensor:
#      x y z
#    x 3.189130 0.000000 0.000000 
#    y 0.000000 3.204980 0.000000 
#    z 0.000000 0.000000 3.320150 
# 
# 
# High freq. dielectric constant tensor:
#      x y z
#    x 1.661420 0.000000 0.000000 
#    y 0.000000 1.587850 0.000000 
#    z 0.000000 0.000000 1.595200 
# 
# From -- ./inp_files/28426.got.cif
#   From: 2010.03.12/outbox.cif.g09.slc.cpg/sg62_15_cif.got.tgz:28426.got - 2010.04.10 19:12:36.
