data_PCOD8251028
_publ_section_title
;
Structure prediction by ZEFSAII (Michael W. Deem and Ramdas Pophale) SiO2 
 PCOD8251028
Probable space group: P N M A
;
_chemical_formula_sum "Si O2"
_cell_formula_units_Z 64
_cell_length_a 9.027102
_cell_length_b 18.086216
_cell_length_c 21.289954
_cell_angle_alpha 90.000000
_cell_angle_beta 90.000000
_cell_angle_gamma 90.000000
_cell_volume 3475.928113
_symmetry_space_group_name_H-M "P N M A"
_symmetry_group_IT_number 62
_symmetry_cell_setting 'orthorhombic'
loop_
_space_group_symop_operation_xyz
x,y,z
1/2-x,-y,1/2+z
1/2+x,1/2-y,1/2-z
-x,1/2+y,-z
-x,-y,-z
1/2+x,y,1/2-z
1/2-x,1/2+y,1/2+z
x,1/2-y,z
loop_
_atom_site_type_symbol
_atom_site_label
_atom_site_fract_x
_atom_site_fract_y
_atom_site_fract_z
Si Si1 0.955023 0.056285 0.553335
Si Si2 0.153234 0.334230 0.157551
Si Si3 0.197351 0.965811 0.712293
Si Si4 0.268476 0.044771 0.589755
Si Si5 0.275790 0.888470 0.529099
Si Si6 0.859863 0.535265 0.668277
Si Si7 0.922998 0.166236 0.978748
Si Si8 0.677933 0.665014 0.615652
O O1 0.861766 0.120961 0.519191
O O2 0.108796 0.084626 0.581974
O O3 0.858211 0.018843 0.608621
O O4 0.000000 0.000000 0.500000
O O5 0.165317 0.250000 0.179610
O O6 0.225327 0.384576 0.211483
O O7 0.253430 0.347424 0.095039
O O8 0.983159 0.357201 0.143695
O O9 0.240089 0.996537 0.781309
O O10 0.022411 0.959669 0.699919
O O11 0.279925 0.016638 0.661025
O O12 0.384737 0.109572 0.576924
O O13 0.299838 0.976274 0.542305
O O14 0.408342 0.847742 0.495361
O O15 0.807717 0.615998 0.645251
O O16 0.904031 0.250000 0.954603
O O17 0.823195 0.152104 0.040548
O O18 0.712719 0.750000 0.631431
#
# Coordination Sequence:
#
# PCOD8251028 Si02
#       8
#     8   8   8   8   8   8   8   8
#     4   9  18  32  52  76 102 130 166 217 267 308
#     4   9  18  33  49  71 105 142 175 208 244 296
#     4  10  22  34  50  71  97 133 174 212 253 305
#     4   9  18  33  49  71 100 133 168 206 254 303
#     4   9  16  29  51  76 102 132 168 211 253 297
#     4  11  21  35  51  74 102 132 176 220 257 311
#     4  10  19  31  50  79 107 134 168 208 255 310
#     4   9  18  31  48  70 102 138 171 206 249 296
#
# _framework density 18.412348999999999
#
# number of rings (size 3 to 8) (size 9 to 14) (size 15 to 20)
#    0.000    2.500    0.000    4.500    0.000    4.000 
#    0.000    2.500    0.000    0.000    0.000    8.750 
#    0.000    0.000    0.000    0.000    0.000    0.000 
#
# Total GULP energy -793200.893772 kJ/mol
# GULP energy per Si atom -12393.763965 kJ/mol
# Density = 1.837044 g / cm^3
# Si number density = 18.412349 Si / 1000 Ang^3
#
#
#
# Elastic Constant Matrix: (Units=GPa)
#
#
# Indices 1 2 3 4 5 6 
#
# 1 36.3927 6.0138 19.3132 0.0000 0.0000 0.0000
# 2 6.0138 38.9632 5.6054 0.0000 0.0000 0.0000
# 3 19.3132 5.6054 68.4627 0.0000 0.0000 0.0000
# 4 0.0000 0.0000 0.0000 14.0198 0.0000 0.0000
# 5 0.0000 0.0000 0.0000 0.0000 35.4835 0.0000
# 6 0.0000 0.0000 0.0000 0.0000 0.0000 19.0752
#
#
#
# Elastic Compliance Matrix: (Units=1/GPa)
#
#
# Indices 1 2 3 4 5 6 
#
# 1 0.032858 -0.003782 -0.008959 0.000000 0.000000 0.000000
# 2 -0.003782 0.026407 -0.001095 0.000000 0.000000 0.000000
# 3 -0.008959 -0.001095 0.017224 0.000000 0.000000 0.000000
# 4 0.000000 0.000000 0.000000 0.071328 0.000000 0.000000
# 5 0.000000 0.000000 0.000000 0.000000 0.028182 0.000000
# 6 0.000000 0.000000 0.000000 0.000000 0.000000 0.052424
#
#
# Mechanical properties :
#
#
# Convention : Reuss Voigt Hill
#
# Bulk Modulus (GPa) = 20.48590 22.85371 21.66981
# Shear Modulus (GPa) = 18.35758 21.24145 19.79951
#
# Velocity S-wave (km/s) = 3.16100 3.40023 3.28279
# Velocity P-wave (km/s) = 4.94700 5.27774 5.11505
#
# Compressibility (1/GPa) = 0.04881407
#
# Stress axis : x y z
#
# Youngs Moduli (GPa) = 30.43422 37.86934 58.05987
#
# Poissons Ratio (x) = 0.14324 0.52018
# Poissons Ratio (y) = 0.11512 0.06358
# Poissons Ratio (z) = 0.27267 0.04147
#
# Static dielectric constant tensor:
#      x y z
#    x 3.855590 0.000000 0.000000 
#    y 0.000000 3.141670 0.000000 
#    z 0.000000 0.000000 3.594010 
# 
# 
# High freq. dielectric constant tensor:
#      x y z
#    x 1.715700 0.000000 0.000000 
#    y 0.000000 1.676640 0.000000 
#    z 0.000000 0.000000 1.706240 
# 
# From -- ./inp_files/30953.got.cif
#   From: 2010.03.12/outbox.cif.g09.slc.cpg/sg62_16_cif.got.tgz:30953.got - 2010.04.10 19:12:36.
