data_PCOD8251605
_publ_section_title
;
Structure prediction by ZEFSAII (Michael W. Deem and Ramdas Pophale) SiO2 
 PCOD8251605
Probable space group: P N M A
;
_chemical_formula_sum "Si O2"
_cell_formula_units_Z 48
_cell_length_a 9.115667
_cell_length_b 8.459938
_cell_length_c 31.188302
_cell_angle_alpha 90.000000
_cell_angle_beta 90.000000
_cell_angle_gamma 90.000000
_cell_volume 2405.178777
_symmetry_space_group_name_H-M "P N M A"
_symmetry_group_IT_number 62
_symmetry_cell_setting 'orthorhombic'
loop_
_space_group_symop_operation_xyz
x,y,z
1/2-x,-y,1/2+z
1/2+x,1/2-y,1/2-z
-x,1/2+y,-z
-x,-y,-z
1/2+x,y,1/2-z
1/2-x,1/2+y,1/2+z
x,1/2-y,z
loop_
_atom_site_type_symbol
_atom_site_label
_atom_site_fract_x
_atom_site_fract_y
_atom_site_fract_z
Si Si1 0.877166 0.933482 0.138827
Si Si2 0.818803 0.065169 0.715254
Si Si3 0.626727 0.433568 0.545533
Si Si4 0.685501 0.071352 0.455639
Si Si5 0.863142 0.067980 0.290262
Si Si6 0.289978 0.433384 0.631167
O O1 0.888401 0.750000 0.149238
O O2 0.778841 0.008710 0.176419
O O3 0.800126 0.964807 0.092333
O O4 0.044310 0.998688 0.138844
O O5 0.853669 0.250000 0.708600
O O6 0.733987 0.042017 0.759628
O O7 0.967459 0.967970 0.717062
O O8 0.572843 0.250000 0.544037
O O9 0.489474 0.550391 0.542268
O O10 0.737363 0.466615 0.505141
O O11 0.724872 0.250000 0.443164
O O12 0.755229 0.960719 0.418842
O O13 0.832686 0.250000 0.279595
O O14 0.820557 0.030584 0.339186
O O15 0.274536 0.250000 0.641907
#
# Coordination Sequence:
#
# PCOD8251605 Si02
#       6
#     8   8   8   8   8   8
#     4   8  16  31  54  80 105 137 179 221 259 311
#     4  11  22  39  61  82 106 141 182 220 267 328
#     4   8  14  26  44  70 105 142 179 219 263 313
#     4   9  15  24  43  73 107 140 175 220 270 314
#     4  12  25  40  57  81 111 140 176 225 276 322
#     4  10  19  34  55  79 108 143 183 224 269 325
#
# _framework density 19.956935000000001
#
# number of rings (size 3 to 8) (size 9 to 14) (size 15 to 20)
#    0.000    2.333    0.000    5.000    0.000    2.000 
#    0.000    7.500    0.000    1.000    0.000    0.000 
#    0.000    0.000    0.000    0.000    0.000    0.000 
#
# Total GULP energy -594826.697310 kJ/mol
# GULP energy per Si atom -12392.222861 kJ/mol
# Density = 1.991151 g / cm^3
# Si number density = 19.956935 Si / 1000 Ang^3
#
#
#
# Elastic Constant Matrix: (Units=GPa)
#
#
# Indices 1 2 3 4 5 6 
#
# 1 52.4722 13.6308 13.8237 0.0000 0.0000 0.0000
# 2 13.6308 51.3655 22.4528 0.0000 0.0000 0.0000
# 3 13.8237 22.4528 99.3076 0.0000 0.0000 0.0000
# 4 0.0000 0.0000 0.0000 29.2841 0.0000 0.0000
# 5 0.0000 0.0000 0.0000 0.0000 24.8114 0.0000
# 6 0.0000 0.0000 0.0000 0.0000 0.0000 20.2399
#
#
#
# Elastic Compliance Matrix: (Units=1/GPa)
#
#
# Indices 1 2 3 4 5 6 
#
# 1 0.020763 -0.004712 -0.001825 0.000000 0.000000 0.000000
# 2 -0.004712 0.022673 -0.004470 0.000000 0.000000 0.000000
# 3 -0.001825 -0.004470 0.011334 0.000000 0.000000 0.000000
# 4 0.000000 0.000000 0.000000 0.034148 0.000000 0.000000
# 5 0.000000 0.000000 0.000000 0.000000 0.040304 0.000000
# 6 0.000000 0.000000 0.000000 0.000000 0.000000 0.049407
#
#
# Mechanical properties :
#
#
# Convention : Reuss Voigt Hill
#
# Bulk Modulus (GPa) = 30.52923 33.66222 32.09572
# Shear Modulus (GPa) = 23.63372 25.08294 24.35833
#
# Velocity S-wave (km/s) = 3.44501 3.54906 3.49742
# Velocity P-wave (km/s) = 5.58165 5.80504 5.69444
#
# Compressibility (1/GPa) = 0.03275550
#
# Stress axis : x y z
#
# Youngs Moduli (GPa) = 48.16374 44.10573 88.22672
#
# Poissons Ratio (x) = 0.20783 0.16100
# Poissons Ratio (y) = 0.22695 0.39440
# Poissons Ratio (z) = 0.08789 0.19716
#
# Static dielectric constant tensor:
#      x y z
#    x 3.201180 0.000000 0.000000 
#    y 0.000000 3.391210 0.000000 
#    z 0.000000 0.000000 4.214840 
# 
# 
# High freq. dielectric constant tensor:
#      x y z
#    x 1.717530 0.000000 0.000000 
#    y 0.000000 1.764530 0.000000 
#    z 0.000000 0.000000 1.809460 
# 
# From -- ./inp_files/31991.got.cif
#   From: 2010.03.12/outbox.cif.g09.slc.cpg/sg62_16_cif.got.tgz:31991.got - 2010.04.10 19:12:36.
