data_PCOD8251262
_publ_section_title
;
Structure prediction by ZEFSAII (Michael W. Deem and Ramdas Pophale) SiO2 
 PCOD8251262
Probable space group: P N M A
;
_chemical_formula_sum "Si O2"
_cell_formula_units_Z 64
_cell_length_a 23.324310
_cell_length_b 8.725687
_cell_length_c 17.670776
_cell_angle_alpha 90.000000
_cell_angle_beta 90.000000
_cell_angle_gamma 90.000000
_cell_volume 3596.367439
_symmetry_space_group_name_H-M "P N M A"
_symmetry_group_IT_number 62
_symmetry_cell_setting 'orthorhombic'
loop_
_space_group_symop_operation_xyz
x,y,z
1/2-x,-y,1/2+z
1/2+x,1/2-y,1/2-z
-x,1/2+y,-z
-x,-y,-z
1/2+x,y,1/2-z
1/2-x,1/2+y,1/2+z
x,1/2-y,z
loop_
_atom_site_type_symbol
_atom_site_label
_atom_site_fract_x
_atom_site_fract_y
_atom_site_fract_z
Si Si1 0.764947 0.076753 0.487768
Si Si2 0.431582 0.927434 0.786505
Si Si3 0.442762 0.071550 0.372502
Si Si4 0.062001 0.575472 0.699375
Si Si5 0.870452 0.077479 0.578702
Si Si6 0.136203 0.068870 0.995921
Si Si7 0.564203 0.929668 0.372767
Si Si8 0.131917 0.427776 0.570965
O O1 0.760749 0.250000 0.456861
O O2 0.801136 0.072268 0.567021
O O3 0.701802 0.010102 0.500680
O O4 0.800738 0.978393 0.425401
O O5 0.424765 0.750000 0.763959
O O6 0.495415 0.959906 0.816995
O O7 0.386505 0.971302 0.850945
O O8 0.419278 0.029044 0.712902
O O9 0.457106 0.250000 0.384775
O O10 0.423680 0.040230 0.286597
O O11 0.391643 0.018961 0.425831
O O12 0.499314 0.975648 0.392818
O O13 0.076905 0.750000 0.678670
O O14 0.100733 0.465480 0.649028
O O15 0.892576 0.250000 0.593235
O O16 0.898596 0.014509 0.500174
O O17 0.132297 0.250000 0.982266
O O18 0.106315 0.024155 0.073800
O O19 0.572203 0.750000 0.386949
O O20 0.127547 0.250000 0.554908
#
# Coordination Sequence:
#
# PCOD8251262 Si02
#       8
#     8   8   8   8   8   8   8   8
#     4   8  19  37  55  75 104 140 178 221 265 309
#     4  10  20  35  55  81 109 141 177 218 265 315
#     4  10  21  37  56  81 110 140 175 218 264 318
#     4   9  19  35  53  75 109 143 174 213 262 317
#     4   9  18  35  55  76 107 144 177 217 265 311
#     4  11  21  37  59  80 104 139 179 221 267 318
#     4  11  22  36  55  81 111 142 174 216 265 318
#     4  10  19  32  54  79 106 139 178 221 263 309
#
# _framework density 17.795733999999999
#
# number of rings (size 3 to 8) (size 9 to 14) (size 15 to 20)
#    0.750    1.500    0.000    4.500    0.000    4.500 
#    0.000    1.250    0.000    3.000    0.000    0.000 
#    0.000    0.000    0.000    0.000    0.000    0.000 
#
# Total GULP energy -793416.476298 kJ/mol
# GULP energy per Si atom -12397.132442 kJ/mol
# Density = 1.775523 g / cm^3
# Si number density = 17.795734 Si / 1000 Ang^3
#
#
#
# Elastic Constant Matrix: (Units=GPa)
#
#
# Indices 1 2 3 4 5 6 
#
# 1 82.8172 20.5080 47.0005 0.0000 0.0000 0.0000
# 2 20.5080 63.7983 22.7285 0.0000 0.0000 0.0000
# 3 47.0005 22.7285 82.4409 0.0000 0.0000 0.0000
# 4 0.0000 0.0000 0.0000 32.4029 0.0000 0.0000
# 5 0.0000 0.0000 0.0000 0.0000 3.6738 0.0000
# 6 0.0000 0.0000 0.0000 0.0000 0.0000 22.3495
#
#
#
# Elastic Compliance Matrix: (Units=1/GPa)
#
#
# Indices 1 2 3 4 5 6 
#
# 1 0.018172 -0.002385 -0.009702 0.000000 0.000000 0.000000
# 2 -0.002385 0.017695 -0.003519 0.000000 0.000000 0.000000
# 3 -0.009702 -0.003519 0.018631 0.000000 0.000000 0.000000
# 4 0.000000 0.000000 0.000000 0.030861 0.000000 0.000000
# 5 0.000000 0.000000 0.000000 0.000000 0.272199 0.000000
# 6 0.000000 0.000000 0.000000 0.000000 0.000000 0.044744
#
#
# Mechanical properties :
#
#
# Convention : Reuss Voigt Hill
#
# Bulk Modulus (GPa) = 42.94446 45.50337 44.22391
# Shear Modulus (GPa) = 11.33078 20.93987 16.13533
#
# Velocity S-wave (km/s) = 2.52606 3.43400 3.01441
# Velocity P-wave (km/s) = 5.71771 6.43028 6.08443
#
# Compressibility (1/GPa) = 0.02328589
#
# Stress axis : x y z
#
# Youngs Moduli (GPa) = 55.03084 56.51466 53.67274
#
# Poissons Ratio (x) = 0.13477 0.52075
# Poissons Ratio (y) = 0.13124 0.18886
# Poissons Ratio (z) = 0.53393 0.19886
#
# Static dielectric constant tensor:
#      x y z
#    x 3.216770 0.000000 0.000000 
#    y 0.000000 3.298240 0.000000 
#    z 0.000000 0.000000 3.143080 
# 
# 
# High freq. dielectric constant tensor:
#      x y z
#    x 1.672150 0.000000 0.000000 
#    y 0.000000 1.699720 0.000000 
#    z 0.000000 0.000000 1.680920 
# 
# From -- ./inp_files/24927.got.cif
#   From: 2010.03.12/outbox.cif.g09.slc.cpg/sg62_13_cif.got.tgz:24927.got - 2010.04.10 19:12:36.
