data_PCOD8251695
_publ_section_title
;
Structure prediction by ZEFSAII (Michael W. Deem and Ramdas Pophale) SiO2 
 PCOD8251695
Probable space group: P N M A
;
_chemical_formula_sum "Si O2"
_cell_formula_units_Z 56
_cell_length_a 22.477226
_cell_length_b 27.098964
_cell_length_c 4.994002
_cell_angle_alpha 90.000000
_cell_angle_beta 90.000000
_cell_angle_gamma 90.000000
_cell_volume 3041.894252
_symmetry_space_group_name_H-M "P N M A"
_symmetry_group_IT_number 62
_symmetry_cell_setting 'orthorhombic'
loop_
_space_group_symop_operation_xyz
x,y,z
1/2-x,-y,1/2+z
1/2+x,1/2-y,1/2-z
-x,1/2+y,-z
-x,-y,-z
1/2+x,y,1/2-z
1/2-x,1/2+y,1/2+z
x,1/2-y,z
loop_
_atom_site_type_symbol
_atom_site_label
_atom_site_fract_x
_atom_site_fract_y
_atom_site_fract_z
Si Si1 0.950238 0.900896 0.778027
Si Si2 0.908083 0.305460 0.824239
Si Si3 0.920473 0.056000 0.213225
Si Si4 0.258081 0.533456 0.293622
Si Si5 0.108267 0.056625 0.720882
Si Si6 0.855829 0.095577 0.713737
Si Si7 0.012182 0.805273 0.677391
O O1 0.901831 0.923834 0.578211
O O2 0.012777 0.927584 0.728957
O O3 0.957792 0.842522 0.725794
O O4 0.926768 0.907808 0.077491
O O5 0.881291 0.250000 0.802528
O O6 0.856596 0.345284 0.762063
O O7 0.962769 0.312398 0.620356
O O8 0.933667 0.316225 0.118759
O O9 0.875515 0.083626 0.412491
O O10 0.917536 0.997855 0.252021
O O11 0.902323 0.068736 0.910426
O O12 0.247276 0.511412 0.586642
O O13 0.321975 0.558820 0.280392
O O14 0.210291 0.576000 0.232390
O O15 0.987501 0.750000 0.721422
#
# Coordination Sequence:
#
# PCOD8251695 Si02
#       7
#     8   8   8   8   8   8   8
#     4  12  22  37  56  84 121 145 186 231 288 343
#     4  10  19  34  57  86 111 139 183 236 293 336
#     4  12  22  36  57  85 117 152 180 229 294 331
#     4  12  23  41  58  78 112 156 199 231 266 332
#     4  12  24  37  54  83 117 161 188 225 270 344
#     4  12  20  37  61  81 114 148 188 238 282 327
#     4  10  20  36  58  83 113 147 182 230 287 343
#
# _framework density 18.409579999999998
#
# number of rings (size 3 to 8) (size 9 to 14) (size 15 to 20)
#    0.000    0.571    5.714    4.286    0.000    0.000 
#    0.000    0.000    0.000    1.714    0.000    0.000 
#    0.000    0.000    0.000    0.000    0.000    0.000 
#
# Total GULP energy -694753.116700 kJ/mol
# GULP energy per Si atom -12406.305655 kJ/mol
# Density = 1.836768 g / cm^3
# Si number density = 18.409580 Si / 1000 Ang^3
#
#
#
# Elastic Constant Matrix: (Units=GPa)
#
#
# Indices 1 2 3 4 5 6 
#
# 1 74.6027 44.9238 10.8815 0.0000 0.0000 0.0000
# 2 44.9238 111.4398 6.2958 0.0000 0.0000 0.0000
# 3 10.8815 6.2958 66.8088 0.0000 0.0000 0.0000
# 4 0.0000 0.0000 0.0000 28.2812 0.0000 0.0000
# 5 0.0000 0.0000 0.0000 0.0000 23.8598 0.0000
# 6 0.0000 0.0000 0.0000 0.0000 0.0000 22.4480
#
#
#
# Elastic Compliance Matrix: (Units=1/GPa)
#
#
# Indices 1 2 3 4 5 6 
#
# 1 0.018036 -0.007143 -0.002264 0.000000 0.000000 0.000000
# 2 -0.007143 0.011850 0.000047 0.000000 0.000000 0.000000
# 3 -0.002264 0.000047 0.015333 0.000000 0.000000 0.000000
# 4 0.000000 0.000000 0.000000 0.035359 0.000000 0.000000
# 5 0.000000 0.000000 0.000000 0.000000 0.041912 0.000000
# 6 0.000000 0.000000 0.000000 0.000000 0.000000 0.044547
#
#
# Mechanical properties :
#
#
# Convention : Reuss Voigt Hill
#
# Bulk Modulus (GPa) = 37.73946 41.89483 39.81714
# Shear Modulus (GPa) = 25.69503 27.63447 26.66475
#
# Velocity S-wave (km/s) = 3.74002 3.87860 3.80994
# Velocity P-wave (km/s) = 6.26057 6.54710 6.40543
#
# Compressibility (1/GPa) = 0.02649747
#
# Stress axis : x y z
#
# Youngs Moduli (GPa) = 55.44530 84.38678 65.22080
#
# Poissons Ratio (x) = 0.60275 0.14769
# Poissons Ratio (y) = 0.39603 -0.00304
# Poissons Ratio (z) = 0.12556 -0.00394
#
# Static dielectric constant tensor:
#      x y z
#    x 3.216710 0.000000 0.000000 
#    y 0.000000 3.581630 0.000000 
#    z 0.000000 0.000000 3.639560 
# 
# 
# High freq. dielectric constant tensor:
#      x y z
#    x 1.680690 0.000000 0.000000 
#    y 0.000000 1.715530 0.000000 
#    z 0.000000 0.000000 1.738640 
# 
# From -- ./inp_files/2368.got.cif
#   From: 2010.03.12/outbox.cif.g09.slc.cpg/sg62_2_cif.got.tgz:2368.got - 2010.04.10 19:12:36.
