data_PCOD8251716
_publ_section_title
;
Structure prediction by ZEFSAII (Michael W. Deem and Ramdas Pophale) SiO2 
 PCOD8251716
Probable space group: P N M A
;
_chemical_formula_sum "Si O2"
_cell_formula_units_Z 48
_cell_length_a 16.970042
_cell_length_b 9.725127
_cell_length_c 15.064936
_cell_angle_alpha 90.000000
_cell_angle_beta 90.000000
_cell_angle_gamma 90.000000
_cell_volume 2486.253970
_symmetry_space_group_name_H-M "P N M A"
_symmetry_group_IT_number 62
_symmetry_cell_setting 'orthorhombic'
loop_
_space_group_symop_operation_xyz
x,y,z
1/2-x,-y,1/2+z
1/2+x,1/2-y,1/2-z
-x,1/2+y,-z
-x,-y,-z
1/2+x,y,1/2-z
1/2-x,1/2+y,1/2+z
x,1/2-y,z
loop_
_atom_site_type_symbol
_atom_site_label
_atom_site_fract_x
_atom_site_fract_y
_atom_site_fract_z
Si Si1 0.789369 0.592445 0.154725
Si Si2 0.351662 0.598923 0.793661
Si Si3 0.930613 0.601815 0.280898
Si Si4 0.000439 0.405883 0.414799
Si Si5 0.956984 0.498570 0.860137
Si Si6 0.605542 0.901381 0.540869
O O1 0.772462 0.750000 0.125276
O O2 0.709540 0.521108 0.186243
O O3 0.844640 0.587286 0.240036
O O4 0.830918 0.513773 0.072915
O O5 0.311177 0.750000 0.793233
O O6 0.413251 0.592454 0.873751
O O7 0.394631 0.583160 0.698689
O O8 0.937455 0.750000 0.330545
O O9 0.939245 0.473247 0.346038
O O10 0.996999 0.606155 0.204123
O O11 0.972834 0.250000 0.435824
O O12 0.000000 0.500000 0.500000
O O13 0.022891 0.594853 0.905930
O O14 0.909363 0.419374 0.936248
O O15 0.641855 0.750000 0.555989
#
# Coordination Sequence:
#
# PCOD8251716 Si02
#       6
#     8   8   8   8   8   8
#     4  10  22  37  54  80 115 150 184 226 277 329
#     4  10  21  38  58  81 111 147 186 229 276 330
#     4   9  18  35  57  81 110 144 182 227 274 327
#     4  10  21  37  59  84 107 141 187 233 276 325
#     4   9  19  33  58  88 111 141 184 230 275 330
#     4  10  19  34  58  86 115 147 182 226 277 331
#
# _framework density 19.306152000000001
#
# number of rings (size 3 to 8) (size 9 to 14) (size 15 to 20)
#    0.000    2.333    0.000    2.000    0.000   13.333 
#    3.000    0.000    0.000    0.000    0.000    0.000 
#    0.000    0.000    0.000    0.000    0.000    0.000 
#
# Total GULP energy -595000.239410 kJ/mol
# GULP energy per Si atom -12395.838321 kJ/mol
# Density = 1.926221 g / cm^3
# Si number density = 19.306152 Si / 1000 Ang^3
#
#
#
# Elastic Constant Matrix: (Units=GPa)
#
#
# Indices 1 2 3 4 5 6 
#
# 1 64.8017 45.7825 26.5477 0.0000 0.0000 0.0000
# 2 45.7825 183.1647 58.0076 0.0000 0.0000 0.0000
# 3 26.5477 58.0076 107.6047 0.0000 0.0000 0.0000
# 4 0.0000 0.0000 0.0000 21.7954 0.0000 0.0000
# 5 0.0000 0.0000 0.0000 0.0000 15.1035 0.0000
# 6 0.0000 0.0000 0.0000 0.0000 0.0000 21.9665
#
#
#
# Elastic Compliance Matrix: (Units=1/GPa)
#
#
# Indices 1 2 3 4 5 6 
#
# 1 0.019331 -0.004005 -0.002610 0.000000 0.000000 0.000000
# 2 -0.004005 0.007413 -0.003008 0.000000 0.000000 0.000000
# 3 -0.002610 -0.003008 0.011559 0.000000 0.000000 0.000000
# 4 0.000000 0.000000 0.000000 0.045881 0.000000 0.000000
# 5 0.000000 0.000000 0.000000 0.000000 0.066210 0.000000
# 6 0.000000 0.000000 0.000000 0.000000 0.000000 0.045524
#
#
# Mechanical properties :
#
#
# Convention : Reuss Voigt Hill
#
# Bulk Modulus (GPa) = 52.47705 68.47184 60.47444
# Shear Modulus (GPa) = 22.57166 26.78863 24.68015
#
# Velocity S-wave (km/s) = 3.42298 3.72905 3.57929
# Velocity P-wave (km/s) = 6.54698 7.35421 6.96230
#
# Compressibility (1/GPa) = 0.01905595
#
# Stress axis : x y z
#
# Youngs Moduli (GPa) = 51.73145 134.89134 86.51325
#
# Poissons Ratio (x) = 0.54026 0.22580
# Poissons Ratio (y) = 0.20719 0.26026
# Poissons Ratio (z) = 0.13502 0.40579
#
# Static dielectric constant tensor:
#      x y z
#    x 3.312020 0.000000 0.000000 
#    y 0.000000 3.780610 0.000000 
#    z 0.000000 0.000000 3.541530 
# 
# 
# High freq. dielectric constant tensor:
#      x y z
#    x 1.730350 0.000000 0.000000 
#    y 0.000000 1.765440 0.000000 
#    z 0.000000 0.000000 1.746300 
# 
# From -- ./inp_files/19642.got.cif
#   From: 2010.03.12/outbox.cif.g09.slc.cpg/sg62_10_cif.got.tgz:19642.got - 2010.04.10 19:12:36.
