data_PCOD8251490
_publ_section_title
;
Structure prediction by ZEFSAII (Michael W. Deem and Ramdas Pophale) SiO2 
 PCOD8251490
Probable space group: P N M A
;
_chemical_formula_sum "Si O2"
_cell_formula_units_Z 48
_cell_length_a 20.068469
_cell_length_b 8.501950
_cell_length_c 14.892377
_cell_angle_alpha 90.000000
_cell_angle_beta 90.000000
_cell_angle_gamma 90.000000
_cell_volume 2540.954043
_symmetry_space_group_name_H-M "P N M A"
_symmetry_group_IT_number 62
_symmetry_cell_setting 'orthorhombic'
loop_
_space_group_symop_operation_xyz
x,y,z
1/2-x,-y,1/2+z
1/2+x,1/2-y,1/2-z
-x,1/2+y,-z
-x,-y,-z
1/2+x,y,1/2-z
1/2-x,1/2+y,1/2+z
x,1/2-y,z
loop_
_atom_site_type_symbol
_atom_site_label
_atom_site_fract_x
_atom_site_fract_y
_atom_site_fract_z
Si Si1 0.454966 0.063815 0.578543
Si Si2 0.479011 0.435532 0.773818
Si Si3 0.668223 0.935717 0.190530
Si Si4 0.799718 0.564543 0.504976
Si Si5 0.813709 0.565899 0.880845
Si Si6 0.057854 0.435802 0.561549
O O1 0.447975 0.250000 0.572225
O O2 0.490361 0.009332 0.671544
O O3 0.500000 0.000000 0.500000
O O4 0.381788 0.990864 0.572965
O O5 0.473060 0.250000 0.776193
O O6 0.407989 0.499410 0.810140
O O7 0.540015 0.492406 0.836672
O O8 0.673665 0.750000 0.175881
O O9 0.707032 0.022707 0.110181
O O10 0.700747 0.979003 0.286409
O O11 0.791365 0.750000 0.490579
O O12 0.744144 0.472958 0.450326
O O13 0.870417 0.499246 0.467577
O O14 0.817088 0.750000 0.862450
O O15 0.057979 0.250000 0.553954
O O16 0.000000 0.500000 0.500000
#
# Coordination Sequence:
#
# PCOD8251490 Si02
#       6
#     8   8   8   8   8   8
#     4  10  20  38  62  86 115 150 194 241 290 349
#     4   8  16  32  55  81 111 146 184 228 279 340
#     4  10  19  36  61  83 111 151 191 235 291 352
#     4  11  22  36  57  86 119 153 193 242 291 348
#     4  11  23  40  60  83 115 155 198 242 292 347
#     4  10  19  33  55  85 116 148 187 232 280 338
#
# _framework density 18.890542
#
# number of rings (size 3 to 8) (size 9 to 14) (size 15 to 20)
#    0.000    2.000    1.667    4.000    0.000    0.667 
#    3.000    0.833    0.000    0.000    0.000    0.000 
#    0.000    0.000    0.000    0.000    0.000    0.000 
#
# Total GULP energy -595124.178809 kJ/mol
# GULP energy per Si atom -12398.420392 kJ/mol
# Density = 1.884755 g / cm^3
# Si number density = 18.890542 Si / 1000 Ang^3
#
#
#
# Elastic Constant Matrix: (Units=GPa)
#
#
# Indices 1 2 3 4 5 6 
#
# 1 99.2800 19.9652 70.2553 0.0000 0.0000 0.0000
# 2 19.9652 59.1848 16.2415 0.0000 0.0000 0.0000
# 3 70.2553 16.2415 137.8263 0.0000 0.0000 0.0000
# 4 0.0000 0.0000 0.0000 30.7455 0.0000 0.0000
# 5 0.0000 0.0000 0.0000 0.0000 35.3544 0.0000
# 6 0.0000 0.0000 0.0000 0.0000 0.0000 25.3199
#
#
#
# Elastic Compliance Matrix: (Units=1/GPa)
#
#
# Indices 1 2 3 4 5 6 
#
# 1 0.016371 -0.003341 -0.007951 0.000000 0.000000 0.000000
# 2 -0.003341 0.018143 -0.000435 0.000000 0.000000 0.000000
# 3 -0.007951 -0.000435 0.011360 0.000000 0.000000 0.000000
# 4 0.000000 0.000000 0.000000 0.032525 0.000000 0.000000
# 5 0.000000 0.000000 0.000000 0.000000 0.028285 0.000000
# 6 0.000000 0.000000 0.000000 0.000000 0.000000 0.039495
#
#
# Mechanical properties :
#
#
# Convention : Reuss Voigt Hill
#
# Bulk Modulus (GPa) = 44.60403 56.57945 50.59174
# Shear Modulus (GPa) = 28.23182 30.93924 29.58553
#
# Velocity S-wave (km/s) = 3.87006 4.05138 3.96176
# Velocity P-wave (km/s) = 6.60552 7.20425 6.91137
#
# Compressibility (1/GPa) = 0.02241950
#
# Stress axis : x y z
#
# Youngs Moduli (GPa) = 61.08359 55.11913 88.02932
#
# Poissons Ratio (x) = 0.18413 0.69995
# Poissons Ratio (y) = 0.20405 0.03830
# Poissons Ratio (z) = 0.48569 0.02398
#
# Static dielectric constant tensor:
#      x y z
#    x 3.403460 0.000000 0.000000 
#    y 0.000000 3.357390 0.000000 
#    z 0.000000 0.000000 3.652840 
# 
# 
# High freq. dielectric constant tensor:
#      x y z
#    x 1.717030 0.000000 0.000000 
#    y 0.000000 1.729180 0.000000 
#    z 0.000000 0.000000 1.747690 
# 
# From -- ./inp_files/19536.got.cif
#   From: 2010.03.12/outbox.cif.g09.slc.cpg/sg62_10_cif.got.tgz:19536.got - 2010.04.10 19:12:36.
