data_PCOD8251301
_publ_section_title
;
Structure prediction by ZEFSAII (Michael W. Deem and Ramdas Pophale) SiO2 
 PCOD8251301
Probable space group: P N M A
;
_chemical_formula_sum "Si O2"
_cell_formula_units_Z 48
_cell_length_a 16.844615
_cell_length_b 10.958342
_cell_length_c 13.137106
_cell_angle_alpha 90.000000
_cell_angle_beta 90.000000
_cell_angle_gamma 90.000000
_cell_volume 2424.965943
_symmetry_space_group_name_H-M "P N M A"
_symmetry_group_IT_number 62
_symmetry_cell_setting 'orthorhombic'
loop_
_space_group_symop_operation_xyz
x,y,z
1/2-x,-y,1/2+z
1/2+x,1/2-y,1/2-z
-x,1/2+y,-z
-x,-y,-z
1/2+x,y,1/2-z
1/2-x,1/2+y,1/2+z
x,1/2-y,z
loop_
_atom_site_type_symbol
_atom_site_label
_atom_site_fract_x
_atom_site_fract_y
_atom_site_fract_z
Si Si1 0.242440 0.033410 0.911301
Si Si2 0.708751 0.614929 0.881199
Si Si3 0.987920 0.025931 0.830934
Si Si4 0.858311 0.615027 0.270303
Si Si5 0.095237 0.884882 0.979025
Si Si6 0.850415 0.888442 0.731805
O O1 0.171987 0.967750 0.971045
O O2 0.304874 0.936830 0.867385
O O3 0.285376 0.115352 0.996350
O O4 0.206325 0.113799 0.820302
O O5 0.673740 0.750000 0.850362
O O6 0.654507 0.500823 0.845059
O O7 0.795344 0.601157 0.831531
O O8 0.929628 0.966761 0.748278
O O9 0.028332 0.919816 0.897267
O O10 0.052969 0.106468 0.773047
O O11 0.939050 0.112448 0.906975
O O12 0.849817 0.750000 0.322788
O O13 0.123339 0.750000 0.952545
O O14 0.875528 0.750000 0.710291
#
# Coordination Sequence:
#
# PCOD8251301 Si02
#       6
#     8   8   8   8   8   8
#     4  10  20  37  58  87 114 152 194 241 295 342
#     4  10  21  39  60  84 118 156 195 238 294 352
#     4  10  20  35  53  84 117 154 190 238 297 342
#     4  10  22  38  59  87 120 153 193 241 293 348
#     4  10  19  32  55  84 115 150 195 242 290 344
#     4  10  20  35  57  86 120 155 195 240 289 350
#
# _framework density 19.794091999999999
#
# number of rings (size 3 to 8) (size 9 to 14) (size 15 to 20)
#    0.000    2.000    1.667    2.000    0.000    6.000 
#    0.000    3.333    0.000    0.000    0.000    0.000 
#    0.000    0.000    0.000    0.000    0.000    0.000 
#
# Total GULP energy -595054.673255 kJ/mol
# GULP energy per Si atom -12396.972359 kJ/mol
# Density = 1.974904 g / cm^3
# Si number density = 19.794092 Si / 1000 Ang^3
#
#
#
# Elastic Constant Matrix: (Units=GPa)
#
#
# Indices 1 2 3 4 5 6 
#
# 1 72.4202 31.0409 27.3401 0.0000 0.0000 0.0000
# 2 31.0409 131.2748 24.8680 0.0000 0.0000 0.0000
# 3 27.3401 24.8680 78.0494 0.0000 0.0000 0.0000
# 4 0.0000 0.0000 0.0000 17.5197 0.0000 0.0000
# 5 0.0000 0.0000 0.0000 0.0000 31.0454 0.0000
# 6 0.0000 0.0000 0.0000 0.0000 0.0000 12.8791
#
#
#
# Elastic Compliance Matrix: (Units=1/GPa)
#
#
# Indices 1 2 3 4 5 6 
#
# 1 0.017007 -0.003079 -0.004976 0.000000 0.000000 0.000000
# 2 -0.003079 0.008664 -0.001682 0.000000 0.000000 0.000000
# 3 -0.004976 -0.001682 0.015092 0.000000 0.000000 0.000000
# 4 0.000000 0.000000 0.000000 0.057078 0.000000 0.000000
# 5 0.000000 0.000000 0.000000 0.000000 0.032211 0.000000
# 6 0.000000 0.000000 0.000000 0.000000 0.000000 0.077645
#
#
# Mechanical properties :
#
#
# Convention : Reuss Voigt Hill
#
# Bulk Modulus (GPa) = 46.97476 49.80470 48.38973
# Shear Modulus (GPa) = 21.34314 25.52187 23.43250
#
# Velocity S-wave (km/s) = 3.28725 3.59467 3.44439
# Velocity P-wave (km/s) = 6.17990 6.51498 6.34965
#
# Compressibility (1/GPa) = 0.02128803
#
# Stress axis : x y z
#
# Youngs Moduli (GPa) = 58.80094 115.41705 66.26229
#
# Poissons Ratio (x) = 0.35533 0.32974
# Poissons Ratio (y) = 0.18103 0.11146
# Poissons Ratio (z) = 0.29261 0.19415
#
# Static dielectric constant tensor:
#      x y z
#    x 3.463660 0.000000 0.000000 
#    y 0.000000 3.562550 0.000000 
#    z 0.000000 0.000000 3.381170 
# 
# 
# High freq. dielectric constant tensor:
#      x y z
#    x 1.755370 0.000000 0.000000 
#    y 0.000000 1.777370 0.000000 
#    z 0.000000 0.000000 1.752450 
# 
# From -- ./inp_files/14118.got.cif
#   From: 2010.03.12/outbox.cif.g09.slc.cpg/sg62_8_cif.got.tgz:14118.got - 2010.04.10 19:12:36.
