data_PCOD8251043
_publ_section_title
;
Structure prediction by ZEFSAII (Michael W. Deem and Ramdas Pophale) SiO2 
 PCOD8251043
Probable space group: P N M A
;
_chemical_formula_sum "Si O2"
_cell_formula_units_Z 56
_cell_length_a 18.997686
_cell_length_b 8.641947
_cell_length_c 17.763594
_cell_angle_alpha 90.000000
_cell_angle_beta 90.000000
_cell_angle_gamma 90.000000
_cell_volume 2916.373493
_symmetry_space_group_name_H-M "P N M A"
_symmetry_group_IT_number 62
_symmetry_cell_setting 'orthorhombic'
loop_
_space_group_symop_operation_xyz
x,y,z
1/2-x,-y,1/2+z
1/2+x,1/2-y,1/2-z
-x,1/2+y,-z
-x,-y,-z
1/2+x,y,1/2-z
1/2-x,1/2+y,1/2+z
x,1/2-y,z
loop_
_atom_site_type_symbol
_atom_site_label
_atom_site_fract_x
_atom_site_fract_y
_atom_site_fract_z
Si Si1 0.792407 0.073702 0.430773
Si Si2 0.426729 0.923959 0.590061
Si Si3 0.810840 0.073336 0.819473
Si Si4 0.217164 0.072310 0.916725
Si Si5 0.076840 0.066742 0.483305
Si Si6 0.577417 0.571781 0.567431
Si Si7 0.842964 0.571843 0.662306
O O1 0.814165 0.250000 0.417678
O O2 0.730538 0.058703 0.493405
O O3 0.759053 0.010684 0.352519
O O4 0.864255 0.989170 0.456599
O O5 0.396922 0.750000 0.603988
O O6 0.507631 0.936001 0.619984
O O7 0.377337 0.051042 0.626698
O O8 0.431972 0.956101 0.502126
O O9 0.789238 0.250000 0.814254
O O10 0.841315 0.019461 0.739802
O O11 0.226548 0.250000 0.889811
O O12 0.142892 0.003769 0.889252
O O13 0.269182 0.955478 0.876832
O O14 0.074272 0.250000 0.489214
O O15 0.097726 0.014889 0.397857
O O16 0.000000 0.000000 0.500000
O O17 0.592341 0.750000 0.543420
O O18 0.854320 0.750000 0.681990
#
# Coordination Sequence:
#
# PCOD8251043 Si02
#       7
#     8   8   8   8   8   8   8
#     4  10  20  35  58  85 114 149 188 234 286 343
#     4  10  20  33  50  76 110 148 185 224 273 329
#     4  12  23  36  56  83 115 150 190 236 288 347
#     4  10  19  33  55  81 110 143 184 230 276 331
#     4  10  21  39  64  91 117 151 197 248 296 352
#     4  10  19  31  51  78 108 142 184 229 272 323
#     4  10  22  39  59  82 114 150 188 235 291 346
#
# _framework density 19.201930999999998
#
# number of rings (size 3 to 8) (size 9 to 14) (size 15 to 20)
#    0.000    1.714    1.429    3.857    0.000    4.571 
#    0.000    1.429    0.000    5.143    0.000    0.000 
#    0.000    0.000    0.000    0.000    0.000    0.000 
#
# Total GULP energy -693979.562337 kJ/mol
# GULP energy per Si atom -12392.492185 kJ/mol
# Density = 1.915823 g / cm^3
# Si number density = 19.201931 Si / 1000 Ang^3
#
#
#
# Elastic Constant Matrix: (Units=GPa)
#
#
# Indices 1 2 3 4 5 6 
#
# 1 124.7672 41.4196 39.4104 0.0000 0.0000 0.0000
# 2 41.4196 86.5616 26.4881 0.0000 0.0000 0.0000
# 3 39.4104 26.4881 79.8226 0.0000 0.0000 0.0000
# 4 0.0000 0.0000 0.0000 27.8174 0.0000 0.0000
# 5 0.0000 0.0000 0.0000 0.0000 15.8681 0.0000
# 6 0.0000 0.0000 0.0000 0.0000 0.0000 34.0083
#
#
#
# Elastic Compliance Matrix: (Units=1/GPa)
#
#
# Indices 1 2 3 4 5 6 
#
# 1 0.010528 -0.003837 -0.003925 0.000000 0.000000 0.000000
# 2 -0.003837 0.014256 -0.002836 0.000000 0.000000 0.000000
# 3 -0.003925 -0.002836 0.015407 0.000000 0.000000 0.000000
# 4 0.000000 0.000000 0.000000 0.035949 0.000000 0.000000
# 5 0.000000 0.000000 0.000000 0.000000 0.063020 0.000000
# 6 0.000000 0.000000 0.000000 0.000000 0.000000 0.029405
#
#
# Mechanical properties :
#
#
# Convention : Reuss Voigt Hill
#
# Bulk Modulus (GPa) = 52.64482 56.19862 54.42172
# Shear Modulus (GPa) = 25.49814 27.79430 26.64622
#
# Velocity S-wave (km/s) = 3.64798 3.80870 3.72920
# Velocity P-wave (km/s) = 6.72455 6.97655 6.85171
#
# Compressibility (1/GPa) = 0.01899522
#
# Stress axis : x y z
#
# Youngs Moduli (GPa) = 94.98087 70.14425 64.90609
#
# Poissons Ratio (x) = 0.26913 0.25475
# Poissons Ratio (y) = 0.36442 0.18410
# Poissons Ratio (z) = 0.37280 0.19896
#
# Static dielectric constant tensor:
#      x y z
#    x 3.837580 0.000000 0.000000 
#    y 0.000000 3.574530 0.000000 
#    z 0.000000 0.000000 3.579220 
# 
# 
# High freq. dielectric constant tensor:
#      x y z
#    x 1.753940 0.000000 0.000000 
#    y 0.000000 1.761020 0.000000 
#    z 0.000000 0.000000 1.711300 
# 
# From -- ./inp_files/27588.got.cif
#   From: 2010.03.12/outbox.cif.g09.slc.cpg/sg62_14_cif.got.tgz:27588.got - 2010.04.10 19:12:36.
