data_PCOD8251480
_publ_section_title
;
Structure prediction by ZEFSAII (Michael W. Deem and Ramdas Pophale) SiO2 
 PCOD8251480
Probable space group: P N M A
;
_chemical_formula_sum "Si O2"
_cell_formula_units_Z 64
_cell_length_a 16.529810
_cell_length_b 8.917358
_cell_length_c 22.273500
_cell_angle_alpha 90.000000
_cell_angle_beta 90.000000
_cell_angle_gamma 90.000000
_cell_volume 3283.163647
_symmetry_space_group_name_H-M "P N M A"
_symmetry_group_IT_number 62
_symmetry_cell_setting 'orthorhombic'
loop_
_space_group_symop_operation_xyz
x,y,z
1/2-x,-y,1/2+z
1/2+x,1/2-y,1/2-z
-x,1/2+y,-z
-x,-y,-z
1/2+x,y,1/2-z
1/2-x,1/2+y,1/2+z
x,1/2-y,z
loop_
_atom_site_type_symbol
_atom_site_label
_atom_site_fract_x
_atom_site_fract_y
_atom_site_fract_z
Si Si1 0.821203 0.580550 0.788440
Si Si2 0.763599 0.075727 0.099565
Si Si3 0.291741 0.074977 0.536079
Si Si4 0.043064 0.425586 0.698409
Si Si5 0.358223 0.424461 0.826426
Si Si6 0.067472 0.925207 0.122024
Si Si7 0.079894 0.926151 0.826303
Si Si8 0.174878 0.579910 0.624599
O O1 0.855879 0.750000 0.790686
O O2 0.808601 0.524245 0.721206
O O3 0.884614 0.465813 0.817440
O O4 0.734741 0.572961 0.819228
O O5 0.740851 0.250000 0.102712
O O6 0.832151 0.033097 0.148016
O O7 0.682337 0.978151 0.111103
O O8 0.796215 0.034249 0.033603
O O9 0.278177 0.250000 0.548631
O O10 0.377512 0.024543 0.565360
O O11 0.216644 0.988680 0.565760
O O12 0.057142 0.250000 0.706045
O O13 0.065277 0.500398 0.761630
O O14 0.096595 0.486201 0.643484
O O15 0.952420 0.464161 0.677655
O O16 0.342395 0.250000 0.815932
O O17 0.048094 0.750000 0.121707
O O18 0.983534 0.014926 0.123564
O O19 0.068867 0.750000 0.818839
O O20 0.149475 0.750000 0.610054
#
# Coordination Sequence:
#
# PCOD8251480 Si02
#       8
#     8   8   8   8   8   8   8   8
#     4  10  19  33  55  82 113 147 182 227 284 341
#     4  10  23  41  59  82 113 153 196 237 284 339
#     4   9  20  40  61  81 113 154 196 238 281 334
#     4  11  23  38  57  85 118 150 187 233 288 346
#     4  11  23  37  56  83 114 148 189 236 287 344
#     4  10  19  33  56  85 115 151 189 230 280 337
#     4  11  22  36  57  87 121 152 188 235 287 344
#     4  10  21  36  58  87 113 144 190 237 283 339
#
# _framework density 19.493392
#
# number of rings (size 3 to 8) (size 9 to 14) (size 15 to 20)
#    0.000    1.750    1.250    3.000    0.000    8.500 
#    0.000    0.625    0.000    0.000    0.000    0.000 
#    0.000    0.000    0.000    0.000    0.000    0.000 
#
# Total GULP energy -793697.127050 kJ/mol
# GULP energy per Si atom -12401.517610 kJ/mol
# Density = 1.944902 g / cm^3
# Si number density = 19.493392 Si / 1000 Ang^3
#
#
#
# Elastic Constant Matrix: (Units=GPa)
#
#
# Indices 1 2 3 4 5 6 
#
# 1 110.0083 59.2718 53.5603 0.0000 0.0000 0.0000
# 2 59.2718 91.7215 40.5754 0.0000 0.0000 0.0000
# 3 53.5603 40.5754 69.2103 0.0000 0.0000 0.0000
# 4 0.0000 0.0000 0.0000 27.6694 0.0000 0.0000
# 5 0.0000 0.0000 0.0000 0.0000 23.0345 0.0000
# 6 0.0000 0.0000 0.0000 0.0000 0.0000 31.3895
#
#
#
# Elastic Compliance Matrix: (Units=1/GPa)
#
#
# Indices 1 2 3 4 5 6 
#
# 1 0.017506 -0.007182 -0.009337 0.000000 0.000000 0.000000
# 2 -0.007182 0.017667 -0.004799 0.000000 0.000000 0.000000
# 3 -0.009337 -0.004799 0.024488 0.000000 0.000000 0.000000
# 4 0.000000 0.000000 0.000000 0.036141 0.000000 0.000000
# 5 0.000000 0.000000 0.000000 0.000000 0.043413 0.000000
# 6 0.000000 0.000000 0.000000 0.000000 0.000000 0.031858
#
#
# Mechanical properties :
#
#
# Convention : Reuss Voigt Hill
#
# Bulk Modulus (GPa) = 58.74007 64.19502 61.46755
# Shear Modulus (GPa) = 22.79114 24.25417 23.52265
#
# Velocity S-wave (km/s) = 3.42303 3.53118 3.47753
# Velocity P-wave (km/s) = 6.76916 7.04478 6.90834
#
# Compressibility (1/GPa) = 0.01702415
#
# Stress axis : x y z
#
# Youngs Moduli (GPa) = 57.12420 56.60306 40.83656
#
# Poissons Ratio (x) = 0.40653 0.38128
# Poissons Ratio (y) = 0.41027 0.19599
# Poissons Ratio (z) = 0.53335 0.27166
#
# Static dielectric constant tensor:
#      x y z
#    x 3.624720 0.000000 0.000000 
#    y 0.000000 3.606270 0.000000 
#    z 0.000000 0.000000 3.442770 
# 
# 
# High freq. dielectric constant tensor:
#      x y z
#    x 1.760070 0.000000 0.000000 
#    y 0.000000 1.767410 0.000000 
#    z 0.000000 0.000000 1.745810 
# 
# From -- ./inp_files/29922.got.cif
#   From: 2010.03.12/outbox.cif.g09.slc.cpg/sg62_15_cif.got.tgz:29922.got - 2010.04.10 19:12:36.
