data_PCOD8251008
_publ_section_title
;
Structure prediction by ZEFSAII (Michael W. Deem and Ramdas Pophale) SiO2 
 PCOD8251008
Probable space group: P N M A
;
_chemical_formula_sum "Si O2"
_cell_formula_units_Z 48
_cell_length_a 15.061123
_cell_length_b 13.728714
_cell_length_c 12.198781
_cell_angle_alpha 90.000000
_cell_angle_beta 90.000000
_cell_angle_gamma 90.000000
_cell_volume 2522.340120
_symmetry_space_group_name_H-M "P N M A"
_symmetry_group_IT_number 62
_symmetry_cell_setting 'orthorhombic'
loop_
_space_group_symop_operation_xyz
x,y,z
1/2-x,-y,1/2+z
1/2+x,1/2-y,1/2-z
-x,1/2+y,-z
-x,-y,-z
1/2+x,y,1/2-z
1/2-x,1/2+y,1/2+z
x,1/2-y,z
loop_
_atom_site_type_symbol
_atom_site_label
_atom_site_fract_x
_atom_site_fract_y
_atom_site_fract_z
Si Si1 0.043795 0.356249 0.198134
Si Si2 0.278859 0.361611 0.622434
Si Si3 0.882713 0.955175 0.481215
Si Si4 0.138397 0.865636 0.894987
Si Si5 0.543072 0.642934 0.930432
Si Si6 0.801594 0.969965 0.714763
O O1 0.063339 0.250000 0.147196
O O2 0.136991 0.413651 0.195631
O O3 0.961265 0.404437 0.131481
O O4 0.013928 0.343999 0.322541
O O5 0.291554 0.250000 0.656860
O O6 0.181008 0.377993 0.575397
O O7 0.345232 0.390271 0.522788
O O8 0.289240 0.424136 0.732138
O O9 0.881222 0.059594 0.416430
O O10 0.855491 0.982699 0.603907
O O11 0.978161 0.901538 0.475864
O O12 0.146386 0.750000 0.871883
O O13 0.208490 0.916622 0.812259
O O14 0.581143 0.750000 0.964545
#
# Coordination Sequence:
#
# PCOD8251008 Si02
#       6
#     8   8   8   8   8   8
#     4   9  17  30  50  74  96 120 156 202 247 290
#     4  10  20  33  48  67  97 137 170 196 238 297
#     4   9  18  31  47  71  99 128 164 205 251 297
#     4   9  18  33  52  73  98 128 162 200 245 295
#     4   9  16  28  49  74  97 122 159 209 258 297
#     4  10  19  31  50  73  97 127 165 205 241 285
#
# _framework density 19.029948999999998
#
# number of rings (size 3 to 8) (size 9 to 14) (size 15 to 20)
#    0.000    2.667    0.000    2.000    0.000    5.333 
#    0.000    0.833    0.000    3.000    0.000    0.000 
#    0.000    0.000    0.000    0.000    0.000    0.000 
#
# Total GULP energy -594668.027949 kJ/mol
# GULP energy per Si atom -12388.917249 kJ/mol
# Density = 1.898664 g / cm^3
# Si number density = 19.029949 Si / 1000 Ang^3
#
#
#
# Elastic Constant Matrix: (Units=GPa)
#
#
# Indices 1 2 3 4 5 6 
#
# 1 31.4955 3.3731 9.7241 0.0000 0.0000 0.0000
# 2 3.3731 86.2407 25.3243 0.0000 0.0000 0.0000
# 3 9.7241 25.3243 42.4711 0.0000 0.0000 0.0000
# 4 0.0000 0.0000 0.0000 29.7103 0.0000 0.0000
# 5 0.0000 0.0000 0.0000 0.0000 17.5637 0.0000
# 6 0.0000 0.0000 0.0000 0.0000 0.0000 22.7158
#
#
#
# Elastic Compliance Matrix: (Units=1/GPa)
#
#
# Indices 1 2 3 4 5 6 
#
# 1 0.034263 0.001168 -0.008541 0.000000 0.000000 0.000000
# 2 0.001168 0.014096 -0.008673 0.000000 0.000000 0.000000
# 3 -0.008541 -0.008673 0.030672 0.000000 0.000000 0.000000
# 4 0.000000 0.000000 0.000000 0.033658 0.000000 0.000000
# 5 0.000000 0.000000 0.000000 0.000000 0.056936 0.000000
# 6 0.000000 0.000000 0.000000 0.000000 0.000000 0.044022
#
#
# Mechanical properties :
#
#
# Convention : Reuss Voigt Hill
#
# Bulk Modulus (GPa) = 21.30401 26.33893 23.82147
# Shear Modulus (GPa) = 19.12879 22.11699 20.62289
#
# Velocity S-wave (km/s) = 3.17392 3.41283 3.29554
# Velocity P-wave (km/s) = 4.96498 5.42224 5.19864
#
# Compressibility (1/GPa) = 0.04693953
#
# Stress axis : x y z
#
# Youngs Moduli (GPa) = 29.18638 70.93964 32.60274
#
# Poissons Ratio (x) = -0.08286 0.27846
# Poissons Ratio (y) = -0.03409 0.28276
# Poissons Ratio (z) = 0.24928 0.61524
#
# Static dielectric constant tensor:
#      x y z
#    x 3.536030 0.000000 0.000000 
#    y 0.000000 3.672040 0.000000 
#    z 0.000000 0.000000 3.229160 
# 
# 
# High freq. dielectric constant tensor:
#      x y z
#    x 1.733850 0.000000 0.000000 
#    y 0.000000 1.738600 0.000000 
#    z 0.000000 0.000000 1.712230 
# 
# From -- ./inp_files/13247.got.cif
#   From: 2010.03.12/outbox.cif.g09.slc.cpg/sg62_7_cif.got.tgz:13247.got - 2010.04.10 19:12:36.
