data_PCOD8251195
_publ_section_title
;
Structure prediction by ZEFSAII (Michael W. Deem and Ramdas Pophale) SiO2 
 PCOD8251195
Probable space group: P N M A
;
_chemical_formula_sum "Si O2"
_cell_formula_units_Z 48
_cell_length_a 15.990857
_cell_length_b 17.623410
_cell_length_c 9.504313
_cell_angle_alpha 90.000000
_cell_angle_beta 90.000000
_cell_angle_gamma 90.000000
_cell_volume 2678.443038
_symmetry_space_group_name_H-M "P N M A"
_symmetry_group_IT_number 62
_symmetry_cell_setting 'orthorhombic'
loop_
_space_group_symop_operation_xyz
x,y,z
1/2-x,-y,1/2+z
1/2+x,1/2-y,1/2-z
-x,1/2+y,-z
-x,-y,-z
1/2+x,y,1/2-z
1/2-x,1/2+y,1/2+z
x,1/2-y,z
loop_
_atom_site_type_symbol
_atom_site_label
_atom_site_fract_x
_atom_site_fract_y
_atom_site_fract_z
Si Si1 0.992086 0.565631 0.319100
Si Si2 0.946742 0.835705 0.786103
Si Si3 0.253572 0.437189 0.993719
Si Si4 0.895369 0.662752 0.096855
Si Si5 0.425541 0.408546 0.102718
Si Si6 0.653469 0.021069 0.246155
O O1 0.017403 0.605468 0.465151
O O2 0.074502 0.534668 0.240525
O O3 0.947598 0.627070 0.222972
O O4 0.929151 0.496493 0.350322
O O5 0.920647 0.750000 0.747179
O O6 0.878594 0.892839 0.718649
O O7 0.039311 0.854117 0.725641
O O8 0.948861 0.847112 0.954158
O O9 0.194843 0.376616 0.916466
O O10 0.288237 0.498192 0.883466
O O11 0.328808 0.390462 0.069049
O O12 0.203053 0.485463 0.108465
O O13 0.879093 0.750000 0.133111
#
# Coordination Sequence:
#
# PCOD8251195 Si02
#       6
#     8   8   8   8   8   8
#     4   9  18  34  52  73 100 132 173 206 242 303
#     4   9  19  34  51  74 102 133 171 209 251 304
#     4  10  19  32  52  78 104 129 167 212 255 301
#     4  10  21  35  51  74 104 136 169 209 257 304
#     4   9  18  32  53  77  99 130 170 210 248 295
#     4   9  19  33  53  76 101 133 168 209 251 298
#
# _framework density 17.920859
#
# number of rings (size 3 to 8) (size 9 to 14) (size 15 to 20)
#    0.000    2.667    0.000    2.000    0.000    8.667 
#    0.000    2.500    0.000    1.000    0.000    0.000 
#    0.000    0.000    0.000    0.000    0.000    0.000 
#
# Total GULP energy -595175.118899 kJ/mol
# GULP energy per Si atom -12399.481644 kJ/mol
# Density = 1.788007 g / cm^3
# Si number density = 17.920859 Si / 1000 Ang^3
#
#
#
# Elastic Constant Matrix: (Units=GPa)
#
#
# Indices 1 2 3 4 5 6 
#
# 1 83.1179 37.4305 44.4248 0.0000 0.0000 0.0000
# 2 37.4305 87.0993 52.1941 0.0000 0.0000 0.0000
# 3 44.4248 52.1941 85.3738 0.0000 0.0000 0.0000
# 4 0.0000 0.0000 0.0000 28.8209 0.0000 0.0000
# 5 0.0000 0.0000 0.0000 0.0000 35.9408 0.0000
# 6 0.0000 0.0000 0.0000 0.0000 0.0000 18.1047
#
#
#
# Elastic Compliance Matrix: (Units=1/GPa)
#
#
# Indices 1 2 3 4 5 6 
#
# 1 0.017215 -0.003204 -0.006999 0.000000 0.000000 0.000000
# 2 -0.003204 0.018715 -0.009775 0.000000 0.000000 0.000000
# 3 -0.006999 -0.009775 0.021331 0.000000 0.000000 0.000000
# 4 0.000000 0.000000 0.000000 0.034697 0.000000 0.000000
# 5 0.000000 0.000000 0.000000 0.000000 0.027823 0.000000
# 6 0.000000 0.000000 0.000000 0.000000 0.000000 0.055234
#
#
# Mechanical properties :
#
#
# Convention : Reuss Voigt Hill
#
# Bulk Modulus (GPa) = 57.78345 58.18777 57.98561
# Shear Modulus (GPa) = 22.65103 24.67605 23.66354
#
# Velocity S-wave (km/s) = 3.55906 3.71475 3.63774
# Velocity P-wave (km/s) = 7.01448 7.13715 7.07608
#
# Compressibility (1/GPa) = 0.01730599
#
# Stress axis : x y z
#
# Youngs Moduli (GPa) = 58.08970 53.43177 46.87963
#
# Poissons Ratio (x) = 0.17118 0.32812
# Poissons Ratio (y) = 0.18610 0.45824
# Poissons Ratio (z) = 0.40658 0.52229
#
# Static dielectric constant tensor:
#      x y z
#    x 3.383790 0.000000 0.000000 
#    y 0.000000 3.162500 0.000000 
#    z 0.000000 0.000000 3.364710 
# 
# 
# High freq. dielectric constant tensor:
#      x y z
#    x 1.693090 0.000000 0.000000 
#    y 0.000000 1.674030 0.000000 
#    z 0.000000 0.000000 1.698520 
# 
# From -- ./inp_files/6456.got.cif
#   From: 2010.03.12/outbox.cif.g09.slc.cpg/sg62_4_cif.got.tgz:6456.got - 2010.04.10 19:12:36.
