data_PCOD8251221
_publ_section_title
;
Structure prediction by ZEFSAII (Michael W. Deem and Ramdas Pophale) SiO2 
 PCOD8251221
Probable space group: P N M A
;
_chemical_formula_sum "Si O2"
_cell_formula_units_Z 56
_cell_length_a 13.414607
_cell_length_b 9.156874
_cell_length_c 23.772556
_cell_angle_alpha 90.000000
_cell_angle_beta 90.000000
_cell_angle_gamma 90.000000
_cell_volume 2920.122505
_symmetry_space_group_name_H-M "P N M A"
_symmetry_group_IT_number 62
_symmetry_cell_setting 'orthorhombic'
loop_
_space_group_symop_operation_xyz
x,y,z
1/2-x,-y,1/2+z
1/2+x,1/2-y,1/2-z
-x,1/2+y,-z
-x,-y,-z
1/2+x,y,1/2-z
1/2-x,1/2+y,1/2+z
x,1/2-y,z
loop_
_atom_site_type_symbol
_atom_site_label
_atom_site_fract_x
_atom_site_fract_y
_atom_site_fract_z
Si Si1 0.275809 0.921331 0.946265
Si Si2 0.378144 0.582554 0.630825
Si Si3 0.949440 0.420428 0.051415
Si Si4 0.191512 0.916541 0.556117
Si Si5 0.091293 0.919558 0.669350
Si Si6 0.768868 0.076553 0.773907
Si Si7 0.362090 0.579759 0.827987
O O1 0.277473 0.750000 0.954825
O O2 0.162437 0.978393 0.939425
O O3 0.337638 0.967959 0.891514
O O4 0.328521 0.988753 0.000869
O O5 0.368119 0.750000 0.651525
O O6 0.488989 0.547710 0.608690
O O7 0.302199 0.552727 0.579656
O O8 0.353714 0.478653 0.683061
O O9 0.951408 0.250000 0.037363
O O10 0.000000 0.500000 0.000000
O O11 0.178729 0.750000 0.537837
O O12 0.111580 0.959503 0.604097
O O13 0.119020 0.750000 0.679163
O O14 0.977596 0.952895 0.684360
O O15 0.160199 0.016706 0.709512
O O16 0.766710 0.250000 0.773933
O O17 0.794534 0.017972 0.712288
O O18 0.336837 0.750000 0.818484
#
# Coordination Sequence:
#
# PCOD8251221 Si02
#       7
#     8   8   8   8   8   8   8
#     4  10  21  34  53  83 115 146 187 235 281 330
#     4   9  18  34  55  79 111 156 197 226 271 342
#     4  10  19  32  52  81 116 150 185 226 275 333
#     4   9  17  32  54  80 109 145 189 229 273 330
#     4   9  20  40  63  81 107 151 194 228 273 342
#     4  11  23  38  59  87 115 142 185 244 293 336
#     4  10  22  41  60  81 113 153 193 233 279 340
#
# _framework density 19.177278000000001
#
# number of rings (size 3 to 8) (size 9 to 14) (size 15 to 20)
#    0.000    2.286    1.429    2.143    0.000    5.714 
#    0.000    2.857    0.000    0.000    0.000    0.000 
#    0.000    0.000    0.000    0.000    0.000    0.000 
#
# Total GULP energy -694502.731047 kJ/mol
# GULP energy per Si atom -12401.834483 kJ/mol
# Density = 1.913363 g / cm^3
# Si number density = 19.177278 Si / 1000 Ang^3
#
#
#
# Elastic Constant Matrix: (Units=GPa)
#
#
# Indices 1 2 3 4 5 6 
#
# 1 74.8864 39.8695 38.1836 0.0000 0.0000 0.0000
# 2 39.8695 84.9846 62.7599 0.0000 0.0000 0.0000
# 3 38.1836 62.7599 118.6815 0.0000 0.0000 0.0000
# 4 0.0000 0.0000 0.0000 37.4951 0.0000 0.0000
# 5 0.0000 0.0000 0.0000 0.0000 24.6526 0.0000
# 6 0.0000 0.0000 0.0000 0.0000 0.0000 16.7221
#
#
#
# Elastic Compliance Matrix: (Units=1/GPa)
#
#
# Indices 1 2 3 4 5 6 
#
# 1 0.018140 -0.006892 -0.002192 0.000000 0.000000 0.000000
# 2 -0.006892 0.021924 -0.009377 0.000000 0.000000 0.000000
# 3 -0.002192 -0.009377 0.014090 0.000000 0.000000 0.000000
# 4 0.000000 0.000000 0.000000 0.026670 0.000000 0.000000
# 5 0.000000 0.000000 0.000000 0.000000 0.040564 0.000000
# 6 0.000000 0.000000 0.000000 0.000000 0.000000 0.059801
#
#
# Mechanical properties :
#
#
# Convention : Reuss Voigt Hill
#
# Bulk Modulus (GPa) = 58.02485 62.24205 60.13345
# Shear Modulus (GPa) = 22.33599 24.95661 23.64630
#
# Velocity S-wave (km/s) = 3.41649 3.61136 3.51527
# Velocity P-wave (km/s) = 6.77392 7.06511 6.92105
#
# Compressibility (1/GPa) = 0.01723400
#
# Stress axis : x y z
#
# Youngs Moduli (GPa) = 55.12592 45.61127 70.97446
#
# Poissons Ratio (x) = 0.31433 0.15557
# Poissons Ratio (y) = 0.37990 0.66550
# Poissons Ratio (z) = 0.12083 0.42768
#
# Static dielectric constant tensor:
#      x y z
#    x 3.628650 0.000000 0.000000 
#    y 0.000000 3.337450 0.000000 
#    z 0.000000 0.000000 3.431620 
# 
# 
# High freq. dielectric constant tensor:
#      x y z
#    x 1.745130 0.000000 0.000000 
#    y 0.000000 1.730370 0.000000 
#    z 0.000000 0.000000 1.744330 
# 
# From -- ./inp_files/27228.got.cif
#   From: 2010.03.12/outbox.cif.g09.slc.cpg/sg62_14_cif.got.tgz:27228.got - 2010.04.10 19:12:36.
