data_PCOD8251613
_publ_section_title
;
Structure prediction by ZEFSAII (Michael W. Deem and Ramdas Pophale) SiO2 
 PCOD8251613
Probable space group: P N M A
;
_chemical_formula_sum "Si O2"
_cell_formula_units_Z 56
_cell_length_a 23.302752
_cell_length_b 8.800167
_cell_length_c 13.859634
_cell_angle_alpha 90.000000
_cell_angle_beta 90.000000
_cell_angle_gamma 90.000000
_cell_volume 2842.168938
_symmetry_space_group_name_H-M "P N M A"
_symmetry_group_IT_number 62
_symmetry_cell_setting 'orthorhombic'
loop_
_space_group_symop_operation_xyz
x,y,z
1/2-x,-y,1/2+z
1/2+x,1/2-y,1/2-z
-x,1/2+y,-z
-x,-y,-z
1/2+x,y,1/2-z
1/2-x,1/2+y,1/2+z
x,1/2-y,z
loop_
_atom_site_type_symbol
_atom_site_label
_atom_site_fract_x
_atom_site_fract_y
_atom_site_fract_z
Si Si1 0.622338 0.423310 0.307863
Si Si2 0.524024 0.928151 0.404176
Si Si3 0.330828 0.930463 0.183547
Si Si4 0.232456 0.428747 0.298545
Si Si5 0.042856 0.074269 0.715811
Si Si6 0.323960 0.075019 0.984978
Si Si7 0.429717 0.422993 0.868764
O O1 0.613285 0.250000 0.338456
O O2 0.590940 0.524910 0.389126
O O3 0.689667 0.461244 0.292306
O O4 0.594087 0.452769 0.204381
O O5 0.520357 0.750000 0.414210
O O6 0.486617 0.989852 0.313521
O O7 0.500000 0.000000 0.500000
O O8 0.327312 0.750000 0.191894
O O9 0.395252 0.999584 0.195577
O O10 0.293888 0.005391 0.268589
O O11 0.307396 0.980133 0.079170
O O12 0.236077 0.250000 0.320558
O O13 0.212041 0.513947 0.394653
O O14 0.055164 0.250000 0.731577
O O15 0.998742 0.048392 0.624831
O O16 0.307324 0.250000 0.001899
O O17 0.393211 0.057902 0.966865
O O18 0.420340 0.250000 0.828040
#
# Coordination Sequence:
#
# PCOD8251613 Si02
#       7
#     8   8   8   8   8   8   8
#     4   9  17  31  53  78 103 136 178 226 278 324
#     4  10  19  34  55  80 111 145 185 230 280 338
#     4  11  22  37  57  82 115 153 190 233 285 337
#     4  10  21  39  59  80 109 147 191 239 283 336
#     4   8  17  34  54  78 111 148 180 223 280 332
#     4  10  20  36  59  85 111 145 187 233 284 339
#     4   8  15  31  55  79 107 141 176 215 267 332
#
# _framework density 19.703261999999999
#
# number of rings (size 3 to 8) (size 9 to 14) (size 15 to 20)
#    0.000    2.571    0.000    3.000    0.000    2.857 
#    2.571    7.143    0.000    0.000    0.000    0.000 
#    0.000    0.000    0.000    0.000    0.000    0.000 
#
# Total GULP energy -693904.130663 kJ/mol
# GULP energy per Si atom -12391.145190 kJ/mol
# Density = 1.965842 g / cm^3
# Si number density = 19.703262 Si / 1000 Ang^3
#
#
#
# Elastic Constant Matrix: (Units=GPa)
#
#
# Indices 1 2 3 4 5 6 
#
# 1 107.4815 26.8957 22.8329 0.0000 0.0000 0.0000
# 2 26.8957 62.1819 14.5913 0.0000 0.0000 0.0000
# 3 22.8329 14.5913 59.5482 0.0000 0.0000 0.0000
# 4 0.0000 0.0000 0.0000 27.1866 0.0000 0.0000
# 5 0.0000 0.0000 0.0000 0.0000 25.9800 0.0000
# 6 0.0000 0.0000 0.0000 0.0000 0.0000 25.8157
#
#
#
# Elastic Compliance Matrix: (Units=1/GPa)
#
#
# Indices 1 2 3 4 5 6 
#
# 1 0.010991 -0.003995 -0.003235 0.000000 0.000000 0.000000
# 2 -0.003995 0.018515 -0.003005 0.000000 0.000000 0.000000
# 3 -0.003235 -0.003005 0.018770 0.000000 0.000000 0.000000
# 4 0.000000 0.000000 0.000000 0.036783 0.000000 0.000000
# 5 0.000000 0.000000 0.000000 0.000000 0.038491 0.000000
# 6 0.000000 0.000000 0.000000 0.000000 0.000000 0.038736
#
#
# Mechanical properties :
#
#
# Convention : Reuss Voigt Hill
#
# Bulk Modulus (GPa) = 35.96427 39.76126 37.86276
# Shear Modulus (GPa) = 26.03832 26.78924 26.41378
#
# Velocity S-wave (km/s) = 3.63922 3.69132 3.66536
# Velocity P-wave (km/s) = 5.99593 6.19610 6.09684
#
# Compressibility (1/GPa) = 0.02780537
#
# Stress axis : x y z
#
# Youngs Moduli (GPa) = 90.98466 54.01071 53.27640
#
# Poissons Ratio (x) = 0.21576 0.17237
# Poissons Ratio (y) = 0.36346 0.16010
# Poissons Ratio (z) = 0.29438 0.16230
#
# Static dielectric constant tensor:
#      x y z
#    x 3.923820 0.000000 0.000000 
#    y 0.000000 3.477540 0.000000 
#    z 0.000000 0.000000 3.326090 
# 
# 
# High freq. dielectric constant tensor:
#      x y z
#    x 1.770600 0.000000 0.000000 
#    y 0.000000 1.763480 0.000000 
#    z 0.000000 0.000000 1.741800 
# 
# From -- ./inp_files/20433.got.cif
#   From: 2010.03.12/outbox.cif.g09.slc.cpg/sg62_11_cif.got.tgz:20433.got - 2010.04.10 19:12:36.
