data_PCOD8251666
_publ_section_title
;
Structure prediction by ZEFSAII (Michael W. Deem and Ramdas Pophale) SiO2 
 PCOD8251666
Probable space group: P N M A
;
_chemical_formula_sum "Si O2"
_cell_formula_units_Z 64
_cell_length_a 21.874383
_cell_length_b 8.907562
_cell_length_c 16.626184
_cell_angle_alpha 90.000000
_cell_angle_beta 90.000000
_cell_angle_gamma 90.000000
_cell_volume 3239.569103
_symmetry_space_group_name_H-M "P N M A"
_symmetry_group_IT_number 62
_symmetry_cell_setting 'orthorhombic'
loop_
_space_group_symop_operation_xyz
x,y,z
1/2-x,-y,1/2+z
1/2+x,1/2-y,1/2-z
-x,1/2+y,-z
-x,-y,-z
1/2+x,y,1/2-z
1/2-x,1/2+y,1/2+z
x,1/2-y,z
loop_
_atom_site_type_symbol
_atom_site_label
_atom_site_fract_x
_atom_site_fract_y
_atom_site_fract_z
Si Si1 0.211678 0.419201 0.177440
Si Si2 0.115385 0.926790 0.068020
Si Si3 0.529567 0.426239 0.311402
Si Si4 0.172052 0.076935 0.629652
Si Si5 0.906486 0.919093 0.223279
Si Si6 0.186799 0.926786 0.461511
Si Si7 0.674983 0.423347 0.576049
Si Si8 0.124950 0.081093 0.320205
O O1 0.211010 0.250000 0.141857
O O2 0.174110 0.526578 0.119040
O O3 0.279100 0.483754 0.180672
O O4 0.186005 0.420588 0.266970
O O5 0.107761 0.750000 0.066016
O O6 0.054279 0.995949 0.107513
O O7 0.126319 0.986220 0.978089
O O8 0.539240 0.250000 0.322811
O O9 0.459162 0.464259 0.298782
O O10 0.568324 0.479782 0.233268
O O11 0.191871 0.250000 0.621688
O O12 0.110640 0.061062 0.682782
O O13 0.163813 0.007149 0.542017
O O14 0.930739 0.750000 0.208203
O O15 0.846631 0.948602 0.167908
O O16 0.184548 0.750000 0.474182
O O17 0.255208 0.980921 0.436801
O O18 0.136984 0.971555 0.394573
O O19 0.671742 0.250000 0.551211
O O20 0.111825 0.250000 0.351434
#
# Coordination Sequence:
#
# PCOD8251666 Si02
#       8
#     8   8   8   8   8   8   8   8
#     4  10  19  34  56  84 117 152 189 235 291 346
#     4  11  21  34  58  88 117 155 194 235 287 345
#     4  10  22  41  62  84 115 155 199 247 292 343
#     4  11  22  37  58  85 118 153 192 240 295 351
#     4  10  23  41  60  84 115 155 198 245 293 345
#     4  11  22  36  59  89 120 153 190 237 293 352
#     4  10  21  38  58  85 123 154 187 238 293 348
#     4   9  20  37  58  83 113 148 190 241 291 342
#
# _framework density 19.755714000000001
#
# number of rings (size 3 to 8) (size 9 to 14) (size 15 to 20)
#    0.000    1.750    1.250    4.125    0.000    6.500 
#    0.000    0.625    0.000    0.000    0.000    0.000 
#    0.000    0.000    0.000    0.000    0.000    0.000 
#
# Total GULP energy -793639.431623 kJ/mol
# GULP energy per Si atom -12400.616119 kJ/mol
# Density = 1.971075 g / cm^3
# Si number density = 19.755714 Si / 1000 Ang^3
#
#
#
# Elastic Constant Matrix: (Units=GPa)
#
#
# Indices 1 2 3 4 5 6 
#
# 1 50.8668 18.4057 28.5651 0.0000 0.0000 0.0000
# 2 18.4057 83.0783 44.2198 0.0000 0.0000 0.0000
# 3 28.5651 44.2198 107.8446 0.0000 0.0000 0.0000
# 4 0.0000 0.0000 0.0000 32.4002 0.0000 0.0000
# 5 0.0000 0.0000 0.0000 0.0000 21.6555 0.0000
# 6 0.0000 0.0000 0.0000 0.0000 0.0000 30.7758
#
#
#
# Elastic Compliance Matrix: (Units=1/GPa)
#
#
# Indices 1 2 3 4 5 6 
#
# 1 0.023468 -0.002418 -0.005224 0.000000 0.000000 0.000000
# 2 -0.002418 0.015646 -0.005775 0.000000 0.000000 0.000000
# 3 -0.005224 -0.005775 0.013024 0.000000 0.000000 0.000000
# 4 0.000000 0.000000 0.000000 0.030864 0.000000 0.000000
# 5 0.000000 0.000000 0.000000 0.000000 0.046178 0.000000
# 6 0.000000 0.000000 0.000000 0.000000 0.000000 0.032493
#
#
# Mechanical properties :
#
#
# Convention : Reuss Voigt Hill
#
# Bulk Modulus (GPa) = 39.52071 47.13011 43.32541
# Shear Modulus (GPa) = 25.38796 27.00624 26.19710
#
# Velocity S-wave (km/s) = 3.58871 3.70132 3.64545
# Velocity P-wave (km/s) = 6.10081 6.49420 6.30058
#
# Compressibility (1/GPa) = 0.02530319
#
# Stress axis : x y z
#
# Youngs Moduli (GPa) = 42.61096 63.91216 76.77935
#
# Poissons Ratio (x) = 0.15457 0.40113
# Poissons Ratio (y) = 0.10305 0.44340
# Poissons Ratio (z) = 0.22262 0.36909
#
# Static dielectric constant tensor:
#      x y z
#    x 3.377260 0.000000 0.000000 
#    y 0.000000 3.577710 0.000000 
#    z 0.000000 0.000000 3.581950 
# 
# 
# High freq. dielectric constant tensor:
#      x y z
#    x 1.749590 0.000000 0.000000 
#    y 0.000000 1.773970 0.000000 
#    z 0.000000 0.000000 1.772170 
# 
# From -- ./inp_files/20982.got.cif
#   From: 2010.03.12/outbox.cif.g09.slc.cpg/sg62_11_cif.got.tgz:20982.got - 2010.04.10 19:12:36.
