data_PCOD8251237
_publ_section_title
;
Structure prediction by ZEFSAII (Michael W. Deem and Ramdas Pophale) SiO2 
 PCOD8251237
Probable space group: P N M A
;
_chemical_formula_sum "Si O2"
_cell_formula_units_Z 64
_cell_length_a 28.184645
_cell_length_b 9.172900
_cell_length_c 12.511553
_cell_angle_alpha 90.000000
_cell_angle_beta 90.000000
_cell_angle_gamma 90.000000
_cell_volume 3234.673481
_symmetry_space_group_name_H-M "P N M A"
_symmetry_group_IT_number 62
_symmetry_cell_setting 'orthorhombic'
loop_
_space_group_symop_operation_xyz
x,y,z
1/2-x,-y,1/2+z
1/2+x,1/2-y,1/2-z
-x,1/2+y,-z
-x,-y,-z
1/2+x,y,1/2-z
1/2-x,1/2+y,1/2+z
x,1/2-y,z
loop_
_atom_site_type_symbol
_atom_site_label
_atom_site_fract_x
_atom_site_fract_y
_atom_site_fract_z
Si Si1 0.323156 0.418844 0.746388
Si Si2 0.914741 0.418157 0.438261
Si Si3 0.840511 0.914025 0.317944
Si Si4 0.572331 0.919179 0.180410
Si Si5 0.590547 0.414193 0.616868
Si Si6 0.334043 0.418230 0.502987
Si Si7 0.766300 0.421050 0.189845
Si Si8 0.016915 0.579108 0.755047
O O1 0.313556 0.250000 0.772044
O O2 0.375511 0.464515 0.782189
O O3 0.316106 0.453297 0.621385
O O4 0.286579 0.514874 0.814779
O O5 0.899812 0.250000 0.427578
O O6 0.867325 0.511785 0.417338
O O7 0.933996 0.454986 0.555409
O O8 0.956027 0.458205 0.355049
O O9 0.825622 0.750000 0.349709
O O10 0.875584 0.915413 0.218517
O O11 0.793571 0.004068 0.288806
O O12 0.562126 0.750000 0.204164
O O13 0.535728 0.015153 0.247799
O O14 0.576524 0.250000 0.584139
O O15 0.618469 0.489258 0.519471
O O16 0.543191 0.504217 0.644684
O O17 0.348550 0.250000 0.489771
O O18 0.291655 0.459255 0.422114
O O19 0.764737 0.250000 0.211111
O O20 0.014489 0.750000 0.777188
#
# Coordination Sequence:
#
# PCOD8251237 Si02
#       8
#     8   8   8   8   8   8   8   8
#     4  10  22  39  56  76 106 141 175 215 262 310
#     4   9  18  32  51  78 110 142 175 215 266 317
#     4   9  17  30  51  79 107 135 171 214 258 308
#     4  10  21  36  52  73 106 144 181 222 266 313
#     4   9  17  31  54  81 105 132 171 216 259 308
#     4   9  19  37  58  79 105 136 170 212 262 309
#     4  10  20  35  56  79 104 135 172 214 257 308
#     4  10  19  32  53  79 108 141 177 218 263 315
#
# _framework density 19.785613999999999
#
# number of rings (size 3 to 8) (size 9 to 14) (size 15 to 20)
#    0.000    2.500    0.000    1.875    0.000    6.500 
#    0.000    3.125    0.000    0.000    0.000    0.000 
#    0.000    0.000    0.000    0.000    0.000    0.000 
#
# Total GULP energy -793783.605352 kJ/mol
# GULP energy per Si atom -12402.868834 kJ/mol
# Density = 1.974058 g / cm^3
# Si number density = 19.785614 Si / 1000 Ang^3
#
#
#
# Elastic Constant Matrix: (Units=GPa)
#
#
# Indices 1 2 3 4 5 6 
#
# 1 111.8416 57.1922 25.1150 0.0000 0.0000 0.0000
# 2 57.1922 100.2537 23.9024 0.0000 0.0000 0.0000
# 3 25.1150 23.9024 39.9859 0.0000 0.0000 0.0000
# 4 0.0000 0.0000 0.0000 19.3247 0.0000 0.0000
# 5 0.0000 0.0000 0.0000 0.0000 22.0886 0.0000
# 6 0.0000 0.0000 0.0000 0.0000 0.0000 41.7627
#
#
#
# Elastic Compliance Matrix: (Units=1/GPa)
#
#
# Indices 1 2 3 4 5 6 
#
# 1 0.013268 -0.006510 -0.004442 0.000000 0.000000 0.000000
# 2 -0.006510 0.014827 -0.004774 0.000000 0.000000 0.000000
# 3 -0.004442 -0.004774 0.030653 0.000000 0.000000 0.000000
# 4 0.000000 0.000000 0.000000 0.051747 0.000000 0.000000
# 5 0.000000 0.000000 0.000000 0.000000 0.045272 0.000000
# 6 0.000000 0.000000 0.000000 0.000000 0.000000 0.023945
#
#
# Mechanical properties :
#
#
# Convention : Reuss Voigt Hill
#
# Bulk Modulus (GPa) = 36.63668 51.61115 44.12392
# Shear Modulus (GPa) = 22.70032 26.35997 24.53014
#
# Velocity S-wave (km/s) = 3.39088 3.65400 3.52489
# Velocity P-wave (km/s) = 5.82132 6.62904 6.23826
#
# Compressibility (1/GPa) = 0.02729505
#
# Stress axis : x y z
#
# Youngs Moduli (GPa) = 75.37169 67.44636 32.62362
#
# Poissons Ratio (x) = 0.43906 0.14491
# Poissons Ratio (y) = 0.49065 0.15575
# Poissons Ratio (z) = 0.33480 0.32200
#
# Static dielectric constant tensor:
#      x y z
#    x 3.500500 0.000000 0.000000 
#    y 0.000000 3.635510 0.000000 
#    z 0.000000 0.000000 3.446010 
# 
# 
# High freq. dielectric constant tensor:
#      x y z
#    x 1.767970 0.000000 0.000000 
#    y 0.000000 1.773090 0.000000 
#    z 0.000000 0.000000 1.752840 
# 
# From -- ./inp_files/15834.got.cif
#   From: 2010.03.12/outbox.cif.g09.slc.cpg/sg62_8_cif.got.tgz:15834.got - 2010.04.10 19:12:36.
