data_PCOD8251455
_publ_section_title
;
Structure prediction by ZEFSAII (Michael W. Deem and Ramdas Pophale) SiO2 
 PCOD8251455
Probable space group: P N M A
;
_chemical_formula_sum "Si O2"
_cell_formula_units_Z 56
_cell_length_a 20.956698
_cell_length_b 21.247653
_cell_length_c 7.040242
_cell_angle_alpha 90.000000
_cell_angle_beta 90.000000
_cell_angle_gamma 90.000000
_cell_volume 3134.883514
_symmetry_space_group_name_H-M "P N M A"
_symmetry_group_IT_number 62
_symmetry_cell_setting 'orthorhombic'
loop_
_space_group_symop_operation_xyz
x,y,z
1/2-x,-y,1/2+z
1/2+x,1/2-y,1/2-z
-x,1/2+y,-z
-x,-y,-z
1/2+x,y,1/2-z
1/2-x,1/2+y,1/2+z
x,1/2-y,z
loop_
_atom_site_type_symbol
_atom_site_label
_atom_site_fract_x
_atom_site_fract_y
_atom_site_fract_z
Si Si1 0.532211 0.593007 0.998217
Si Si2 0.805348 0.569098 0.876865
Si Si3 0.788708 0.321133 0.433664
Si Si4 0.388128 0.175799 0.752549
Si Si5 0.381846 0.119924 0.337630
Si Si6 0.597418 0.463958 0.075789
Si Si7 0.310567 0.504722 0.252132
O O1 0.553498 0.603701 0.778866
O O2 0.456193 0.584319 0.999468
O O3 0.551152 0.653026 0.124596
O O4 0.566337 0.532916 0.098669
O O5 0.770611 0.636579 0.865926
O O6 0.873149 0.565133 0.769204
O O7 0.761972 0.511732 0.800802
O O8 0.816141 0.560915 0.099758
O O9 0.763725 0.250000 0.446385
O O10 0.822157 0.341809 0.634500
O O11 0.843293 0.325868 0.273344
O O12 0.393469 0.250000 0.725080
O O13 0.393716 0.142040 0.550572
O O14 0.341750 0.056413 0.344675
O O15 0.655763 0.468435 0.932801
#
# Coordination Sequence:
#
# PCOD8251455 Si02
#       7
#     8   8   8   8   8   8   8
#     4   9  20  36  54  77 110 136 178 224 273 328
#     4  11  20  31  53  76 108 140 174 219 265 326
#     4   9  20  34  49  76 107 140 177 219 264 316
#     4  10  19  33  55  78 105 138 179 228 268 311
#     4   9  18  32  55  79 102 135 174 222 267 320
#     4  10  20  36  53  78 108 142 173 223 279 321
#     4  10  20  30  51  81 106 133 172 216 269 321
#
# _framework density 17.863502
#
# number of rings (size 3 to 8) (size 9 to 14) (size 15 to 20)
#    0.000    2.286    1.429    2.143    2.000    1.714 
#    0.000    5.000    0.000    2.571    0.000    0.000 
#    0.000    0.000    0.000    0.000    0.000    0.000 
#
# Total GULP energy -694163.391859 kJ/mol
# GULP energy per Si atom -12395.774855 kJ/mol
# Density = 1.782284 g / cm^3
# Si number density = 17.863502 Si / 1000 Ang^3
#
#
#
# Elastic Constant Matrix: (Units=GPa)
#
#
# Indices 1 2 3 4 5 6 
#
# 1 61.0384 22.2844 13.0764 0.0000 0.0000 0.0000
# 2 22.2844 48.7630 21.3996 0.0000 0.0000 0.0000
# 3 13.0764 21.3996 74.2425 0.0000 0.0000 0.0000
# 4 0.0000 0.0000 0.0000 26.1486 0.0000 0.0000
# 5 0.0000 0.0000 0.0000 0.0000 13.0327 0.0000
# 6 0.0000 0.0000 0.0000 0.0000 0.0000 16.9343
#
#
#
# Elastic Compliance Matrix: (Units=1/GPa)
#
#
# Indices 1 2 3 4 5 6 
#
# 1 0.019729 -0.008576 -0.001003 0.000000 0.000000 0.000000
# 2 -0.008576 0.027205 -0.006331 0.000000 0.000000 0.000000
# 3 -0.001003 -0.006331 0.015471 0.000000 0.000000 0.000000
# 4 0.000000 0.000000 0.000000 0.038243 0.000000 0.000000
# 5 0.000000 0.000000 0.000000 0.000000 0.076730 0.000000
# 6 0.000000 0.000000 0.000000 0.000000 0.000000 0.059052
#
#
# Mechanical properties :
#
#
# Convention : Reuss Voigt Hill
#
# Bulk Modulus (GPa) = 32.69583 33.06274 32.87928
# Shear Modulus (GPa) = 17.95692 19.70868 18.83280
#
# Velocity S-wave (km/s) = 3.17398 3.32519 3.25046
# Velocity P-wave (km/s) = 5.63693 5.76986 5.70378
#
# Compressibility (1/GPa) = 0.03058494
#
# Stress axis : x y z
#
# Youngs Moduli (GPa) = 50.68697 36.75815 64.63750
#
# Poissons Ratio (x) = 0.31523 0.06483
# Poissons Ratio (y) = 0.43468 0.40922
# Poissons Ratio (z) = 0.05084 0.23272
#
# Static dielectric constant tensor:
#      x y z
#    x 3.170030 0.000000 0.000000 
#    y 0.000000 3.192960 0.000000 
#    z 0.000000 0.000000 3.336880 
# 
# 
# High freq. dielectric constant tensor:
#      x y z
#    x 1.671750 0.000000 0.000000 
#    y 0.000000 1.677200 0.000000 
#    z 0.000000 0.000000 1.697640 
# 
# From -- ./inp_files/2293.got.cif
#   From: 2010.03.12/outbox.cif.g09.slc.cpg/sg62_2_cif.got.tgz:2293.got - 2010.04.10 19:12:36.
