data_PCOD8251411
_publ_section_title
;
Structure prediction by ZEFSAII (Michael W. Deem and Ramdas Pophale) SiO2 
 PCOD8251411
Probable space group: P N M A
;
_chemical_formula_sum "Si O2"
_cell_formula_units_Z 40
_cell_length_a 16.726658
_cell_length_b 8.780337
_cell_length_c 16.095025
_cell_angle_alpha 90.000000
_cell_angle_beta 90.000000
_cell_angle_gamma 90.000000
_cell_volume 2363.807019
_symmetry_space_group_name_H-M "P N M A"
_symmetry_group_IT_number 62
_symmetry_cell_setting 'orthorhombic'
loop_
_space_group_symop_operation_xyz
x,y,z
1/2-x,-y,1/2+z
1/2+x,1/2-y,1/2-z
-x,1/2+y,-z
-x,-y,-z
1/2+x,y,1/2-z
1/2-x,1/2+y,1/2+z
x,1/2-y,z
loop_
_atom_site_type_symbol
_atom_site_label
_atom_site_fract_x
_atom_site_fract_y
_atom_site_fract_z
Si Si1 0.384544 0.422034 0.774224
Si Si2 0.036020 0.073768 0.119778
Si Si3 0.219988 0.429136 0.397890
Si Si4 0.428866 0.421877 0.951674
Si Si5 0.883723 0.574143 0.053274
O O1 0.370571 0.250000 0.741734
O O2 0.416780 0.527906 0.701767
O O3 0.300656 0.491719 0.808781
O O4 0.446956 0.423242 0.852101
O O5 0.011502 0.250000 0.123871
O O6 0.093021 0.041202 0.041693
O O7 0.955995 0.973878 0.113538
O O8 0.212726 0.250000 0.388099
O O9 0.155030 0.488245 0.466423
O O10 0.307845 0.472156 0.426569
O O11 0.418770 0.250000 0.984652
O O12 0.500000 0.500000 0.000000
O O13 0.863356 0.750000 0.068998
#
# Coordination Sequence:
#
# PCOD8251411 Si02
#       5
#     8   8   8   8   8
#     4   9  19  34  53  76 106 139 173 218 269 314
#     4  10  20  34  55  80 106 141 182 219 264 318
#     4  10  19  33  54  77 105 139 176 220 266 316
#     4   9  18  32  53  78 105 140 175 213 266 317
#     4  10  20  35  54  78 109 142 178 220 267 318
#
# _framework density 16.921855000000001
#
# number of rings (size 3 to 8) (size 9 to 14) (size 15 to 20)
#    1.200    1.200    0.000    3.600    0.000    2.400 
#    0.000    2.000    0.000    9.600    0.000    0.000 
#    0.000    0.000    0.000    0.000    0.000    0.000 
#
# Total GULP energy -495753.683596 kJ/mol
# GULP energy per Si atom -12393.842090 kJ/mol
# Density = 1.688334 g / cm^3
# Si number density = 16.921855 Si / 1000 Ang^3
#
#
#
# Elastic Constant Matrix: (Units=GPa)
#
#
# Indices 1 2 3 4 5 6 
#
# 1 92.6342 32.0649 36.0015 0.0000 0.0000 0.0000
# 2 32.0649 95.6933 27.9565 0.0000 0.0000 0.0000
# 3 36.0015 27.9565 60.8938 0.0000 0.0000 0.0000
# 4 0.0000 0.0000 0.0000 27.7447 0.0000 0.0000
# 5 0.0000 0.0000 0.0000 0.0000 18.5526 0.0000
# 6 0.0000 0.0000 0.0000 0.0000 0.0000 35.3337
#
#
#
# Elastic Compliance Matrix: (Units=1/GPa)
#
#
# Indices 1 2 3 4 5 6 
#
# 1 0.014612 -0.002740 -0.007381 0.000000 0.000000 0.000000
# 2 -0.002740 0.012583 -0.004157 0.000000 0.000000 0.000000
# 3 -0.007381 -0.004157 0.022694 0.000000 0.000000 0.000000
# 4 0.000000 0.000000 0.000000 0.036043 0.000000 0.000000
# 5 0.000000 0.000000 0.000000 0.000000 0.053901 0.000000
# 6 0.000000 0.000000 0.000000 0.000000 0.000000 0.028302
#
#
# Mechanical properties :
#
#
# Convention : Reuss Voigt Hill
#
# Bulk Modulus (GPa) = 46.87484 49.02967 47.95225
# Shear Modulus (GPa) = 24.53375 26.53942 25.53659
#
# Velocity S-wave (km/s) = 3.81179 3.96454 3.88891
# Velocity P-wave (km/s) = 6.86541 7.07063 6.96878
#
# Compressibility (1/GPa) = 0.02133341
#
# Stress axis : x y z
#
# Youngs Moduli (GPa) = 68.43634 79.47529 44.06407
#
# Poissons Ratio (x) = 0.21775 0.32524
# Poissons Ratio (y) = 0.18751 0.18317
# Poissons Ratio (z) = 0.50513 0.33036
#
# Static dielectric constant tensor:
#      x y z
#    x 2.977750 0.000000 0.000000 
#    y 0.000000 3.376510 0.000000 
#    z 0.000000 0.000000 2.952620 
# 
# 
# High freq. dielectric constant tensor:
#      x y z
#    x 1.638490 0.000000 0.000000 
#    y 0.000000 1.675680 0.000000 
#    z 0.000000 0.000000 1.630590 
# 
# From -- ./inp_files/23460.got.cif
#   From: 2010.03.12/outbox.cif.g09.slc.cpg/sg62_12_cif.got.tgz:23460.got - 2010.04.10 19:12:36.
