data_PCOD8251539
_publ_section_title
;
Structure prediction by ZEFSAII (Michael W. Deem and Ramdas Pophale) SiO2 
 PCOD8251539
Probable space group: P N M A
;
_chemical_formula_sum "Si O2"
_cell_formula_units_Z 48
_cell_length_a 18.633159
_cell_length_b 17.934114
_cell_length_c 7.908136
_cell_angle_alpha 90.000000
_cell_angle_beta 90.000000
_cell_angle_gamma 90.000000
_cell_volume 2642.655462
_symmetry_space_group_name_H-M "P N M A"
_symmetry_group_IT_number 62
_symmetry_cell_setting 'orthorhombic'
loop_
_space_group_symop_operation_xyz
x,y,z
1/2-x,-y,1/2+z
1/2+x,1/2-y,1/2-z
-x,1/2+y,-z
-x,-y,-z
1/2+x,y,1/2-z
1/2-x,1/2+y,1/2+z
x,1/2-y,z
loop_
_atom_site_type_symbol
_atom_site_label
_atom_site_fract_x
_atom_site_fract_y
_atom_site_fract_z
Si Si1 0.597280 0.836140 0.059003
Si Si2 0.502906 0.838429 0.746912
Si Si3 0.597852 0.663979 0.436165
Si Si4 0.230571 0.916211 0.936089
Si Si5 0.273394 0.423874 0.066044
Si Si6 0.658756 0.161958 0.263309
O O1 0.615889 0.750000 0.021176
O O2 0.564395 0.845605 0.247941
O O3 0.541651 0.866632 0.918606
O O4 0.670938 0.882369 0.055211
O O5 0.500036 0.750000 0.747191
O O6 0.542998 0.867257 0.577405
O O7 0.422090 0.869748 0.745533
O O8 0.615160 0.750000 0.475600
O O9 0.672933 0.619830 0.438795
O O10 0.192271 0.928215 0.754083
O O11 0.299425 0.861381 0.909461
O O12 0.258988 0.993712 0.004103
O O13 0.198578 0.377102 0.076525
O O14 0.661030 0.250000 0.288135
#
# Coordination Sequence:
#
# PCOD8251539 Si02
#       6
#     8   8   8   8   8   8
#     4  10  19  33  58  84 109 147 193 232 279 339
#     4   9  17  35  57  83 113 145 184 237 280 334
#     4  10  19  33  58  84 109 147 193 232 279 339
#     4  10  20  34  56  79 117 145 189 231 282 326
#     4  10  20  34  56  79 117 145 189 231 282 326
#     4   9  19  35  61  83 110 151 190 231 289 332
#
# _framework density 18.163549
#
# number of rings (size 3 to 8) (size 9 to 14) (size 15 to 20)
#    1.000    1.333    1.667    2.000    0.000    0.000 
#    0.000    5.000    0.000    8.000    0.000    0.000 
#    0.000    0.000    0.000    0.000    0.000    0.000 
#
# Total GULP energy -594819.858992 kJ/mol
# GULP energy per Si atom -12392.080396 kJ/mol
# Density = 1.812221 g / cm^3
# Si number density = 18.163549 Si / 1000 Ang^3
#
#
#
# Elastic Constant Matrix: (Units=GPa)
#
#
# Indices 1 2 3 4 5 6 
#
# 1 117.2874 13.4725 37.9701 0.0000 0.0000 0.0000
# 2 13.4725 37.8729 8.7221 0.0000 0.0000 0.0000
# 3 37.9701 8.7221 107.0812 0.0000 0.0000 0.0000
# 4 0.0000 0.0000 0.0000 10.4172 0.0000 0.0000
# 5 0.0000 0.0000 0.0000 0.0000 15.8010 0.0000
# 6 0.0000 0.0000 0.0000 0.0000 0.0000 8.2685
#
#
#
# Elastic Compliance Matrix: (Units=1/GPa)
#
#
# Indices 1 2 3 4 5 6 
#
# 1 0.009908 -0.002767 -0.003288 0.000000 0.000000 0.000000
# 2 -0.002767 0.027682 -0.001273 0.000000 0.000000 0.000000
# 3 -0.003288 -0.001273 0.010608 0.000000 0.000000 0.000000
# 4 0.000000 0.000000 0.000000 0.095995 0.000000 0.000000
# 5 0.000000 0.000000 0.000000 0.000000 0.063287 0.000000
# 6 0.000000 0.000000 0.000000 0.000000 0.000000 0.120941
#
#
# Mechanical properties :
#
#
# Convention : Reuss Voigt Hill
#
# Bulk Modulus (GPa) = 29.81450 42.50785 36.16118
# Shear Modulus (GPa) = 14.11395 20.36915 17.24155
#
# Velocity S-wave (km/s) = 2.79058 3.35241 3.08431
# Velocity P-wave (km/s) = 5.18008 6.19988 5.71278
#
# Compressibility (1/GPa) = 0.03354072
#
# Stress axis : x y z
#
# Youngs Moduli (GPa) = 100.92442 36.12476 94.26547
#
# Poissons Ratio (x) = 0.09997 0.30995
# Poissons Ratio (y) = 0.27931 0.12004
# Poissons Ratio (z) = 0.33184 0.04600
#
# Static dielectric constant tensor:
#      x y z
#    x 3.328140 0.000000 0.000000 
#    y 0.000000 3.065210 0.000000 
#    z 0.000000 0.000000 3.359860 
# 
# 
# High freq. dielectric constant tensor:
#      x y z
#    x 1.692170 0.000000 0.000000 
#    y 0.000000 1.686660 0.000000 
#    z 0.000000 0.000000 1.701420 
# 
# From -- ./inp_files/8796.got.cif
#   From: 2010.03.12/outbox.cif.g09.slc.cpg/sg62_5_cif.got.tgz:8796.got - 2010.04.10 19:12:36.
