data_PCOD8251397
_publ_section_title
;
Structure prediction by ZEFSAII (Michael W. Deem and Ramdas Pophale) SiO2 
 PCOD8251397
Probable space group: P N M A
;
_chemical_formula_sum "Si O2"
_cell_formula_units_Z 48
_cell_length_a 8.839709
_cell_length_b 31.735531
_cell_length_c 9.049149
_cell_angle_alpha 90.000000
_cell_angle_beta 90.000000
_cell_angle_gamma 90.000000
_cell_volume 2538.583640
_symmetry_space_group_name_H-M "P N M A"
_symmetry_group_IT_number 62
_symmetry_cell_setting 'orthorhombic'
loop_
_space_group_symop_operation_xyz
x,y,z
1/2-x,-y,1/2+z
1/2+x,1/2-y,1/2-z
-x,1/2+y,-z
-x,-y,-z
1/2+x,y,1/2-z
1/2-x,1/2+y,1/2+z
x,1/2-y,z
loop_
_atom_site_type_symbol
_atom_site_label
_atom_site_fract_x
_atom_site_fract_y
_atom_site_fract_z
Si Si1 0.020249 0.545936 0.565407
Si Si2 0.330093 0.333572 0.144080
Si Si3 0.522256 0.202742 0.389932
Si Si4 0.526376 0.877067 0.428433
Si Si5 0.324282 0.113180 0.878904
Si Si6 0.794020 0.417757 0.182260
O O1 0.093674 0.570705 0.429006
O O2 0.132590 0.547667 0.706991
O O3 0.000000 0.500000 0.500000
O O4 0.860796 0.565439 0.614305
O O5 0.465396 0.311488 0.228972
O O6 0.261295 0.374616 0.228167
O O7 0.202284 0.298546 0.122545
O O8 0.386432 0.349019 0.983252
O O9 0.469238 0.250000 0.429557
O O10 0.462886 0.171031 0.514801
O O11 0.356687 0.890922 0.390540
O O12 0.635187 0.877731 0.288728
O O13 0.587468 0.909449 0.550839
#
# Coordination Sequence:
#
# PCOD8251397 Si02
#       6
#     8   8   8   8   8   8
#     4  11  23  38  59  86 112 141 183 232 273 317
#     4   9  18  34  57  77 104 141 180 220 269 331
#     4  10  19  33  53  81 108 139 182 230 272 317
#     4  10  21  37  59  79 110 150 185 222 272 336
#     4  10  20  37  56  81 108 146 187 221 273 333
#     4  10  20  39  59  80 110 147 183 219 270 334
#
# _framework density 18.908180999999999
#
# number of rings (size 3 to 8) (size 9 to 14) (size 15 to 20)
#    0.000    2.000    0.000    6.500    0.000    4.000 
#    0.000    6.667    0.000    0.000    0.000    0.000 
#    0.000    0.000    0.000    0.000    0.000    0.000 
#
# Total GULP energy -595155.361699 kJ/mol
# GULP energy per Si atom -12399.070035 kJ/mol
# Density = 1.886515 g / cm^3
# Si number density = 18.908181 Si / 1000 Ang^3
#
#
#
# Elastic Constant Matrix: (Units=GPa)
#
#
# Indices 1 2 3 4 5 6 
#
# 1 65.2078 20.8106 23.7124 0.0000 0.0000 0.0000
# 2 20.8106 92.4724 27.2882 0.0000 0.0000 0.0000
# 3 23.7124 27.2882 112.6673 0.0000 0.0000 0.0000
# 4 0.0000 0.0000 0.0000 17.3915 0.0000 0.0000
# 5 0.0000 0.0000 0.0000 0.0000 35.5581 0.0000
# 6 0.0000 0.0000 0.0000 0.0000 0.0000 21.2031
#
#
#
# Elastic Compliance Matrix: (Units=1/GPa)
#
#
# Indices 1 2 3 4 5 6 
#
# 1 0.017369 -0.003048 -0.002917 0.000000 0.000000 0.000000
# 2 -0.003048 0.012181 -0.002309 0.000000 0.000000 0.000000
# 3 -0.002917 -0.002309 0.010049 0.000000 0.000000 0.000000
# 4 0.000000 0.000000 0.000000 0.057499 0.000000 0.000000
# 5 0.000000 0.000000 0.000000 0.000000 0.028123 0.000000
# 6 0.000000 0.000000 0.000000 0.000000 0.000000 0.047163
#
#
# Mechanical properties :
#
#
# Convention : Reuss Voigt Hill
#
# Bulk Modulus (GPa) = 43.38200 45.99665 44.68933
# Shear Modulus (GPa) = 25.43018 28.06628 26.74823
#
# Velocity S-wave (km/s) = 3.67131 3.85690 3.76525
# Velocity P-wave (km/s) = 6.40036 6.64931 6.52603
#
# Compressibility (1/GPa) = 0.02305103
#
# Stress axis : x y z
#
# Youngs Moduli (GPa) = 57.57313 82.09301 99.51337
#
# Poissons Ratio (x) = 0.25022 0.29032
# Poissons Ratio (y) = 0.17548 0.22976
# Poissons Ratio (z) = 0.16796 0.18954
#
# Static dielectric constant tensor:
#      x y z
#    x 3.479820 0.000000 0.000000 
#    y 0.000000 3.353360 0.000000 
#    z 0.000000 0.000000 3.690220 
# 
# 
# High freq. dielectric constant tensor:
#      x y z
#    x 1.743040 0.000000 0.000000 
#    y 0.000000 1.716580 0.000000 
#    z 0.000000 0.000000 1.740540 
# 
# From -- ./inp_files/4498.got.cif
#   From: 2010.03.12/outbox.cif.g09.slc.cpg/sg62_3_cif.got.tgz:4498.got - 2010.04.10 19:12:36.
