data_PCOD8251449
_publ_section_title
;
Structure prediction by ZEFSAII (Michael W. Deem and Ramdas Pophale) SiO2 
 PCOD8251449
Probable space group: P N M A
;
_chemical_formula_sum "Si O2"
_cell_formula_units_Z 56
_cell_length_a 9.159236
_cell_length_b 14.090379
_cell_length_c 22.419251
_cell_angle_alpha 90.000000
_cell_angle_beta 90.000000
_cell_angle_gamma 90.000000
_cell_volume 2893.363666
_symmetry_space_group_name_H-M "P N M A"
_symmetry_group_IT_number 62
_symmetry_cell_setting 'orthorhombic'
loop_
_space_group_symop_operation_xyz
x,y,z
1/2-x,-y,1/2+z
1/2+x,1/2-y,1/2-z
-x,1/2+y,-z
-x,-y,-z
1/2+x,y,1/2-z
1/2-x,1/2+y,1/2+z
x,1/2-y,z
loop_
_atom_site_type_symbol
_atom_site_label
_atom_site_fract_x
_atom_site_fract_y
_atom_site_fract_z
Si Si1 0.954944 0.145987 0.519121
Si Si2 0.099093 0.530926 0.917858
Si Si3 0.720481 0.357783 0.785255
Si Si4 0.042198 0.140447 0.829245
Si Si5 0.930821 0.978102 0.380119
Si Si6 0.697103 0.445105 0.461334
Si Si7 0.376540 0.640428 0.901600
O O1 0.969646 0.250000 0.546736
O O2 0.956996 0.074141 0.574487
O O3 0.085057 0.127038 0.471868
O O4 0.801667 0.139769 0.483269
O O5 0.072294 0.432065 0.882957
O O6 0.214942 0.601009 0.886624
O O7 0.947986 0.589820 0.926398
O O8 0.156199 0.509826 0.983321
O O9 0.693885 0.250000 0.805539
O O10 0.678027 0.371324 0.716123
O O11 0.603144 0.420293 0.821002
O O12 0.889192 0.385738 0.796412
O O13 0.037163 0.250000 0.852863
O O14 0.779242 0.988259 0.414335
O O15 0.006782 0.078550 0.363346
O O16 0.387907 0.750000 0.881839
#
# Coordination Sequence:
#
# PCOD8251449 Si02
#       7
#     8   8   8   8   8   8   8
#     4  10  19  33  54  84 117 153 191 233 288 355
#     4  11  20  37  56  80 118 154 192 244 295 340
#     4  10  22  39  61  91 121 154 194 236 292 359
#     4  10  23  40  59  89 122 154 193 238 293 360
#     4  11  18  38  57  85 119 157 197 237 291 350
#     4  10  20  33  54  81 116 152 195 236 283 352
#     4  10  21  35  55  80 112 152 196 240 285 340
#
# _framework density 19.354635999999999
#
# number of rings (size 3 to 8) (size 9 to 14) (size 15 to 20)
#    0.000    1.714    4.286    1.286    2.000    1.143 
#    0.000    2.143    0.000    0.857    0.000    0.000 
#    0.000    0.000    0.000    0.000    0.000    0.000 
#
# Total GULP energy -694064.678173 kJ/mol
# GULP energy per Si atom -12394.012110 kJ/mol
# Density = 1.931058 g / cm^3
# Si number density = 19.354636 Si / 1000 Ang^3
#
#
#
# Elastic Constant Matrix: (Units=GPa)
#
#
# Indices 1 2 3 4 5 6 
#
# 1 123.0153 48.0029 26.5070 0.0000 0.0000 0.0000
# 2 48.0029 98.6921 18.6075 0.0000 0.0000 0.0000
# 3 26.5070 18.6075 36.0498 0.0000 0.0000 0.0000
# 4 0.0000 0.0000 0.0000 25.0410 0.0000 0.0000
# 5 0.0000 0.0000 0.0000 0.0000 23.1103 0.0000
# 6 0.0000 0.0000 0.0000 0.0000 0.0000 27.2435
#
#
#
# Elastic Compliance Matrix: (Units=1/GPa)
#
#
# Indices 1 2 3 4 5 6 
#
# 1 0.011074 -0.004266 -0.005940 0.000000 0.000000 0.000000
# 2 -0.004266 0.012868 -0.003505 0.000000 0.000000 0.000000
# 3 -0.005940 -0.003505 0.033917 0.000000 0.000000 0.000000
# 4 0.000000 0.000000 0.000000 0.039934 0.000000 0.000000
# 5 0.000000 0.000000 0.000000 0.000000 0.043271 0.000000
# 6 0.000000 0.000000 0.000000 0.000000 0.000000 0.036706
#
#
# Mechanical properties :
#
#
# Convention : Reuss Voigt Hill
#
# Bulk Modulus (GPa) = 32.85687 49.33245 41.09466
# Shear Modulus (GPa) = 23.21920 26.05494 24.63707
#
# Velocity S-wave (km/s) = 3.46738 3.67302 3.57168
# Velocity P-wave (km/s) = 5.74834 6.59789 6.18771
#
# Compressibility (1/GPa) = 0.03043504
#
# Stress axis : x y z
#
# Youngs Moduli (GPa) = 90.30290 77.70939 29.48411
#
# Poissons Ratio (x) = 0.33152 0.17515
# Poissons Ratio (y) = 0.38525 0.10335
# Poissons Ratio (z) = 0.53644 0.27240
#
# Static dielectric constant tensor:
#      x y z
#    x 3.939880 0.000000 0.000000 
#    y 0.000000 3.409850 0.000000 
#    z 0.000000 0.000000 3.167380 
# 
# 
# High freq. dielectric constant tensor:
#      x y z
#    x 1.772540 0.000000 0.000000 
#    y 0.000000 1.736930 0.000000 
#    z 0.000000 0.000000 1.716370 
# 
# From -- ./inp_files/26015.got.cif
#   From: 2010.03.12/outbox.cif.g09.slc.cpg/sg62_14_cif.got.tgz:26015.got - 2010.04.10 19:12:36.
