data_PCOD8251631
_publ_section_title
;
Structure prediction by ZEFSAII (Michael W. Deem and Ramdas Pophale) SiO2 
 PCOD8251631
Probable space group: P N M A
;
_chemical_formula_sum "Si O2"
_cell_formula_units_Z 64
_cell_length_a 10.983468
_cell_length_b 9.898596
_cell_length_c 31.675781
_cell_angle_alpha 90.000000
_cell_angle_beta 90.000000
_cell_angle_gamma 90.000000
_cell_volume 3443.819812
_symmetry_space_group_name_H-M "P N M A"
_symmetry_group_IT_number 62
_symmetry_cell_setting 'orthorhombic'
loop_
_space_group_symop_operation_xyz
x,y,z
1/2-x,-y,1/2+z
1/2+x,1/2-y,1/2-z
-x,1/2+y,-z
-x,-y,-z
1/2+x,y,1/2-z
1/2-x,1/2+y,1/2+z
x,1/2-y,z
loop_
_atom_site_type_symbol
_atom_site_label
_atom_site_fract_x
_atom_site_fract_y
_atom_site_fract_z
Si Si1 0.603202 0.098329 0.375878
Si Si2 0.255076 0.090863 0.984443
Si Si3 0.337214 0.099034 0.075538
Si Si4 0.245537 0.397451 0.850434
Si Si5 0.802076 0.409899 0.225296
Si Si6 0.946553 0.598599 0.075043
Si Si7 0.943986 0.095177 0.583135
Si Si8 0.076028 0.408850 0.218364
O O1 0.547291 0.250000 0.378763
O O2 0.746572 0.103729 0.384843
O O3 0.579595 0.034151 0.329543
O O4 0.551447 0.005731 0.413206
O O5 0.254631 0.250000 0.977119
O O6 0.124343 0.041125 0.966373
O O7 0.365943 0.034277 0.955932
O O8 0.270428 0.047716 0.032819
O O9 0.390372 0.250000 0.067661
O O10 0.438579 0.994995 0.088479
O O11 0.242574 0.250000 0.827471
O O12 0.221324 0.519275 0.818984
O O13 0.146094 0.398492 0.886494
O O14 0.375481 0.418513 0.872378
O O15 0.789621 0.250000 0.218455
O O16 0.695241 0.465064 0.256613
O O17 0.943100 0.444721 0.239431
O O18 0.999900 0.750000 0.067593
O O19 0.981876 0.250000 0.574454
O O20 0.093051 0.250000 0.215765
#
# Coordination Sequence:
#
# PCOD8251631 Si02
#       8
#     8   8   8   8   8   8   8   8
#     4  10  20  34  50  73 105 134 166 216 261 301
#     4   8  16  32  51  73 101 135 172 215 262 304
#     4  10  20  32  49  74 105 137 172 216 261 300
#     4   9  18  33  53  77 100 128 167 211 255 299
#     4  10  19  34  56  77 100 135 173 211 257 316
#     4   9  17  32  54  73  96 134 175 208 251 310
#     4   9  18  33  52  72 102 138 171 209 255 311
#     4   9  19  34  53  77 104 133 169 212 261 312
#
# _framework density 18.584014
#
# number of rings (size 3 to 8) (size 9 to 14) (size 15 to 20)
#    0.000    2.750    1.250    1.875    0.000    2.500 
#    0.000    6.250    0.000    0.000    0.000    0.000 
#    0.000    0.000    0.000    0.000    0.000    0.000 
#
# Total GULP energy -793045.485704 kJ/mol
# GULP energy per Si atom -12391.335714 kJ/mol
# Density = 1.854172 g / cm^3
# Si number density = 18.584014 Si / 1000 Ang^3
#
#
#
# Elastic Constant Matrix: (Units=GPa)
#
#
# Indices 1 2 3 4 5 6 
#
# 1 100.3332 31.3475 30.9452 0.0000 0.0000 0.0000
# 2 31.3475 51.0676 13.6104 0.0000 0.0000 0.0000
# 3 30.9452 13.6104 39.4789 0.0000 0.0000 0.0000
# 4 0.0000 0.0000 0.0000 20.9104 0.0000 0.0000
# 5 0.0000 0.0000 0.0000 0.0000 20.2150 0.0000
# 6 0.0000 0.0000 0.0000 0.0000 0.0000 24.6475
#
#
#
# Elastic Compliance Matrix: (Units=1/GPa)
#
#
# Indices 1 2 3 4 5 6 
#
# 1 0.014957 -0.006670 -0.009425 0.000000 0.000000 0.000000
# 2 -0.006670 0.024537 -0.003231 0.000000 0.000000 0.000000
# 3 -0.009425 -0.003231 0.033832 0.000000 0.000000 0.000000
# 4 0.000000 0.000000 0.000000 0.047823 0.000000 0.000000
# 5 0.000000 0.000000 0.000000 0.000000 0.049468 0.000000
# 6 0.000000 0.000000 0.000000 0.000000 0.000000 0.040572
#
#
# Mechanical properties :
#
#
# Convention : Reuss Voigt Hill
#
# Bulk Modulus (GPa) = 28.83954 38.07619 33.45786
# Shear Modulus (GPa) = 19.12779 20.81968 19.97374
#
# Velocity S-wave (km/s) = 3.21169 3.35072 3.28194
# Velocity P-wave (km/s) = 5.41345 5.95843 5.69247
#
# Compressibility (1/GPa) = 0.03467462
#
# Stress axis : x y z
#
# Youngs Moduli (GPa) = 66.85615 40.75445 29.55811
#
# Poissons Ratio (x) = 0.27182 0.27858
# Poissons Ratio (y) = 0.44591 0.09551
# Poissons Ratio (z) = 0.63012 0.13169
#
# Static dielectric constant tensor:
#      x y z
#    x 3.543400 0.000000 0.000000 
#    y 0.000000 3.512290 0.000000 
#    z 0.000000 0.000000 3.514800 
# 
# 
# High freq. dielectric constant tensor:
#      x y z
#    x 1.720730 0.000000 0.000000 
#    y 0.000000 1.695530 0.000000 
#    z 0.000000 0.000000 1.711160 
# 
# From -- ./inp_files/32487.got.cif
#   From: 2010.03.12/outbox.cif.g09.slc.cpg/sg62_17_cif.got.tgz:32487.got - 2010.04.10 19:12:36.
