data_PCOD8251987
_publ_section_title
;
Structure prediction by ZEFSAII (Michael W. Deem and Ramdas Pophale) SiO2 
 PCOD8251987
Probable space group: P N M A
;
_chemical_formula_sum "Si O2"
_cell_formula_units_Z 48
_cell_length_a 9.471699
_cell_length_b 8.305320
_cell_length_c 32.991414
_cell_angle_alpha 90.000000
_cell_angle_beta 90.000000
_cell_angle_gamma 90.000000
_cell_volume 2595.285786
_symmetry_space_group_name_H-M "P N M A"
_symmetry_group_IT_number 62
_symmetry_cell_setting 'orthorhombic'
loop_
_space_group_symop_operation_xyz
x,y,z
1/2-x,-y,1/2+z
1/2+x,1/2-y,1/2-z
-x,1/2+y,-z
-x,-y,-z
1/2+x,y,1/2-z
1/2-x,1/2+y,1/2+z
x,1/2-y,z
loop_
_atom_site_type_symbol
_atom_site_label
_atom_site_fract_x
_atom_site_fract_y
_atom_site_fract_z
Si Si1 0.057464 0.935719 0.673034
Si Si2 0.367056 0.750000 0.223064
Si Si3 0.507357 0.065438 0.955107
Si Si4 0.490048 0.923578 0.377702
Si Si5 0.189869 0.431458 0.387195
Si Si6 0.239303 0.569560 0.595550
Si Si7 0.045937 0.750000 0.199083
O O1 0.070365 0.750000 0.690746
O O2 0.177687 0.965641 0.639852
O O3 0.904920 0.957618 0.652579
O O4 0.073398 0.081598 0.704773
O O5 0.197365 0.750000 0.221257
O O6 0.418337 0.750000 0.269132
O O7 0.463859 0.250000 0.954468
O O8 0.397284 0.969856 0.927503
O O9 0.666065 0.044958 0.937592
O O10 0.500000 0.000000 0.000000
O O11 0.516084 0.750000 0.398349
O O12 0.527976 0.909115 0.329520
O O13 0.327351 0.961745 0.383490
O O14 0.592438 0.045772 0.401324
O O15 0.242395 0.250000 0.390211
O O16 0.205664 0.750000 0.581625
#
# Coordination Sequence:
#
# PCOD8251987 Si02
#       7
#     8   4   8   8   8   8   4
#     4   9  20  36  60  85 112 155 207 243 303 368
#     4  12  22  42  60  86 124 160 198 266 314 362
#     4  11  22  37  60  90 122 155 194 244 300 363
#     4  10  20  37  56  87 113 153 203 241 295 363
#     4  10  21  36  58  88 117 154 201 252 294 357
#     4  10  19  36  60  84 114 155 198 250 293 359
#     4  10  26  36  62  88 120 158 210 246 318 366
#
# _framework density 18.495072
#
# number of rings (size 3 to 8) (size 9 to 14) (size 15 to 20)
#    0.500    1.333    1.667    4.000    8.167    0.000 
#    0.000    3.333    0.000    0.000    0.000    0.000 
#    0.000    0.000    0.000    0.000    0.000    0.000 
#
# Total GULP energy -594871.184931 kJ/mol
# GULP energy per Si atom -12393.149686 kJ/mol
# Density = 1.845298 g / cm^3
# Si number density = 18.495072 Si / 1000 Ang^3
#
#
#
# Elastic Constant Matrix: (Units=GPa)
#
#
# Indices 1 2 3 4 5 6 
#
# 1 112.5725 5.9701 31.9246 0.0000 0.0000 0.0000
# 2 5.9701 73.5021 24.5293 0.0000 0.0000 0.0000
# 3 31.9246 24.5293 73.5214 0.0000 0.0000 0.0000
# 4 0.0000 0.0000 0.0000 23.2944 0.0000 0.0000
# 5 0.0000 0.0000 0.0000 0.0000 17.1439 0.0000
# 6 0.0000 0.0000 0.0000 0.0000 0.0000 32.3193
#
#
#
# Elastic Compliance Matrix: (Units=1/GPa)
#
#
# Indices 1 2 3 4 5 6 
#
# 1 0.010165 0.000728 -0.004657 0.000000 0.000000 0.000000
# 2 0.000728 0.015362 -0.005442 0.000000 0.000000 0.000000
# 3 -0.004657 -0.005442 0.017439 0.000000 0.000000 0.000000
# 4 0.000000 0.000000 0.000000 0.042929 0.000000 0.000000
# 5 0.000000 0.000000 0.000000 0.000000 0.058330 0.000000
# 6 0.000000 0.000000 0.000000 0.000000 0.000000 0.030941
#
#
# Mechanical properties :
#
#
# Convention : Reuss Voigt Hill
#
# Bulk Modulus (GPa) = 41.27789 42.71600 41.99694
# Shear Modulus (GPa) = 24.75472 27.69631 26.22551
#
# Velocity S-wave (km/s) = 3.66245 3.87395 3.76968
# Velocity P-wave (km/s) = 6.34441 6.56932 6.45784
#
# Compressibility (1/GPa) = 0.02422605
#
# Stress axis : x y z
#
# Youngs Moduli (GPa) = 98.37470 65.09623 57.34217
#
# Poissons Ratio (x) = -0.04742 0.26704
# Poissons Ratio (y) = -0.07167 0.31203
# Poissons Ratio (z) = 0.45813 0.35423
#
# Static dielectric constant tensor:
#      x y z
#    x 3.307570 0.000000 0.000000 
#    y 0.000000 3.601000 0.000000 
#    z 0.000000 0.000000 3.124330 
# 
# 
# High freq. dielectric constant tensor:
#      x y z
#    x 1.722950 0.000000 0.000000 
#    y 0.000000 1.728630 0.000000 
#    z 0.000000 0.000000 1.688430 
# 
# From -- ./inp_files/32103.got.cif
#   From: 2010.03.12/outbox.cif.g09.slc.cpg/sg62_17_cif.got.tgz:32103.got - 2010.04.10 19:12:36.
