data_PCOD8251139
_publ_section_title
;
Structure prediction by ZEFSAII (Michael W. Deem and Ramdas Pophale) SiO2 
 PCOD8251139
Probable space group: P N M A
;
_chemical_formula_sum "Si O2"
_cell_formula_units_Z 64
_cell_length_a 23.228353
_cell_length_b 8.521380
_cell_length_c 19.103340
_cell_angle_alpha 90.000000
_cell_angle_beta 90.000000
_cell_angle_gamma 90.000000
_cell_volume 3781.269705
_symmetry_space_group_name_H-M "P N M A"
_symmetry_group_IT_number 62
_symmetry_cell_setting 'orthorhombic'
loop_
_space_group_symop_operation_xyz
x,y,z
1/2-x,-y,1/2+z
1/2+x,1/2-y,1/2-z
-x,1/2+y,-z
-x,-y,-z
1/2+x,y,1/2-z
1/2-x,1/2+y,1/2+z
x,1/2-y,z
loop_
_atom_site_type_symbol
_atom_site_label
_atom_site_fract_x
_atom_site_fract_y
_atom_site_fract_z
Si Si1 0.776110 0.567064 0.649319
Si Si2 0.941763 0.069772 0.859523
Si Si3 0.270935 0.066641 0.140720
Si Si4 0.167997 0.568990 0.225256
Si Si5 0.936975 0.433309 0.133871
Si Si6 0.663716 0.564898 0.728552
Si Si7 0.738923 0.568172 0.500054
Si Si8 0.114009 0.068304 0.004984
O O1 0.785344 0.750000 0.664347
O O2 0.824973 0.473335 0.692535
O O3 0.713677 0.508469 0.675872
O O4 0.779257 0.528467 0.566802
O O5 0.961327 0.250000 0.859002
O O6 0.897382 0.033139 0.796882
O O7 0.912056 0.035248 0.933305
O O8 0.997095 0.961960 0.846166
O O9 0.276276 0.250000 0.123872
O O10 0.322024 0.005350 0.192540
O O11 0.209777 0.037394 0.178065
O O12 0.275916 0.971099 0.068693
O O13 0.183378 0.750000 0.211217
O O14 0.925822 0.250000 0.119713
O O15 0.897418 0.494512 0.198730
O O16 0.920678 0.529205 0.065047
O O17 0.664498 0.750000 0.731532
O O18 0.720725 0.750000 0.501221
O O19 0.681350 0.466070 0.503256
O O20 0.105187 0.250000 0.023132
#
# Coordination Sequence:
#
# PCOD8251139 Si02
#       8
#     8   8   8   8   8   8   8   8
#     4   9  18  33  52  71  99 130 162 203 251 302
#     4  11  23  37  50  70 101 135 170 211 250 290
#     4  10  19  32  51  74 100 130 166 204 247 301
#     4  10  20  33  50  71  99 131 166 208 250 292
#     4  11  21  36  54  71  97 135 174 209 247 295
#     4   8  16  32  50  70  96 129 162 202 249 290
#     4  11  20  33  51  75 104 136 165 204 254 298
#     4  12  23  34  49  72 100 136 175 209 242 293
#
# _framework density 16.925530999999999
#
# number of rings (size 3 to 8) (size 9 to 14) (size 15 to 20)
#    0.000    1.750    2.500    4.125    0.000    2.500 
#    0.000    1.875    0.000    0.000    0.000    0.875 
#    0.000    0.000    0.000    0.000    0.000    0.000 
#
# Total GULP energy -793585.317904 kJ/mol
# GULP energy per Si atom -12399.770592 kJ/mol
# Density = 1.688701 g / cm^3
# Si number density = 16.925531 Si / 1000 Ang^3
#
#
#
# Elastic Constant Matrix: (Units=GPa)
#
#
# Indices 1 2 3 4 5 6 
#
# 1 75.1390 14.8129 50.6562 0.0000 0.0000 0.0000
# 2 14.8129 37.2336 19.5845 0.0000 0.0000 0.0000
# 3 50.6562 19.5845 121.5271 0.0000 0.0000 0.0000
# 4 0.0000 0.0000 0.0000 26.6153 0.0000 0.0000
# 5 0.0000 0.0000 0.0000 0.0000 21.4318 0.0000
# 6 0.0000 0.0000 0.0000 0.0000 0.0000 21.1154
#
#
#
# Elastic Compliance Matrix: (Units=1/GPa)
#
#
# Indices 1 2 3 4 5 6 
#
# 1 0.018966 -0.003701 -0.007309 0.000000 0.000000 0.000000
# 2 -0.003701 0.030067 -0.003303 0.000000 0.000000 0.000000
# 3 -0.007309 -0.003303 0.011808 0.000000 0.000000 0.000000
# 4 0.000000 0.000000 0.000000 0.037572 0.000000 0.000000
# 5 0.000000 0.000000 0.000000 0.000000 0.046660 0.000000
# 6 0.000000 0.000000 0.000000 0.000000 0.000000 0.047359
#
#
# Mechanical properties :
#
#
# Convention : Reuss Voigt Hill
#
# Bulk Modulus (GPa) = 31.04148 44.88967 37.96558
# Shear Modulus (GPa) = 21.57079 23.75558 22.66319
#
# Velocity S-wave (km/s) = 3.57382 3.75044 3.66320
# Velocity P-wave (km/s) = 5.95058 6.73304 6.35387
#
# Compressibility (1/GPa) = 0.03221496
#
# Stress axis : x y z
#
# Youngs Moduli (GPa) = 52.72644 33.25900 84.69161
#
# Poissons Ratio (x) = 0.12308 0.61902
# Poissons Ratio (y) = 0.19513 0.27972
# Poissons Ratio (z) = 0.38538 0.10985
#
# Static dielectric constant tensor:
#      x y z
#    x 3.081950 0.000000 0.000000 
#    y 0.000000 3.130870 0.000000 
#    z 0.000000 0.000000 3.391410 
# 
# 
# High freq. dielectric constant tensor:
#      x y z
#    x 1.620520 0.000000 0.000000 
#    y 0.000000 1.655250 0.000000 
#    z 0.000000 0.000000 1.650450 
# 
# From -- ./inp_files/24937.got.cif
#   From: 2010.03.12/outbox.cif.g09.slc.cpg/sg62_13_cif.got.tgz:24937.got - 2010.04.10 19:12:36.
