data_PCOD8251939
_publ_section_title
;
Structure prediction by ZEFSAII (Michael W. Deem and Ramdas Pophale) SiO2 
 PCOD8251939
Probable space group: P N M A
;
_chemical_formula_sum "Si O2"
_cell_formula_units_Z 56
_cell_length_a 9.140785
_cell_length_b 19.583550
_cell_length_c 16.311149
_cell_angle_alpha 90.000000
_cell_angle_beta 90.000000
_cell_angle_gamma 90.000000
_cell_volume 2919.842799
_symmetry_space_group_name_H-M "P N M A"
_symmetry_group_IT_number 62
_symmetry_cell_setting 'orthorhombic'
loop_
_space_group_symop_operation_xyz
x,y,z
1/2-x,-y,1/2+z
1/2+x,1/2-y,1/2-z
-x,1/2+y,-z
-x,-y,-z
1/2+x,y,1/2-z
1/2-x,1/2+y,1/2+z
x,1/2-y,z
loop_
_atom_site_type_symbol
_atom_site_label
_atom_site_fract_x
_atom_site_fract_y
_atom_site_fract_z
Si Si1 0.745881 0.453542 0.530920
Si Si2 0.470495 0.123134 0.513784
Si Si3 0.952836 0.391510 0.652733
Si Si4 0.617305 0.473304 0.253597
Si Si5 0.648116 0.929500 0.642029
Si Si6 0.234162 0.046250 0.607522
Si Si7 0.830329 0.250000 0.717755
Si Si8 0.986543 0.750000 0.128692
O O1 0.620819 0.411411 0.483545
O O2 0.858215 0.401252 0.571267
O O3 0.658448 0.496990 0.598743
O O4 0.833210 0.501064 0.466716
O O5 0.375986 0.129371 0.428500
O O6 0.388056 0.076380 0.579555
O O7 0.512700 0.189549 0.563767
O O8 0.933662 0.455328 0.713533
O O9 0.911667 0.318386 0.688561
O O10 0.124437 0.391825 0.629423
O O11 0.485302 0.431292 0.293742
O O12 0.696873 0.420996 0.189779
O O13 0.742260 0.494888 0.317584
O O14 0.659572 0.250000 0.688463
O O15 0.865052 0.250000 0.815866
#
# Coordination Sequence:
#
# PCOD8251939 Si02
#       8
#     8   8   8   8   8   8   4   4
#     4  10  19  36  57  83 116 159 195 236 293 353
#     4  11  21  40  59  82 115 164 199 232 287 368
#     4  11  24  35  53  83 125 153 199 235 292 345
#     4  11  19  32  57  86 113 149 189 248 298 339
#     4  10  20  34  58  87 115 146 194 243 301 343
#     4  11  20  34  58  86 120 151 190 253 295 339
#     4  12  28  40  58  86 118 169 197 233 275 354
#     4  12  28  44  62  80 120 163 203 233 283 352
#
# _framework density 19.179114999999999
#
# number of rings (size 3 to 8) (size 9 to 14) (size 15 to 20)
#    0.000    1.143    5.714    2.143    4.000    0.000 
#    0.000    0.000    0.000    0.857    0.000    0.000 
#    0.000    0.000    0.000    0.000    0.000    0.000 
#
# Total GULP energy -693775.025868 kJ/mol
# GULP energy per Si atom -12388.839748 kJ/mol
# Density = 1.913546 g / cm^3
# Si number density = 19.179115 Si / 1000 Ang^3
#
#
#
# Elastic Constant Matrix: (Units=GPa)
#
#
# Indices 1 2 3 4 5 6 
#
# 1 65.6619 19.1457 34.5701 0.0000 0.0000 0.0000
# 2 19.1457 56.3244 27.5053 0.0000 0.0000 0.0000
# 3 34.5701 27.5053 87.5204 0.0000 0.0000 0.0000
# 4 0.0000 0.0000 0.0000 12.1259 0.0000 0.0000
# 5 0.0000 0.0000 0.0000 0.0000 36.6661 0.0000
# 6 0.0000 0.0000 0.0000 0.0000 0.0000 9.7327
#
#
#
# Elastic Compliance Matrix: (Units=1/GPa)
#
#
# Indices 1 2 3 4 5 6 
#
# 1 0.019775 -0.003435 -0.006732 0.000000 0.000000 0.000000
# 2 -0.003435 0.021570 -0.005422 0.000000 0.000000 0.000000
# 3 -0.006732 -0.005422 0.015789 0.000000 0.000000 0.000000
# 4 0.000000 0.000000 0.000000 0.082468 0.000000 0.000000
# 5 0.000000 0.000000 0.000000 0.000000 0.027273 0.000000
# 6 0.000000 0.000000 0.000000 0.000000 0.000000 0.102746
#
#
# Mechanical properties :
#
#
# Convention : Reuss Voigt Hill
#
# Bulk Modulus (GPa) = 38.52542 41.32766 39.92654
# Shear Modulus (GPa) = 16.15771 20.25732 18.20751
#
# Velocity S-wave (km/s) = 2.90567 3.25348 3.08448
# Velocity P-wave (km/s) = 5.60250 5.97566 5.79209
#
# Compressibility (1/GPa) = 0.02595689
#
# Stress axis : x y z
#
# Youngs Moduli (GPa) = 50.56860 46.36159 63.33560
#
# Poissons Ratio (x) = 0.15923 0.42635
# Poissons Ratio (y) = 0.17368 0.34341
# Poissons Ratio (z) = 0.34041 0.25138
#
# Static dielectric constant tensor:
#      x y z
#    x 3.622030 0.000000 0.000000 
#    y 0.000000 3.273370 0.000000 
#    z 0.000000 0.000000 3.763620 
# 
# 
# High freq. dielectric constant tensor:
#      x y z
#    x 1.755890 0.000000 0.000000 
#    y 0.000000 1.693990 0.000000 
#    z 0.000000 0.000000 1.757630 
# 
# From -- ./inp_files/17227.got.cif
#   From: 2010.03.12/outbox.cif.g09.slc.cpg/sg62_9_cif.got.tgz:17227.got - 2010.04.10 19:12:36.
