data_PCOD8251537
_publ_section_title
;
Structure prediction by ZEFSAII (Michael W. Deem and Ramdas Pophale) SiO2 
 PCOD8251537
Probable space group: P N M A
;
_chemical_formula_sum "Si O2"
_cell_formula_units_Z 64
_cell_length_a 33.033665
_cell_length_b 9.117175
_cell_length_c 11.057497
_cell_angle_alpha 90.000000
_cell_angle_beta 90.000000
_cell_angle_gamma 90.000000
_cell_volume 3330.227336
_symmetry_space_group_name_H-M "P N M A"
_symmetry_group_IT_number 62
_symmetry_cell_setting 'orthorhombic'
loop_
_space_group_symop_operation_xyz
x,y,z
1/2-x,-y,1/2+z
1/2+x,1/2-y,1/2-z
-x,1/2+y,-z
-x,-y,-z
1/2+x,y,1/2-z
1/2-x,1/2+y,1/2+z
x,1/2-y,z
loop_
_atom_site_type_symbol
_atom_site_label
_atom_site_fract_x
_atom_site_fract_y
_atom_site_fract_z
Si Si1 0.604723 0.586057 0.659458
Si Si2 0.512482 0.578526 0.624949
Si Si3 0.343554 0.577880 0.153892
Si Si4 0.674365 0.911096 0.491190
Si Si5 0.884266 0.575937 0.590904
Si Si6 0.814828 0.578269 0.759490
Si Si7 0.023572 0.074708 0.386753
Si Si8 0.774284 0.419531 0.227779
O O1 0.607985 0.750000 0.717564
O O2 0.559136 0.539147 0.639644
O O3 0.625688 0.464806 0.741120
O O4 0.627563 0.586076 0.531192
O O5 0.500000 0.500000 0.500000
O O6 0.504109 0.750000 0.606430
O O7 0.491709 0.526064 0.751909
O O8 0.336442 0.750000 0.152419
O O9 0.299428 0.504201 0.168474
O O10 0.365247 0.520754 0.033752
O O11 0.684423 0.750000 0.436203
O O12 0.703780 0.944843 0.601832
O O13 0.681356 0.041258 0.399183
O O14 0.885672 0.750000 0.598301
O O15 0.853567 0.508995 0.691065
O O16 0.930010 0.518150 0.606697
O O17 0.815808 0.750000 0.738464
O O18 0.771294 0.517490 0.714425
O O19 0.019309 0.250000 0.401993
O O20 0.000000 0.000000 0.500000
O O21 0.773626 0.250000 0.266172
#
# Coordination Sequence:
#
# PCOD8251537 Si02
#       8
#     8   8   8   8   8   8   8   8
#     4   9  19  37  56  77 112 148 179 220 280 335
#     4  10  22  37  58  86 116 153 192 237 290 347
#     4  10  19  33  58  84 105 139 186 227 264 321
#     4   9  19  35  54  75 104 139 174 220 270 318
#     4   9  20  36  55  81 113 144 177 224 279 326
#     4  10  21  36  55  77 106 145 181 219 271 326
#     4  10  21  39  61  87 117 150 190 237 290 345
#     4   9  20  37  55  76 108 146 178 219 278 326
#
# _framework density 19.217908000000001
#
# number of rings (size 3 to 8) (size 9 to 14) (size 15 to 20)
#    0.000    2.500    0.000    1.875    3.500    3.500 
#    0.000    2.500    0.000    0.000    0.000    0.000 
#    0.000    0.000    0.000    0.000    0.000    0.000 
#
# Total GULP energy -793118.922271 kJ/mol
# GULP energy per Si atom -12392.483160 kJ/mol
# Density = 1.917417 g / cm^3
# Si number density = 19.217908 Si / 1000 Ang^3
#
#
#
# Elastic Constant Matrix: (Units=GPa)
#
#
# Indices 1 2 3 4 5 6 
#
# 1 187.7063 33.6797 70.5303 0.0000 0.0000 0.0000
# 2 33.6797 31.7627 33.1395 0.0000 0.0000 0.0000
# 3 70.5303 33.1395 112.0047 0.0000 0.0000 0.0000
# 4 0.0000 0.0000 0.0000 28.3561 0.0000 0.0000
# 5 0.0000 0.0000 0.0000 0.0000 21.5632 0.0000
# 6 0.0000 0.0000 0.0000 0.0000 0.0000 25.7830
#
#
#
# Elastic Compliance Matrix: (Units=1/GPa)
#
#
# Indices 1 2 3 4 5 6 
#
# 1 0.007363 -0.004296 -0.003365 0.000000 0.000000 0.000000
# 2 -0.004296 0.048049 -0.011511 0.000000 0.000000 0.000000
# 3 -0.003365 -0.011511 0.014453 0.000000 0.000000 0.000000
# 4 0.000000 0.000000 0.000000 0.035266 0.000000 0.000000
# 5 0.000000 0.000000 0.000000 0.000000 0.046375 0.000000
# 6 0.000000 0.000000 0.000000 0.000000 0.000000 0.038785
#
#
# Mechanical properties :
#
#
# Convention : Reuss Voigt Hill
#
# Bulk Modulus (GPa) = 31.72602 67.35252 49.53927
# Shear Modulus (GPa) = 20.90794 28.08207 24.49501
#
# Velocity S-wave (km/s) = 3.30197 3.82677 3.57402
# Velocity P-wave (km/s) = 5.57510 7.39246 6.54714
#
# Compressibility (1/GPa) = 0.03151987
#
# Stress axis : x y z
#
# Youngs Moduli (GPa) = 135.81771 20.81205 69.18829
#
# Poissons Ratio (x) = 0.08941 0.23284
# Poissons Ratio (y) = 0.58347 0.79645
# Poissons Ratio (z) = 0.45707 0.23957
#
# Static dielectric constant tensor:
#      x y z
#    x 3.970220 0.000000 0.000000 
#    y 0.000000 3.297230 0.000000 
#    z 0.000000 0.000000 3.498680 
# 
# 
# High freq. dielectric constant tensor:
#      x y z
#    x 1.767410 0.000000 0.000000 
#    y 0.000000 1.723980 0.000000 
#    z 0.000000 0.000000 1.743530 
# 
# From -- ./inp_files/15813.got.cif
#   From: 2010.03.12/outbox.cif.g09.slc.cpg/sg62_8_cif.got.tgz:15813.got - 2010.04.10 19:12:36.
