data_PCOD8251410
_publ_section_title
;
Structure prediction by ZEFSAII (Michael W. Deem and Ramdas Pophale) SiO2 
 PCOD8251410
Probable space group: P N M A
;
_chemical_formula_sum "Si O2"
_cell_formula_units_Z 40
_cell_length_a 19.508943
_cell_length_b 13.035942
_cell_length_c 8.274989
_cell_angle_alpha 90.000000
_cell_angle_beta 90.000000
_cell_angle_gamma 90.000000
_cell_volume 2104.474097
_symmetry_space_group_name_H-M "P N M A"
_symmetry_group_IT_number 62
_symmetry_cell_setting 'orthorhombic'
loop_
_space_group_symop_operation_xyz
x,y,z
1/2-x,-y,1/2+z
1/2+x,1/2-y,1/2-z
-x,1/2+y,-z
-x,-y,-z
1/2+x,y,1/2-z
1/2-x,1/2+y,1/2+z
x,1/2-y,z
loop_
_atom_site_type_symbol
_atom_site_label
_atom_site_fract_x
_atom_site_fract_y
_atom_site_fract_z
Si Si1 0.593936 0.135134 0.621484
Si Si2 0.259816 0.633138 0.216775
Si Si3 0.827115 0.496981 0.539083
Si Si4 0.078438 0.133349 0.237626
Si Si5 0.045889 0.531594 0.647662
O O1 0.562514 0.250000 0.623492
O O2 0.670142 0.136420 0.687354
O O3 0.595848 0.091063 0.440129
O O4 0.546256 0.064249 0.730313
O O5 0.237593 0.750000 0.169599
O O6 0.203922 0.584744 0.337333
O O7 0.268565 0.562095 0.056374
O O8 0.875900 0.575129 0.632295
O O9 0.876837 0.437937 0.409301
O O10 0.100727 0.250000 0.254332
O O11 0.996102 0.123319 0.266566
O O12 0.000000 0.500000 0.500000
#
# Coordination Sequence:
#
# PCOD8251410 Si02
#       5
#     8   8   8   8   8
#     4   9  18  33  54  77 101 134 174 216 267 323
#     4  10  20  35  55  78 107 142 179 223 273 323
#     4  10  20  35  54  79 108 141 180 224 267 321
#     4  10  19  33  54  77 103 138 178 220 268 321
#     4   9  19  32  50  75 104 135 170 213 258 310
#
# _framework density 19.007124999999998
#
# number of rings (size 3 to 8) (size 9 to 14) (size 15 to 20)
#    0.000    2.400    0.000    2.400    0.000    5.600 
#    0.000    4.000    0.000   18.000    0.000    0.000 
#    0.000    0.000    0.000    0.000    0.000    0.000 
#
# Total GULP energy -495732.756244 kJ/mol
# GULP energy per Si atom -12393.318906 kJ/mol
# Density = 1.896386 g / cm^3
# Si number density = 19.007125 Si / 1000 Ang^3
#
#
#
# Elastic Constant Matrix: (Units=GPa)
#
#
# Indices 1 2 3 4 5 6 
#
# 1 40.6574 34.7615 20.4209 0.0000 0.0000 0.0000
# 2 34.7615 63.3267 28.8027 0.0000 0.0000 0.0000
# 3 20.4209 28.8027 83.7669 0.0000 0.0000 0.0000
# 4 0.0000 0.0000 0.0000 30.0735 0.0000 0.0000
# 5 0.0000 0.0000 0.0000 0.0000 34.6770 0.0000
# 6 0.0000 0.0000 0.0000 0.0000 0.0000 30.8191
#
#
#
# Elastic Compliance Matrix: (Units=1/GPa)
#
#
# Indices 1 2 3 4 5 6 
#
# 1 0.047003 -0.024406 -0.003067 0.000000 0.000000 0.000000
# 2 -0.024406 0.031392 -0.004844 0.000000 0.000000 0.000000
# 3 -0.003067 -0.004844 0.014351 0.000000 0.000000 0.000000
# 4 0.000000 0.000000 0.000000 0.033252 0.000000 0.000000
# 5 0.000000 0.000000 0.000000 0.000000 0.028838 0.000000
# 6 0.000000 0.000000 0.000000 0.000000 0.000000 0.032447
#
#
# Mechanical properties :
#
#
# Convention : Reuss Voigt Hill
#
# Bulk Modulus (GPa) = 35.57212 39.52461 37.54836
# Shear Modulus (GPa) = 19.13606 26.03164 22.58385
#
# Velocity S-wave (km/s) = 3.17643 3.70479 3.45074
# Velocity P-wave (km/s) = 5.67527 6.25623 5.97282
#
# Compressibility (1/GPa) = 0.02811190
#
# Stress axis : x y z
#
# Youngs Moduli (GPa) = 21.27520 31.85574 69.68149
#
# Poissons Ratio (x) = 0.77748 0.21368
# Poissons Ratio (y) = 0.51925 0.33753
# Poissons Ratio (z) = 0.06524 0.15431
#
# Static dielectric constant tensor:
#      x y z
#    x 3.667380 0.000000 0.000000 
#    y 0.000000 3.785540 0.000000 
#    z 0.000000 0.000000 3.804260 
# 
# 
# High freq. dielectric constant tensor:
#      x y z
#    x 1.727910 0.000000 0.000000 
#    y 0.000000 1.721950 0.000000 
#    z 0.000000 0.000000 1.755460 
# 
# From -- ./inp_files/7262.got.cif
#   From: 2010.03.12/outbox.cif.g09.slc.cpg/sg62_4_cif.got.tgz:7262.got - 2010.04.10 19:12:36.
