data_PCOD8251386
_publ_section_title
;
Structure prediction by ZEFSAII (Michael W. Deem and Ramdas Pophale) SiO2 
 PCOD8251386
Probable space group: P N M A
;
_chemical_formula_sum "Si O2"
_cell_formula_units_Z 48
_cell_length_a 20.025224
_cell_length_b 9.611088
_cell_length_c 14.366075
_cell_angle_alpha 90.000000
_cell_angle_beta 90.000000
_cell_angle_gamma 90.000000
_cell_volume 2764.954990
_symmetry_space_group_name_H-M "P N M A"
_symmetry_group_IT_number 62
_symmetry_cell_setting 'orthorhombic'
loop_
_space_group_symop_operation_xyz
x,y,z
1/2-x,-y,1/2+z
1/2+x,1/2-y,1/2-z
-x,1/2+y,-z
-x,-y,-z
1/2+x,y,1/2-z
1/2-x,1/2+y,1/2+z
x,1/2-y,z
loop_
_atom_site_type_symbol
_atom_site_label
_atom_site_fract_x
_atom_site_fract_y
_atom_site_fract_z
Si Si1 0.942264 0.411191 0.301339
Si Si2 0.797431 0.411240 0.790678
Si Si3 0.569222 0.910995 0.189019
Si Si4 0.626774 0.589086 0.990813
Si Si5 0.758170 0.091383 0.994355
Si Si6 0.812825 0.409044 0.190652
O O1 0.962817 0.250000 0.306832
O O2 0.912537 0.462320 0.399921
O O3 0.888610 0.440074 0.220445
O O4 0.006936 0.500091 0.275773
O O5 0.786131 0.250000 0.765891
O O6 0.866370 0.463823 0.746043
O O7 0.800246 0.438251 0.901166
O O8 0.735997 0.494451 0.748808
O O9 0.554674 0.750000 0.210310
O O10 0.580029 0.937167 0.079579
O O11 0.646994 0.750000 0.981378
O O12 0.694436 0.505444 0.002613
O O13 0.732320 0.250000 0.995809
O O14 0.807092 0.060741 0.080828
O O15 0.794088 0.250000 0.214801
#
# Coordination Sequence:
#
# PCOD8251386 Si02
#       6
#     8   8   8   8   8   8
#     4  10  21  35  52  76 108 142 176 216 263 315
#     4  10  20  35  55  79 107 139 176 219 263 312
#     4  10  21  35  52  76 108 142 176 216 263 315
#     4  10  19  33  53  79 109 137 171 219 267 314
#     4  10  20  33  54  83 108 135 174 219 266 314
#     4  10  20  35  55  79 107 139 176 219 263 312
#
# _framework density 17.360137000000002
#
# number of rings (size 3 to 8) (size 9 to 14) (size 15 to 20)
#    0.000    2.000    3.333    0.500    0.000    2.667 
#    0.000    0.833    0.000    0.000    0.000    0.000 
#    0.000    0.000    0.000    0.000    0.000    0.000 
#
# Total GULP energy -595354.679501 kJ/mol
# GULP energy per Si atom -12403.222490 kJ/mol
# Density = 1.732062 g / cm^3
# Si number density = 17.360137 Si / 1000 Ang^3
#
#
#
# Elastic Constant Matrix: (Units=GPa)
#
#
# Indices 1 2 3 4 5 6 
#
# 1 75.3867 34.9884 15.0979 0.0000 0.0000 0.0000
# 2 34.9884 47.3921 19.2726 0.0000 0.0000 0.0000
# 3 15.0979 19.2726 79.7995 0.0000 0.0000 0.0000
# 4 0.0000 0.0000 0.0000 15.5908 0.0000 0.0000
# 5 0.0000 0.0000 0.0000 0.0000 26.3874 0.0000
# 6 0.0000 0.0000 0.0000 0.0000 0.0000 37.2759
#
#
#
# Elastic Compliance Matrix: (Units=1/GPa)
#
#
# Indices 1 2 3 4 5 6 
#
# 1 0.020184 -0.014802 -0.000244 0.000000 0.000000 0.000000
# 2 -0.014802 0.034254 -0.005472 0.000000 0.000000 0.000000
# 3 -0.000244 -0.005472 0.013899 0.000000 0.000000 0.000000
# 4 0.000000 0.000000 0.000000 0.064140 0.000000 0.000000
# 5 0.000000 0.000000 0.000000 0.000000 0.037897 0.000000
# 6 0.000000 0.000000 0.000000 0.000000 0.000000 0.026827
#
#
# Mechanical properties :
#
#
# Convention : Reuss Voigt Hill
#
# Bulk Modulus (GPa) = 36.62926 37.92180 37.27553
# Shear Modulus (GPa) = 20.21532 24.73211 22.47371
#
# Velocity S-wave (km/s) = 3.41613 3.77855 3.60190
# Velocity P-wave (km/s) = 6.05850 6.39751 6.23031
#
# Compressibility (1/GPa) = 0.02730058
#
# Stress axis : x y z
#
# Youngs Moduli (GPa) = 49.54507 29.19379 71.94680
#
# Poissons Ratio (x) = 0.43212 0.01754
# Poissons Ratio (y) = 0.73336 0.39371
# Poissons Ratio (z) = 0.01208 0.15976
#
# Static dielectric constant tensor:
#      x y z
#    x 3.091310 0.000000 0.000000 
#    y 0.000000 3.053230 0.000000 
#    z 0.000000 0.000000 3.494640 
# 
# 
# High freq. dielectric constant tensor:
#      x y z
#    x 1.659280 0.000000 0.000000 
#    y 0.000000 1.670400 0.000000 
#    z 0.000000 0.000000 1.677600 
# 
# From -- ./inp_files/19533.got.cif
#   From: 2010.03.12/outbox.cif.g09.slc.cpg/sg62_10_cif.got.tgz:19533.got - 2010.04.10 19:12:36.
