data_PCOD8251696
_publ_section_title
;
Structure prediction by ZEFSAII (Michael W. Deem and Ramdas Pophale) SiO2 
 PCOD8251696
Probable space group: P N M A
;
_chemical_formula_sum "Si O2"
_cell_formula_units_Z 56
_cell_length_a 20.385050
_cell_length_b 8.879006
_cell_length_c 15.417116
_cell_angle_alpha 90.000000
_cell_angle_beta 90.000000
_cell_angle_gamma 90.000000
_cell_volume 2790.482290
_symmetry_space_group_name_H-M "P N M A"
_symmetry_group_IT_number 62
_symmetry_cell_setting 'orthorhombic'
loop_
_space_group_symop_operation_xyz
x,y,z
1/2-x,-y,1/2+z
1/2+x,1/2-y,1/2-z
-x,1/2+y,-z
-x,-y,-z
1/2+x,y,1/2-z
1/2-x,1/2+y,1/2+z
x,1/2-y,z
loop_
_atom_site_type_symbol
_atom_site_label
_atom_site_fract_x
_atom_site_fract_y
_atom_site_fract_z
Si Si1 0.903025 0.586046 0.482603
Si Si2 0.945966 0.928243 0.939690
Si Si3 0.839751 0.075854 0.187400
Si Si4 0.032883 0.913087 0.384011
Si Si5 0.298032 0.426653 0.122981
Si Si6 0.021077 0.428793 0.794397
Si Si7 0.187668 0.925414 0.005311
O O1 0.867098 0.750000 0.485990
O O2 0.907248 0.515228 0.579609
O O3 0.868235 0.472813 0.415877
O O4 0.977811 0.610644 0.456344
O O5 0.950753 0.750000 0.943668
O O6 0.962555 0.989867 0.845186
O O7 0.874563 0.978281 0.967911
O O8 0.000000 0.000000 0.000000
O O9 0.860014 0.250000 0.195673
O O10 0.797918 0.030138 0.273850
O O11 0.798294 0.047979 0.098284
O O12 0.906514 0.981836 0.179343
O O13 0.063480 0.750000 0.359990
O O14 0.995620 0.982788 0.302115
O O15 0.284967 0.250000 0.110337
O O16 0.246265 0.520319 0.066659
O O17 0.018844 0.250000 0.807981
O O18 0.174429 0.750000 0.022927
#
# Coordination Sequence:
#
# PCOD8251696 Si02
#       7
#     8   8   8   8   8   8   8
#     4  10  19  34  57  86 119 160 202 251 305 360
#     4  12  24  40  63  93 125 159 200 252 311 366
#     4  10  22  40  65  91 119 158 206 253 307 370
#     4   9  19  34  54  86 122 157 201 251 304 361
#     4  11  23  41  64  91 124 165 209 258 313 375
#     4  11  21  36  62  92 123 157 200 251 305 365
#     4  11  24  44  66  91 122 162 207 259 313 370
#
# _framework density 20.068214000000001
#
# number of rings (size 3 to 8) (size 9 to 14) (size 15 to 20)
#    0.000    1.429    2.857    3.000    0.000    2.857 
#    2.571    0.000    0.000    0.000    0.000    0.000 
#    0.000    0.000    0.000    0.000    0.000    0.000 
#
# Total GULP energy -694017.674409 kJ/mol
# GULP energy per Si atom -12393.172757 kJ/mol
# Density = 2.002254 g / cm^3
# Si number density = 20.068214 Si / 1000 Ang^3
#
#
#
# Elastic Constant Matrix: (Units=GPa)
#
#
# Indices 1 2 3 4 5 6 
#
# 1 56.6051 31.8355 48.8106 0.0000 0.0000 0.0000
# 2 31.8355 111.5664 58.1438 0.0000 0.0000 0.0000
# 3 48.8106 58.1438 130.2615 0.0000 0.0000 0.0000
# 4 0.0000 0.0000 0.0000 28.8076 0.0000 0.0000
# 5 0.0000 0.0000 0.0000 0.0000 37.2397 0.0000
# 6 0.0000 0.0000 0.0000 0.0000 0.0000 35.2224
#
#
#
# Elastic Compliance Matrix: (Units=1/GPa)
#
#
# Indices 1 2 3 4 5 6 
#
# 1 0.026928 -0.003161 -0.008680 0.000000 0.000000 0.000000
# 2 -0.003161 0.012051 -0.004195 0.000000 0.000000 0.000000
# 3 -0.008680 -0.004195 0.012802 0.000000 0.000000 0.000000
# 4 0.000000 0.000000 0.000000 0.034713 0.000000 0.000000
# 5 0.000000 0.000000 0.000000 0.000000 0.026853 0.000000
# 6 0.000000 0.000000 0.000000 0.000000 0.000000 0.028391
#
#
# Mechanical properties :
#
#
# Convention : Reuss Voigt Hill
#
# Bulk Modulus (GPa) = 50.73292 64.00140 57.36716
# Shear Modulus (GPa) = 27.71942 30.89681 29.30811
#
# Velocity S-wave (km/s) = 3.72056 3.92802 3.82570
# Velocity P-wave (km/s) = 6.61754 7.24801 6.93994
#
# Compressibility (1/GPa) = 0.01971107
#
# Stress axis : x y z
#
# Youngs Moduli (GPa) = 37.13583 82.97800 78.11463
#
# Poissons Ratio (x) = 0.26225 0.67800
# Poissons Ratio (y) = 0.11737 0.32769
# Poissons Ratio (z) = 0.32232 0.34809
#
# Static dielectric constant tensor:
#      x y z
#    x 2.961350 0.000000 0.000000 
#    y 0.000000 -1.171680 0.000000 
#    z 0.000000 0.000000 3.885820 
# 
# 
# High freq. dielectric constant tensor:
#      x y z
#    x 1.754290 0.000000 0.000000 
#    y 0.000000 1.795670 0.000000 
#    z 0.000000 0.000000 1.796190 
# 
# From -- ./inp_files/20419.got.cif
#   From: 2010.03.12/outbox.cif.g09.slc.cpg/sg62_11_cif.got.tgz:20419.got - 2010.04.10 19:12:36.
