data_PCOD8251576
_publ_section_title
;
Structure prediction by ZEFSAII (Michael W. Deem and Ramdas Pophale) SiO2 
 PCOD8251576
Probable space group: P N M A
;
_chemical_formula_sum "Si O2"
_cell_formula_units_Z 64
_cell_length_a 28.880748
_cell_length_b 9.457134
_cell_length_c 12.925559
_cell_angle_alpha 90.000000
_cell_angle_beta 90.000000
_cell_angle_gamma 90.000000
_cell_volume 3530.346347
_symmetry_space_group_name_H-M "P N M A"
_symmetry_group_IT_number 62
_symmetry_cell_setting 'orthorhombic'
loop_
_space_group_symop_operation_xyz
x,y,z
1/2-x,-y,1/2+z
1/2+x,1/2-y,1/2-z
-x,1/2+y,-z
-x,-y,-z
1/2+x,y,1/2-z
1/2-x,1/2+y,1/2+z
x,1/2-y,z
loop_
_atom_site_type_symbol
_atom_site_label
_atom_site_fract_x
_atom_site_fract_y
_atom_site_fract_z
Si Si1 0.576974 0.091737 0.084200
Si Si2 0.206557 0.584347 0.534603
Si Si3 0.961796 0.583425 0.796817
Si Si4 0.697779 0.082686 0.375260
Si Si5 0.317769 0.907663 0.850027
Si Si6 0.395169 0.084846 0.103211
Si Si7 0.567175 0.916100 0.673058
Si Si8 0.105252 0.418194 0.020348
O O1 0.558799 0.250000 0.057445
O O2 0.548994 0.023178 0.181356
O O3 0.629437 0.099144 0.118896
O O4 0.573108 0.995354 0.981616
O O5 0.209468 0.750000 0.514419
O O6 0.251061 0.528110 0.596777
O O7 0.210653 0.508430 0.425066
O O8 0.159134 0.544070 0.593873
O O9 0.954680 0.750000 0.787673
O O10 0.013427 0.541064 0.828574
O O11 0.927286 0.526319 0.885636
O O12 0.696260 0.250000 0.369267
O O13 0.686072 0.021989 0.262598
O O14 0.658037 0.034863 0.455566
O O15 0.296039 0.750000 0.853724
O O16 0.403240 0.250000 0.083595
O O17 0.411179 0.039797 0.217025
O O18 0.574042 0.750000 0.651915
O O19 0.592340 0.004883 0.585236
O O20 0.099810 0.250000 0.005528
#
# Coordination Sequence:
#
# PCOD8251576 Si02
#       8
#     8   8   8   8   8   8   8   8
#     4   9  16  30  54  76  94 124 170 213 242 283
#     4   9  18  32  49  70  97 129 161 198 248 298
#     4   9  17  32  54  76  99 130 166 207 253 295
#     4   9  17  31  52  73  93 125 166 203 245 293
#     4   9  16  30  51  72  94 124 163 205 245 288
#     4   9  19  34  48  68 103 138 162 196 252 306
#     4  10  21  35  50  72 106 140 163 195 252 309
#     4  10  19  34  54  74  97 127 169 212 246 289
#
# _framework density 18.128533000000001
#
# number of rings (size 3 to 8) (size 9 to 14) (size 15 to 20)
#    0.000    2.750    1.250    0.375    0.000    2.000 
#    0.000    4.375    0.000    0.000    0.000    0.000 
#    0.000    0.000    0.000    0.000    0.000    0.000 
#
# Total GULP energy -793360.126955 kJ/mol
# GULP energy per Si atom -12396.251984 kJ/mol
# Density = 1.808727 g / cm^3
# Si number density = 18.128533 Si / 1000 Ang^3
#
#
#
# Elastic Constant Matrix: (Units=GPa)
#
#
# Indices 1 2 3 4 5 6 
#
# 1 48.8810 16.1946 33.4319 0.0000 0.0000 0.0000
# 2 16.1946 33.4209 37.5851 0.0000 0.0000 0.0000
# 3 33.4319 37.5851 136.1821 0.0000 0.0000 0.0000
# 4 0.0000 0.0000 0.0000 30.5512 0.0000 0.0000
# 5 0.0000 0.0000 0.0000 0.0000 24.1328 0.0000
# 6 0.0000 0.0000 0.0000 0.0000 0.0000 16.6386
#
#
#
# Elastic Compliance Matrix: (Units=1/GPa)
#
#
# Indices 1 2 3 4 5 6 
#
# 1 0.025929 -0.007839 -0.004202 0.000000 0.000000 0.000000
# 2 -0.007839 0.045758 -0.010704 0.000000 0.000000 0.000000
# 3 -0.004202 -0.010704 0.011329 0.000000 0.000000 0.000000
# 4 0.000000 0.000000 0.000000 0.032732 0.000000 0.000000
# 5 0.000000 0.000000 0.000000 0.000000 0.041437 0.000000
# 6 0.000000 0.000000 0.000000 0.000000 0.000000 0.060101
#
#
# Mechanical properties :
#
#
# Convention : Reuss Voigt Hill
#
# Bulk Modulus (GPa) = 26.64847 43.65634 35.15241
# Shear Modulus (GPa) = 18.16300 23.01601 20.58950
#
# Velocity S-wave (km/s) = 3.16872 3.56701 3.37375
# Velocity P-wave (km/s) = 5.30277 6.41082 5.88294
#
# Compressibility (1/GPa) = 0.03752561
#
# Stress axis : x y z
#
# Youngs Moduli (GPa) = 38.56732 21.85412 88.26905
#
# Poissons Ratio (x) = 0.17131 0.37090
# Poissons Ratio (y) = 0.30231 0.94487
# Poissons Ratio (z) = 0.16206 0.23394
#
# Static dielectric constant tensor:
#      x y z
#    x 3.488370 0.000000 0.000000 
#    y 0.000000 3.171650 0.000000 
#    z 0.000000 0.000000 3.529540 
# 
# 
# High freq. dielectric constant tensor:
#      x y z
#    x 1.703420 0.000000 0.000000 
#    y 0.000000 1.667560 0.000000 
#    z 0.000000 0.000000 1.710530 
# 
# From -- ./inp_files/15593.got.cif
#   From: 2010.03.12/outbox.cif.g09.slc.cpg/sg62_8_cif.got.tgz:15593.got - 2010.04.10 19:12:36.
