data_PCOD8251457
_publ_section_title
;
Structure prediction by ZEFSAII (Michael W. Deem and Ramdas Pophale) SiO2 
 PCOD8251457
Probable space group: P N M A
;
_chemical_formula_sum "Si O2"
_cell_formula_units_Z 64
_cell_length_a 18.547483
_cell_length_b 9.020333
_cell_length_c 20.458692
_cell_angle_alpha 90.000000
_cell_angle_beta 90.000000
_cell_angle_gamma 90.000000
_cell_volume 3422.830683
_symmetry_space_group_name_H-M "P N M A"
_symmetry_group_IT_number 62
_symmetry_cell_setting 'orthorhombic'
loop_
_space_group_symop_operation_xyz
x,y,z
1/2-x,-y,1/2+z
1/2+x,1/2-y,1/2-z
-x,1/2+y,-z
-x,-y,-z
1/2+x,y,1/2-z
1/2-x,1/2+y,1/2+z
x,1/2-y,z
loop_
_atom_site_type_symbol
_atom_site_label
_atom_site_fract_x
_atom_site_fract_y
_atom_site_fract_z
Si Si1 0.706806 0.426654 0.941200
Si Si2 0.539672 0.580753 0.326070
Si Si3 0.540383 0.574380 0.560076
Si Si4 0.551401 0.922020 0.178652
Si Si5 0.206295 0.921565 0.182751
Si Si6 0.295833 0.074106 0.436308
Si Si7 0.455875 0.576056 0.056830
Si Si8 0.299843 0.925422 0.816776
O O1 0.708327 0.250000 0.942021
O O2 0.743438 0.484222 0.874733
O O3 0.625279 0.486536 0.944106
O O4 0.751105 0.491434 0.002538
O O5 0.518139 0.750000 0.342292
O O6 0.495323 0.470494 0.371541
O O7 0.521521 0.540554 0.250872
O O8 0.624066 0.555651 0.339311
O O9 0.500000 0.500000 0.500000
O O10 0.536427 0.750000 0.551749
O O11 0.622475 0.515943 0.560533
O O12 0.573876 0.750000 0.175771
O O13 0.489695 0.963102 0.127099
O O14 0.622086 0.015710 0.161816
O O15 0.221595 0.750000 0.198008
O O16 0.225341 0.012888 0.247248
O O17 0.294886 0.250000 0.439653
O O18 0.258450 0.019375 0.369683
O O19 0.457015 0.750000 0.043628
O O20 0.500000 0.500000 0.000000
O O21 0.304213 0.750000 0.813354
#
# Coordination Sequence:
#
# PCOD8251457 Si02
#       8
#     8   8   8   8   8   8   8   8
#     4   9  17  32  54  75  97 133 176 208 245 304
#     4   9  18  34  54  76 104 137 170 209 258 308
#     4  11  22  36  54  76 103 136 174 216 262 310
#     4   9  19  35  53  76 108 140 169 207 256 307
#     4   9  18  34  56  78 103 136 170 209 256 304
#     4   9  19  34  51  73 102 134 168 209 255 300
#     4  10  20  34  54  79 105 136 175 216 258 307
#     4  10  19  33  55  79 103 134 171 210 253 304
#
# _framework density 18.697975
#
# number of rings (size 3 to 8) (size 9 to 14) (size 15 to 20)
#    0.000    2.500    0.000    3.000    0.000    6.500 
#    0.000    4.375    0.000    4.500    0.000    0.000 
#    0.000    0.000    0.000    0.000    0.000    0.000 
#
# Total GULP energy -793698.312102 kJ/mol
# GULP energy per Si atom -12401.536127 kJ/mol
# Density = 1.865542 g / cm^3
# Si number density = 18.697975 Si / 1000 Ang^3
#
#
#
# Elastic Constant Matrix: (Units=GPa)
#
#
# Indices 1 2 3 4 5 6 
#
# 1 152.9596 42.5261 105.2015 0.0000 0.0000 0.0000
# 2 42.5261 50.3745 46.5133 0.0000 0.0000 0.0000
# 3 105.2015 46.5133 157.6964 0.0000 0.0000 0.0000
# 4 0.0000 0.0000 0.0000 31.1589 0.0000 0.0000
# 5 0.0000 0.0000 0.0000 0.0000 41.2127 0.0000
# 6 0.0000 0.0000 0.0000 0.0000 0.0000 21.2466
#
#
#
# Elastic Compliance Matrix: (Units=1/GPa)
#
#
# Indices 1 2 3 4 5 6 
#
# 1 0.012631 -0.003961 -0.007258 0.000000 0.000000 0.000000
# 2 -0.003961 0.028524 -0.005770 0.000000 0.000000 0.000000
# 3 -0.007258 -0.005770 0.012885 0.000000 0.000000 0.000000
# 4 0.000000 0.000000 0.000000 0.032094 0.000000 0.000000
# 5 0.000000 0.000000 0.000000 0.000000 0.024264 0.000000
# 6 0.000000 0.000000 0.000000 0.000000 0.000000 0.047066
#
#
# Mechanical properties :
#
#
# Convention : Reuss Voigt Hill
#
# Bulk Modulus (GPa) = 49.84978 83.27913 66.56445
# Shear Modulus (GPa) = 25.23602 29.84295 27.53949
#
# Velocity S-wave (km/s) = 3.67777 3.99940 3.84195
# Velocity P-wave (km/s) = 6.68977 8.12174 7.44029
#
# Compressibility (1/GPa) = 0.02006027
#
# Stress axis : x y z
#
# Youngs Moduli (GPa) = 79.17251 35.05852 77.60955
#
# Poissons Ratio (x) = 0.13888 0.56326
# Poissons Ratio (y) = 0.31364 0.44785
# Poissons Ratio (z) = 0.57461 0.20231
#
# Static dielectric constant tensor:
#      x y z
#    x 3.624730 0.000000 0.000000 
#    y 0.000000 3.154210 0.000000 
#    z 0.000000 0.000000 4.125280 
# 
# 
# High freq. dielectric constant tensor:
#      x y z
#    x 1.728810 0.000000 0.000000 
#    y 0.000000 1.697370 0.000000 
#    z 0.000000 0.000000 1.742360 
# 
# From -- ./inp_files/27763.got.cif
#   From: 2010.03.12/outbox.cif.g09.slc.cpg/sg62_14_cif.got.tgz:27763.got - 2010.04.10 19:12:36.
