data_PCOD8251380
_publ_section_title
;
Structure prediction by ZEFSAII (Michael W. Deem and Ramdas Pophale) SiO2 
 PCOD8251380
Probable space group: P N M A
;
_chemical_formula_sum "Si O2"
_cell_formula_units_Z 48
_cell_length_a 9.403817
_cell_length_b 9.246575
_cell_length_c 29.311780
_cell_angle_alpha 90.000000
_cell_angle_beta 90.000000
_cell_angle_gamma 90.000000
_cell_volume 2548.750113
_symmetry_space_group_name_H-M "P N M A"
_symmetry_group_IT_number 62
_symmetry_cell_setting 'orthorhombic'
loop_
_space_group_symop_operation_xyz
x,y,z
1/2-x,-y,1/2+z
1/2+x,1/2-y,1/2-z
-x,1/2+y,-z
-x,-y,-z
1/2+x,y,1/2-z
1/2-x,1/2+y,1/2+z
x,1/2-y,z
loop_
_atom_site_type_symbol
_atom_site_label
_atom_site_fract_x
_atom_site_fract_y
_atom_site_fract_z
Si Si1 0.799723 0.919980 0.114301
Si Si2 0.874019 0.414519 0.022645
Si Si3 0.525227 0.421450 0.700979
Si Si4 0.794394 0.577051 0.285818
Si Si5 0.020615 0.080032 0.631330
Si Si6 0.596832 0.412691 0.966462
O O1 0.810552 0.750000 0.102798
O O2 0.918242 0.967734 0.151105
O O3 0.645796 0.959001 0.135270
O O4 0.821108 0.009000 0.068358
O O5 0.917922 0.250000 0.034313
O O6 0.756738 0.416702 0.983374
O O7 0.000000 0.500000 0.000000
O O8 0.521155 0.250000 0.704519
O O9 0.634529 0.480818 0.739134
O O10 0.366486 0.483669 0.709242
O O11 0.791624 0.750000 0.286393
O O12 0.890640 0.512552 0.326855
O O13 0.043276 0.250000 0.633499
O O14 0.085837 0.018865 0.584081
O O15 0.536079 0.250000 0.965080
O O16 0.500000 0.500000 0.000000
#
# Coordination Sequence:
#
# PCOD8251380 Si02
#       6
#     8   8   8   8   8   8
#     4  10  19  33  53  77 107 142 177 217 271 321
#     4  11  24  38  55  79 110 145 184 225 272 324
#     4   9  17  27  45  73 106 140 174 217 266 319
#     4   9  16  27  44  72 107 138 172 216 268 316
#     4   9  17  29  48  73 105 137 170 217 268 317
#     4  10  20  35  55  79 106 141 180 220 267 320
#
# _framework density 18.832761000000001
#
# number of rings (size 3 to 8) (size 9 to 14) (size 15 to 20)
#    0.000    2.333    1.667    1.500    2.333    4.667 
#    0.000    0.000    0.000    0.000    0.000    5.833 
#    0.000    0.000    0.000    0.000    0.000    0.000 
#
# Total GULP energy -595067.384138 kJ/mol
# GULP energy per Si atom -12397.237170 kJ/mol
# Density = 1.878990 g / cm^3
# Si number density = 18.832761 Si / 1000 Ang^3
#
#
#
# Elastic Constant Matrix: (Units=GPa)
#
#
# Indices 1 2 3 4 5 6 
#
# 1 120.6427 25.4515 44.4134 0.0000 0.0000 0.0000
# 2 25.4515 43.0482 21.1534 0.0000 0.0000 0.0000
# 3 44.4134 21.1534 104.9467 0.0000 0.0000 0.0000
# 4 0.0000 0.0000 0.0000 18.6499 0.0000 0.0000
# 5 0.0000 0.0000 0.0000 0.0000 42.6048 0.0000
# 6 0.0000 0.0000 0.0000 0.0000 0.0000 15.3327
#
#
#
# Elastic Compliance Matrix: (Units=1/GPa)
#
#
# Indices 1 2 3 4 5 6 
#
# 1 0.010545 -0.004486 -0.003559 0.000000 0.000000 0.000000
# 2 -0.004486 0.027692 -0.003683 0.000000 0.000000 0.000000
# 3 -0.003559 -0.003683 0.011777 0.000000 0.000000 0.000000
# 4 0.000000 0.000000 0.000000 0.053619 0.000000 0.000000
# 5 0.000000 0.000000 0.000000 0.000000 0.023472 0.000000
# 6 0.000000 0.000000 0.000000 0.000000 0.000000 0.065220
#
#
# Mechanical properties :
#
#
# Convention : Reuss Voigt Hill
#
# Bulk Modulus (GPa) = 37.65248 50.07492 43.86370
# Shear Modulus (GPa) = 22.25839 27.15876 24.70858
#
# Velocity S-wave (km/s) = 3.44160 3.80162 3.62608
# Velocity P-wave (km/s) = 5.98576 6.77619 6.39320
#
# Compressibility (1/GPa) = 0.02655867
#
# Stress axis : x y z
#
# Youngs Moduli (GPa) = 94.82793 36.11153 84.91110
#
# Poissons Ratio (x) = 0.16200 0.30216
# Poissons Ratio (y) = 0.42541 0.31274
# Poissons Ratio (z) = 0.33745 0.13300
#
# Static dielectric constant tensor:
#      x y z
#    x 3.428720 0.000000 0.000000 
#    y 0.000000 2.963900 0.000000 
#    z 0.000000 0.000000 3.782810 
# 
# 
# High freq. dielectric constant tensor:
#      x y z
#    x 1.745300 0.000000 0.000000 
#    y 0.000000 1.665250 0.000000 
#    z 0.000000 0.000000 1.749250 
# 
# From -- ./inp_files/31976.got.cif
#   From: 2010.03.12/outbox.cif.g09.slc.cpg/sg62_16_cif.got.tgz:31976.got - 2010.04.10 19:12:36.
