data_PCOD8251441
_publ_section_title
;
Structure prediction by ZEFSAII (Michael W. Deem and Ramdas Pophale) SiO2 
 PCOD8251441
Probable space group: P N M A
;
_chemical_formula_sum "Si O2"
_cell_formula_units_Z 64
_cell_length_a 17.337795
_cell_length_b 9.570002
_cell_length_c 19.866339
_cell_angle_alpha 90.000000
_cell_angle_beta 90.000000
_cell_angle_gamma 90.000000
_cell_volume 3296.277258
_symmetry_space_group_name_H-M "P N M A"
_symmetry_group_IT_number 62
_symmetry_cell_setting 'orthorhombic'
loop_
_space_group_symop_operation_xyz
x,y,z
1/2-x,-y,1/2+z
1/2+x,1/2-y,1/2-z
-x,1/2+y,-z
-x,-y,-z
1/2+x,y,1/2-z
1/2-x,1/2+y,1/2+z
x,1/2-y,z
loop_
_atom_site_type_symbol
_atom_site_label
_atom_site_fract_x
_atom_site_fract_y
_atom_site_fract_z
Si Si1 0.383572 0.586937 0.030278
Si Si2 0.487695 0.590357 0.903327
Si Si3 0.050992 0.596230 0.155939
Si Si4 0.745967 0.088944 0.509011
Si Si5 0.089203 0.536900 0.011586
Si Si6 0.752131 0.908437 0.638779
Si Si7 0.392952 0.909680 0.772442
Si Si8 0.585680 0.896666 0.633399
O O1 0.372208 0.750000 0.048860
O O2 0.444102 0.518061 0.081959
O O3 0.415994 0.568650 0.954359
O O4 0.302476 0.504206 0.038312
O O5 0.517844 0.750000 0.909911
O O6 0.458438 0.558773 0.828032
O O7 0.038973 0.750000 0.186039
O O8 0.094068 0.611138 0.084026
O O9 0.099850 0.505401 0.207207
O O10 0.967076 0.528460 0.146805
O O11 0.772239 0.250000 0.507456
O O12 0.655583 0.083189 0.486141
O O13 0.758404 0.027406 0.583000
O O14 0.109439 0.626644 0.945642
O O15 0.000000 0.500000 0.000000
O O16 0.770713 0.750000 0.611180
O O17 0.809627 0.946389 0.698425
O O18 0.666671 0.914691 0.671784
O O19 0.397993 0.750000 0.748786
O O20 0.545542 0.750000 0.656426
#
# Coordination Sequence:
#
# PCOD8251441 Si02
#       8
#     8   8   8   8   8   8   8   8
#     4  10  19  33  54  82 116 149 187 234 283 329
#     4   9  18  34  55  79 110 150 193 232 274 328
#     4  11  23  37  55  82 113 146 186 232 282 335
#     4  11  21  33  56  88 117 145 185 232 283 342
#     4   9  21  38  57  81 112 144 182 235 289 340
#     4   9  18  35  57  83 111 143 183 228 278 331
#     4  10  20  37  58  80 113 153 192 228 273 341
#     4   9  18  35  61  84 106 141 184 230 286 342
#
# _framework density 19.415842999999999
#
# number of rings (size 3 to 8) (size 9 to 14) (size 15 to 20)
#    0.000    2.250    1.250    1.500    0.000   10.000 
#    0.000    1.250    0.000    3.000    0.000    0.000 
#    0.000    0.000    0.000    0.000    0.000    0.000 
#
# Total GULP energy -792870.716506 kJ/mol
# GULP energy per Si atom -12388.604945 kJ/mol
# Density = 1.937165 g / cm^3
# Si number density = 19.415843 Si / 1000 Ang^3
#
#
#
# Elastic Constant Matrix: (Units=GPa)
#
#
# Indices 1 2 3 4 5 6 
#
# 1 126.2026 64.1287 41.5912 0.0000 0.0000 0.0000
# 2 64.1287 143.7876 38.3753 0.0000 0.0000 0.0000
# 3 41.5912 38.3753 75.1076 0.0000 0.0000 0.0000
# 4 0.0000 0.0000 0.0000 17.3003 0.0000 0.0000
# 5 0.0000 0.0000 0.0000 0.0000 21.2602 0.0000
# 6 0.0000 0.0000 0.0000 0.0000 0.0000 26.8354
#
#
#
# Elastic Compliance Matrix: (Units=1/GPa)
#
#
# Indices 1 2 3 4 5 6 
#
# 1 0.011317 -0.003908 -0.004270 0.000000 0.000000 0.000000
# 2 -0.003908 0.009402 -0.002640 0.000000 0.000000 0.000000
# 3 -0.004270 -0.002640 0.017028 0.000000 0.000000 0.000000
# 4 0.000000 0.000000 0.000000 0.057803 0.000000 0.000000
# 5 0.000000 0.000000 0.000000 0.000000 0.047036 0.000000
# 6 0.000000 0.000000 0.000000 0.000000 0.000000 0.037264
#
#
# Mechanical properties :
#
#
# Convention : Reuss Voigt Hill
#
# Bulk Modulus (GPa) = 62.06942 70.36535 66.21739
# Shear Modulus (GPa) = 24.17152 26.47935 25.32544
#
# Velocity S-wave (km/s) = 3.53220 3.69697 3.61552
# Velocity P-wave (km/s) = 6.97661 7.38535 7.18389
#
# Compressibility (1/GPa) = 0.01611099
#
# Stress axis : x y z
#
# Youngs Moduli (GPa) = 88.36591 106.35992 58.72774
#
# Poissons Ratio (x) = 0.41560 0.25077
# Poissons Ratio (y) = 0.34529 0.15504
# Poissons Ratio (z) = 0.37733 0.28080
#
# Static dielectric constant tensor:
#      x y z
#    x 3.727710 0.000000 0.000000 
#    y 0.000000 3.455120 0.000000 
#    z 0.000000 0.000000 3.419090 
# 
# 
# High freq. dielectric constant tensor:
#      x y z
#    x 1.762960 0.000000 0.000000 
#    y 0.000000 1.753210 0.000000 
#    z 0.000000 0.000000 1.724190 
# 
# From -- ./inp_files/27658.got.cif
#   From: 2010.03.12/outbox.cif.g09.slc.cpg/sg62_14_cif.got.tgz:27658.got - 2010.04.10 19:12:36.
