data_PCOD8251450
_publ_section_title
;
Structure prediction by ZEFSAII (Michael W. Deem and Ramdas Pophale) SiO2 
 PCOD8251450
Probable space group: P N M A
;
_chemical_formula_sum "Si O2"
_cell_formula_units_Z 56
_cell_length_a 14.030784
_cell_length_b 8.652405
_cell_length_c 23.056283
_cell_angle_alpha 90.000000
_cell_angle_beta 90.000000
_cell_angle_gamma 90.000000
_cell_volume 2799.033347
_symmetry_space_group_name_H-M "P N M A"
_symmetry_group_IT_number 62
_symmetry_cell_setting 'orthorhombic'
loop_
_space_group_symop_operation_xyz
x,y,z
1/2-x,-y,1/2+z
1/2+x,1/2-y,1/2-z
-x,1/2+y,-z
-x,-y,-z
1/2+x,y,1/2-z
1/2-x,1/2+y,1/2+z
x,1/2-y,z
loop_
_atom_site_type_symbol
_atom_site_label
_atom_site_fract_x
_atom_site_fract_y
_atom_site_fract_z
Si Si1 0.389752 0.571208 0.216243
Si Si2 0.221636 0.433674 0.605364
Si Si3 0.388946 0.069540 0.782431
Si Si4 0.394733 0.069000 0.999904
Si Si5 0.608426 0.928371 0.664423
Si Si6 0.105651 0.066818 0.160190
Si Si7 0.796579 0.927982 0.607879
O O1 0.367630 0.750000 0.217119
O O2 0.335735 0.499479 0.160880
O O3 0.500262 0.533848 0.208957
O O4 0.351672 0.507554 0.277251
O O5 0.227309 0.250000 0.603840
O O6 0.169526 0.488820 0.547901
O O7 0.327983 0.505592 0.607879
O O8 0.364712 0.250000 0.790770
O O9 0.356823 0.015746 0.718642
O O10 0.336598 0.964157 0.828882
O O11 0.401644 0.250000 0.011666
O O12 0.344797 0.040410 0.938282
O O13 0.500000 0.000000 0.000000
O O14 0.602408 0.750000 0.680043
O O15 0.502964 0.987600 0.646695
O O16 0.682246 0.959001 0.611685
O O17 0.113419 0.250000 0.166441
O O18 0.817671 0.750000 0.591520
#
# Coordination Sequence:
#
# PCOD8251450 Si02
#       7
#     8   8   8   8   8   8   8
#     4   9  19  33  53  81 115 149 184 227 281 340
#     4  11  22  38  59  85 115 151 193 239 287 340
#     4  10  19  33  54  84 118 153 190 234 289 349
#     4  12  26  44  64  87 114 148 187 232 282 339
#     4   9  20  36  56  82 115 150 188 233 283 336
#     4  10  20  36  56  83 117 153 192 237 287 343
#     4  11  22  38  59  84 113 150 193 240 289 341
#
# _framework density 20.006906000000001
#
# number of rings (size 3 to 8) (size 9 to 14) (size 15 to 20)
#    0.000    1.714    0.000    4.714    0.000    6.857 
#    0.000    0.714    0.000    0.000    0.000    0.000 
#    0.000    0.000    0.000    0.000    0.000    0.000 
#
# Total GULP energy -694501.805270 kJ/mol
# GULP energy per Si atom -12401.817951 kJ/mol
# Density = 1.996137 g / cm^3
# Si number density = 20.006906 Si / 1000 Ang^3
#
#
#
# Elastic Constant Matrix: (Units=GPa)
#
#
# Indices 1 2 3 4 5 6 
#
# 1 94.2249 29.6781 59.6562 0.0000 0.0000 0.0000
# 2 29.6781 49.6851 7.7412 0.0000 0.0000 0.0000
# 3 59.6562 7.7412 69.8706 0.0000 0.0000 0.0000
# 4 0.0000 0.0000 0.0000 35.0804 0.0000 0.0000
# 5 0.0000 0.0000 0.0000 0.0000 34.3097 0.0000
# 6 0.0000 0.0000 0.0000 0.0000 0.0000 29.6389
#
#
#
# Elastic Compliance Matrix: (Units=1/GPa)
#
#
# Indices 1 2 3 4 5 6 
#
# 1 0.030873 -0.014586 -0.024743 0.000000 0.000000 0.000000
# 2 -0.014586 0.027371 0.009421 0.000000 0.000000 0.000000
# 3 -0.024743 0.009421 0.034395 0.000000 0.000000 0.000000
# 4 0.000000 0.000000 0.000000 0.028506 0.000000 0.000000
# 5 0.000000 0.000000 0.000000 0.000000 0.029146 0.000000
# 6 0.000000 0.000000 0.000000 0.000000 0.000000 0.033739
#
#
# Mechanical properties :
#
#
# Convention : Reuss Voigt Hill
#
# Bulk Modulus (GPa) = 30.46730 45.32573 37.89652
# Shear Modulus (GPa) = 19.62420 27.58614 23.60517
#
# Velocity S-wave (km/s) = 3.13528 3.71729 3.43862
# Velocity P-wave (km/s) = 5.32617 6.41315 5.89477
#
# Compressibility (1/GPa) = 0.03282207
#
# Stress axis : x y z
#
# Youngs Moduli (GPa) = 32.39107 36.53450 29.07441
#
# Poissons Ratio (x) = 0.53289 0.71940
# Poissons Ratio (y) = 0.47245 -0.27391
# Poissons Ratio (z) = 0.80146 -0.34419
#
# Static dielectric constant tensor:
#      x y z
#    x 4.029090 0.000000 0.000000 
#    y 0.000000 3.592120 0.000000 
#    z 0.000000 0.000000 3.553100 
# 
# 
# High freq. dielectric constant tensor:
#      x y z
#    x 1.799810 0.000000 0.000000 
#    y 0.000000 1.784220 0.000000 
#    z 0.000000 0.000000 1.760730 
# 
# From -- ./inp_files/27175.got.cif
#   From: 2010.03.12/outbox.cif.g09.slc.cpg/sg62_14_cif.got.tgz:27175.got - 2010.04.10 19:12:36.
