data_PCOD8251904
_publ_section_title
;
Structure prediction by ZEFSAII (Michael W. Deem and Ramdas Pophale) SiO2 
 PCOD8251904
Probable space group: P N M A
;
_chemical_formula_sum "Si O2"
_cell_formula_units_Z 64
_cell_length_a 11.975076
_cell_length_b 8.898333
_cell_length_c 30.755462
_cell_angle_alpha 90.000000
_cell_angle_beta 90.000000
_cell_angle_gamma 90.000000
_cell_volume 3277.247100
_symmetry_space_group_name_H-M "P N M A"
_symmetry_group_IT_number 62
_symmetry_cell_setting 'orthorhombic'
loop_
_space_group_symop_operation_xyz
x,y,z
1/2-x,-y,1/2+z
1/2+x,1/2-y,1/2-z
-x,1/2+y,-z
-x,-y,-z
1/2+x,y,1/2-z
1/2-x,1/2+y,1/2+z
x,1/2-y,z
loop_
_atom_site_type_symbol
_atom_site_label
_atom_site_fract_x
_atom_site_fract_y
_atom_site_fract_z
Si Si1 0.526525 0.575910 0.293254
Si Si2 0.033532 0.078793 0.043679
Si Si3 0.256786 0.578761 0.166660
Si Si4 0.499502 0.430037 0.047377
Si Si5 0.602707 0.929286 0.627747
Si Si6 0.737195 0.579185 0.918542
Si Si7 0.846271 0.070280 0.619483
Si Si8 0.508597 0.071415 0.803343
O O1 0.489189 0.750000 0.297564
O O2 0.659343 0.558880 0.298567
O O3 0.456587 0.480614 0.327859
O O4 0.509591 0.508720 0.245133
O O5 0.997565 0.250000 0.039375
O O6 0.971148 0.014773 0.086561
O O7 0.167465 0.059547 0.045279
O O8 0.000000 0.000000 0.000000
O O9 0.282953 0.750000 0.156285
O O10 0.214289 0.505222 0.122757
O O11 0.371915 0.503404 0.182530
O O12 0.510393 0.250000 0.045092
O O13 0.381202 0.485670 0.066490
O O14 0.598042 0.498594 0.076582
O O15 0.500000 0.500000 0.000000
O O16 0.615842 0.750000 0.628711
O O17 0.722374 0.007475 0.624116
O O18 0.721558 0.750000 0.904893
O O19 0.844524 0.250000 0.614526
O O20 0.914723 0.018249 0.662379
O O21 0.509222 0.250000 0.801067
#
# Coordination Sequence:
#
# PCOD8251904 Si02
#       8
#     8   8   8   8   8   8   8   8
#     4  10  21  37  62  91 118 156 202 247 294 350
#     4  10  23  41  61  86 117 154 195 242 297 351
#     4  10  19  35  61  89 116 151 199 249 292 347
#     4  11  24  41  63  91 123 159 202 249 301 361
#     4  11  24  42  60  86 124 160 195 246 303 361
#     4  10  21  40  62  85 118 155 192 244 299 354
#     4  11  23  41  64  88 121 163 203 250 302 359
#     4   9  20  37  60  90 121 154 198 248 297 347
#
# _framework density 19.528583999999999
#
# number of rings (size 3 to 8) (size 9 to 14) (size 15 to 20)
#    0.000    1.750    2.500    1.125    3.500    2.000 
#    0.000    1.875    0.000    0.000    0.000    0.000 
#    0.000    0.000    0.000    0.000    0.000    0.000 
#
# Total GULP energy -793490.442004 kJ/mol
# GULP energy per Si atom -12398.288156 kJ/mol
# Density = 1.948414 g / cm^3
# Si number density = 19.528584 Si / 1000 Ang^3
#
#
#
# Elastic Constant Matrix: (Units=GPa)
#
#
# Indices 1 2 3 4 5 6 
#
# 1 119.9053 34.9188 43.5610 0.0000 0.0000 0.0000
# 2 34.9188 52.7671 36.9920 0.0000 0.0000 0.0000
# 3 43.5610 36.9920 142.7731 0.0000 0.0000 0.0000
# 4 0.0000 0.0000 0.0000 27.7637 0.0000 0.0000
# 5 0.0000 0.0000 0.0000 0.0000 26.9687 0.0000
# 6 0.0000 0.0000 0.0000 0.0000 0.0000 29.9368
#
#
#
# Elastic Compliance Matrix: (Units=1/GPa)
#
#
# Indices 1 2 3 4 5 6 
#
# 1 0.010674 -0.005842 -0.001743 0.000000 0.000000 0.000000
# 2 -0.005842 0.026355 -0.005046 0.000000 0.000000 0.000000
# 3 -0.001743 -0.005046 0.008843 0.000000 0.000000 0.000000
# 4 0.000000 0.000000 0.000000 0.036018 0.000000 0.000000
# 5 0.000000 0.000000 0.000000 0.000000 0.037080 0.000000
# 6 0.000000 0.000000 0.000000 0.000000 0.000000 0.033404
#
#
# Mechanical properties :
#
#
# Convention : Reuss Voigt Hill
#
# Bulk Modulus (GPa) = 48.51942 60.70990 54.61466
# Shear Modulus (GPa) = 27.09930 30.26541 28.68235
#
# Velocity S-wave (km/s) = 3.72919 3.94102 3.83657
# Velocity P-wave (km/s) = 6.59104 7.20167 6.90311
#
# Compressibility (1/GPa) = 0.02061030
#
# Stress axis : x y z
#
# Youngs Moduli (GPa) = 93.68136 37.94416 113.07862
#
# Poissons Ratio (x) = 0.22166 0.19713
# Poissons Ratio (y) = 0.54727 0.57060
# Poissons Ratio (z) = 0.16331 0.19147
#
# Static dielectric constant tensor:
#      x y z
#    x 3.566490 0.000000 0.000000 
#    y 0.000000 3.427820 0.000000 
#    z 0.000000 0.000000 3.572230 
# 
# 
# High freq. dielectric constant tensor:
#      x y z
#    x 1.777600 0.000000 0.000000 
#    y 0.000000 1.744680 0.000000 
#    z 0.000000 0.000000 1.768450 
# 
# From -- ./inp_files/32446.got.cif
#   From: 2010.03.12/outbox.cif.g09.slc.cpg/sg62_17_cif.got.tgz:32446.got - 2010.04.10 19:12:36.
