data_PCOD8251019
_publ_section_title
;
Structure prediction by ZEFSAII (Michael W. Deem and Ramdas Pophale) SiO2 
 PCOD8251019
Probable space group: P N M A
;
_chemical_formula_sum "Si O2"
_cell_formula_units_Z 56
_cell_length_a 18.272658
_cell_length_b 13.495036
_cell_length_c 13.279741
_cell_angle_alpha 90.000000
_cell_angle_beta 90.000000
_cell_angle_gamma 90.000000
_cell_volume 3274.653691
_symmetry_space_group_name_H-M "P N M A"
_symmetry_group_IT_number 62
_symmetry_cell_setting 'orthorhombic'
loop_
_space_group_symop_operation_xyz
x,y,z
1/2-x,-y,1/2+z
1/2+x,1/2-y,1/2-z
-x,1/2+y,-z
-x,-y,-z
1/2+x,y,1/2-z
1/2-x,1/2+y,1/2+z
x,1/2-y,z
loop_
_atom_site_type_symbol
_atom_site_label
_atom_site_fract_x
_atom_site_fract_y
_atom_site_fract_z
Si Si1 0.793356 0.024068 0.790302
Si Si2 0.509449 0.367715 0.587178
Si Si3 0.485610 0.866452 0.185037
Si Si4 0.731040 0.039261 0.081012
Si Si5 0.641530 0.863407 0.124699
Si Si6 0.332328 0.635838 0.099108
Si Si7 0.119800 0.500869 0.019211
O O1 0.833915 0.119996 0.741458
O O2 0.718534 0.063066 0.837453
O O3 0.777017 0.943530 0.701607
O O4 0.844327 0.972229 0.873466
O O5 0.507278 0.250000 0.581482
O O6 0.514763 0.410196 0.701380
O O7 0.437453 0.409692 0.532465
O O8 0.581317 0.404528 0.527390
O O9 0.488510 0.750000 0.199422
O O10 0.556683 0.898513 0.120378
O O11 0.414774 0.899470 0.121965
O O12 0.691992 0.932967 0.053430
O O13 0.687529 0.123570 0.019051
O O14 0.816511 0.038854 0.054696
O O15 0.652593 0.750000 0.091811
O O16 0.320990 0.750000 0.130623
#
# Coordination Sequence:
#
# PCOD8251019 Si02
#       7
#     8   8   8   8   8   8   8
#     4   9  18  33  49  72 103 133 168 210 255 292
#     4  10  19  31  50  77 104 132 165 212 255 300
#     4   9  17  30  50  77 100 127 168 211 255 296
#     4   9  20  32  48  77 102 132 168 210 257 301
#     4   9  17  31  50  72 100 129 160 205 256 295
#     4  10  19  31  51  76 102 132 172 212 251 304
#     4  10  19  32  50  74 105 131 169 207 256 311
#
# _framework density 17.101044000000002
#
# number of rings (size 3 to 8) (size 9 to 14) (size 15 to 20)
#    0.857    1.714    1.429    1.286    0.000    3.429 
#    0.000    0.714    0.000    0.857    0.000    8.000 
#    0.000    0.000    0.000    0.000    0.000    0.000 
#
# Total GULP energy -693865.771048 kJ/mol
# GULP energy per Si atom -12390.460197 kJ/mol
# Density = 1.706212 g / cm^3
# Si number density = 17.101044 Si / 1000 Ang^3
#
#
#
# Elastic Constant Matrix: (Units=GPa)
#
#
# Indices 1 2 3 4 5 6 
#
# 1 109.1111 18.2206 22.8592 0.0000 0.0000 0.0000
# 2 18.2206 35.4565 9.8916 0.0000 0.0000 0.0000
# 3 22.8592 9.8916 65.5130 0.0000 0.0000 0.0000
# 4 0.0000 0.0000 0.0000 26.1232 0.0000 0.0000
# 5 0.0000 0.0000 0.0000 0.0000 21.9407 0.0000
# 6 0.0000 0.0000 0.0000 0.0000 0.0000 22.2283
#
#
#
# Elastic Compliance Matrix: (Units=1/GPa)
#
#
# Indices 1 2 3 4 5 6 
#
# 1 0.010558 -0.004591 -0.002991 0.000000 0.000000 0.000000
# 2 -0.004591 0.031440 -0.003145 0.000000 0.000000 0.000000
# 3 -0.002991 -0.003145 0.016783 0.000000 0.000000 0.000000
# 4 0.000000 0.000000 0.000000 0.038280 0.000000 0.000000
# 5 0.000000 0.000000 0.000000 0.000000 0.045577 0.000000
# 6 0.000000 0.000000 0.000000 0.000000 0.000000 0.044988
#
#
# Mechanical properties :
#
#
# Convention : Reuss Voigt Hill
#
# Bulk Modulus (GPa) = 26.79038 34.66926 30.72982
# Shear Modulus (GPa) = 22.57099 24.66572 23.61836
#
# Velocity S-wave (km/s) = 3.63693 3.80195 3.72036
# Velocity P-wave (km/s) = 5.77376 6.29208 6.03848
#
# Compressibility (1/GPa) = 0.03732683
#
# Stress axis : x y z
#
# Youngs Moduli (GPa) = 94.71246 31.80620 59.58554
#
# Poissons Ratio (x) = 0.14603 0.17821
# Poissons Ratio (y) = 0.43486 0.18740
# Poissons Ratio (z) = 0.28327 0.10003
#
# Static dielectric constant tensor:
#      x y z
#    x 3.440610 0.000000 0.000000 
#    y 0.000000 2.794520 0.000000 
#    z 0.000000 0.000000 3.180120 
# 
# 
# High freq. dielectric constant tensor:
#      x y z
#    x 1.680300 0.000000 0.000000 
#    y 0.000000 1.618430 0.000000 
#    z 0.000000 0.000000 1.649420 
# 
# From -- ./inp_files/19944.got.cif
#   From: 2010.03.12/outbox.cif.g09.slc.cpg/sg62_10_cif.got.tgz:19944.got - 2010.04.10 19:12:36.
