data_PCOD8251657
_publ_section_title
;
Structure prediction by ZEFSAII (Michael W. Deem and Ramdas Pophale) SiO2 
 PCOD8251657
Probable space group: P N M A
;
_chemical_formula_sum "Si O2"
_cell_formula_units_Z 64
_cell_length_a 30.189653
_cell_length_b 9.531727
_cell_length_c 11.830334
_cell_angle_alpha 90.000000
_cell_angle_beta 90.000000
_cell_angle_gamma 90.000000
_cell_volume 3404.291359
_symmetry_space_group_name_H-M "P N M A"
_symmetry_group_IT_number 62
_symmetry_cell_setting 'orthorhombic'
loop_
_space_group_symop_operation_xyz
x,y,z
1/2-x,-y,1/2+z
1/2+x,1/2-y,1/2-z
-x,1/2+y,-z
-x,-y,-z
1/2+x,y,1/2-z
1/2-x,1/2+y,1/2+z
x,1/2-y,z
loop_
_atom_site_type_symbol
_atom_site_label
_atom_site_fract_x
_atom_site_fract_y
_atom_site_fract_z
Si Si1 0.306384 0.585853 0.777432
Si Si2 0.382771 0.586029 0.607735
Si Si3 0.567654 0.908656 0.001944
Si Si4 0.548032 0.089308 0.796301
Si Si5 0.793157 0.414299 0.272668
Si Si6 0.950612 0.088767 0.754588
Si Si7 0.131947 0.415238 0.848977
Si Si8 0.330810 0.092926 0.989984
O O1 0.308634 0.750000 0.799160
O O2 0.338467 0.541884 0.674855
O O3 0.256809 0.537251 0.750461
O O4 0.322585 0.513872 0.890532
O O5 0.392915 0.750000 0.620855
O O6 0.425174 0.503636 0.654059
O O7 0.375877 0.543403 0.478410
O O8 0.549222 0.750000 0.993620
O O9 0.560917 0.965838 0.128695
O O10 0.618915 0.916083 0.968598
O O11 0.541671 0.003434 0.912112
O O12 0.555499 0.250000 0.831486
O O13 0.503149 0.072564 0.723480
O O14 0.588951 0.034882 0.721307
O O15 0.801026 0.250000 0.248355
O O16 0.824960 0.503103 0.192456
O O17 0.801070 0.450022 0.403592
O O18 0.935235 0.250000 0.767483
O O19 0.140470 0.250000 0.835101
O O20 0.319365 0.250000 0.948009
#
# Coordination Sequence:
#
# PCOD8251657 Si02
#       8
#     8   8   8   8   8   8   8   8
#     4  10  22  38  57  82 111 143 182 227 274 325
#     4  10  22  39  57  79 110 147 187 230 275 328
#     4  10  19  34  56  83 113 145 182 224 277 333
#     4  10  21  36  56  83 114 146 184 231 278 329
#     4  10  22  39  58  83 113 145 182 227 277 327
#     4  10  21  37  56  82 114 146 184 231 279 329
#     4  10  22  39  58  81 111 148 188 228 277 331
#     4  10  20  36  60  85 113 146 182 227 277 328
#
# _framework density 18.799800999999999
#
# number of rings (size 3 to 8) (size 9 to 14) (size 15 to 20)
#    0.000    2.000    2.500    0.375    1.750    3.500 
#    0.000    0.000    0.000    0.000    0.000    0.000 
#    0.000    0.000    0.000    0.000    0.000    0.000 
#
# Total GULP energy -793821.574199 kJ/mol
# GULP energy per Si atom -12403.462097 kJ/mol
# Density = 1.875701 g / cm^3
# Si number density = 18.799801 Si / 1000 Ang^3
#
#
#
# Elastic Constant Matrix: (Units=GPa)
#
#
# Indices 1 2 3 4 5 6 
#
# 1 81.7600 27.7920 32.8168 0.0000 0.0000 0.0000
# 2 27.7920 40.2266 37.6513 0.0000 0.0000 0.0000
# 3 32.8168 37.6513 103.0486 0.0000 0.0000 0.0000
# 4 0.0000 0.0000 0.0000 31.3701 0.0000 0.0000
# 5 0.0000 0.0000 0.0000 0.0000 21.3299 0.0000
# 6 0.0000 0.0000 0.0000 0.0000 0.0000 29.1837
#
#
#
# Elastic Compliance Matrix: (Units=1/GPa)
#
#
# Indices 1 2 3 4 5 6 
#
# 1 0.016161 -0.009648 -0.001622 0.000000 0.000000 0.000000
# 2 -0.009648 0.043538 -0.012835 0.000000 0.000000 0.000000
# 3 -0.001622 -0.012835 0.014910 0.000000 0.000000 0.000000
# 4 0.000000 0.000000 0.000000 0.031878 0.000000 0.000000
# 5 0.000000 0.000000 0.000000 0.000000 0.046883 0.000000
# 6 0.000000 0.000000 0.000000 0.000000 0.000000 0.034266
#
#
# Mechanical properties :
#
#
# Convention : Reuss Voigt Hill
#
# Bulk Modulus (GPa) = 37.87832 46.83948 42.35890
# Shear Modulus (GPa) = 20.43776 24.82841 22.63308
#
# Velocity S-wave (km/s) = 3.30074 3.63805 3.47349
# Velocity P-wave (km/s) = 5.89224 6.52811 6.21831
#
# Compressibility (1/GPa) = 0.02640033
#
# Stress axis : x y z
#
# Youngs Moduli (GPa) = 61.87612 22.96831 67.06780
#
# Poissons Ratio (x) = 0.22159 0.10876
# Poissons Ratio (y) = 0.59697 0.86084
# Poissons Ratio (z) = 0.10034 0.29481
#
# Static dielectric constant tensor:
#      x y z
#    x 3.626800 0.000000 0.000000 
#    y 0.000000 3.377560 0.000000 
#    z 0.000000 0.000000 3.358660 
# 
# 
# High freq. dielectric constant tensor:
#      x y z
#    x 1.741300 0.000000 0.000000 
#    y 0.000000 1.722330 0.000000 
#    z 0.000000 0.000000 1.728640 
# 
# From -- ./inp_files/15788.got.cif
#   From: 2010.03.12/outbox.cif.g09.slc.cpg/sg62_8_cif.got.tgz:15788.got - 2010.04.10 19:12:36.
