data_PCOD8251479
_publ_section_title
;
Structure prediction by ZEFSAII (Michael W. Deem and Ramdas Pophale) SiO2 
 PCOD8251479
Probable space group: P N M A
;
_chemical_formula_sum "Si O2"
_cell_formula_units_Z 64
_cell_length_a 18.635227
_cell_length_b 9.017950
_cell_length_c 19.871426
_cell_angle_alpha 90.000000
_cell_angle_beta 90.000000
_cell_angle_gamma 90.000000
_cell_volume 3339.423847
_symmetry_space_group_name_H-M "P N M A"
_symmetry_group_IT_number 62
_symmetry_cell_setting 'orthorhombic'
loop_
_space_group_symop_operation_xyz
x,y,z
1/2-x,-y,1/2+z
1/2+x,1/2-y,1/2-z
-x,1/2+y,-z
-x,-y,-z
1/2+x,y,1/2-z
1/2-x,1/2+y,1/2+z
x,1/2-y,z
loop_
_atom_site_type_symbol
_atom_site_label
_atom_site_fract_x
_atom_site_fract_y
_atom_site_fract_z
Si Si1 0.015920 0.074463 0.301853
Si Si2 0.396293 0.577211 0.675671
Si Si3 0.444144 0.573409 0.950082
Si Si4 0.254080 0.074446 0.626442
Si Si5 0.355473 0.426035 0.223928
Si Si6 0.284083 0.574212 0.977705
Si Si7 0.667962 0.573712 0.626329
Si Si8 0.519125 0.577606 0.568479
O O1 0.014395 0.250000 0.299789
O O2 0.937167 0.016757 0.281763
O O3 0.074661 0.020184 0.247735
O O4 0.038230 0.016448 0.375142
O O5 0.374688 0.750000 0.677856
O O6 0.327641 0.481630 0.657649
O O7 0.457497 0.545624 0.621785
O O8 0.450215 0.750000 0.955855
O O9 0.364857 0.514877 0.968681
O O10 0.500000 0.500000 0.000000
O O11 0.250451 0.250000 0.632252
O O12 0.247935 0.021768 0.549019
O O13 0.187635 0.005730 0.665550
O O14 0.349962 0.250000 0.214125
O O15 0.323605 0.476028 0.296164
O O16 0.284786 0.750000 0.973007
O O17 0.233877 0.509975 0.917900
O O18 0.665652 0.750000 0.623229
O O19 0.593490 0.510956 0.596675
O O20 0.500000 0.500000 0.500000
O O21 0.527854 0.750000 0.553675
#
# Coordination Sequence:
#
# PCOD8251479 Si02
#       8
#     8   8   8   8   8   8   8   8
#     4   9  18  34  58  87 110 135 184 239 274 319
#     4  10  20  36  57  84 111 144 190 232 269 324
#     4  10  20  35  57  81 108 142 182 227 276 324
#     4  11  23  37  53  79 115 147 183 229 281 338
#     4  10  19  35  60  84 107 141 185 231 280 329
#     4   9  19  34  53  78 107 145 186 219 265 333
#     4   9  17  32  55  81 106 140 184 225 264 322
#     4  10  19  33  55  82 113 144 181 224 271 327
#
# _framework density 19.164981999999998
#
# number of rings (size 3 to 8) (size 9 to 14) (size 15 to 20)
#    0.000    2.250    1.250    1.875    1.750    1.500 
#    0.000    2.500    0.000    2.250    0.000    0.000 
#    0.000    0.000    0.000    0.000    0.000    0.000 
#
# Total GULP energy -793620.776746 kJ/mol
# GULP energy per Si atom -12400.324637 kJ/mol
# Density = 1.912136 g / cm^3
# Si number density = 19.164982 Si / 1000 Ang^3
#
#
#
# Elastic Constant Matrix: (Units=GPa)
#
#
# Indices 1 2 3 4 5 6 
#
# 1 140.7061 28.1591 67.7200 0.0000 0.0000 0.0000
# 2 28.1591 27.0488 33.7709 0.0000 0.0000 0.0000
# 3 67.7200 33.7709 159.8234 0.0000 0.0000 0.0000
# 4 0.0000 0.0000 0.0000 24.7724 0.0000 0.0000
# 5 0.0000 0.0000 0.0000 0.0000 38.5066 0.0000
# 6 0.0000 0.0000 0.0000 0.0000 0.0000 23.6952
#
#
#
# Elastic Compliance Matrix: (Units=1/GPa)
#
#
# Indices 1 2 3 4 5 6 
#
# 1 0.009768 -0.006794 -0.002703 0.000000 0.000000 0.000000
# 2 -0.006794 0.054943 -0.008731 0.000000 0.000000 0.000000
# 3 -0.002703 -0.008731 0.009247 0.000000 0.000000 0.000000
# 4 0.000000 0.000000 0.000000 0.040367 0.000000 0.000000
# 5 0.000000 0.000000 0.000000 0.000000 0.025970 0.000000
# 6 0.000000 0.000000 0.000000 0.000000 0.000000 0.042203
#
#
# Mechanical properties :
#
#
# Convention : Reuss Voigt Hill
#
# Bulk Modulus (GPa) = 26.66483 65.20871 45.93677
# Shear Modulus (GPa) = 21.60251 30.59005 26.09628
#
# Velocity S-wave (km/s) = 3.36100 3.99951 3.69408
# Velocity P-wave (km/s) = 5.38566 7.44492 6.49739
#
# Compressibility (1/GPa) = 0.03750258
#
# Stress axis : x y z
#
# Youngs Moduli (GPa) = 102.37922 18.20054 108.14075
#
# Poissons Ratio (x) = 0.12365 0.29233
# Poissons Ratio (y) = 0.69551 0.94419
# Poissons Ratio (z) = 0.27676 0.15891
#
# Static dielectric constant tensor:
#      x y z
#    x 3.764020 0.000000 0.000000 
#    y 0.000000 3.000720 0.000000 
#    z 0.000000 0.000000 4.092120 
# 
# 
# High freq. dielectric constant tensor:
#      x y z
#    x 1.761550 0.000000 0.000000 
#    y 0.000000 1.695410 0.000000 
#    z 0.000000 0.000000 1.765350 
# 
# From -- ./inp_files/27771.got.cif
#   From: 2010.03.12/outbox.cif.g09.slc.cpg/sg62_14_cif.got.tgz:27771.got - 2010.04.10 19:12:36.
