data_PCOD8251233
_publ_section_title
;
Structure prediction by ZEFSAII (Michael W. Deem and Ramdas Pophale) SiO2 
 PCOD8251233
Probable space group: P N M A
;
_chemical_formula_sum "Si O2"
_cell_formula_units_Z 64
_cell_length_a 20.462805
_cell_length_b 9.172064
_cell_length_c 17.948838
_cell_angle_alpha 90.000000
_cell_angle_beta 90.000000
_cell_angle_gamma 90.000000
_cell_volume 3368.748428
_symmetry_space_group_name_H-M "P N M A"
_symmetry_group_IT_number 62
_symmetry_cell_setting 'orthorhombic'
loop_
_space_group_symop_operation_xyz
x,y,z
1/2-x,-y,1/2+z
1/2+x,1/2-y,1/2-z
-x,1/2+y,-z
-x,-y,-z
1/2+x,y,1/2-z
1/2-x,1/2+y,1/2+z
x,1/2-y,z
loop_
_atom_site_type_symbol
_atom_site_label
_atom_site_fract_x
_atom_site_fract_y
_atom_site_fract_z
Si Si1 0.882121 0.919581 0.572170
Si Si2 0.993124 0.417465 0.334830
Si Si3 0.373462 0.579008 0.100239
Si Si4 0.370247 0.082025 0.409118
Si Si5 0.745219 0.415354 0.408059
Si Si6 0.882553 0.420572 0.919016
Si Si7 0.494876 0.916431 0.663103
Si Si8 0.255590 0.086047 0.915097
O O1 0.868401 0.750000 0.584712
O O2 0.948002 0.970492 0.612620
O O3 0.889838 0.958034 0.485377
O O4 0.821550 0.004231 0.609447
O O5 0.974021 0.250000 0.352151
O O6 0.016432 0.436286 0.250469
O O7 0.931488 0.519724 0.348962
O O8 0.364766 0.750000 0.113193
O O9 0.307060 0.499811 0.126251
O O10 0.350285 0.250000 0.402396
O O11 0.389065 0.043076 0.493786
O O12 0.430830 0.041560 0.356626
O O13 0.308119 0.990577 0.380251
O O14 0.744320 0.250000 0.377879
O O15 0.679108 0.496094 0.382763
O O16 0.749984 0.420037 0.496488
O O17 0.873285 0.250000 0.904524
O O18 0.948053 0.474620 0.880155
O O19 0.480530 0.750000 0.638023
O O20 0.258836 0.250000 0.884704
#
# Coordination Sequence:
#
# PCOD8251233 Si02
#       8
#     8   8   8   8   8   8   8   8
#     4   9  18  33  53  76 102 132 166 206 252 301
#     4  10  21  36  52  72 101 138 176 209 246 298
#     4  10  19  32  53  79 104 130 164 209 257 300
#     4   9  18  33  53  76 102 132 166 206 252 301
#     4   9  17  31  52  77 104 131 163 205 250 301
#     4  10  19  32  53  79 104 130 164 209 257 300
#     4  10  21  36  52  72 101 138 176 209 246 298
#     4   9  17  29  50  79 104 127 161 207 254 299
#
# _framework density 18.998154
#
# number of rings (size 3 to 8) (size 9 to 14) (size 15 to 20)
#    0.000    2.500    0.000    2.250    0.000    5.500 
#    0.000    1.250    0.000    3.000    0.000    0.000 
#    0.000    0.000    0.000    0.000    0.000    0.000 
#
# Total GULP energy -793796.918603 kJ/mol
# GULP energy per Si atom -12403.076853 kJ/mol
# Density = 1.895491 g / cm^3
# Si number density = 18.998154 Si / 1000 Ang^3
#
#
#
# Elastic Constant Matrix: (Units=GPa)
#
#
# Indices 1 2 3 4 5 6 
#
# 1 98.0986 51.4200 11.7440 0.0000 0.0000 0.0000
# 2 51.4200 98.2091 18.2002 0.0000 0.0000 0.0000
# 3 11.7440 18.2002 28.4359 0.0000 0.0000 0.0000
# 4 0.0000 0.0000 0.0000 17.5529 0.0000 0.0000
# 5 0.0000 0.0000 0.0000 0.0000 7.3209 0.0000
# 6 0.0000 0.0000 0.0000 0.0000 0.0000 42.2662
#
#
#
# Elastic Compliance Matrix: (Units=1/GPa)
#
#
# Indices 1 2 3 4 5 6 
#
# 1 0.014088 -0.007146 -0.001245 0.000000 0.000000 0.000000
# 2 -0.007146 0.015177 -0.006763 0.000000 0.000000 0.000000
# 3 -0.001245 -0.006763 0.040009 0.000000 0.000000 0.000000
# 4 0.000000 0.000000 0.000000 0.056971 0.000000 0.000000
# 5 0.000000 0.000000 0.000000 0.000000 0.136595 0.000000
# 6 0.000000 0.000000 0.000000 0.000000 0.000000 0.023660
#
#
# Mechanical properties :
#
#
# Convention : Reuss Voigt Hill
#
# Bulk Modulus (GPa) = 25.66206 43.05245 34.35725
# Shear Modulus (GPa) = 15.16087 22.98661 19.07374
#
# Velocity S-wave (km/s) = 2.82799 3.48219 3.17200
# Velocity P-wave (km/s) = 4.91938 6.23523 5.61598
#
# Compressibility (1/GPa) = 0.03896803
#
# Stress axis : x y z
#
# Youngs Moduli (GPa) = 70.98054 65.88960 24.99410
#
# Poissons Ratio (x) = 0.47082 0.03112
# Poissons Ratio (y) = 0.50720 0.16903
# Poissons Ratio (z) = 0.08837 0.44559
#
# Static dielectric constant tensor:
#      x y z
#    x 3.583880 0.000000 0.000000 
#    y 0.000000 3.530540 0.000000 
#    z 0.000000 0.000000 3.119800 
# 
# 
# High freq. dielectric constant tensor:
#      x y z
#    x 1.751250 0.000000 0.000000 
#    y 0.000000 1.742520 0.000000 
#    z 0.000000 0.000000 1.700170 
# 
# From -- ./inp_files/27720.got.cif
#   From: 2010.03.12/outbox.cif.g09.slc.cpg/sg62_14_cif.got.tgz:27720.got - 2010.04.10 19:12:36.
