data_PCOD8251950
_publ_section_title
;
Structure prediction by ZEFSAII (Michael W. Deem and Ramdas Pophale) SiO2 
 PCOD8251950
Probable space group: P N M A
;
_chemical_formula_sum "Si O2"
_cell_formula_units_Z 64
_cell_length_a 24.431410
_cell_length_b 8.863449
_cell_length_c 15.274749
_cell_angle_alpha 90.000000
_cell_angle_beta 90.000000
_cell_angle_gamma 90.000000
_cell_volume 3307.694298
_symmetry_space_group_name_H-M "P N M A"
_symmetry_group_IT_number 62
_symmetry_cell_setting 'orthorhombic'
loop_
_space_group_symop_operation_xyz
x,y,z
1/2-x,-y,1/2+z
1/2+x,1/2-y,1/2-z
-x,1/2+y,-z
-x,-y,-z
1/2+x,y,1/2-z
1/2-x,1/2+y,1/2+z
x,1/2-y,z
loop_
_atom_site_type_symbol
_atom_site_label
_atom_site_fract_x
_atom_site_fract_y
_atom_site_fract_z
Si Si1 0.241460 0.425547 0.719535
Si Si2 0.136829 0.572342 0.176450
Si Si3 0.722885 0.579221 0.955282
Si Si4 0.441783 0.572487 0.814186
Si Si5 0.851416 0.428456 0.182022
Si Si6 0.393597 0.075608 0.982338
Si Si7 0.343867 0.924795 0.495749
Si Si8 0.933723 0.071926 0.329547
O O1 0.233595 0.250000 0.738542
O O2 0.305264 0.472753 0.720476
O O3 0.215959 0.465602 0.625333
O O4 0.209802 0.516807 0.794586
O O5 0.133229 0.750000 0.162564
O O6 0.088706 0.517315 0.238454
O O7 0.129669 0.494529 0.082604
O O8 0.722672 0.750000 0.917002
O O9 0.672215 0.557698 0.021148
O O10 0.778588 0.546884 0.007186
O O11 0.434512 0.750000 0.799466
O O12 0.418762 0.529558 0.908633
O O13 0.504753 0.521431 0.808734
O O14 0.852587 0.250000 0.176048
O O15 0.869661 0.494719 0.088608
O O16 0.893696 0.492783 0.254547
O O17 0.410384 0.250000 0.966193
O O18 0.415930 0.013023 0.074914
O O19 0.359021 0.750000 0.493150
O O20 0.927693 0.250000 0.330627
#
# Coordination Sequence:
#
# PCOD8251950 Si02
#       8
#     8   8   8   8   8   8   8   8
#     4  10  20  34  55  83 115 147 187 237 283 333
#     4  10  22  41  60  82 115 156 195 237 291 349
#     4   9  18  34  56  80 115 154 184 221 283 346
#     4  11  23  38  58  86 114 149 197 248 289 335
#     4  11  21  37  60  85 115 156 195 232 289 352
#     4  10  19  36  58  83 117 158 191 227 286 351
#     4  10  21  37  58  88 120 150 188 242 292 340
#     4   9  20  39  60  82 115 153 195 240 286 340
#
# _framework density 19.348825000000001
#
# number of rings (size 3 to 8) (size 9 to 14) (size 15 to 20)
#    0.000    2.000    1.250    2.250    1.750    2.500 
#    0.000    3.750    0.000    0.000    0.000    0.000 
#    0.000    0.000    0.000    0.000    0.000    0.000 
#
# Total GULP energy -793779.682661 kJ/mol
# GULP energy per Si atom -12402.807542 kJ/mol
# Density = 1.930479 g / cm^3
# Si number density = 19.348825 Si / 1000 Ang^3
#
#
#
# Elastic Constant Matrix: (Units=GPa)
#
#
# Indices 1 2 3 4 5 6 
#
# 1 73.2630 20.1712 46.7388 0.0000 0.0000 0.0000
# 2 20.1712 62.1099 37.7294 0.0000 0.0000 0.0000
# 3 46.7388 37.7294 134.3321 0.0000 0.0000 0.0000
# 4 0.0000 0.0000 0.0000 38.6452 0.0000 0.0000
# 5 0.0000 0.0000 0.0000 0.0000 25.4298 0.0000
# 6 0.0000 0.0000 0.0000 0.0000 0.0000 22.4809
#
#
#
# Elastic Compliance Matrix: (Units=1/GPa)
#
#
# Indices 1 2 3 4 5 6 
#
# 1 0.017845 -0.002440 -0.005524 0.000000 0.000000 0.000000
# 2 -0.002440 0.019746 -0.004697 0.000000 0.000000 0.000000
# 3 -0.005524 -0.004697 0.010685 0.000000 0.000000 0.000000
# 4 0.000000 0.000000 0.000000 0.025876 0.000000 0.000000
# 5 0.000000 0.000000 0.000000 0.000000 0.039324 0.000000
# 6 0.000000 0.000000 0.000000 0.000000 0.000000 0.044482
#
#
# Mechanical properties :
#
#
# Convention : Reuss Voigt Hill
#
# Bulk Modulus (GPa) = 43.56318 53.22041 48.39179
# Shear Modulus (GPa) = 26.18727 28.31556 27.25141
#
# Velocity S-wave (km/s) = 3.68289 3.82962 3.75697
# Velocity P-wave (km/s) = 6.37561 6.86441 6.62452
#
# Compressibility (1/GPa) = 0.02295516
#
# Stress axis : x y z
#
# Youngs Moduli (GPa) = 56.03777 50.64260 93.58624
#
# Poissons Ratio (x) = 0.12357 0.51693
# Poissons Ratio (y) = 0.13674 0.43958
# Poissons Ratio (z) = 0.30953 0.23787
#
# Static dielectric constant tensor:
#      x y z
#    x 3.623460 0.000000 0.000000 
#    y 0.000000 3.426390 0.000000 
#    z 0.000000 0.000000 3.520570 
# 
# 
# High freq. dielectric constant tensor:
#      x y z
#    x 1.745360 0.000000 0.000000 
#    y 0.000000 1.746420 0.000000 
#    z 0.000000 0.000000 1.754370 
# 
# From -- ./inp_files/20997.got.cif
#   From: 2010.03.12/outbox.cif.g09.slc.cpg/sg62_11_cif.got.tgz:20997.got - 2010.04.10 19:12:36.
