data_PCOD8251097
_publ_section_title
;
Structure prediction by ZEFSAII (Michael W. Deem and Ramdas Pophale) SiO2 
 PCOD8251097
Probable space group: P N M A
;
_chemical_formula_sum "Si O2"
_cell_formula_units_Z 64
_cell_length_a 23.336625
_cell_length_b 8.805105
_cell_length_c 19.030669
_cell_angle_alpha 90.000000
_cell_angle_beta 90.000000
_cell_angle_gamma 90.000000
_cell_volume 3910.449146
_symmetry_space_group_name_H-M "P N M A"
_symmetry_group_IT_number 62
_symmetry_cell_setting 'orthorhombic'
loop_
_space_group_symop_operation_xyz
x,y,z
1/2-x,-y,1/2+z
1/2+x,1/2-y,1/2-z
-x,1/2+y,-z
-x,-y,-z
1/2+x,y,1/2-z
1/2-x,1/2+y,1/2+z
x,1/2-y,z
loop_
_atom_site_type_symbol
_atom_site_label
_atom_site_fract_x
_atom_site_fract_y
_atom_site_fract_z
Si Si1 0.779204 0.426461 0.144462
Si Si2 0.118949 0.928606 0.500856
Si Si3 0.257217 0.926887 0.006463
Si Si4 0.437404 0.929790 0.868149
Si Si5 0.336863 0.928298 0.232674
Si Si6 0.932855 0.072254 0.349360
Si Si7 0.333942 0.928903 0.778729
Si Si8 0.733705 0.070057 0.351726
O O1 0.788031 0.250000 0.163298
O O2 0.783329 0.455863 0.061153
O O3 0.826971 0.522682 0.186226
O O4 0.716712 0.483230 0.169758
O O5 0.123070 0.750000 0.491288
O O6 0.092037 0.974072 0.575212
O O7 0.181997 0.995899 0.494457
O O8 0.077193 0.995102 0.442151
O O9 0.268432 0.750000 0.018157
O O10 0.223499 0.995285 0.072713
O O11 0.431636 0.750000 0.878079
O O12 0.500914 0.976264 0.845182
O O13 0.394160 0.993429 0.807652
O O14 0.328108 0.750000 0.224170
O O15 0.400718 0.976879 0.210823
O O16 0.293397 0.015252 0.181137
O O17 0.924741 0.250000 0.334566
O O18 0.337399 0.750000 0.780500
O O19 0.319010 0.980835 0.698998
O O20 0.737431 0.250000 0.360446
#
# Coordination Sequence:
#
# PCOD8251097 Si02
#       8
#     8   8   8   8   8   8   8   8
#     4   9  18  33  51  69  96 125 158 202 247 291
#     4  11  21  31  44  69 102 135 166 202 242 280
#     4  11  20  32  51  74  97 131 166 198 243 296
#     4  10  19  34  52  69  93 133 177 205 236 288
#     4  11  21  32  49  71  96 128 166 202 243 293
#     4  10  21  34  49  68  97 135 171 206 243 283
#     4   8  15  30  49  68  91 124 160 198 241 283
#     4  10  19  32  49  70  99 128 159 201 248 290
#
# _framework density 16.366406999999999
#
# number of rings (size 3 to 8) (size 9 to 14) (size 15 to 20)
#    0.000    2.000    2.500    3.375    0.000    2.000 
#    0.000    0.625    0.000    0.000    0.000    0.875 
#    0.000    0.000    0.000    0.000    0.000    0.000 
#
# Total GULP energy -793538.038744 kJ/mol
# GULP energy per Si atom -12399.031855 kJ/mol
# Density = 1.632916 g / cm^3
# Si number density = 16.366407 Si / 1000 Ang^3
#
#
#
# Elastic Constant Matrix: (Units=GPa)
#
#
# Indices 1 2 3 4 5 6 
#
# 1 80.4314 27.9469 45.2406 0.0000 0.0000 0.0000
# 2 27.9469 26.1471 18.9684 0.0000 0.0000 0.0000
# 3 45.2406 18.9684 93.5965 0.0000 0.0000 0.0000
# 4 0.0000 0.0000 0.0000 27.4210 0.0000 0.0000
# 5 0.0000 0.0000 0.0000 0.0000 21.5255 0.0000
# 6 0.0000 0.0000 0.0000 0.0000 0.0000 17.4034
#
#
#
# Elastic Compliance Matrix: (Units=1/GPa)
#
#
# Indices 1 2 3 4 5 6 
#
# 1 0.023390 -0.019694 -0.007315 0.000000 0.000000 0.000000
# 2 -0.019694 0.061419 -0.002928 0.000000 0.000000 0.000000
# 3 -0.007315 -0.002928 0.014813 0.000000 0.000000 0.000000
# 4 0.000000 0.000000 0.000000 0.036468 0.000000 0.000000
# 5 0.000000 0.000000 0.000000 0.000000 0.046457 0.000000
# 6 0.000000 0.000000 0.000000 0.000000 0.000000 0.057460
#
#
# Mechanical properties :
#
#
# Convention : Reuss Voigt Hill
#
# Bulk Modulus (GPa) = 25.15783 42.72075 33.93929
# Shear Modulus (GPa) = 15.96783 20.47124 18.21953
#
# Velocity S-wave (km/s) = 3.12692 3.54051 3.34013
# Velocity P-wave (km/s) = 5.33309 6.54775 5.97139
#
# Compressibility (1/GPa) = 0.03974906
#
# Stress axis : x y z
#
# Youngs Moduli (GPa) = 42.75314 16.28168 67.50756
#
# Poissons Ratio (x) = 0.32065 0.49379
# Poissons Ratio (y) = 0.84197 0.19767
# Poissons Ratio (z) = 0.31272 0.04767
#
# Static dielectric constant tensor:
#      x y z
#    x 3.076890 0.000000 0.000000 
#    y 0.000000 3.024780 0.000000 
#    z 0.000000 0.000000 3.333530 
# 
# 
# High freq. dielectric constant tensor:
#      x y z
#    x 1.602490 0.000000 0.000000 
#    y 0.000000 1.627250 0.000000 
#    z 0.000000 0.000000 1.628830 
# 
# From -- ./inp_files/24983.got.cif
#   From: 2010.03.12/outbox.cif.g09.slc.cpg/sg62_13_cif.got.tgz:24983.got - 2010.04.10 19:12:36.
