data_PCOD8251869
_publ_section_title
;
Structure prediction by ZEFSAII (Michael W. Deem and Ramdas Pophale) SiO2 
 PCOD8251869
Probable space group: P N M A
;
_chemical_formula_sum "Si O2"
_cell_formula_units_Z 48
_cell_length_a 21.673373
_cell_length_b 8.745238
_cell_length_c 12.316236
_cell_angle_alpha 90.000000
_cell_angle_beta 90.000000
_cell_angle_gamma 90.000000
_cell_volume 2334.404655
_symmetry_space_group_name_H-M "P N M A"
_symmetry_group_IT_number 62
_symmetry_cell_setting 'orthorhombic'
loop_
_space_group_symop_operation_xyz
x,y,z
1/2-x,-y,1/2+z
1/2+x,1/2-y,1/2-z
-x,1/2+y,-z
-x,-y,-z
1/2+x,y,1/2-z
1/2-x,1/2+y,1/2+z
x,1/2-y,z
loop_
_atom_site_type_symbol
_atom_site_label
_atom_site_fract_x
_atom_site_fract_y
_atom_site_fract_z
Si Si1 0.932747 0.071127 0.520732
Si Si2 0.303369 0.069428 0.586871
Si Si3 0.858802 0.069985 0.136303
Si Si4 0.494619 0.429587 0.383626
Si Si5 0.178818 0.571328 0.633021
Si Si6 0.607730 0.431773 0.242276
O O1 0.942328 0.250000 0.539585
O O2 0.888380 0.038295 0.418195
O O3 0.896466 0.000121 0.622447
O O4 0.000000 0.000000 0.500000
O O5 0.312473 0.250000 0.596775
O O6 0.334869 0.000124 0.477507
O O7 0.231451 0.028048 0.575427
O O8 0.332158 0.990550 0.693585
O O9 0.854305 0.250000 0.123575
O O10 0.928628 0.020397 0.162883
O O11 0.820086 0.017570 0.240946
O O12 0.500000 0.500000 0.500000
O O13 0.501496 0.250000 0.394571
O O14 0.547374 0.493328 0.305021
O O15 0.194902 0.750000 0.621539
O O16 0.610577 0.250000 0.233756
#
# Coordination Sequence:
#
# PCOD8251869 Si02
#       6
#     8   8   8   8   8   8
#     4  11  24  43  68  96 129 166 212 265 321 386
#     4  11  23  39  61  92 125 162 207 258 313 373
#     4   9  19  38  62  85 118 157 196 247 308 364
#     4  10  19  35  59  88 119 155 198 247 303 364
#     4  10  23  43  64  88 122 166 208 255 311 374
#     4  11  23  39  63  92 128 169 211 257 314 376
#
# _framework density 20.561987999999999
#
# number of rings (size 3 to 8) (size 9 to 14) (size 15 to 20)
#    0.000    1.667    1.667    2.500    2.333    4.667 
#    0.000    1.667    0.000    0.000    0.000    0.000 
#    0.000    0.000    0.000    0.000    0.000    0.000 
#
# Total GULP energy -595163.960866 kJ/mol
# GULP energy per Si atom -12399.249185 kJ/mol
# Density = 2.051519 g / cm^3
# Si number density = 20.561988 Si / 1000 Ang^3
#
#
#
# Elastic Constant Matrix: (Units=GPa)
#
#
# Indices 1 2 3 4 5 6 
#
# 1 113.8639 36.3248 35.6942 0.0000 0.0000 0.0000
# 2 36.3248 65.5797 36.0980 0.0000 0.0000 0.0000
# 3 35.6942 36.0980 123.2404 0.0000 0.0000 0.0000
# 4 0.0000 0.0000 0.0000 29.0498 0.0000 0.0000
# 5 0.0000 0.0000 0.0000 0.0000 32.6539 0.0000
# 6 0.0000 0.0000 0.0000 0.0000 0.0000 35.1383
#
#
#
# Elastic Compliance Matrix: (Units=1/GPa)
#
#
# Indices 1 2 3 4 5 6 
#
# 1 0.010946 -0.005148 -0.001662 0.000000 0.000000 0.000000
# 2 -0.005148 0.020601 -0.004543 0.000000 0.000000 0.000000
# 3 -0.001662 -0.004543 0.009926 0.000000 0.000000 0.000000
# 4 0.000000 0.000000 0.000000 0.034424 0.000000 0.000000
# 5 0.000000 0.000000 0.000000 0.000000 0.030624 0.000000
# 6 0.000000 0.000000 0.000000 0.000000 0.000000 0.028459
#
#
# Mechanical properties :
#
#
# Convention : Reuss Voigt Hill
#
# Bulk Modulus (GPa) = 53.28723 57.65755 55.47239
# Shear Modulus (GPa) = 30.49858 32.33953 31.41905
#
# Velocity S-wave (km/s) = 3.85548 3.97013 3.91323
# Velocity P-wave (km/s) = 6.76692 7.00840 6.88872
#
# Compressibility (1/GPa) = 0.01876622
#
# Stress axis : x y z
#
# Youngs Moduli (GPa) = 91.35912 48.54185 100.74120
#
# Poissons Ratio (x) = 0.24989 0.16747
# Poissons Ratio (y) = 0.47030 0.45768
# Poissons Ratio (z) = 0.15188 0.22053
#
# Static dielectric constant tensor:
#      x y z
#    x 3.649330 0.000000 0.000000 
#    y 0.000000 3.407880 0.000000 
#    z 0.000000 0.000000 3.923920 
# 
# 
# High freq. dielectric constant tensor:
#      x y z
#    x 1.814790 0.000000 0.000000 
#    y 0.000000 1.785190 0.000000 
#    z 0.000000 0.000000 1.815940 
# 
# From -- ./inp_files/15129.got.cif
#   From: 2010.03.12/outbox.cif.g09.slc.cpg/sg62_8_cif.got.tgz:15129.got - 2010.04.10 19:12:36.
