data_PCOD8251011
_publ_section_title
;
Structure prediction by ZEFSAII (Michael W. Deem and Ramdas Pophale) SiO2 
 PCOD8251011
Probable space group: P N M A
;
_chemical_formula_sum "Si O2"
_cell_formula_units_Z 64
_cell_length_a 17.238431
_cell_length_b 9.622619
_cell_length_c 22.204546
_cell_angle_alpha 90.000000
_cell_angle_beta 90.000000
_cell_angle_gamma 90.000000
_cell_volume 3683.264637
_symmetry_space_group_name_H-M "P N M A"
_symmetry_group_IT_number 62
_symmetry_cell_setting 'orthorhombic'
loop_
_space_group_symop_operation_xyz
x,y,z
1/2-x,-y,1/2+z
1/2+x,1/2-y,1/2-z
-x,1/2+y,-z
-x,-y,-z
1/2+x,y,1/2-z
1/2-x,1/2+y,1/2+z
x,1/2-y,z
loop_
_atom_site_type_symbol
_atom_site_label
_atom_site_fract_x
_atom_site_fract_y
_atom_site_fract_z
Si Si1 0.297313 0.401019 0.088513
Si Si2 0.192558 0.406451 0.419007
Si Si3 0.079323 0.410369 0.895420
Si Si4 0.076802 0.912243 0.491824
Si Si5 0.235105 0.913192 0.185540
Si Si6 0.726648 0.411545 0.678142
Si Si7 0.176404 0.978511 0.004643
Si Si8 0.911582 0.095884 0.880488
O O1 0.293038 0.250000 0.119306
O O2 0.378466 0.419446 0.054801
O O3 0.296077 0.516384 0.140440
O O4 0.226197 0.406614 0.040738
O O5 0.162253 0.250000 0.404550
O O6 0.124659 0.507431 0.440782
O O7 0.221766 0.481803 0.359010
O O8 0.261349 0.386986 0.467876
O O9 0.062256 0.250000 0.904752
O O10 0.136594 0.437543 0.839108
O O11 0.995179 0.483762 0.882759
O O12 0.115817 0.458393 0.957943
O O13 0.062059 0.750000 0.473386
O O14 0.000000 0.000000 0.500000
O O15 0.239477 0.750000 0.173093
O O16 0.258869 0.950753 0.252885
O O17 0.148932 0.971832 0.167680
O O18 0.748701 0.250000 0.664571
O O19 0.127265 0.892839 0.053370
O O20 0.927513 0.250000 0.856536
#
# Coordination Sequence:
#
# PCOD8251011 Si02
#       8
#     8   8   8   8   8   8   8   8
#     4   9  18  31  49  72  96 123 157 195 239 291
#     4  10  19  31  50  74  97 125 161 199 242 296
#     4   9  16  26  43  65  90 120 154 191 233 281
#     4  10  20  34  52  75 103 131 160 202 252 299
#     4   9  18  32  49  67  92 127 167 206 242 286
#     4   9  18  33  49  66  92 128 168 206 242 285
#     4   9  16  27  44  67  97 123 148 183 234 296
#     4   9  16  26  42  66  92 119 152 192 235 280
#
# _framework density 17.375889999999998
#
# number of rings (size 3 to 8) (size 9 to 14) (size 15 to 20)
#    0.000    2.750    0.000    1.875    0.000    7.000 
#    0.000    1.250    0.000    9.750    0.000    0.000 
#    0.000    0.000    0.000    0.000    0.000    0.000 
#
# Total GULP energy -792920.867761 kJ/mol
# GULP energy per Si atom -12389.388559 kJ/mol
# Density = 1.733634 g / cm^3
# Si number density = 17.375890 Si / 1000 Ang^3
#
#
#
# Elastic Constant Matrix: (Units=GPa)
#
#
# Indices 1 2 3 4 5 6 
#
# 1 108.3962 43.9665 46.4970 0.0000 0.0000 0.0000
# 2 43.9665 95.6005 41.7539 0.0000 0.0000 0.0000
# 3 46.4970 41.7539 107.2934 0.0000 0.0000 0.0000
# 4 0.0000 0.0000 0.0000 23.9403 0.0000 0.0000
# 5 0.0000 0.0000 0.0000 0.0000 14.8881 0.0000
# 6 0.0000 0.0000 0.0000 0.0000 0.0000 20.1464
#
#
#
# Elastic Compliance Matrix: (Units=1/GPa)
#
#
# Indices 1 2 3 4 5 6 
#
# 1 0.012530 -0.004085 -0.003840 0.000000 0.000000 0.000000
# 2 -0.004085 0.013934 -0.003652 0.000000 0.000000 0.000000
# 3 -0.003840 -0.003652 0.012406 0.000000 0.000000 0.000000
# 4 0.000000 0.000000 0.000000 0.041770 0.000000 0.000000
# 5 0.000000 0.000000 0.000000 0.000000 0.067168 0.000000
# 6 0.000000 0.000000 0.000000 0.000000 0.000000 0.049637
#
#
# Mechanical properties :
#
#
# Convention : Reuss Voigt Hill
#
# Bulk Modulus (GPa) = 63.63563 63.96941 63.80252
# Shear Modulus (GPa) = 22.13981 23.73314 22.93647
#
# Velocity S-wave (km/s) = 3.57342 3.69977 3.63715
# Velocity P-wave (km/s) = 7.32996 7.42604 7.37815
#
# Compressibility (1/GPa) = 0.01571447
#
# Stress axis : x y z
#
# Youngs Moduli (GPa) = 79.81083 71.76669 80.60842
#
# Poissons Ratio (x) = 0.29318 0.30954
# Poissons Ratio (y) = 0.32604 0.29439
# Poissons Ratio (z) = 0.30648 0.26210
#
# Static dielectric constant tensor:
#      x y z
#    x 3.458850 0.000000 0.000000 
#    y 0.000000 3.153160 0.000000 
#    z 0.000000 0.000000 3.125380 
# 
# 
# High freq. dielectric constant tensor:
#      x y z
#    x 1.670810 0.000000 0.000000 
#    y 0.000000 1.658740 0.000000 
#    z 0.000000 0.000000 1.655310 
# 
# From -- ./inp_files/27719.got.cif
#   From: 2010.03.12/outbox.cif.g09.slc.cpg/sg62_14_cif.got.tgz:27719.got - 2010.04.10 19:12:36.
