data_PCOD8251634
_publ_section_title
;
Structure prediction by ZEFSAII (Michael W. Deem and Ramdas Pophale) SiO2 
 PCOD8251634
Probable space group: P N M A
;
_chemical_formula_sum "Si O2"
_cell_formula_units_Z 40
_cell_length_a 7.770551
_cell_length_b 16.632516
_cell_length_c 15.913845
_cell_angle_alpha 90.000000
_cell_angle_beta 90.000000
_cell_angle_gamma 90.000000
_cell_volume 2056.766021
_symmetry_space_group_name_H-M "P N M A"
_symmetry_group_IT_number 62
_symmetry_cell_setting 'orthorhombic'
loop_
_space_group_symop_operation_xyz
x,y,z
1/2-x,-y,1/2+z
1/2+x,1/2-y,1/2-z
-x,1/2+y,-z
-x,-y,-z
1/2+x,y,1/2-z
1/2-x,1/2+y,1/2+z
x,1/2-y,z
loop_
_atom_site_type_symbol
_atom_site_label
_atom_site_fract_x
_atom_site_fract_y
_atom_site_fract_z
Si Si1 0.747684 0.156034 0.496445
Si Si2 0.137373 0.842423 0.991941
Si Si3 0.389272 0.087023 0.838165
Si Si4 0.249355 0.341408 0.674234
Si Si5 0.955667 0.937940 0.572555
O O1 0.775495 0.250000 0.512401
O O2 0.556266 0.138785 0.460504
O O3 0.763071 0.110086 0.585396
O O4 0.887610 0.126168 0.427171
O O5 0.187868 0.750000 0.976202
O O6 0.140523 0.861115 0.091551
O O7 0.271965 0.896011 0.941123
O O8 0.551255 0.145619 0.848536
O O9 0.299906 0.098696 0.748729
O O10 0.442534 0.992198 0.843209
O O11 0.279113 0.250000 0.704113
O O12 0.000000 0.000000 0.500000
#
# Coordination Sequence:
#
# PCOD8251634 Si02
#       5
#     8   8   8   8   8
#     4  10  19  34  56  80 107 142 185 229 277 329
#     4  10  20  35  59  85 110 147 190 231 277 336
#     4  11  22  34  51  82 117 150 184 225 279 331
#     4  11  20  34  53  78 117 152 185 222 271 337
#     4  10  20  35  52  80 117 148 182 230 279 330
#
# _framework density 19.448008000000002
#
# number of rings (size 3 to 8) (size 9 to 14) (size 15 to 20)
#    0.000    1.600    4.000    3.600    0.000    4.800 
#    3.600    0.000    0.000    0.000    0.000    5.600 
#    0.000    0.000    0.000    0.000    0.000    0.000 
#
# Total GULP energy -495919.921344 kJ/mol
# GULP energy per Si atom -12397.998034 kJ/mol
# Density = 1.940374 g / cm^3
# Si number density = 19.448008 Si / 1000 Ang^3
#
#
#
# Elastic Constant Matrix: (Units=GPa)
#
#
# Indices 1 2 3 4 5 6 
#
# 1 122.3753 41.7318 20.8456 0.0000 0.0000 0.0000
# 2 41.7318 73.0972 34.5396 0.0000 0.0000 0.0000
# 3 20.8456 34.5396 49.0362 0.0000 0.0000 0.0000
# 4 0.0000 0.0000 0.0000 35.7198 0.0000 0.0000
# 5 0.0000 0.0000 0.0000 0.0000 10.6227 0.0000
# 6 0.0000 0.0000 0.0000 0.0000 0.0000 35.2657
#
#
#
# Elastic Compliance Matrix: (Units=1/GPa)
#
#
# Indices 1 2 3 4 5 6 
#
# 1 0.010151 -0.005630 -0.000350 0.000000 0.000000 0.000000
# 2 -0.005630 0.023628 -0.014249 0.000000 0.000000 0.000000
# 3 -0.000350 -0.014249 0.030578 0.000000 0.000000 0.000000
# 4 0.000000 0.000000 0.000000 0.027996 0.000000 0.000000
# 5 0.000000 0.000000 0.000000 0.000000 0.094138 0.000000
# 6 0.000000 0.000000 0.000000 0.000000 0.000000 0.028356
#
#
# Mechanical properties :
#
#
# Convention : Reuss Voigt Hill
#
# Bulk Modulus (GPa) = 41.84222 48.74918 45.29570
# Shear Modulus (GPa) = 18.99181 26.14777 22.56979
#
# Velocity S-wave (km/s) = 3.12836 3.67071 3.41034
# Velocity P-wave (km/s) = 5.88306 6.56402 6.23285
#
# Compressibility (1/GPa) = 0.02389931
#
# Stress axis : x y z
#
# Youngs Moduli (GPa) = 98.51156 42.32320 32.70277
#
# Poissons Ratio (x) = 0.23829 0.01143
# Poissons Ratio (y) = 0.55463 0.46599
# Poissons Ratio (z) = 0.03444 0.60307
#
# Static dielectric constant tensor:
#      x y z
#    x 3.815920 0.000000 0.000000 
#    y 0.000000 4.037300 0.000000 
#    z 0.000000 0.000000 3.364580 
# 
# 
# High freq. dielectric constant tensor:
#      x y z
#    x 1.773900 0.000000 0.000000 
#    y 0.000000 1.760080 0.000000 
#    z 0.000000 0.000000 1.703330 
# 
# From -- ./inp_files/16668.got.cif
#   From: 2010.03.12/outbox.cif.g09.slc.cpg/sg62_9_cif.got.tgz:16668.got - 2010.04.10 19:12:36.
