data_PCOD8251396
_publ_section_title
;
Structure prediction by ZEFSAII (Michael W. Deem and Ramdas Pophale) SiO2 
 PCOD8251396
Probable space group: P N M A
;
_chemical_formula_sum "Si O2"
_cell_formula_units_Z 64
_cell_length_a 9.417458
_cell_length_b 21.786709
_cell_length_c 15.664859
_cell_angle_alpha 90.000000
_cell_angle_beta 90.000000
_cell_angle_gamma 90.000000
_cell_volume 3214.043977
_symmetry_space_group_name_H-M "P N M A"
_symmetry_group_IT_number 62
_symmetry_cell_setting 'orthorhombic'
loop_
_space_group_symop_operation_xyz
x,y,z
1/2-x,-y,1/2+z
1/2+x,1/2-y,1/2-z
-x,1/2+y,-z
-x,-y,-z
1/2+x,y,1/2-z
1/2-x,1/2+y,1/2+z
x,1/2-y,z
loop_
_atom_site_type_symbol
_atom_site_label
_atom_site_fract_x
_atom_site_fract_y
_atom_site_fract_z
Si Si1 0.878333 0.402917 0.215026
Si Si2 0.082309 0.888876 0.336310
Si Si3 0.809024 0.678162 0.264148
Si Si4 0.018747 0.319433 0.075648
Si Si5 0.898507 0.530091 0.670928
Si Si6 0.678974 0.679742 0.867489
Si Si7 0.964811 0.612717 0.521647
Si Si8 0.292569 0.319044 0.553852
O O1 0.765711 0.452135 0.180744
O O2 0.799759 0.358391 0.281343
O O3 0.933830 0.364058 0.136594
O O4 0.009973 0.436546 0.257575
O O5 0.959452 0.852347 0.286456
O O6 0.061822 0.891554 0.438015
O O7 0.231686 0.855279 0.315163
O O8 0.085213 0.958930 0.307323
O O9 0.833018 0.750000 0.243031
O O10 0.705569 0.667938 0.345396
O O11 0.996674 0.250000 0.109147
O O12 0.185678 0.334780 0.072041
O O13 0.953144 0.327133 0.980623
O O14 0.952522 0.548882 0.575262
O O15 0.669991 0.750000 0.840552
O O16 0.535455 0.662750 0.916506
O O17 0.808230 0.634491 0.496905
O O18 0.235280 0.250000 0.537667
#
# Coordination Sequence:
#
# PCOD8251396 Si02
#       8
#     8   8   8   8   8   8   8   8
#     4  11  20  36  54  81 117 159 196 234 282 332
#     4  11  23  41  62  89 115 150 197 239 296 350
#     4  10  22  40  63  87 113 143 187 246 304 352
#     4  10  19  33  53  80 116 153 192 236 284 338
#     4  11  22  37  60  83 119 160 198 238 278 343
#     4  10  21  34  52  84 117 151 192 237 284 336
#     4  10  21  37  59  83 118 154 197 241 286 338
#     4   9  18  34  57  84 111 149 192 238 293 347
#
# _framework density 19.912607000000001
#
# number of rings (size 3 to 8) (size 9 to 14) (size 15 to 20)
#    0.000    1.750    2.500    2.250    0.000    2.500 
#    0.000    1.250    0.000    1.500    0.000    0.000 
#    0.000    0.000    0.000    0.000    0.000    0.000 
#
# Total GULP energy -793519.081882 kJ/mol
# GULP energy per Si atom -12398.735654 kJ/mol
# Density = 1.986729 g / cm^3
# Si number density = 19.912607 Si / 1000 Ang^3
#
#
#
# Elastic Constant Matrix: (Units=GPa)
#
#
# Indices 1 2 3 4 5 6 
#
# 1 53.8849 24.1609 11.1907 0.0000 0.0000 0.0000
# 2 24.1609 106.0554 12.5110 0.0000 0.0000 0.0000
# 3 11.1907 12.5110 49.1363 0.0000 0.0000 0.0000
# 4 0.0000 0.0000 0.0000 22.6596 0.0000 0.0000
# 5 0.0000 0.0000 0.0000 0.0000 36.3101 0.0000
# 6 0.0000 0.0000 0.0000 0.0000 0.0000 27.0481
#
#
#
# Elastic Compliance Matrix: (Units=1/GPa)
#
#
# Indices 1 2 3 4 5 6 
#
# 1 0.021312 -0.004415 -0.003730 0.000000 0.000000 0.000000
# 2 -0.004415 0.010636 -0.001702 0.000000 0.000000 0.000000
# 3 -0.003730 -0.001702 0.021634 0.000000 0.000000 0.000000
# 4 0.000000 0.000000 0.000000 0.044131 0.000000 0.000000
# 5 0.000000 0.000000 0.000000 0.000000 0.027541 0.000000
# 6 0.000000 0.000000 0.000000 0.000000 0.000000 0.036971
#
#
# Mechanical properties :
#
#
# Convention : Reuss Voigt Hill
#
# Bulk Modulus (GPa) = 29.50919 33.86688 31.68804
# Shear Modulus (GPa) = 25.87771 27.95115 26.91443
#
# Velocity S-wave (km/s) = 3.60886 3.75065 3.68044
# Velocity P-wave (km/s) = 5.67597 5.98341 5.83172
#
# Compressibility (1/GPa) = 0.03388775
#
# Stress axis : x y z
#
# Youngs Moduli (GPa) = 46.92108 94.02267 46.22253
#
# Poissons Ratio (x) = 0.41514 0.17239
# Poissons Ratio (y) = 0.20717 0.07869
# Poissons Ratio (z) = 0.17500 0.16007
#
# Static dielectric constant tensor:
#      x y z
#    x 3.589140 0.000000 0.000000 
#    y 0.000000 3.548330 0.000000 
#    z 0.000000 0.000000 3.627210 
# 
# 
# High freq. dielectric constant tensor:
#      x y z
#    x 1.778540 0.000000 0.000000 
#    y 0.000000 1.772190 0.000000 
#    z 0.000000 0.000000 1.774060 
# 
# From -- ./inp_files/17347.got.cif
#   From: 2010.03.12/outbox.cif.g09.slc.cpg/sg62_9_cif.got.tgz:17347.got - 2010.04.10 19:12:36.
