data_PCOD8251126
_publ_section_title
;
Structure prediction by ZEFSAII (Michael W. Deem and Ramdas Pophale) SiO2 
 PCOD8251126
Probable space group: P N M A
;
_chemical_formula_sum "Si O2"
_cell_formula_units_Z 64
_cell_length_a 18.979607
_cell_length_b 8.618393
_cell_length_c 23.099948
_cell_angle_alpha 90.000000
_cell_angle_beta 90.000000
_cell_angle_gamma 90.000000
_cell_volume 3778.544244
_symmetry_space_group_name_H-M "P N M A"
_symmetry_group_IT_number 62
_symmetry_cell_setting 'orthorhombic'
loop_
_space_group_symop_operation_xyz
x,y,z
1/2-x,-y,1/2+z
1/2+x,1/2-y,1/2-z
-x,1/2+y,-z
-x,-y,-z
1/2+x,y,1/2-z
1/2-x,1/2+y,1/2+z
x,1/2-y,z
loop_
_atom_site_type_symbol
_atom_site_label
_atom_site_fract_x
_atom_site_fract_y
_atom_site_fract_z
Si Si1 0.135222 0.067429 0.782878
Si Si2 0.716426 0.432692 0.830332
Si Si3 0.660901 0.432500 0.267967
Si Si4 0.867785 0.567195 0.441080
Si Si5 0.242269 0.067500 0.346804
Si Si6 0.996998 0.931729 0.613129
Si Si7 0.643449 0.568981 0.064005
Si Si8 0.495332 0.932977 0.753462
O O1 0.143198 0.250000 0.790694
O O2 0.166799 0.007449 0.721776
O O3 0.177131 0.982582 0.834644
O O4 0.053646 0.018874 0.785179
O O5 0.718339 0.250000 0.830458
O O6 0.795757 0.495071 0.821494
O O7 0.684191 0.493117 0.890459
O O8 0.665966 0.250000 0.273083
O O9 0.694184 0.486838 0.207176
O O10 0.580260 0.488946 0.270658
O O11 0.860702 0.750000 0.452371
O O12 0.845230 0.472330 0.497218
O O13 0.948115 0.530357 0.424281
O O14 0.237555 0.250000 0.358071
O O15 0.215114 0.976369 0.402996
O O16 0.012201 0.750000 0.605247
O O17 0.002530 0.983041 0.679775
O O18 0.919412 0.967321 0.590230
O O19 0.626796 0.750000 0.071109
O O20 0.504269 0.750000 0.746902
#
# Coordination Sequence:
#
# PCOD8251126 Si02
#       8
#     8   8   8   8   8   8   8   8
#     4  10  19  32  50  76 103 131 167 210 255 300
#     4   9  19  33  49  72  99 129 166 208 255 297
#     4   9  18  32  51  73  99 130 167 206 251 302
#     4  11  22  37  52  71 101 137 176 215 254 301
#     4  10  19  35  53  73  99 134 170 210 256 301
#     4  11  21  35  51  71 102 139 178 213 248 298
#     4  12  24  36  51  73 100 136 177 216 255 299
#     4  10  19  32  50  75 103 136 171 204 248 304
#
# _framework density 16.937740000000002
#
# number of rings (size 3 to 8) (size 9 to 14) (size 15 to 20)
#    0.000    1.750    2.500    3.000    0.000    3.000 
#    0.000    0.000    0.000    0.000    0.000    0.875 
#    0.000    0.000    0.000    0.000    0.000    0.000 
#
# Total GULP energy -793830.882273 kJ/mol
# GULP energy per Si atom -12403.607536 kJ/mol
# Density = 1.689919 g / cm^3
# Si number density = 16.937740 Si / 1000 Ang^3
#
#
#
# Elastic Constant Matrix: (Units=GPa)
#
#
# Indices 1 2 3 4 5 6 
#
# 1 96.5939 17.6673 36.0031 0.0000 0.0000 0.0000
# 2 17.6673 40.4441 18.1097 0.0000 0.0000 0.0000
# 3 36.0031 18.1097 59.9265 0.0000 0.0000 0.0000
# 4 0.0000 0.0000 0.0000 23.7994 0.0000 0.0000
# 5 0.0000 0.0000 0.0000 0.0000 26.1083 0.0000
# 6 0.0000 0.0000 0.0000 0.0000 0.0000 30.4451
#
#
#
# Elastic Compliance Matrix: (Units=1/GPa)
#
#
# Indices 1 2 3 4 5 6 
#
# 1 0.013578 -0.002635 -0.007361 0.000000 0.000000 0.000000
# 2 -0.002635 0.029106 -0.007213 0.000000 0.000000 0.000000
# 3 -0.007361 -0.007213 0.023289 0.000000 0.000000 0.000000
# 4 0.000000 0.000000 0.000000 0.042018 0.000000 0.000000
# 5 0.000000 0.000000 0.000000 0.000000 0.038302 0.000000
# 6 0.000000 0.000000 0.000000 0.000000 0.000000 0.032846
#
#
# Mechanical properties :
#
#
# Convention : Reuss Voigt Hill
#
# Bulk Modulus (GPa) = 31.69020 37.83608 34.76314
# Shear Modulus (GPa) = 22.31377 24.41619 23.36498
#
# Velocity S-wave (km/s) = 3.63354 3.80086 3.71814
# Velocity P-wave (km/s) = 6.02942 6.45360 6.24511
#
# Compressibility (1/GPa) = 0.03155550
#
# Stress axis : x y z
#
# Youngs Moduli (GPa) = 73.64634 34.35686 42.93802
#
# Poissons Ratio (x) = 0.09054 0.31608
# Poissons Ratio (y) = 0.19408 0.30970
# Poissons Ratio (z) = 0.54214 0.24780
#
# Static dielectric constant tensor:
#      x y z
#    x 3.246220 0.000000 0.000000 
#    y 0.000000 3.093740 0.000000 
#    z 0.000000 0.000000 3.104820 
# 
# 
# High freq. dielectric constant tensor:
#      x y z
#    x 1.648100 0.000000 0.000000 
#    y 0.000000 1.659620 0.000000 
#    z 0.000000 0.000000 1.624870 
# 
# From -- ./inp_files/27628.got.cif
#   From: 2010.03.12/outbox.cif.g09.slc.cpg/sg62_14_cif.got.tgz:27628.got - 2010.04.10 19:12:36.
