data_PCOD8251354
_publ_section_title
;
Structure prediction by ZEFSAII (Michael W. Deem and Ramdas Pophale) SiO2 
 PCOD8251354
Probable space group: P N M A
;
_chemical_formula_sum "Si O2"
_cell_formula_units_Z 64
_cell_length_a 19.101452
_cell_length_b 19.349512
_cell_length_c 9.170781
_cell_angle_alpha 90.000000
_cell_angle_beta 90.000000
_cell_angle_gamma 90.000000
_cell_volume 3389.555274
_symmetry_space_group_name_H-M "P N M A"
_symmetry_group_IT_number 62
_symmetry_cell_setting 'orthorhombic'
loop_
_space_group_symop_operation_xyz
x,y,z
1/2-x,-y,1/2+z
1/2+x,1/2-y,1/2-z
-x,1/2+y,-z
-x,-y,-z
1/2+x,y,1/2-z
1/2-x,1/2+y,1/2+z
x,1/2-y,z
loop_
_atom_site_type_symbol
_atom_site_label
_atom_site_fract_x
_atom_site_fract_y
_atom_site_fract_z
Si Si1 0.693935 0.173407 0.972428
Si Si2 0.690483 0.372851 0.405933
Si Si3 0.987517 0.529569 0.661189
Si Si4 0.881477 0.040617 0.152080
Si Si5 0.074723 0.327421 0.289539
Si Si6 0.854616 0.480402 0.825645
Si Si7 0.781254 0.919647 0.215858
Si Si8 0.192108 0.826562 0.797980
O O1 0.694028 0.250000 0.903249
O O2 0.680095 0.116685 0.850244
O O3 0.633323 0.166038 0.088666
O O4 0.768020 0.159013 0.050103
O O5 0.614061 0.340692 0.365731
O O6 0.691968 0.451652 0.351083
O O7 0.704459 0.370374 0.578156
O O8 0.752931 0.330109 0.333912
O O9 0.982036 0.613493 0.672635
O O10 0.916488 0.493571 0.712416
O O11 0.000000 0.500000 0.500000
O O12 0.050259 0.508426 0.770440
O O13 0.869283 0.117361 0.216314
O O14 0.814351 0.994700 0.191987
O O15 0.889731 0.044636 0.977162
O O16 0.041046 0.250000 0.288451
O O17 0.801714 0.425561 0.751169
O O18 0.158560 0.750000 0.796731
#
# Coordination Sequence:
#
# PCOD8251354 Si02
#       8
#     8   8   8   8   8   8   8   8
#     4   9  18  33  55  81 110 146 182 224 279 338
#     4   9  19  31  54  86 110 141 181 233 275 329
#     4  11  24  37  59  83 114 148 200 245 288 330
#     4  11  22  36  57  83 114 149 190 236 288 341
#     4   9  19  38  58  79 114 154 192 230 282 348
#     4  10  21  37  55  82 115 149 185 231 289 345
#     4  11  20  33  61  86 116 141 185 237 289 338
#     4  10  19  33  52  78 113 147 180 223 278 336
#
# _framework density 18.881533000000001
#
# number of rings (size 3 to 8) (size 9 to 14) (size 15 to 20)
#    0.000    2.000    2.500    2.250    1.750    1.500 
#    0.000    0.000    0.000    0.750    0.000    0.000 
#    0.000    0.000    0.000    0.000    0.000    0.000 
#
# Total GULP energy -793418.347072 kJ/mol
# GULP energy per Si atom -12397.161673 kJ/mol
# Density = 1.883856 g / cm^3
# Si number density = 18.881533 Si / 1000 Ang^3
#
#
#
# Elastic Constant Matrix: (Units=GPa)
#
#
# Indices 1 2 3 4 5 6 
#
# 1 66.5206 19.2436 41.0438 0.0000 0.0000 0.0000
# 2 19.2436 84.6602 40.4200 0.0000 0.0000 0.0000
# 3 41.0438 40.4200 121.8132 0.0000 0.0000 0.0000
# 4 0.0000 0.0000 0.0000 23.3330 0.0000 0.0000
# 5 0.0000 0.0000 0.0000 0.0000 26.2622 0.0000
# 6 0.0000 0.0000 0.0000 0.0000 0.0000 21.5286
#
#
#
# Elastic Compliance Matrix: (Units=1/GPa)
#
#
# Indices 1 2 3 4 5 6 
#
# 1 0.019140 -0.001511 -0.005948 0.000000 0.000000 0.000000
# 2 -0.001511 0.014155 -0.004188 0.000000 0.000000 0.000000
# 3 -0.005948 -0.004188 0.011603 0.000000 0.000000 0.000000
# 4 0.000000 0.000000 0.000000 0.042858 0.000000 0.000000
# 5 0.000000 0.000000 0.000000 0.000000 0.038077 0.000000
# 6 0.000000 0.000000 0.000000 0.000000 0.000000 0.046450
#
#
# Mechanical properties :
#
#
# Convention : Reuss Voigt Hill
#
# Bulk Modulus (GPa) = 46.28596 52.71210 49.49903
# Shear Modulus (GPa) = 24.65769 25.71055 25.18412
#
# Velocity S-wave (km/s) = 3.61767 3.69409 3.65608
# Velocity P-wave (km/s) = 6.48206 6.79507 6.64041
#
# Compressibility (1/GPa) = 0.02160483
#
# Stress axis : x y z
#
# Youngs Moduli (GPa) = 52.24729 70.64769 86.18575
#
# Poissons Ratio (x) = 0.10674 0.51260
# Poissons Ratio (y) = 0.07894 0.36092
# Poissons Ratio (z) = 0.31075 0.29585
#
# Static dielectric constant tensor:
#      x y z
#    x 3.216060 0.000000 0.000000 
#    y 0.000000 3.512870 0.000000 
#    z 0.000000 0.000000 3.461890 
# 
# 
# High freq. dielectric constant tensor:
#      x y z
#    x 1.711230 0.000000 0.000000 
#    y 0.000000 1.730910 0.000000 
#    z 0.000000 0.000000 1.731100 
# 
# From -- ./inp_files/8867.got.cif
#   From: 2010.03.12/outbox.cif.g09.slc.cpg/sg62_5_cif.got.tgz:8867.got - 2010.04.10 19:12:36.
