data_PCOD8251766
_publ_section_title
;
Structure prediction by ZEFSAII (Michael W. Deem and Ramdas Pophale) SiO2 
 PCOD8251766
Probable space group: P N M A
;
_chemical_formula_sum "Si O2"
_cell_formula_units_Z 48
_cell_length_a 16.352828
_cell_length_b 16.869357
_cell_length_c 9.164114
_cell_angle_alpha 90.000000
_cell_angle_beta 90.000000
_cell_angle_gamma 90.000000
_cell_volume 2528.028007
_symmetry_space_group_name_H-M "P N M A"
_symmetry_group_IT_number 62
_symmetry_cell_setting 'orthorhombic'
loop_
_space_group_symop_operation_xyz
x,y,z
1/2-x,-y,1/2+z
1/2+x,1/2-y,1/2-z
-x,1/2+y,-z
-x,-y,-z
1/2+x,y,1/2-z
1/2-x,1/2+y,1/2+z
x,1/2-y,z
loop_
_atom_site_type_symbol
_atom_site_label
_atom_site_fract_x
_atom_site_fract_y
_atom_site_fract_z
Si Si1 0.320710 0.909035 0.421924
Si Si2 0.979899 0.842860 0.929969
Si Si3 0.701594 0.157760 0.888799
Si Si4 0.724734 0.656188 0.834538
Si Si5 0.349866 0.407878 0.432249
Si Si6 0.617925 0.156989 0.167248
O O1 0.401248 0.860932 0.470122
O O2 0.306121 0.897351 0.250873
O O3 0.237695 0.877549 0.501890
O O4 0.331058 0.000795 0.456093
O O5 0.998954 0.750000 0.940813
O O6 0.962157 0.868663 0.759368
O O7 0.058040 0.891007 0.987795
O O8 0.696317 0.250000 0.844421
O O9 0.787183 0.144017 0.971984
O O10 0.625083 0.133129 0.996532
O O11 0.712933 0.750000 0.841866
O O12 0.651232 0.618463 0.739440
O O13 0.804085 0.622253 0.751033
O O14 0.628126 0.250000 0.179734
#
# Coordination Sequence:
#
# PCOD8251766 Si02
#       6
#     8   8   8   8   8   8
#     4  11  21  34  53  81 111 139 173 224 278 318
#     4  10  19  35  55  75 102 143 185 218 258 323
#     4  10  19  35  56  78 104 140 180 220 266 322
#     4   9  17  33  53  72  97 139 183 212 249 320
#     4  11  21  34  53  81 110 138 177 229 270 305
#     4   7  14  29  51  71  92 129 176 209 242 304
#
# _framework density 18.987130000000001
#
# number of rings (size 3 to 8) (size 9 to 14) (size 15 to 20)
#    0.000    2.333    0.000    6.500    0.000    0.000 
#    0.000    2.500    0.000    2.000    0.000    0.000 
#    0.000    0.000    0.000    0.000    0.000    0.000 
#
# Total GULP energy -594712.787192 kJ/mol
# GULP energy per Si atom -12389.849733 kJ/mol
# Density = 1.894391 g / cm^3
# Si number density = 18.987130 Si / 1000 Ang^3
#
#
#
# Elastic Constant Matrix: (Units=GPa)
#
#
# Indices 1 2 3 4 5 6 
#
# 1 61.6296 3.2135 18.6207 0.0000 0.0000 0.0000
# 2 3.2135 69.9065 8.2699 0.0000 0.0000 0.0000
# 3 18.6207 8.2699 96.1357 0.0000 0.0000 0.0000
# 4 0.0000 0.0000 0.0000 25.2119 0.0000 0.0000
# 5 0.0000 0.0000 0.0000 0.0000 17.8324 0.0000
# 6 0.0000 0.0000 0.0000 0.0000 0.0000 21.6885
#
#
#
# Elastic Compliance Matrix: (Units=1/GPa)
#
#
# Indices 1 2 3 4 5 6 
#
# 1 0.017246 -0.000402 -0.003306 0.000000 0.000000 0.000000
# 2 -0.000402 0.014461 -0.001166 0.000000 0.000000 0.000000
# 3 -0.003306 -0.001166 0.011143 0.000000 0.000000 0.000000
# 4 0.000000 0.000000 0.000000 0.039664 0.000000 0.000000
# 5 0.000000 0.000000 0.000000 0.000000 0.056078 0.000000
# 6 0.000000 0.000000 0.000000 0.000000 0.000000 0.046107
#
#
# Mechanical properties :
#
#
# Convention : Reuss Voigt Hill
#
# Bulk Modulus (GPa) = 30.20949 31.98667 31.09808
# Shear Modulus (GPa) = 24.33325 26.11773 25.22549
#
# Velocity S-wave (km/s) = 3.58378 3.71286 3.64889
# Velocity P-wave (km/s) = 5.75062 5.93831 5.84522
#
# Compressibility (1/GPa) = 0.03310219
#
# Stress axis : x y z
#
# Youngs Moduli (GPa) = 57.98541 69.15038 89.74577
#
# Poissons Ratio (x) = 0.02778 0.29668
# Poissons Ratio (y) = 0.02329 0.10466
# Poissons Ratio (z) = 0.19169 0.08064
#
# Static dielectric constant tensor:
#      x y z
#    x 3.399760 0.000000 0.000000 
#    y 0.000000 3.272210 0.000000 
#    z 0.000000 0.000000 3.669910 
# 
# 
# High freq. dielectric constant tensor:
#      x y z
#    x 1.712220 0.000000 0.000000 
#    y 0.000000 1.732380 0.000000 
#    z 0.000000 0.000000 1.735200 
# 
# From -- ./inp_files/7652.got.cif
#   From: 2010.03.12/outbox.cif.g09.slc.cpg/sg62_4_cif.got.tgz:7652.got - 2010.04.10 19:12:36.
