data_PCOD8251843
_publ_section_title
;
Structure prediction by ZEFSAII (Michael W. Deem and Ramdas Pophale) SiO2 
 PCOD8251843
Probable space group: P N M A
;
_chemical_formula_sum "Si O2"
_cell_formula_units_Z 64
_cell_length_a 19.204310
_cell_length_b 9.286730
_cell_length_c 19.876015
_cell_angle_alpha 90.000000
_cell_angle_beta 90.000000
_cell_angle_gamma 90.000000
_cell_volume 3544.792701
_symmetry_space_group_name_H-M "P N M A"
_symmetry_group_IT_number 62
_symmetry_cell_setting 'orthorhombic'
loop_
_space_group_symop_operation_xyz
x,y,z
1/2-x,-y,1/2+z
1/2+x,1/2-y,1/2-z
-x,1/2+y,-z
-x,-y,-z
1/2+x,y,1/2-z
1/2-x,1/2+y,1/2+z
x,1/2-y,z
loop_
_atom_site_type_symbol
_atom_site_label
_atom_site_fract_x
_atom_site_fract_y
_atom_site_fract_z
Si Si1 0.772236 0.580438 0.152702
Si Si2 0.752053 0.087133 0.279787
Si Si3 0.407582 0.417268 0.187432
Si Si4 0.968834 0.420483 0.936395
Si Si5 0.571434 0.417919 0.682806
Si Si6 0.062247 0.579251 0.536874
Si Si7 0.829098 0.583823 0.911723
Si Si8 0.710928 0.920714 0.013480
O O1 0.763277 0.750000 0.156761
O O2 0.733297 0.513048 0.216750
O O3 0.853411 0.535107 0.153452
O O4 0.736142 0.518767 0.085519
O O5 0.755684 0.250000 0.253326
O O6 0.825675 0.044348 0.313325
O O7 0.691568 0.068226 0.334077
O O8 0.420049 0.250000 0.200724
O O9 0.445931 0.502340 0.247305
O O10 0.439342 0.462916 0.115657
O O11 0.968842 0.250000 0.949016
O O12 0.891694 0.476715 0.925149
O O13 0.014172 0.462447 0.871508
O O14 0.000000 0.500000 0.000000
O O15 0.570136 0.250000 0.698553
O O16 0.054829 0.750000 0.527501
O O17 0.134152 0.521517 0.504155
O O18 0.000000 0.500000 0.500000
O O19 0.848871 0.750000 0.928940
O O20 0.765433 0.528563 0.957245
O O21 0.709247 0.750000 0.013779
#
# Coordination Sequence:
#
# PCOD8251843 Si02
#       8
#     8   8   8   8   8   8   8   8
#     4   9  17  31  54  79 103 136 176 217 258 309
#     4   9  17  32  54  78 103 134 173 217 264 315
#     4   9  17  33  57  80 103 138 183 223 263 318
#     4  11  23  38  55  80 113 146 183 224 271 325
#     4   9  19  35  54  79 109 143 181 219 263 318
#     4  10  20  36  56  79 106 139 181 224 271 327
#     4  10  19  35  59  80 104 142 183 222 268 324
#     4   9  17  34  58  79 103 141 182 215 265 331
#
# _framework density 18.054652999999998
#
# number of rings (size 3 to 8) (size 9 to 14) (size 15 to 20)
#    0.000    2.500    1.250    1.125    0.000    4.000 
#    2.250    4.375    0.000    0.000    0.000    0.000 
#    0.000    0.000    0.000    0.000    0.000    0.000 
#
# Total GULP energy -793626.507030 kJ/mol
# GULP energy per Si atom -12400.414172 kJ/mol
# Density = 1.801356 g / cm^3
# Si number density = 18.054653 Si / 1000 Ang^3
#
#
#
# Elastic Constant Matrix: (Units=GPa)
#
#
# Indices 1 2 3 4 5 6 
#
# 1 115.1462 42.4895 74.5461 0.0000 0.0000 0.0000
# 2 42.4895 48.8456 54.2176 0.0000 0.0000 0.0000
# 3 74.5461 54.2176 154.4815 0.0000 0.0000 0.0000
# 4 0.0000 0.0000 0.0000 33.6459 0.0000 0.0000
# 5 0.0000 0.0000 0.0000 0.0000 29.5393 0.0000
# 6 0.0000 0.0000 0.0000 0.0000 0.0000 29.4090
#
#
#
# Elastic Compliance Matrix: (Units=1/GPa)
#
#
# Indices 1 2 3 4 5 6 
#
# 1 0.014238 -0.007796 -0.004135 0.000000 0.000000 0.000000
# 2 -0.007796 0.037807 -0.009507 0.000000 0.000000 0.000000
# 3 -0.004135 -0.009507 0.011805 0.000000 0.000000 0.000000
# 4 0.000000 0.000000 0.000000 0.029721 0.000000 0.000000
# 5 0.000000 0.000000 0.000000 0.000000 0.033853 0.000000
# 6 0.000000 0.000000 0.000000 0.000000 0.000000 0.034003
#
#
# Mechanical properties :
#
#
# Convention : Reuss Voigt Hill
#
# Bulk Modulus (GPa) = 47.67605 73.44218 60.55911
# Shear Modulus (GPa) = 23.66374 28.33352 25.99863
#
# Velocity S-wave (km/s) = 3.62425 3.96576 3.79884
# Velocity P-wave (km/s) = 6.63155 7.85721 7.27025
#
# Compressibility (1/GPa) = 0.02097489
#
# Stress axis : x y z
#
# Youngs Moduli (GPa) = 70.23394 26.45041 84.71022
#
# Poissons Ratio (x) = 0.20621 0.35024
# Poissons Ratio (y) = 0.54755 0.80532
# Poissons Ratio (z) = 0.29038 0.25146
#
# Static dielectric constant tensor:
#      x y z
#    x 3.342230 0.000000 0.000000 
#    y 0.000000 3.158420 0.000000 
#    z 0.000000 0.000000 3.537620 
# 
# 
# High freq. dielectric constant tensor:
#      x y z
#    x 1.689130 0.000000 0.000000 
#    y 0.000000 1.680410 0.000000 
#    z 0.000000 0.000000 1.712350 
# 
# From -- ./inp_files/27684.got.cif
#   From: 2010.03.12/outbox.cif.g09.slc.cpg/sg62_14_cif.got.tgz:27684.got - 2010.04.10 19:12:36.
