data_PCOD8251767
_publ_section_title
;
Structure prediction by ZEFSAII (Michael W. Deem and Ramdas Pophale) SiO2 
 PCOD8251767
Probable space group: P N M A
;
_chemical_formula_sum "Si O2"
_cell_formula_units_Z 48
_cell_length_a 20.363857
_cell_length_b 8.941985
_cell_length_c 14.447072
_cell_angle_alpha 90.000000
_cell_angle_beta 90.000000
_cell_angle_gamma 90.000000
_cell_volume 2630.715071
_symmetry_space_group_name_H-M "P N M A"
_symmetry_group_IT_number 62
_symmetry_cell_setting 'orthorhombic'
loop_
_space_group_symop_operation_xyz
x,y,z
1/2-x,-y,1/2+z
1/2+x,1/2-y,1/2-z
-x,1/2+y,-z
-x,-y,-z
1/2+x,y,1/2-z
1/2-x,1/2+y,1/2+z
x,1/2-y,z
loop_
_atom_site_type_symbol
_atom_site_label
_atom_site_fract_x
_atom_site_fract_y
_atom_site_fract_z
Si Si1 0.680100 0.076363 0.662956
Si Si2 0.573596 0.925304 0.174036
Si Si3 0.427916 0.924224 0.191200
Si Si4 0.197197 0.927918 0.216234
Si Si5 0.726721 0.572796 0.488708
Si Si6 0.135299 0.925319 0.515893
O O1 0.691109 0.250000 0.639838
O O2 0.610777 0.049579 0.713589
O O3 0.738967 0.015138 0.727898
O O4 0.676957 0.984035 0.567651
O O5 0.575879 0.750000 0.190828
O O6 0.502027 0.985970 0.203990
O O7 0.631188 0.996454 0.237552
O O8 0.584523 0.963667 0.066263
O O9 0.427160 0.750000 0.162615
O O10 0.392703 0.015253 0.111196
O O11 0.196717 0.750000 0.219077
O O12 0.201123 0.984908 0.110754
O O13 0.731913 0.750000 0.490512
O O14 0.797251 0.504317 0.510714
O O15 0.148467 0.750000 0.523642
#
# Coordination Sequence:
#
# PCOD8251767 Si02
#       6
#     8   8   8   8   8   8
#     4  10  19  35  55  76 106 139 174 217 263 314
#     4   9  18  33  54  77 103 141 179 213 263 320
#     4  10  20  35  55  78 106 141 179 215 262 323
#     4   9  17  33  54  75 103 138 175 215 259 310
#     4  11  21  34  55  82 107 137 181 223 260 310
#     4  11  20  32  54  82 112 140 171 219 271 316
#
# _framework density 18.245988000000001
#
# number of rings (size 3 to 8) (size 9 to 14) (size 15 to 20)
#    0.000    2.000    3.333    1.500    0.000    0.667 
#    0.000    1.667    0.000    0.000    0.000    0.000 
#    0.000    0.000    0.000    0.000    0.000    0.000 
#
# Total GULP energy -595208.887175 kJ/mol
# GULP energy per Si atom -12400.185149 kJ/mol
# Density = 1.820446 g / cm^3
# Si number density = 18.245988 Si / 1000 Ang^3
#
#
#
# Elastic Constant Matrix: (Units=GPa)
#
#
# Indices 1 2 3 4 5 6 
#
# 1 67.3815 16.8940 9.4075 0.0000 0.0000 0.0000
# 2 16.8940 45.2427 28.9034 0.0000 0.0000 0.0000
# 3 9.4075 28.9034 91.9590 0.0000 0.0000 0.0000
# 4 0.0000 0.0000 0.0000 27.7975 0.0000 0.0000
# 5 0.0000 0.0000 0.0000 0.0000 30.1184 0.0000
# 6 0.0000 0.0000 0.0000 0.0000 0.0000 16.2937
#
#
#
# Elastic Compliance Matrix: (Units=1/GPa)
#
#
# Indices 1 2 3 4 5 6 
#
# 1 0.016381 -0.006314 0.000309 0.000000 0.000000 0.000000
# 2 -0.006314 0.030090 -0.008812 0.000000 0.000000 0.000000
# 3 0.000309 -0.008812 0.013612 0.000000 0.000000 0.000000
# 4 0.000000 0.000000 0.000000 0.035974 0.000000 0.000000
# 5 0.000000 0.000000 0.000000 0.000000 0.033202 0.000000
# 6 0.000000 0.000000 0.000000 0.000000 0.000000 0.061373
#
#
# Mechanical properties :
#
#
# Convention : Reuss Voigt Hill
#
# Bulk Modulus (GPa) = 32.84118 34.99922 33.92020
# Shear Modulus (GPa) = 21.69981 24.80048 23.25015
#
# Velocity S-wave (km/s) = 3.45235 3.69077 3.57355
# Velocity P-wave (km/s) = 5.82493 6.11440 5.97142
#
# Compressibility (1/GPa) = 0.03044957
#
# Stress axis : x y z
#
# Youngs Moduli (GPa) = 61.04700 33.23357 73.46252
#
# Poissons Ratio (x) = 0.20984 -0.02268
# Poissons Ratio (y) = 0.38545 0.64732
# Poissons Ratio (z) = -0.01885 0.29284
#
# Static dielectric constant tensor:
#      x y z
#    x 3.834250 0.000000 0.000000 
#    y 0.000000 3.069670 0.000000 
#    z 0.000000 0.000000 3.508830 
# 
# 
# High freq. dielectric constant tensor:
#      x y z
#    x 1.706770 0.000000 0.000000 
#    y 0.000000 1.675980 0.000000 
#    z 0.000000 0.000000 1.711400 
# 
# From -- ./inp_files/19601.got.cif
#   From: 2010.03.12/outbox.cif.g09.slc.cpg/sg62_10_cif.got.tgz:19601.got - 2010.04.10 19:12:36.
