data_PCOD8251811
_publ_section_title
;
Structure prediction by ZEFSAII (Michael W. Deem and Ramdas Pophale) SiO2 
 PCOD8251811
Probable space group: P N M A
;
_chemical_formula_sum "Si O2"
_cell_formula_units_Z 48
_cell_length_a 10.402484
_cell_length_b 9.213587
_cell_length_c 28.104749
_cell_angle_alpha 90.000000
_cell_angle_beta 90.000000
_cell_angle_gamma 90.000000
_cell_volume 2693.676941
_symmetry_space_group_name_H-M "P N M A"
_symmetry_group_IT_number 62
_symmetry_cell_setting 'orthorhombic'
loop_
_space_group_symop_operation_xyz
x,y,z
1/2-x,-y,1/2+z
1/2+x,1/2-y,1/2-z
-x,1/2+y,-z
-x,-y,-z
1/2+x,y,1/2-z
1/2-x,1/2+y,1/2+z
x,1/2-y,z
loop_
_atom_site_type_symbol
_atom_site_label
_atom_site_fract_x
_atom_site_fract_y
_atom_site_fract_z
Si Si1 0.748936 0.079426 0.853691
Si Si2 0.496618 0.918671 0.301746
Si Si3 0.013458 0.918754 0.309992
Si Si4 0.876439 0.417375 0.054267
Si Si5 0.636354 0.919064 0.449209
Si Si6 0.740563 0.580079 0.652145
O O1 0.745784 0.250000 0.844855
O O2 0.618404 0.015125 0.831737
O O3 0.756545 0.038133 0.909905
O O4 0.874797 0.018903 0.826644
O O5 0.472792 0.750000 0.314270
O O6 0.512790 0.942048 0.245995
O O7 0.375699 0.009836 0.319036
O O8 0.031971 0.750000 0.323179
O O9 0.127027 0.009192 0.332894
O O10 0.916823 0.250000 0.053632
O O11 0.773906 0.449306 0.095531
O O12 0.004430 0.505284 0.065220
O O13 0.817765 0.462692 0.002528
O O14 0.606966 0.750000 0.445581
O O15 0.742887 0.750000 0.663770
#
# Coordination Sequence:
#
# PCOD8251811 Si02
#       6
#     8   8   8   8   8   8
#     4   9  17  31  53  79 100 128 173 221 262 297
#     4  10  19  35  58  79  99 131 178 223 258 299
#     4  10  21  36  54  76 105 138 175 217 257 302
#     4   9  18  31  49  75 104 134 168 212 260 308
#     4   9  16  30  53  76  99 130 174 220 258 302
#     4  11  22  35  51  77 111 141 170 207 261 320
#
# _framework density 17.819510000000001
#
# number of rings (size 3 to 8) (size 9 to 14) (size 15 to 20)
#    0.000    2.333    1.667    1.500    0.000    4.000 
#    0.000    2.500    0.000    0.000    0.000    0.000 
#    0.000    0.000    0.000    0.000    0.000    0.000 
#
# Total GULP energy -595068.096370 kJ/mol
# GULP energy per Si atom -12397.252008 kJ/mol
# Density = 1.777895 g / cm^3
# Si number density = 17.819510 Si / 1000 Ang^3
#
#
#
# Elastic Constant Matrix: (Units=GPa)
#
#
# Indices 1 2 3 4 5 6 
#
# 1 137.3488 43.7290 68.2163 0.0000 0.0000 0.0000
# 2 43.7290 50.3105 44.7158 0.0000 0.0000 0.0000
# 3 68.2163 44.7158 121.5437 0.0000 0.0000 0.0000
# 4 0.0000 0.0000 0.0000 14.3892 0.0000 0.0000
# 5 0.0000 0.0000 0.0000 0.0000 -20.4389 0.0000
# 6 0.0000 0.0000 0.0000 0.0000 0.0000 21.4354
#
#
#
# Elastic Compliance Matrix: (Units=1/GPa)
#
#
# Indices 1 2 3 4 5 6 
#
# 1 0.011260 -0.006196 -0.004040 0.000000 0.000000 0.000000
# 2 -0.006196 0.032943 -0.008642 0.000000 0.000000 0.000000
# 3 -0.004040 -0.008642 0.013674 0.000000 0.000000 0.000000
# 4 0.000000 0.000000 0.000000 0.069497 0.000000 0.000000
# 5 0.000000 0.000000 0.000000 0.000000 -0.048926 0.000000
# 6 0.000000 0.000000 0.000000 0.000000 0.000000 0.046652
#
#
# Mechanical properties :
#
#
# Convention : Reuss Voigt Hill
#
# Bulk Modulus (GPa) = 49.69979 69.16947 59.43463
# Shear Modulus (GPa) = 29.48739 13.24660 21.36699
#
# Velocity S-wave (km/s) = 4.07231 2.72945 3.46653
# Velocity P-wave (km/s) = 7.07551 6.98815 7.03196
#
# Compressibility (1/GPa) = 0.02012081
#
# Stress axis : x y z
#
# Youngs Moduli (GPa) = 88.80947 30.35516 73.12895
#
# Poissons Ratio (x) = 0.18809 0.29545
# Poissons Ratio (y) = 0.55028 0.63200
# Poissons Ratio (z) = 0.35880 0.26234
#
# Static dielectric constant tensor:
#      x y z
#    x 3.299210 0.000000 0.000000 
#    y 0.000000 3.157700 0.000000 
#    z 0.000000 0.000000 3.748200 
# 
# 
# High freq. dielectric constant tensor:
#      x y z
#    x 1.673160 0.000000 0.000000 
#    y 0.000000 1.669970 0.000000 
#    z 0.000000 0.000000 1.710730 
# 
# From -- ./inp_files/31924.got.cif
#   From: 2010.03.12/outbox.cif.g09.slc.cpg/sg62_16_cif.got.tgz:31924.got - 2010.04.10 19:12:36.
