data_PCOD8251414
_publ_section_title
;
Structure prediction by ZEFSAII (Michael W. Deem and Ramdas Pophale) SiO2 
 PCOD8251414
Probable space group: P N M A
;
_chemical_formula_sum "Si O2"
_cell_formula_units_Z 48
_cell_length_a 10.306075
_cell_length_b 12.908957
_cell_length_c 18.537555
_cell_angle_alpha 90.000000
_cell_angle_beta 90.000000
_cell_angle_gamma 90.000000
_cell_volume 2466.248904
_symmetry_space_group_name_H-M "P N M A"
_symmetry_group_IT_number 62
_symmetry_cell_setting 'orthorhombic'
loop_
_space_group_symop_operation_xyz
x,y,z
1/2-x,-y,1/2+z
1/2+x,1/2-y,1/2-z
-x,1/2+y,-z
-x,-y,-z
1/2+x,y,1/2-z
1/2-x,1/2+y,1/2+z
x,1/2-y,z
loop_
_atom_site_type_symbol
_atom_site_label
_atom_site_fract_x
_atom_site_fract_y
_atom_site_fract_z
Si Si1 0.236019 0.135696 0.946705
Si Si2 0.996672 0.868726 0.153375
Si Si3 0.751713 0.631459 0.796063
Si Si4 0.783313 0.478542 0.926053
Si Si5 0.010368 0.037466 0.273021
Si Si6 0.495568 0.942459 0.075136
O O1 0.201762 0.250000 0.979464
O O2 0.150370 0.118335 0.874748
O O3 0.389006 0.141629 0.924940
O O4 0.204279 0.038378 0.997982
O O5 0.029037 0.750000 0.171666
O O6 0.092106 0.907757 0.089372
O O7 0.019593 0.931589 0.226995
O O8 0.735224 0.750000 0.817252
O O9 0.772228 0.570149 0.869226
O O10 0.874382 0.616021 0.744512
O O11 0.624796 0.592515 0.753519
O O12 0.654870 0.403819 0.920055
O O13 0.021867 0.018214 0.357999
O O14 0.500000 0.000000 0.000000
#
# Coordination Sequence:
#
# PCOD8251414 Si02
#       6
#     8   8   8   8   8   8
#     4  10  19  33  54  79 105 138 177 218 265 318
#     4  10  21  35  54  78 107 143 179 217 266 317
#     4  10  19  33  54  78 104 137 172 216 271 319
#     4   9  19  35  54  76 106 138 177 221 262 314
#     4  10  20  35  53  78 108 137 176 222 262 316
#     4   9  19  35  53  73 102 139 173 214 263 310
#
# _framework density 19.462755999999999
#
# number of rings (size 3 to 8) (size 9 to 14) (size 15 to 20)
#    0.000    2.333    0.000    2.500    0.000    1.333 
#    0.000   10.833    0.000   13.000    0.000    0.000 
#    0.000    0.000    0.000    0.000    0.000    0.000 
#
# Total GULP energy -594818.084255 kJ/mol
# GULP energy per Si atom -12392.043422 kJ/mol
# Density = 1.941846 g / cm^3
# Si number density = 19.462756 Si / 1000 Ang^3
#
#
#
# Elastic Constant Matrix: (Units=GPa)
#
#
# Indices 1 2 3 4 5 6 
#
# 1 118.7909 41.6148 28.2047 0.0000 0.0000 0.0000
# 2 41.6148 92.4207 21.3507 0.0000 0.0000 0.0000
# 3 28.2047 21.3507 82.7503 0.0000 0.0000 0.0000
# 4 0.0000 0.0000 0.0000 17.7726 0.0000 0.0000
# 5 0.0000 0.0000 0.0000 0.0000 27.1168 0.0000
# 6 0.0000 0.0000 0.0000 0.0000 0.0000 19.6280
#
#
#
# Elastic Compliance Matrix: (Units=1/GPa)
#
#
# Indices 1 2 3 4 5 6 
#
# 1 0.010459 -0.004132 -0.002499 0.000000 0.000000 0.000000
# 2 -0.004132 0.013138 -0.001981 0.000000 0.000000 0.000000
# 3 -0.002499 -0.001981 0.013447 0.000000 0.000000 0.000000
# 4 0.000000 0.000000 0.000000 0.056267 0.000000 0.000000
# 5 0.000000 0.000000 0.000000 0.000000 0.036878 0.000000
# 6 0.000000 0.000000 0.000000 0.000000 0.000000 0.050948
#
#
# Mechanical properties :
#
#
# Convention : Reuss Voigt Hill
#
# Bulk Modulus (GPa) = 50.45363 52.92249 51.68806
# Shear Modulus (GPa) = 24.39404 26.42291 25.40848
#
# Velocity S-wave (km/s) = 3.54414 3.68858 3.61708
# Velocity P-wave (km/s) = 6.53661 6.73732 6.63773
#
# Compressibility (1/GPa) = 0.01982018
#
# Stress axis : x y z
#
# Youngs Moduli (GPa) = 95.61134 76.11232 74.36351
#
# Poissons Ratio (x) = 0.31451 0.18581
# Poissons Ratio (y) = 0.39509 0.14735
# Poissons Ratio (z) = 0.23890 0.15082
#
# Static dielectric constant tensor:
#      x y z
#    x 4.134520 0.000000 0.000000 
#    y 0.000000 3.334420 0.000000 
#    z 0.000000 0.000000 3.421660 
# 
# 
# High freq. dielectric constant tensor:
#      x y z
#    x 1.780970 0.000000 0.000000 
#    y 0.000000 1.735360 0.000000 
#    z 0.000000 0.000000 1.750980 
# 
# From -- ./inp_files/23015.got.cif
#   From: 2010.03.12/outbox.cif.g09.slc.cpg/sg62_12_cif.got.tgz:23015.got - 2010.04.10 19:12:36.
