data_PCOD8251212
_publ_section_title
;
Structure prediction by ZEFSAII (Michael W. Deem and Ramdas Pophale) SiO2 
 PCOD8251212
Probable space group: P N M A
;
_chemical_formula_sum "Si O2"
_cell_formula_units_Z 64
_cell_length_a 10.227136
_cell_length_b 10.704375
_cell_length_c 29.053360
_cell_angle_alpha 90.000000
_cell_angle_beta 90.000000
_cell_angle_gamma 90.000000
_cell_volume 3180.619460
_symmetry_space_group_name_H-M "P N M A"
_symmetry_group_IT_number 62
_symmetry_cell_setting 'orthorhombic'
loop_
_space_group_symop_operation_xyz
x,y,z
1/2-x,-y,1/2+z
1/2+x,1/2-y,1/2-z
-x,1/2+y,-z
-x,-y,-z
1/2+x,y,1/2-z
1/2-x,1/2+y,1/2+z
x,1/2-y,z
loop_
_atom_site_type_symbol
_atom_site_label
_atom_site_fract_x
_atom_site_fract_y
_atom_site_fract_z
Si Si1 0.667118 0.390629 0.356402
Si Si2 0.581100 0.385237 0.771860
Si Si3 0.340308 0.528325 0.743453
Si Si4 0.593650 0.106797 0.976192
Si Si5 0.422390 0.541701 0.126491
Si Si6 0.655293 0.389149 0.157014
Si Si7 0.901068 0.391718 0.111389
Si Si8 0.613891 0.605769 0.506637
O O1 0.695908 0.250000 0.372961
O O2 0.640000 0.389217 0.301739
O O3 0.784043 0.475350 0.372403
O O4 0.542325 0.455194 0.381466
O O5 0.623713 0.250000 0.754078
O O6 0.445638 0.417149 0.746145
O O7 0.691952 0.481026 0.756584
O O8 0.562552 0.375678 0.827341
O O9 0.366964 0.611660 0.788381
O O10 0.567236 0.250000 0.994897
O O11 0.747913 0.071274 0.982232
O O12 0.565047 0.114967 0.921425
O O13 0.500000 0.000000 0.000000
O O14 0.536302 0.440827 0.127867
O O15 0.669405 0.250000 0.138525
O O16 0.790660 0.458801 0.143033
O O17 0.924314 0.250000 0.128596
O O18 0.850696 0.398236 0.059892
O O19 0.500000 0.500000 0.500000
O O20 0.569034 0.750000 0.493262
#
# Coordination Sequence:
#
# PCOD8251212 Si02
#       8
#     8   8   8   8   8   8   8   8
#     4  10  19  32  52  80 112 141 176 222 272 333
#     4  10  20  35  52  71 101 139 183 228 273 327
#     4  10  20  32  51  77 103 139 180 222 272 325
#     4  11  24  41  62  88 119 153 196 247 298 355
#     4  10  21  35  54  79 107 144 185 227 280 337
#     4  10  19  33  53  78 111 144 178 223 274 333
#     4   9  18  32  51  74 103 139 173 213 269 329
#     4  10  21  38  60  85 113 147 188 236 289 347
#
# _framework density 20.121866000000001
#
# number of rings (size 3 to 8) (size 9 to 14) (size 15 to 20)
#    0.000    2.000    0.000    3.750    0.000    2.500 
#    0.000    3.750    0.000    5.250    0.000    0.000 
#    0.000    0.000    0.000    0.000    0.000    0.000 
#
# Total GULP energy -792892.163525 kJ/mol
# GULP energy per Si atom -12388.940055 kJ/mol
# Density = 2.007607 g / cm^3
# Si number density = 20.121866 Si / 1000 Ang^3
#
#
#
# Elastic Constant Matrix: (Units=GPa)
#
#
# Indices 1 2 3 4 5 6 
#
# 1 118.6634 33.9328 22.0573 0.0000 0.0000 0.0000
# 2 33.9328 80.0679 13.1295 0.0000 0.0000 0.0000
# 3 22.0573 13.1295 60.9304 0.0000 0.0000 0.0000
# 4 0.0000 0.0000 0.0000 16.0224 0.0000 0.0000
# 5 0.0000 0.0000 0.0000 0.0000 33.2535 0.0000
# 6 0.0000 0.0000 0.0000 0.0000 0.0000 21.9011
#
#
#
# Elastic Compliance Matrix: (Units=1/GPa)
#
#
# Indices 1 2 3 4 5 6 
#
# 1 0.010035 -0.003791 -0.002816 0.000000 0.000000 0.000000
# 2 -0.003791 0.014379 -0.001726 0.000000 0.000000 0.000000
# 3 -0.002816 -0.001726 0.017803 0.000000 0.000000 0.000000
# 4 0.000000 0.000000 0.000000 0.062412 0.000000 0.000000
# 5 0.000000 0.000000 0.000000 0.000000 0.030072 0.000000
# 6 0.000000 0.000000 0.000000 0.000000 0.000000 0.045660
#
#
# Mechanical properties :
#
#
# Convention : Reuss Voigt Hill
#
# Bulk Modulus (GPa) = 39.13654 44.21122 41.67388
# Shear Modulus (GPa) = 24.32567 26.93821 25.63194
#
# Velocity S-wave (km/s) = 3.48072 3.66287 3.57295
# Velocity P-wave (km/s) = 5.97042 6.31730 6.14630
#
# Compressibility (1/GPa) = 0.02555157
#
# Stress axis : x y z
#
# Youngs Moduli (GPa) = 99.65467 69.54557 56.16893
#
# Poissons Ratio (x) = 0.26365 0.15816
# Poissons Ratio (y) = 0.37779 0.09695
# Poissons Ratio (z) = 0.28060 0.12004
#
# Static dielectric constant tensor:
#      x y z
#    x 3.833400 0.000000 0.000000 
#    y 0.000000 3.466440 0.000000 
#    z 0.000000 0.000000 3.629930 
# 
# 
# High freq. dielectric constant tensor:
#      x y z
#    x 1.801990 0.000000 0.000000 
#    y 0.000000 1.760360 0.000000 
#    z 0.000000 0.000000 1.786000 
# 
# From -- ./inp_files/32258.got.cif
#   From: 2010.03.12/outbox.cif.g09.slc.cpg/sg62_17_cif.got.tgz:32258.got - 2010.04.10 19:12:36.
