data_PCOD8251655
_publ_section_title
;
Structure prediction by ZEFSAII (Michael W. Deem and Ramdas Pophale) SiO2 
 PCOD8251655
Probable space group: P N M A
;
_chemical_formula_sum "Si O2"
_cell_formula_units_Z 64
_cell_length_a 9.184417
_cell_length_b 16.237576
_cell_length_c 21.241046
_cell_angle_alpha 90.000000
_cell_angle_beta 90.000000
_cell_angle_gamma 90.000000
_cell_volume 3167.733883
_symmetry_space_group_name_H-M "P N M A"
_symmetry_group_IT_number 62
_symmetry_cell_setting 'orthorhombic'
loop_
_space_group_symop_operation_xyz
x,y,z
1/2-x,-y,1/2+z
1/2+x,1/2-y,1/2-z
-x,1/2+y,-z
-x,-y,-z
1/2+x,y,1/2-z
1/2-x,1/2+y,1/2+z
x,1/2-y,z
loop_
_atom_site_type_symbol
_atom_site_label
_atom_site_fract_x
_atom_site_fract_y
_atom_site_fract_z
Si Si1 0.555716 0.656126 0.341939
Si Si2 0.570290 0.655280 0.093785
Si Si3 0.859484 0.915058 0.061167
Si Si4 0.526341 0.554738 0.215141
Si Si5 0.055837 0.906205 0.946326
Si Si6 0.232926 0.942913 0.743409
Si Si7 0.508742 0.343618 0.315680
Si Si8 0.258527 0.843694 0.049087
O O1 0.575110 0.750000 0.318007
O O2 0.415969 0.651004 0.387718
O O3 0.535133 0.595615 0.283733
O O4 0.692375 0.624898 0.384243
O O5 0.621371 0.750000 0.096645
O O6 0.686409 0.595435 0.060786
O O7 0.534332 0.626411 0.164183
O O8 0.430601 0.645761 0.049434
O O9 0.919287 0.003735 0.083493
O O10 0.914374 0.898576 0.990504
O O11 0.665424 0.493879 0.207669
O O12 0.374544 0.505434 0.206457
O O13 0.030212 0.843536 0.889555
O O14 0.199242 0.890638 0.988162
O O15 0.343512 0.895588 0.696326
O O16 0.131952 0.878138 0.779550
O O17 0.534808 0.250000 0.293851
O O18 0.207625 0.750000 0.041726
#
# Coordination Sequence:
#
# PCOD8251655 Si02
#       8
#     8   8   8   8   8   8   8   8
#     4  10  19  34  56  82 115 156 198 230 266 327
#     4  11  22  35  53  82 120 153 185 233 286 324
#     4  10  21  36  56  83 115 145 188 241 278 321
#     4  11  20  35  57  82 117 156 192 225 275 339
#     4  10  21  39  62  81 103 149 195 225 276 345
#     4  10  23  38  58  87 116 141 179 236 284 331
#     4  11  22  41  65  86 110 142 183 230 287 344
#     4   9  20  36  53  79 114 148 188 238 280 323
#
# _framework density 20.203717000000001
#
# number of rings (size 3 to 8) (size 9 to 14) (size 15 to 20)
#    0.000    1.750    0.000    5.250    0.000    4.000 
#    0.000    6.250    0.000    1.500    0.000    0.000 
#    0.000    0.000    0.000    0.000    0.000    0.000 
#
# Total GULP energy -793544.606125 kJ/mol
# GULP energy per Si atom -12399.134471 kJ/mol
# Density = 2.015773 g / cm^3
# Si number density = 20.203717 Si / 1000 Ang^3
#
#
#
# Elastic Constant Matrix: (Units=GPa)
#
#
# Indices 1 2 3 4 5 6 
#
# 1 133.8273 42.5979 42.1557 0.0000 0.0000 0.0000
# 2 42.5979 86.0030 39.7272 0.0000 0.0000 0.0000
# 3 42.1557 39.7272 91.2521 0.0000 0.0000 0.0000
# 4 0.0000 0.0000 0.0000 25.0714 0.0000 0.0000
# 5 0.0000 0.0000 0.0000 0.0000 16.1729 0.0000
# 6 0.0000 0.0000 0.0000 0.0000 0.0000 28.9885
#
#
#
# Elastic Compliance Matrix: (Units=1/GPa)
#
#
# Indices 1 2 3 4 5 6 
#
# 1 0.009452 -0.003335 -0.002914 0.000000 0.000000 0.000000
# 2 -0.003335 0.015731 -0.005308 0.000000 0.000000 0.000000
# 3 -0.002914 -0.005308 0.014616 0.000000 0.000000 0.000000
# 4 0.000000 0.000000 0.000000 0.039886 0.000000 0.000000
# 5 0.000000 0.000000 0.000000 0.000000 0.061832 0.000000
# 6 0.000000 0.000000 0.000000 0.000000 0.000000 0.034496
#
#
# Mechanical properties :
#
#
# Convention : Reuss Voigt Hill
#
# Bulk Modulus (GPa) = 59.93847 62.22711 61.08279
# Shear Modulus (GPa) = 24.42709 26.48665 25.45687
#
# Velocity S-wave (km/s) = 3.48090 3.62467 3.55351
# Velocity P-wave (km/s) = 6.77399 6.95589 6.86554
#
# Compressibility (1/GPa) = 0.01668378
#
# Stress axis : x y z
#
# Youngs Moduli (GPa) = 105.79709 63.56696 68.41869
#
# Poissons Ratio (x) = 0.21202 0.19940
# Poissons Ratio (y) = 0.35288 0.36316
# Poissons Ratio (z) = 0.30834 0.33741
#
# Static dielectric constant tensor:
#      x y z
#    x 3.779380 0.000000 0.000000 
#    y 0.000000 3.668620 0.000000 
#    z 0.000000 0.000000 3.352540 
# 
# 
# High freq. dielectric constant tensor:
#      x y z
#    x 1.796470 0.000000 0.000000 
#    y 0.000000 1.793630 0.000000 
#    z 0.000000 0.000000 1.772220 
# 
# From -- ./inp_files/26172.got.cif
#   From: 2010.03.12/outbox.cif.g09.slc.cpg/sg62_14_cif.got.tgz:26172.got - 2010.04.10 19:12:36.
