data_PCOD8251650
_publ_section_title
;
Structure prediction by ZEFSAII (Michael W. Deem and Ramdas Pophale) SiO2 
 PCOD8251650
Probable space group: P N M A
;
_chemical_formula_sum "Si O2"
_cell_formula_units_Z 64
_cell_length_a 15.300438
_cell_length_b 9.269580
_cell_length_c 23.882157
_cell_angle_alpha 90.000000
_cell_angle_beta 90.000000
_cell_angle_gamma 90.000000
_cell_volume 3387.173706
_symmetry_space_group_name_H-M "P N M A"
_symmetry_group_IT_number 62
_symmetry_cell_setting 'orthorhombic'
loop_
_space_group_symop_operation_xyz
x,y,z
1/2-x,-y,1/2+z
1/2+x,1/2-y,1/2-z
-x,1/2+y,-z
-x,-y,-z
1/2+x,y,1/2-z
1/2-x,1/2+y,1/2+z
x,1/2-y,z
loop_
_atom_site_type_symbol
_atom_site_label
_atom_site_fract_x
_atom_site_fract_y
_atom_site_fract_z
Si Si1 0.834141 0.583995 0.250037
Si Si2 0.909025 0.082613 0.643254
Si Si3 0.593987 0.419232 0.367930
Si Si4 0.255528 0.420984 0.057049
Si Si5 0.343030 0.579556 0.754769
Si Si6 0.420465 0.916953 0.364401
Si Si7 0.248316 0.078877 0.930731
Si Si8 0.894911 0.915067 0.373008
O O1 0.802193 0.750000 0.249111
O O2 0.753285 0.482213 0.236417
O O3 0.906004 0.558658 0.201816
O O4 0.876599 0.540533 0.308878
O O5 0.893691 0.250000 0.658867
O O6 0.835268 0.023984 0.600797
O O7 0.002889 0.060861 0.614249
O O8 0.907372 0.990265 0.699946
O O9 0.578090 0.250000 0.372851
O O10 0.669403 0.471978 0.410029
O O11 0.622392 0.465348 0.305987
O O12 0.505009 0.497462 0.385106
O O13 0.265312 0.250000 0.059206
O O14 0.341656 0.485249 0.085134
O O15 0.248558 0.480573 0.993944
O O16 0.340265 0.750000 0.762709
O O17 0.435619 0.750000 0.378459
O O18 0.337244 0.978323 0.398527
O O19 0.247955 0.250000 0.931052
O O20 0.867435 0.750000 0.383219
#
# Coordination Sequence:
#
# PCOD8251650 Si02
#       8
#     8   8   8   8   8   8   8   8
#     4  10  19  34  56  82 111 144 179 222 277 329
#     4  10  20  38  60  83 112 145 183 230 278 327
#     4  10  22  37  53  80 115 148 180 221 277 332
#     4  10  21  39  58  77 111 153 187 226 279 330
#     4  11  21  34  55  84 113 147 183 220 275 337
#     4  10  20  36  59  85 108 142 189 229 272 327
#     4   9  19  37  60  81 106 147 192 229 274 330
#     4  10  21  35  57  86 112 142 184 230 275 325
#
# _framework density 18.894808999999999
#
# number of rings (size 3 to 8) (size 9 to 14) (size 15 to 20)
#    0.000    2.000    2.500    1.125    0.000    4.500 
#    0.000    1.250    0.000    0.000    0.000    0.000 
#    0.000    0.000    0.000    0.000    0.000    0.000 
#
# Total GULP energy -793821.045966 kJ/mol
# GULP energy per Si atom -12403.453843 kJ/mol
# Density = 1.885180 g / cm^3
# Si number density = 18.894809 Si / 1000 Ang^3
#
#
#
# Elastic Constant Matrix: (Units=GPa)
#
#
# Indices 1 2 3 4 5 6 
#
# 1 124.9238 34.1977 51.0368 0.0000 0.0000 0.0000
# 2 34.1977 39.6350 30.7093 0.0000 0.0000 0.0000
# 3 51.0368 30.7093 133.5410 0.0000 0.0000 0.0000
# 4 0.0000 0.0000 0.0000 23.4538 0.0000 0.0000
# 5 0.0000 0.0000 0.0000 0.0000 14.6134 0.0000
# 6 0.0000 0.0000 0.0000 0.0000 0.0000 28.8588
#
#
#
# Elastic Compliance Matrix: (Units=1/GPa)
#
#
# Indices 1 2 3 4 5 6 
#
# 1 0.011120 -0.007668 -0.002486 0.000000 0.000000 0.000000
# 2 -0.007668 0.035988 -0.005345 0.000000 0.000000 0.000000
# 3 -0.002486 -0.005345 0.009668 0.000000 0.000000 0.000000
# 4 0.000000 0.000000 0.000000 0.042637 0.000000 0.000000
# 5 0.000000 0.000000 0.000000 0.000000 0.068430 0.000000
# 6 0.000000 0.000000 0.000000 0.000000 0.000000 0.034651
#
#
# Mechanical properties :
#
#
# Convention : Reuss Voigt Hill
#
# Bulk Modulus (GPa) = 38.79551 58.88749 48.84150
# Shear Modulus (GPa) = 20.65389 25.52895 23.09142
#
# Velocity S-wave (km/s) = 3.30979 3.67973 3.49965
# Velocity P-wave (km/s) = 5.93155 7.02051 6.49887
#
# Compressibility (1/GPa) = 0.02577618
#
# Stress axis : x y z
#
# Youngs Moduli (GPa) = 89.93008 27.78724 103.43577
#
# Poissons Ratio (x) = 0.21307 0.25719
# Poissons Ratio (y) = 0.68957 0.55290
# Poissons Ratio (z) = 0.22361 0.14853
#
# Static dielectric constant tensor:
#      x y z
#    x 3.474570 0.000000 0.000000 
#    y 0.000000 3.236460 0.000000 
#    z 0.000000 0.000000 3.606670 
# 
# 
# High freq. dielectric constant tensor:
#      x y z
#    x 1.742770 0.000000 0.000000 
#    y 0.000000 1.711740 0.000000 
#    z 0.000000 0.000000 1.734850 
# 
# From -- ./inp_files/29870.got.cif
#   From: 2010.03.12/outbox.cif.g09.slc.cpg/sg62_15_cif.got.tgz:29870.got - 2010.04.10 19:12:36.
