data_PCOD8251498
_publ_section_title
;
Structure prediction by ZEFSAII (Michael W. Deem and Ramdas Pophale) SiO2 
 PCOD8251498
Probable space group: P N M A
;
_chemical_formula_sum "Si O2"
_cell_formula_units_Z 48
_cell_length_a 14.416531
_cell_length_b 9.149736
_cell_length_c 20.187024
_cell_angle_alpha 90.000000
_cell_angle_beta 90.000000
_cell_angle_gamma 90.000000
_cell_volume 2662.818913
_symmetry_space_group_name_H-M "P N M A"
_symmetry_group_IT_number 62
_symmetry_cell_setting 'orthorhombic'
loop_
_space_group_symop_operation_xyz
x,y,z
1/2-x,-y,1/2+z
1/2+x,1/2-y,1/2-z
-x,1/2+y,-z
-x,-y,-z
1/2+x,y,1/2-z
1/2-x,1/2+y,1/2+z
x,1/2-y,z
loop_
_atom_site_type_symbol
_atom_site_label
_atom_site_fract_x
_atom_site_fract_y
_atom_site_fract_z
Si Si1 0.016079 0.419607 0.266452
Si Si2 0.719353 0.077344 0.199235
Si Si3 0.837473 0.422164 0.076249
Si Si4 0.490342 0.423392 0.629607
Si Si5 0.824952 0.080852 0.327989
Si Si6 0.793743 0.420018 0.928449
O O1 0.020711 0.250000 0.244345
O O2 0.112067 0.471755 0.299760
O O3 0.993136 0.515652 0.202770
O O4 0.934948 0.444170 0.319908
O O5 0.728713 0.250000 0.198875
O O6 0.767890 0.017345 0.132819
O O7 0.771342 0.014763 0.264047
O O8 0.857636 0.250000 0.083523
O O9 0.934346 0.507051 0.080550
O O10 0.791214 0.458488 0.005954
O O11 0.501370 0.250000 0.629270
O O12 0.389942 0.473543 0.603795
O O13 0.800238 0.250000 0.335803
O O14 0.792240 0.000679 0.394213
O O15 0.780142 0.250000 0.916053
#
# Coordination Sequence:
#
# PCOD8251498 Si02
#       6
#     8   8   8   8   8   8
#     4  10  19  34  55  80 104 133 177 221 259 307
#     4   9  17  32  56  79  99 134 180 219 253 300
#     4  10  20  37  56  76 106 144 181 212 257 319
#     4  11  21  32  50  81 111 136 168 216 272 314
#     4  10  19  33  56  79 101 136 178 217 257 307
#     4  10  22  36  52  77 111 144 172 213 268 318
#
# _framework density 18.026008999999998
#
# number of rings (size 3 to 8) (size 9 to 14) (size 15 to 20)
#    0.000    2.000    3.333    1.000    0.000    2.000 
#    0.000    1.667    0.000    0.000    0.000    0.000 
#    0.000    0.000    0.000    0.000    0.000    0.000 
#
# Total GULP energy -595308.182259 kJ/mol
# GULP energy per Si atom -12402.253797 kJ/mol
# Density = 1.798498 g / cm^3
# Si number density = 18.026009 Si / 1000 Ang^3
#
#
#
# Elastic Constant Matrix: (Units=GPa)
#
#
# Indices 1 2 3 4 5 6 
#
# 1 94.9752 20.0236 23.7602 0.0000 0.0000 0.0000
# 2 20.0236 36.2585 22.2595 0.0000 0.0000 0.0000
# 3 23.7602 22.2595 82.3104 0.0000 0.0000 0.0000
# 4 0.0000 0.0000 0.0000 26.6050 0.0000 0.0000
# 5 0.0000 0.0000 0.0000 0.0000 28.7348 0.0000
# 6 0.0000 0.0000 0.0000 0.0000 0.0000 19.6391
#
#
#
# Elastic Compliance Matrix: (Units=1/GPa)
#
#
# Indices 1 2 3 4 5 6 
#
# 1 0.012195 -0.005484 -0.002037 0.000000 0.000000 0.000000
# 2 -0.005484 0.035536 -0.008027 0.000000 0.000000 0.000000
# 3 -0.002037 -0.008027 0.014908 0.000000 0.000000 0.000000
# 4 0.000000 0.000000 0.000000 0.037587 0.000000 0.000000
# 5 0.000000 0.000000 0.000000 0.000000 0.034801 0.000000
# 6 0.000000 0.000000 0.000000 0.000000 0.000000 0.050919
#
#
# Mechanical properties :
#
#
# Convention : Reuss Voigt Hill
#
# Bulk Modulus (GPa) = 31.70326 38.40341 35.05334
# Shear Modulus (GPa) = 21.97255 24.82916 23.40086
#
# Velocity S-wave (km/s) = 3.49511 3.71537 3.60692
# Velocity P-wave (km/s) = 5.82353 6.30524 6.06916
#
# Compressibility (1/GPa) = 0.03154250
#
# Stress axis : x y z
#
# Youngs Moduli (GPa) = 82.00155 28.14036 67.07791
#
# Poissons Ratio (x) = 0.15432 0.13665
# Poissons Ratio (y) = 0.44969 0.53845
# Poissons Ratio (z) = 0.16706 0.22589
#
# Static dielectric constant tensor:
#      x y z
#    x 3.489840 0.000000 0.000000 
#    y 0.000000 3.096660 0.000000 
#    z 0.000000 0.000000 3.320840 
# 
# 
# High freq. dielectric constant tensor:
#      x y z
#    x 1.702560 0.000000 0.000000 
#    y 0.000000 1.675000 0.000000 
#    z 0.000000 0.000000 1.692940 
# 
# From -- ./inp_files/23654.got.cif
#   From: 2010.03.12/outbox.cif.g09.slc.cpg/sg62_12_cif.got.tgz:23654.got - 2010.04.10 19:12:36.
