data_PCOD8251062
_publ_section_title
;
Structure prediction by ZEFSAII (Michael W. Deem and Ramdas Pophale) SiO2 
 PCOD8251062
Probable space group: P N M A
;
_chemical_formula_sum "Si O2"
_cell_formula_units_Z 64
_cell_length_a 11.598572
_cell_length_b 14.475572
_cell_length_c 18.046863
_cell_angle_alpha 90.000000
_cell_angle_beta 90.000000
_cell_angle_gamma 90.000000
_cell_volume 3029.995462
_symmetry_space_group_name_H-M "P N M A"
_symmetry_group_IT_number 62
_symmetry_cell_setting 'orthorhombic'
loop_
_space_group_symop_operation_xyz
x,y,z
1/2-x,-y,1/2+z
1/2+x,1/2-y,1/2-z
-x,1/2+y,-z
-x,-y,-z
1/2+x,y,1/2-z
1/2-x,1/2+y,1/2+z
x,1/2-y,z
loop_
_atom_site_type_symbol
_atom_site_label
_atom_site_fract_x
_atom_site_fract_y
_atom_site_fract_z
Si Si1 0.184054 0.990530 0.318007
Si Si2 0.517825 0.142285 0.185089
Si Si3 0.524240 0.893524 0.501050
Si Si4 0.775056 0.351674 0.898983
Si Si5 0.042861 0.648470 0.232259
Si Si6 0.918843 0.851977 0.850832
Si Si7 0.203938 0.528630 0.665873
Si Si8 0.346728 0.648175 0.378378
O O1 0.274707 0.010859 0.252631
O O2 0.129093 0.086675 0.348139
O O3 0.073641 0.929563 0.291870
O O4 0.250108 0.932606 0.382242
O O5 0.526140 0.250000 0.162450
O O6 0.517597 0.126856 0.273593
O O7 0.401575 0.098124 0.152651
O O8 0.653066 0.869457 0.474218
O O9 0.514452 0.856790 0.584822
O O10 0.426946 0.846657 0.450224
O O11 0.500000 0.000000 0.500000
O O12 0.715139 0.250000 0.903804
O O13 0.863328 0.354360 0.831767
O O14 0.682968 0.433154 0.880835
O O15 0.042007 0.750000 0.269691
O O16 0.919336 0.627133 0.196162
O O17 0.863505 0.750000 0.846916
O O18 0.818530 0.924707 0.868354
O O19 0.288894 0.750000 0.370589
#
# Coordination Sequence:
#
# PCOD8251062 Si02
#       8
#     8   8   8   8   8   8   8   8
#     4  10  19  31  52  74 109 143 186 228 282 326
#     4  10  22  37  54  78 111 147 189 236 277 327
#     4  11  20  33  57  85 120 150 181 225 280 330
#     4   9  17  31  50  78 113 144 177 222 273 331
#     4   8  15  28  46  72 106 142 175 213 267 328
#     4  10  20  35  56  83 112 148 189 230 277 331
#     4  10  19  33  54  78 108 147 190 228 280 333
#     4  10  20  33  53  82 115 147 180 225 278 339
#
# _framework density 21.122143999999999
#
# number of rings (size 3 to 8) (size 9 to 14) (size 15 to 20)
#    0.000    2.250    1.250    3.375    3.500    1.000 
#    0.000    1.250    0.000    1.500    0.000    0.000 
#    0.000    0.000    0.000    0.000    0.000    0.000 
#
# Total GULP energy -793230.209613 kJ/mol
# GULP energy per Si atom -12394.222025 kJ/mol
# Density = 2.107407 g / cm^3
# Si number density = 21.122144 Si / 1000 Ang^3
#
#
#
# Elastic Constant Matrix: (Units=GPa)
#
#
# Indices 1 2 3 4 5 6 
#
# 1 54.5293 43.8106 13.4825 0.0000 0.0000 0.0000
# 2 43.8106 163.8346 10.7642 0.0000 0.0000 0.0000
# 3 13.4825 10.7642 28.4697 0.0000 0.0000 0.0000
# 4 0.0000 0.0000 0.0000 25.0374 0.0000 0.0000
# 5 0.0000 0.0000 0.0000 0.0000 15.1015 0.0000
# 6 0.0000 0.0000 0.0000 0.0000 0.0000 39.8111
#
#
#
# Elastic Compliance Matrix: (Units=1/GPa)
#
#
# Indices 1 2 3 4 5 6 
#
# 1 0.025797 -0.006251 -0.009853 0.000000 0.000000 0.000000
# 2 -0.006251 0.007774 0.000021 0.000000 0.000000 0.000000
# 3 -0.009853 0.000021 0.039783 0.000000 0.000000 0.000000
# 4 0.000000 0.000000 0.000000 0.039940 0.000000 0.000000
# 5 0.000000 0.000000 0.000000 0.000000 0.066219 0.000000
# 6 0.000000 0.000000 0.000000 0.000000 0.000000 0.025119
#
#
# Mechanical properties :
#
#
# Convention : Reuss Voigt Hill
#
# Bulk Modulus (GPa) = 24.27904 42.54981 33.41442
# Shear Modulus (GPa) = 19.95785 27.90844 23.93314
#
# Velocity S-wave (km/s) = 3.07722 3.63890 3.36978
# Velocity P-wave (km/s) = 4.91378 6.15173 5.56727
#
# Compressibility (1/GPa) = 0.04118779
#
# Stress axis : x y z
#
# Youngs Moduli (GPa) = 38.76376 128.63564 25.13611
#
# Poissons Ratio (x) = 0.80410 0.24768
# Poissons Ratio (y) = 0.24231 -0.00053
# Poissons Ratio (z) = 0.38196 -0.00271
#
# Static dielectric constant tensor:
#      x y z
#    x 3.478760 0.000000 0.000000 
#    y 0.000000 4.505340 0.000000 
#    z 0.000000 0.000000 4.088920 
# 
# 
# High freq. dielectric constant tensor:
#      x y z
#    x 1.791390 0.000000 0.000000 
#    y 0.000000 1.859960 0.000000 
#    z 0.000000 0.000000 1.775230 
# 
# From -- ./inp_files/23229.got.cif
#   From: 2010.03.12/outbox.cif.g09.slc.cpg/sg62_12_cif.got.tgz:23229.got - 2010.04.10 19:12:36.
