data_PCOD8251541
_publ_section_title
;
Structure prediction by ZEFSAII (Michael W. Deem and Ramdas Pophale) SiO2 
 PCOD8251541
Probable space group: P N M A
;
_chemical_formula_sum "Si O2"
_cell_formula_units_Z 48
_cell_length_a 27.942316
_cell_length_b 8.802539
_cell_length_c 10.152151
_cell_angle_alpha 90.000000
_cell_angle_beta 90.000000
_cell_angle_gamma 90.000000
_cell_volume 2497.056829
_symmetry_space_group_name_H-M "P N M A"
_symmetry_group_IT_number 62
_symmetry_cell_setting 'orthorhombic'
loop_
_space_group_symop_operation_xyz
x,y,z
1/2-x,-y,1/2+z
1/2+x,1/2-y,1/2-z
-x,1/2+y,-z
-x,-y,-z
1/2+x,y,1/2-z
1/2-x,1/2+y,1/2+z
x,1/2-y,z
loop_
_atom_site_type_symbol
_atom_site_label
_atom_site_fract_x
_atom_site_fract_y
_atom_site_fract_z
Si Si1 0.350787 0.570631 0.766240
Si Si2 0.641914 0.927176 0.728158
Si Si3 0.196855 0.571261 0.509557
Si Si4 0.701862 0.929203 0.474327
Si Si5 0.452365 0.571569 0.344761
Si Si6 0.048907 0.428129 0.144759
O O1 0.345381 0.750000 0.788587
O O2 0.313477 0.520847 0.654597
O O3 0.404347 0.523903 0.725446
O O4 0.340700 0.479425 0.899062
O O5 0.631350 0.750000 0.728543
O O6 0.675297 0.973835 0.849516
O O7 0.667926 0.978586 0.594466
O O8 0.591229 0.010908 0.743007
O O9 0.207413 0.750000 0.499025
O O10 0.244829 0.476431 0.486869
O O11 0.699399 0.750000 0.447420
O O12 0.453623 0.750000 0.333209
O O13 0.444557 0.515001 0.494742
O O14 0.502651 0.507313 0.290201
O O15 0.040351 0.250000 0.148286
#
# Coordination Sequence:
#
# PCOD8251541 Si02
#       6
#     8   8   8   8   8   8
#     4  11  22  39  60  86 119 154 193 238 288 344
#     4  10  22  39  58  83 117 152 190 236 288 342
#     4  11  24  40  58  84 119 157 195 240 290 344
#     4  11  22  38  62  88 113 152 197 241 291 343
#     4  10  19  33  58  88 113 144 188 237 287 340
#     4   9  19  35  56  84 116 148 184 235 289 339
#
# _framework density 19.222631
#
# number of rings (size 3 to 8) (size 9 to 14) (size 15 to 20)
#    0.000    1.667    1.667    3.000    0.000    5.333 
#    0.000    0.833    0.000    0.000    0.000    0.000 
#    0.000    0.000    0.000    0.000    0.000    0.000 
#
# Total GULP energy -595471.043297 kJ/mol
# GULP energy per Si atom -12405.646735 kJ/mol
# Density = 1.917888 g / cm^3
# Si number density = 19.222631 Si / 1000 Ang^3
#
#
#
# Elastic Constant Matrix: (Units=GPa)
#
#
# Indices 1 2 3 4 5 6 
#
# 1 128.0046 35.7536 19.3451 0.0000 0.0000 0.0000
# 2 35.7536 37.4290 25.9409 0.0000 0.0000 0.0000
# 3 19.3451 25.9409 61.6346 0.0000 0.0000 0.0000
# 4 0.0000 0.0000 0.0000 28.0610 0.0000 0.0000
# 5 0.0000 0.0000 0.0000 0.0000 15.4910 0.0000
# 6 0.0000 0.0000 0.0000 0.0000 0.0000 38.9541
#
#
#
# Elastic Compliance Matrix: (Units=1/GPa)
#
#
# Indices 1 2 3 4 5 6 
#
# 1 0.010733 -0.011178 0.001336 0.000000 0.000000 0.000000
# 2 -0.011178 0.049362 -0.017267 0.000000 0.000000 0.000000
# 3 0.001336 -0.017267 0.023073 0.000000 0.000000 0.000000
# 4 0.000000 0.000000 0.000000 0.035637 0.000000 0.000000
# 5 0.000000 0.000000 0.000000 0.000000 0.064553 0.000000
# 6 0.000000 0.000000 0.000000 0.000000 0.000000 0.025671
#
#
# Mechanical properties :
#
#
# Convention : Reuss Voigt Hill
#
# Bulk Modulus (GPa) = 34.54345 43.23862 38.89103
# Shear Modulus (GPa) = 18.32189 26.23646 22.27917
#
# Velocity S-wave (km/s) = 3.09065 3.69843 3.40811
# Velocity P-wave (km/s) = 5.54485 6.38594 5.98020
#
# Compressibility (1/GPa) = 0.02894905
#
# Stress axis : x y z
#
# Youngs Moduli (GPa) = 93.17478 20.25830 43.34104
#
# Poissons Ratio (x) = 0.22645 -0.05791
# Poissons Ratio (y) = 1.04152 0.74839
# Poissons Ratio (z) = -0.12449 0.34981
#
# Static dielectric constant tensor:
#      x y z
#    x 3.628300 0.000000 0.000000 
#    y 0.000000 3.448570 0.000000 
#    z 0.000000 0.000000 3.441500 
# 
# 
# High freq. dielectric constant tensor:
#      x y z
#    x 1.762260 0.000000 0.000000 
#    y 0.000000 1.753300 0.000000 
#    z 0.000000 0.000000 1.730330 
# 
# From -- ./inp_files/10239.got.cif
#   From: 2010.03.12/outbox.cif.g09.slc.cpg/sg62_6_cif.got.tgz:10239.got - 2010.04.10 19:12:36.
