data_PCOD8251584
_publ_section_title
;
Structure prediction by ZEFSAII (Michael W. Deem and Ramdas Pophale) SiO2 
 PCOD8251584
Probable space group: P N M A
;
_chemical_formula_sum "Si O2"
_cell_formula_units_Z 56
_cell_length_a 14.806260
_cell_length_b 8.492717
_cell_length_c 22.027314
_cell_angle_alpha 90.000000
_cell_angle_beta 90.000000
_cell_angle_gamma 90.000000
_cell_volume 2769.832881
_symmetry_space_group_name_H-M "P N M A"
_symmetry_group_IT_number 62
_symmetry_cell_setting 'orthorhombic'
loop_
_space_group_symop_operation_xyz
x,y,z
1/2-x,-y,1/2+z
1/2+x,1/2-y,1/2-z
-x,1/2+y,-z
-x,-y,-z
1/2+x,y,1/2-z
1/2-x,1/2+y,1/2+z
x,1/2-y,z
loop_
_atom_site_type_symbol
_atom_site_label
_atom_site_fract_x
_atom_site_fract_y
_atom_site_fract_z
Si Si1 0.663221 0.063509 0.643252
Si Si2 0.991947 0.438030 0.931690
Si Si3 0.802398 0.065319 0.883119
Si Si4 0.330737 0.937645 0.219206
Si Si5 0.647557 0.567866 0.096730
Si Si6 0.142076 0.431857 0.530720
Si Si7 0.527193 0.567528 0.866216
O O1 0.656180 0.250000 0.643675
O O2 0.575221 0.996175 0.608672
O O3 0.674463 0.002062 0.711988
O O4 0.751535 0.003973 0.607906
O O5 0.990847 0.250000 0.934226
O O6 0.901181 0.505163 0.898670
O O7 0.000000 0.500000 0.000000
O O8 0.812400 0.250000 0.876352
O O9 0.756598 0.002590 0.820158
O O10 0.737273 0.021348 0.938951
O O11 0.339012 0.750000 0.213815
O O12 0.422358 0.015180 0.194574
O O13 0.639707 0.750000 0.114315
O O14 0.579024 0.471203 0.139805
O O15 0.624923 0.541915 0.026539
O O16 0.140050 0.250000 0.510768
O O17 0.062372 0.463068 0.577918
O O18 0.543815 0.750000 0.879357
#
# Coordination Sequence:
#
# PCOD8251584 Si02
#       7
#     8   8   8   8   8   8   8
#     4   9  20  35  56  82 109 140 181 226 268 315
#     4  10  19  34  54  81 110 141 179 222 268 322
#     4   8  16  30  53  77 102 136 175 214 262 317
#     4   9  18  37  58  79 105 139 180 223 268 322
#     4  11  21  34  52  79 110 142 176 218 268 320
#     4  10  19  34  54  79 108 142 179 219 265 321
#     4  11  22  36  54  79 108 142 178 220 268 321
#
# _framework density 20.217825000000001
#
# number of rings (size 3 to 8) (size 9 to 14) (size 15 to 20)
#    0.000    2.286    0.000    4.286    0.000    1.143 
#    0.000   10.000    0.000    0.000    0.000    0.000 
#    0.000    0.000    0.000    0.000    0.000    0.000 
#
# Total GULP energy -694285.683021 kJ/mol
# GULP energy per Si atom -12397.958625 kJ/mol
# Density = 2.017181 g / cm^3
# Si number density = 20.217825 Si / 1000 Ang^3
#
#
#
# Elastic Constant Matrix: (Units=GPa)
#
#
# Indices 1 2 3 4 5 6 
#
# 1 145.1414 20.8735 45.7223 0.0000 0.0000 0.0000
# 2 20.8735 36.2014 13.8619 0.0000 0.0000 0.0000
# 3 45.7223 13.8619 110.4103 0.0000 0.0000 0.0000
# 4 0.0000 0.0000 0.0000 25.0027 0.0000 0.0000
# 5 0.0000 0.0000 0.0000 0.0000 22.6170 0.0000
# 6 0.0000 0.0000 0.0000 0.0000 0.0000 17.7399
#
#
#
# Elastic Compliance Matrix: (Units=1/GPa)
#
#
# Indices 1 2 3 4 5 6 
#
# 1 0.008364 -0.003673 -0.003002 0.000000 0.000000 0.000000
# 2 -0.003673 0.030631 -0.002325 0.000000 0.000000 0.000000
# 3 -0.003002 -0.002325 0.010592 0.000000 0.000000 0.000000
# 4 0.000000 0.000000 0.000000 0.039996 0.000000 0.000000
# 5 0.000000 0.000000 0.000000 0.000000 0.044215 0.000000
# 6 0.000000 0.000000 0.000000 0.000000 0.000000 0.056370
#
#
# Mechanical properties :
#
#
# Convention : Reuss Voigt Hill
#
# Bulk Modulus (GPa) = 31.65833 50.29648 40.97741
# Shear Modulus (GPa) = 22.86266 27.15825 25.01046
#
# Velocity S-wave (km/s) = 3.36641 3.66906 3.52099
# Velocity P-wave (km/s) = 5.55004 6.54833 6.06974
#
# Compressibility (1/GPa) = 0.03158727
#
# Stress axis : x y z
#
# Youngs Moduli (GPa) = 119.56171 32.64649 94.40771
#
# Poissons Ratio (x) = 0.11991 0.28346
# Poissons Ratio (y) = 0.43914 0.21947
# Poissons Ratio (z) = 0.35898 0.07589
#
# Static dielectric constant tensor:
#      x y z
#    x 4.170150 0.000000 0.000000 
#    y 0.000000 3.259280 0.000000 
#    z 0.000000 0.000000 3.671560 
# 
# 
# High freq. dielectric constant tensor:
#      x y z
#    x 1.802980 0.000000 0.000000 
#    y 0.000000 1.755240 0.000000 
#    z 0.000000 0.000000 1.784610 
# 
# From -- ./inp_files/27083.got.cif
#   From: 2010.03.12/outbox.cif.g09.slc.cpg/sg62_14_cif.got.tgz:27083.got - 2010.04.10 19:12:36.
