data_PCOD8251241
_publ_section_title
;
Structure prediction by ZEFSAII (Michael W. Deem and Ramdas Pophale) SiO2 
 PCOD8251241
Probable space group: P N M A
;
_chemical_formula_sum "Si O2"
_cell_formula_units_Z 48
_cell_length_a 17.885611
_cell_length_b 9.063110
_cell_length_c 16.540761
_cell_angle_alpha 90.000000
_cell_angle_beta 90.000000
_cell_angle_gamma 90.000000
_cell_volume 2681.245116
_symmetry_space_group_name_H-M "P N M A"
_symmetry_group_IT_number 62
_symmetry_cell_setting 'orthorhombic'
loop_
_space_group_symop_operation_xyz
x,y,z
1/2-x,-y,1/2+z
1/2+x,1/2-y,1/2-z
-x,1/2+y,-z
-x,-y,-z
1/2+x,y,1/2-z
1/2-x,1/2+y,1/2+z
x,1/2-y,z
loop_
_atom_site_type_symbol
_atom_site_label
_atom_site_fract_x
_atom_site_fract_y
_atom_site_fract_z
Si Si1 0.442750 0.423901 0.765481
Si Si2 0.985254 0.073884 0.414392
Si Si3 0.168110 0.423972 0.149740
Si Si4 0.421951 0.577992 0.494699
Si Si5 0.402846 0.919496 0.315816
Si Si6 0.335904 0.078330 0.173381
O O1 0.432848 0.250000 0.781529
O O2 0.455971 0.506833 0.850377
O O3 0.368208 0.488519 0.724457
O O4 0.511246 0.459108 0.705076
O O5 0.995293 0.250000 0.419453
O O6 0.901075 0.027170 0.388052
O O7 0.000000 0.000000 0.500000
O O8 0.157114 0.250000 0.164650
O O9 0.254917 0.467600 0.140394
O O10 0.132140 0.477084 0.065580
O O11 0.500000 0.500000 0.500000
O O12 0.437953 0.750000 0.501794
O O13 0.384899 0.539712 0.408440
O O14 0.387850 0.750000 0.297103
O O15 0.345478 0.009134 0.261538
O O16 0.342233 0.250000 0.186831
#
# Coordination Sequence:
#
# PCOD8251241 Si02
#       6
#     8   8   8   8   8   8
#     4  10  19  33  55  80 106 138 179 221 265 322
#     4  10  20  37  59  81 107 142 186 230 271 322
#     4  10  20  35  54  78 111 143 176 221 274 324
#     4  10  19  32  53  80 109 140 176 218 264 319
#     4   9  18  33  52  77 105 137 178 216 257 315
#     4   9  20  37  55  76 107 144 179 219 271 323
#
# _framework density 17.902131000000001
#
# number of rings (size 3 to 8) (size 9 to 14) (size 15 to 20)
#    0.000    2.333    1.667    1.000    0.000    2.667 
#    3.000    0.000    0.000    0.000    0.000    0.000 
#    0.000    0.000    0.000    0.000    0.000    0.000 
#
# Total GULP energy -595212.728797 kJ/mol
# GULP energy per Si atom -12400.265183 kJ/mol
# Density = 1.786139 g / cm^3
# Si number density = 17.902131 Si / 1000 Ang^3
#
#
#
# Elastic Constant Matrix: (Units=GPa)
#
#
# Indices 1 2 3 4 5 6 
#
# 1 109.3879 46.9814 74.9218 0.0000 0.0000 0.0000
# 2 46.9814 53.8563 53.7333 0.0000 0.0000 0.0000
# 3 74.9218 53.7333 150.7446 0.0000 0.0000 0.0000
# 4 0.0000 0.0000 0.0000 32.4995 0.0000 0.0000
# 5 0.0000 0.0000 0.0000 0.0000 24.5447 0.0000
# 6 0.0000 0.0000 0.0000 0.0000 0.0000 25.2373
#
#
#
# Elastic Compliance Matrix: (Units=1/GPa)
#
#
# Indices 1 2 3 4 5 6 
#
# 1 0.016582 -0.009688 -0.004788 0.000000 0.000000 0.000000
# 2 -0.009688 0.034476 -0.007474 0.000000 0.000000 0.000000
# 3 -0.004788 -0.007474 0.011678 0.000000 0.000000 0.000000
# 4 0.000000 0.000000 0.000000 0.030770 0.000000 0.000000
# 5 0.000000 0.000000 0.000000 0.000000 0.040742 0.000000
# 6 0.000000 0.000000 0.000000 0.000000 0.000000 0.039624
#
#
# Mechanical properties :
#
#
# Convention : Reuss Voigt Hill
#
# Bulk Modulus (GPa) = 53.09148 73.91800 63.50474
# Shear Modulus (GPa) = 22.31627 25.67978 23.99803
#
# Velocity S-wave (km/s) = 3.53451 3.79153 3.66527
# Velocity P-wave (km/s) = 6.81013 7.78121 7.31181
#
# Compressibility (1/GPa) = 0.01883541
#
# Stress axis : x y z
#
# Youngs Moduli (GPa) = 60.30494 29.00527 85.63352
#
# Poissons Ratio (x) = 0.28101 0.41003
# Poissons Ratio (y) = 0.58425 0.64003
# Poissons Ratio (z) = 0.28875 0.21679
#
# Static dielectric constant tensor:
#      x y z
#    x 3.418190 0.000000 0.000000 
#    y 0.000000 3.293610 0.000000 
#    z 0.000000 0.000000 1.867220 
# 
# 
# High freq. dielectric constant tensor:
#      x y z
#    x 1.679670 0.000000 0.000000 
#    y 0.000000 1.694350 0.000000 
#    z 0.000000 0.000000 1.698580 
# 
# From -- ./inp_files/24215.got.cif
#   From: 2010.03.12/outbox.cif.g09.slc.cpg/sg62_13_cif.got.tgz:24215.got - 2010.04.10 19:12:36.
