data_PCOD8251677
_publ_section_title
;
Structure prediction by ZEFSAII (Michael W. Deem and Ramdas Pophale) SiO2 
 PCOD8251677
Probable space group: P N M A
;
_chemical_formula_sum "Si O2"
_cell_formula_units_Z 48
_cell_length_a 20.104200
_cell_length_b 8.661474
_cell_length_c 14.885910
_cell_angle_alpha 90.000000
_cell_angle_beta 90.000000
_cell_angle_gamma 90.000000
_cell_volume 2592.113363
_symmetry_space_group_name_H-M "P N M A"
_symmetry_group_IT_number 62
_symmetry_cell_setting 'orthorhombic'
loop_
_space_group_symop_operation_xyz
x,y,z
1/2-x,-y,1/2+z
1/2+x,1/2-y,1/2-z
-x,1/2+y,-z
-x,-y,-z
1/2+x,y,1/2-z
1/2-x,1/2+y,1/2+z
x,1/2-y,z
loop_
_atom_site_type_symbol
_atom_site_label
_atom_site_fract_x
_atom_site_fract_y
_atom_site_fract_z
Si Si1 0.186928 0.568091 0.114197
Si Si2 0.695346 0.432484 0.008816
Si Si3 0.017362 0.432423 0.271518
Si Si4 0.960945 0.067114 0.916873
Si Si5 0.842531 0.432116 0.688964
Si Si6 0.052785 0.432103 0.568493
O O1 0.190854 0.750000 0.106132
O O2 0.115548 0.509819 0.077933
O O3 0.194946 0.519898 0.218795
O O4 0.245996 0.497900 0.053839
O O5 0.701688 0.250000 0.022424
O O6 0.702250 0.513557 0.105697
O O7 0.626273 0.478364 0.962771
O O8 0.015111 0.250000 0.264275
O O9 0.005929 0.505005 0.173916
O O10 0.086618 0.483500 0.316520
O O11 0.957664 0.492857 0.333876
O O12 0.965368 0.250000 0.916660
O O13 0.000000 0.000000 0.000000
O O14 0.855801 0.250000 0.686210
O O15 0.043260 0.250000 0.574206
O O16 0.000000 0.500000 0.500000
#
# Coordination Sequence:
#
# PCOD8251677 Si02
#       6
#     8   8   8   8   8   8
#     4   8  18  37  57  78 109 145 181 225 277 331
#     4  10  20  36  57  79 109 147 183 225 279 336
#     4  11  21  35  56  81 111 146 187 230 275 331
#     4  10  20  38  62  85 112 146 187 234 281 333
#     4  10  19  34  57  80 107 143 184 228 278 331
#     4  11  21  33  54  83 115 146 181 226 278 334
#
# _framework density 18.517709
#
# number of rings (size 3 to 8) (size 9 to 14) (size 15 to 20)
#    0.000    2.000    1.667    4.000    0.000    0.667 
#    3.000    5.000    0.000    0.000    0.000    0.000 
#    0.000    0.000    0.000    0.000    0.000    0.000 
#
# Total GULP energy -595253.385581 kJ/mol
# GULP energy per Si atom -12401.112200 kJ/mol
# Density = 1.847556 g / cm^3
# Si number density = 18.517709 Si / 1000 Ang^3
#
#
#
# Elastic Constant Matrix: (Units=GPa)
#
#
# Indices 1 2 3 4 5 6 
#
# 1 109.4404 38.3784 93.3858 0.0000 0.0000 0.0000
# 2 38.3784 78.0525 47.3544 0.0000 0.0000 0.0000
# 3 93.3858 47.3544 179.2047 0.0000 0.0000 0.0000
# 4 0.0000 0.0000 0.0000 36.4050 0.0000 0.0000
# 5 0.0000 0.0000 0.0000 0.0000 37.5370 0.0000
# 6 0.0000 0.0000 0.0000 0.0000 0.0000 19.1444
#
#
#
# Elastic Compliance Matrix: (Units=1/GPa)
#
#
# Indices 1 2 3 4 5 6 
#
# 1 0.017268 -0.003610 -0.008045 0.000000 0.000000 0.000000
# 2 -0.003610 0.016013 -0.002350 0.000000 0.000000 0.000000
# 3 -0.008045 -0.002350 0.010393 0.000000 0.000000 0.000000
# 4 0.000000 0.000000 0.000000 0.027469 0.000000 0.000000
# 5 0.000000 0.000000 0.000000 0.000000 0.026640 0.000000
# 6 0.000000 0.000000 0.000000 0.000000 0.000000 0.052235
#
#
# Mechanical properties :
#
#
# Convention : Reuss Voigt Hill
#
# Bulk Modulus (GPa) = 63.83820 80.54829 72.19325
# Shear Modulus (GPa) = 27.28539 31.12254 29.20396
#
# Velocity S-wave (km/s) = 3.84275 4.10407 3.97556
# Velocity P-wave (km/s) = 7.36464 8.12713 7.75526
#
# Compressibility (1/GPa) = 0.01566460
#
# Stress axis : x y z
#
# Youngs Moduli (GPa) = 57.91147 62.45037 96.21555
#
# Poissons Ratio (x) = 0.22544 0.77401
# Poissons Ratio (y) = 0.20906 0.22612
# Poissons Ratio (z) = 0.46587 0.14677
#
# Static dielectric constant tensor:
#      x y z
#    x 3.343550 0.000000 0.000000 
#    y 0.000000 3.312130 0.000000 
#    z 0.000000 0.000000 3.662390 
# 
# 
# High freq. dielectric constant tensor:
#      x y z
#    x 1.701180 0.000000 0.000000 
#    y 0.000000 1.714310 0.000000 
#    z 0.000000 0.000000 1.733010 
# 
# From -- ./inp_files/20031.got.cif
#   From: 2010.03.12/outbox.cif.g09.slc.cpg/sg62_11_cif.got.tgz:20031.got - 2010.04.10 19:12:36.
