data_PCOD8251182
_publ_section_title
;
Structure prediction by ZEFSAII (Michael W. Deem and Ramdas Pophale) SiO2 
 PCOD8251182
Probable space group: P N M A
;
_chemical_formula_sum "Si O2"
_cell_formula_units_Z 56
_cell_length_a 18.582752
_cell_length_b 8.334880
_cell_length_c 18.947035
_cell_angle_alpha 90.000000
_cell_angle_beta 90.000000
_cell_angle_gamma 90.000000
_cell_volume 2934.611667
_symmetry_space_group_name_H-M "P N M A"
_symmetry_group_IT_number 62
_symmetry_cell_setting 'orthorhombic'
loop_
_space_group_symop_operation_xyz
x,y,z
1/2-x,-y,1/2+z
1/2+x,1/2-y,1/2-z
-x,1/2+y,-z
-x,-y,-z
1/2+x,y,1/2-z
1/2-x,1/2+y,1/2+z
x,1/2-y,z
loop_
_atom_site_type_symbol
_atom_site_label
_atom_site_fract_x
_atom_site_fract_y
_atom_site_fract_z
Si Si1 0.190833 0.941458 0.111243
Si Si2 0.468605 0.439273 0.572724
Si Si3 0.155619 0.931348 0.257539
Si Si4 0.490268 0.565347 0.715562
Si Si5 0.896759 0.438088 0.600456
Si Si6 0.834627 0.564777 0.459149
Si Si7 0.450347 0.433003 0.138825
O O1 0.192802 0.750000 0.115654
O O2 0.114827 0.997030 0.078032
O O3 0.200088 0.011407 0.192335
O O4 0.256807 0.004382 0.064147
O O5 0.500000 0.500000 0.500000
O O6 0.476023 0.250000 0.577474
O O7 0.515798 0.519731 0.636304
O O8 0.181610 0.750000 0.264062
O O9 0.156822 0.006310 0.336891
O O10 0.072863 0.940659 0.232783
O O11 0.463626 0.750000 0.718589
O O12 0.550720 0.539600 0.776172
O O13 0.911311 0.250000 0.612648
O O14 0.859419 0.463377 0.525975
O O15 0.972300 0.529846 0.604118
O O16 0.829735 0.750000 0.480675
O O17 0.890152 0.546342 0.394809
O O18 0.431622 0.250000 0.119886
#
# Coordination Sequence:
#
# PCOD8251182 Si02
#       7
#     8   8   8   8   8   8   8
#     4   8  17  34  53  72  97 131 167 205 253 305
#     4  10  19  34  56  79 103 131 168 212 256 301
#     4   8  15  31  53  71  90 122 163 204 246 295
#     4   9  17  30  50  75 100 125 158 202 249 296
#     4  10  19  32  52  76 101 130 169 214 254 296
#     4  11  21  33  50  72 103 139 170 203 250 305
#     4  10  20  34  51  73 102 134 171 212 252 298
#
# _framework density 19.082592000000002
#
# number of rings (size 3 to 8) (size 9 to 14) (size 15 to 20)
#    0.000    2.571    0.000    3.429    0.000    2.286 
#    0.000    8.571    0.000    3.429    0.000    0.000 
#    0.000    0.000    0.000    0.000    0.000    0.000 
#
# Total GULP energy -693742.815978 kJ/mol
# GULP energy per Si atom -12388.264571 kJ/mol
# Density = 1.903916 g / cm^3
# Si number density = 19.082592 Si / 1000 Ang^3
#
#
#
# Elastic Constant Matrix: (Units=GPa)
#
#
# Indices 1 2 3 4 5 6 
#
# 1 75.2873 8.6369 57.8506 0.0000 0.0000 0.0000
# 2 8.6369 38.8817 17.4691 0.0000 0.0000 0.0000
# 3 57.8506 17.4691 164.1870 0.0000 0.0000 0.0000
# 4 0.0000 0.0000 0.0000 25.8775 0.0000 0.0000
# 5 0.0000 0.0000 0.0000 0.0000 20.3077 0.0000
# 6 0.0000 0.0000 0.0000 0.0000 0.0000 15.8256
#
#
#
# Elastic Compliance Matrix: (Units=1/GPa)
#
#
# Indices 1 2 3 4 5 6 
#
# 1 0.018269 -0.001225 -0.006307 0.000000 0.000000 0.000000
# 2 -0.001225 0.027092 -0.002451 0.000000 0.000000 0.000000
# 3 -0.006307 -0.002451 0.008574 0.000000 0.000000 0.000000
# 4 0.000000 0.000000 0.000000 0.038644 0.000000 0.000000
# 5 0.000000 0.000000 0.000000 0.000000 0.049242 0.000000
# 6 0.000000 0.000000 0.000000 0.000000 0.000000 0.063189
#
#
# Mechanical properties :
#
#
# Convention : Reuss Voigt Hill
#
# Bulk Modulus (GPa) = 29.43764 49.58545 39.51155
# Shear Modulus (GPa) = 21.15975 25.36213 23.26094
#
# Velocity S-wave (km/s) = 3.33355 3.64960 3.49515
# Velocity P-wave (km/s) = 5.50243 6.61819 6.08593
#
# Compressibility (1/GPa) = 0.03397011
#
# Stress axis : x y z
#
# Youngs Moduli (GPa) = 54.73754 36.91082 116.63790
#
# Poissons Ratio (x) = 0.04520 0.73560
# Poissons Ratio (y) = 0.06703 0.28589
# Poissons Ratio (z) = 0.34521 0.09047
#
# Static dielectric constant tensor:
#      x y z
#    x 3.303780 0.000000 0.000000 
#    y 0.000000 3.321490 0.000000 
#    z 0.000000 0.000000 3.964600 
# 
# 
# High freq. dielectric constant tensor:
#      x y z
#    x 1.694030 0.000000 0.000000 
#    y 0.000000 1.731950 0.000000 
#    z 0.000000 0.000000 1.764920 
# 
# From -- ./inp_files/24577.got.cif
#   From: 2010.03.12/outbox.cif.g09.slc.cpg/sg62_13_cif.got.tgz:24577.got - 2010.04.10 19:12:36.
