data_PCOD8251927
_publ_section_title
;
Structure prediction by ZEFSAII (Michael W. Deem and Ramdas Pophale) SiO2 
 PCOD8251927
Probable space group: P N M A
;
_chemical_formula_sum "Si O2"
_cell_formula_units_Z 48
_cell_length_a 7.869931
_cell_length_b 28.021789
_cell_length_c 11.049350
_cell_angle_alpha 90.000000
_cell_angle_beta 90.000000
_cell_angle_gamma 90.000000
_cell_volume 2436.708138
_symmetry_space_group_name_H-M "P N M A"
_symmetry_group_IT_number 62
_symmetry_cell_setting 'orthorhombic'
loop_
_space_group_symop_operation_xyz
x,y,z
1/2-x,-y,1/2+z
1/2+x,1/2-y,1/2-z
-x,1/2+y,-z
-x,-y,-z
1/2+x,y,1/2-z
1/2-x,1/2+y,1/2+z
x,1/2-y,z
loop_
_atom_site_type_symbol
_atom_site_label
_atom_site_fract_x
_atom_site_fract_y
_atom_site_fract_z
Si Si1 0.473457 0.304969 0.411838
Si Si2 0.533732 0.011044 0.863294
Si Si3 0.315081 0.424093 0.715573
Si Si4 0.661276 0.589437 0.859104
Si Si5 0.126518 0.117172 0.923086
Si Si6 0.358288 0.848150 0.818608
O O1 0.481081 0.250000 0.447642
O O2 0.578634 0.331955 0.517844
O O3 0.562883 0.312430 0.281761
O O4 0.274837 0.320907 0.406078
O O5 0.658070 0.056660 0.861367
O O6 0.368848 0.028946 0.791622
O O7 0.600193 0.961452 0.808377
O O8 0.500000 0.000000 0.000000
O O9 0.453268 0.407280 0.619827
O O10 0.253377 0.381191 0.806508
O O11 0.761042 0.608896 0.744666
O O12 0.509711 0.626776 0.894462
O O13 0.783801 0.584300 0.975278
#
# Coordination Sequence:
#
# PCOD8251927 Si02
#       6
#     8   8   8   8   8   8
#     4  10  20  37  60  88 111 143 182 228 285 349
#     4  11  21  36  58  80 115 151 200 227 267 335
#     4  10  23  40  53  80 114 155 189 242 278 316
#     4  10  19  36  54  87 113 155 185 221 281 336
#     4  10  22  38  59  78 112 152 188 235 289 330
#     4   9  20  34  59  85 124 142 172 230 287 342
#
# _framework density 19.698706999999999
#
# number of rings (size 3 to 8) (size 9 to 14) (size 15 to 20)
#    0.000    2.000    1.667    1.500    2.333    0.667 
#    3.000    1.667    0.000    0.000    0.000    0.000 
#    0.000    0.000    0.000    0.000    0.000    0.000 
#
# Total GULP energy -594903.147456 kJ/mol
# GULP energy per Si atom -12393.815572 kJ/mol
# Density = 1.965387 g / cm^3
# Si number density = 19.698707 Si / 1000 Ang^3
#
#
#
# Elastic Constant Matrix: (Units=GPa)
#
#
# Indices 1 2 3 4 5 6 
#
# 1 96.5747 35.7561 38.3456 0.0000 0.0000 0.0000
# 2 35.7561 103.1195 46.3421 0.0000 0.0000 0.0000
# 3 38.3456 46.3421 83.5072 0.0000 0.0000 0.0000
# 4 0.0000 0.0000 0.0000 20.8080 0.0000 0.0000
# 5 0.0000 0.0000 0.0000 0.0000 33.3116 0.0000
# 6 0.0000 0.0000 0.0000 0.0000 0.0000 23.9784
#
#
#
# Elastic Compliance Matrix: (Units=1/GPa)
#
#
# Indices 1 2 3 4 5 6 
#
# 1 0.013113 -0.002453 -0.004660 0.000000 0.000000 0.000000
# 2 -0.002453 0.013378 -0.006298 0.000000 0.000000 0.000000
# 3 -0.004660 -0.006298 0.017610 0.000000 0.000000 0.000000
# 4 0.000000 0.000000 0.000000 0.048058 0.000000 0.000000
# 5 0.000000 0.000000 0.000000 0.000000 0.030020 0.000000
# 6 0.000000 0.000000 0.000000 0.000000 0.000000 0.041704
#
#
# Mechanical properties :
#
#
# Convention : Reuss Voigt Hill
#
# Bulk Modulus (GPa) = 57.87183 58.23211 58.05197
# Shear Modulus (GPa) = 25.44977 26.47012 25.95995
#
# Velocity S-wave (km/s) = 3.59827 3.66969 3.63416
# Velocity P-wave (km/s) = 6.83416 6.89791 6.86610
#
# Compressibility (1/GPa) = 0.01727957
#
# Stress axis : x y z
#
# Youngs Moduli (GPa) = 76.25935 74.74821 56.78556
#
# Poissons Ratio (x) = 0.18332 0.26464
# Poissons Ratio (y) = 0.18703 0.35764
# Poissons Ratio (z) = 0.35540 0.47077
#
# Static dielectric constant tensor:
#      x y z
#    x 4.083340 0.000000 0.000000 
#    y 0.000000 3.901120 0.000000 
#    z 0.000000 0.000000 3.441830 
# 
# 
# High freq. dielectric constant tensor:
#      x y z
#    x 1.788310 0.000000 0.000000 
#    y 0.000000 1.744730 0.000000 
#    z 0.000000 0.000000 1.750620 
# 
# From -- ./inp_files/11310.got.cif
#   From: 2010.03.12/outbox.cif.g09.slc.cpg/sg62_6_cif.got.tgz:11310.got - 2010.04.10 19:12:36.
