data_PCOD8251360
_publ_section_title
;
Structure prediction by ZEFSAII (Michael W. Deem and Ramdas Pophale) SiO2 
 PCOD8251360
Probable space group: P N M A
;
_chemical_formula_sum "Si O2"
_cell_formula_units_Z 40
_cell_length_a 19.351607
_cell_length_b 20.323580
_cell_length_c 5.237228
_cell_angle_alpha 90.000000
_cell_angle_beta 90.000000
_cell_angle_gamma 90.000000
_cell_volume 2059.769998
_symmetry_space_group_name_H-M "P N M A"
_symmetry_group_IT_number 62
_symmetry_cell_setting 'orthorhombic'
loop_
_space_group_symop_operation_xyz
x,y,z
1/2-x,-y,1/2+z
1/2+x,1/2-y,1/2-z
-x,1/2+y,-z
-x,-y,-z
1/2+x,y,1/2-z
1/2-x,1/2+y,1/2+z
x,1/2-y,z
loop_
_atom_site_type_symbol
_atom_site_label
_atom_site_fract_x
_atom_site_fract_y
_atom_site_fract_z
Si Si1 0.544910 0.564069 0.458984
Si Si2 0.519593 0.325115 0.817602
Si Si3 0.753380 0.671530 0.980586
Si Si4 0.830801 0.827671 0.481417
Si Si5 0.603423 0.890103 0.965492
O O1 0.500000 0.500000 0.500000
O O2 0.493915 0.627501 0.426980
O O3 0.595283 0.571997 0.699582
O O4 0.592283 0.558845 0.202366
O O5 0.525934 0.250000 0.720396
O O6 0.589148 0.348386 0.961328
O O7 0.455416 0.333153 0.013680
O O8 0.748978 0.750000 0.975260
O O9 0.797139 0.643899 0.740166
O O10 0.677226 0.643009 0.973828
O O11 0.789924 0.644950 0.235883
O O12 0.823952 0.750000 0.486830
#
# Coordination Sequence:
#
# PCOD8251360 Si02
#       5
#     8   8   8   8   8
#     4  10  22  38  59  84 113 155 191 237 293 343
#     4   9  21  35  58  89 116 150 197 244 285 339
#     4  10  19  33  52  82 119 149 181 232 296 342
#     4   9  19  32  50  78 118 154 180 225 293 347
#     4  10  21  35  59  83 110 147 195 242 278 340
#
# _framework density 19.419646
#
# number of rings (size 3 to 8) (size 9 to 14) (size 15 to 20)
#    1.200    1.200    0.000    2.400    2.800    1.600 
#    0.000    0.000    0.000    4.800    0.000    0.000 
#    0.000    0.000    0.000    0.000    0.000    0.000 
#
# Total GULP energy -495684.717491 kJ/mol
# GULP energy per Si atom -12392.117937 kJ/mol
# Density = 1.937545 g / cm^3
# Si number density = 19.419646 Si / 1000 Ang^3
#
#
#
# Elastic Constant Matrix: (Units=GPa)
#
#
# Indices 1 2 3 4 5 6 
#
# 1 118.1687 3.8039 26.4444 0.0000 0.0000 0.0000
# 2 3.8039 44.3681 7.4433 0.0000 0.0000 0.0000
# 3 26.4444 7.4433 132.9828 0.0000 0.0000 0.0000
# 4 0.0000 0.0000 0.0000 16.0308 0.0000 0.0000
# 5 0.0000 0.0000 0.0000 0.0000 22.8220 0.0000
# 6 0.0000 0.0000 0.0000 0.0000 0.0000 4.7422
#
#
#
# Elastic Compliance Matrix: (Units=1/GPa)
#
#
# Indices 1 2 3 4 5 6 
#
# 1 0.008866 -0.000469 -0.001737 0.000000 0.000000 0.000000
# 2 -0.000469 0.022777 -0.001182 0.000000 0.000000 0.000000
# 3 -0.001737 -0.001182 0.007931 0.000000 0.000000 0.000000
# 4 0.000000 0.000000 0.000000 0.062380 0.000000 0.000000
# 5 0.000000 0.000000 0.000000 0.000000 0.043817 0.000000
# 6 0.000000 0.000000 0.000000 0.000000 0.000000 0.210874
#
#
# Mechanical properties :
#
#
# Convention : Reuss Voigt Hill
#
# Bulk Modulus (GPa) = 30.48773 41.21143 35.84958
# Shear Modulus (GPa) = 13.35633 25.90752 19.63192
#
# Velocity S-wave (km/s) = 2.62539 3.65648 3.18296
# Velocity P-wave (km/s) = 4.99237 6.25252 5.65764
#
# Compressibility (1/GPa) = 0.03280008
#
# Stress axis : x y z
#
# Youngs Moduli (GPa) = 112.78724 43.90365 126.08284
#
# Poissons Ratio (x) = 0.02058 0.21899
# Poissons Ratio (y) = 0.05287 0.14899
# Poissons Ratio (z) = 0.19590 0.05188
#
# Static dielectric constant tensor:
#      x y z
#    x 3.516860 0.000000 0.000000 
#    y 0.000000 3.313620 0.000000 
#    z 0.000000 0.000000 3.891620 
# 
# 
# High freq. dielectric constant tensor:
#      x y z
#    x 1.760900 0.000000 0.000000 
#    y 0.000000 1.710740 0.000000 
#    z 0.000000 0.000000 1.765470 
# 
# From -- ./inp_files/1630.got.cif
#   From: 2010.03.12/outbox.cif.g09.slc.cpg/sg62_1_cif.got.tgz:1630.got - 2010.04.10 19:12:36.
