data_PCOD8251376
_publ_section_title
;
Structure prediction by ZEFSAII (Michael W. Deem and Ramdas Pophale) SiO2 
 PCOD8251376
Probable space group: P N M A
;
_chemical_formula_sum "Si O2"
_cell_formula_units_Z 40
_cell_length_a 15.866334
_cell_length_b 8.892529
_cell_length_c 15.568765
_cell_angle_alpha 90.000000
_cell_angle_beta 90.000000
_cell_angle_gamma 90.000000
_cell_volume 2196.625626
_symmetry_space_group_name_H-M "P N M A"
_symmetry_group_IT_number 62
_symmetry_cell_setting 'orthorhombic'
loop_
_space_group_symop_operation_xyz
x,y,z
1/2-x,-y,1/2+z
1/2+x,1/2-y,1/2-z
-x,1/2+y,-z
-x,-y,-z
1/2+x,y,1/2-z
1/2-x,1/2+y,1/2+z
x,1/2-y,z
loop_
_atom_site_type_symbol
_atom_site_label
_atom_site_fract_x
_atom_site_fract_y
_atom_site_fract_z
Si Si1 0.966569 0.574824 0.369508
Si Si2 0.120005 0.426623 0.452368
Si Si3 0.556979 0.926365 0.428254
Si Si4 0.442272 0.428389 0.305201
Si Si5 0.192179 0.574024 0.943830
O O1 0.972040 0.750000 0.348610
O O2 0.907375 0.539618 0.450322
O O3 0.924651 0.489026 0.289695
O O4 0.060462 0.513479 0.386050
O O5 0.114030 0.250000 0.432314
O O6 0.213962 0.494107 0.439809
O O7 0.538596 0.750000 0.421176
O O8 0.652636 0.957347 0.461024
O O9 0.500000 0.000000 0.500000
O O10 0.532666 0.005654 0.338325
O O11 0.447876 0.250000 0.305254
O O12 0.367194 0.489212 0.367230
O O13 0.199848 0.750000 0.929398
#
# Coordination Sequence:
#
# PCOD8251376 Si02
#       5
#     8   8   8   8   8
#     4  10  20  34  53  76 102 136 174 212 257 305
#     4   9  18  36  57  73  99 137 174 210 257 308
#     4   9  16  29  50  75 105 135 167 204 254 308
#     4  10  19  33  53  76 105 138 173 211 258 307
#     4   8  16  32  54  77 102 134 168 210 257 304
#
# _framework density 18.209748000000001
#
# number of rings (size 3 to 8) (size 9 to 14) (size 15 to 20)
#    0.000    2.800    0.000    3.000    0.000    0.800 
#    3.600    6.000    0.000    0.000    0.000    0.000 
#    0.000    0.000    0.000    0.000    0.000    0.000 
#
# Total GULP energy -495752.958759 kJ/mol
# GULP energy per Si atom -12393.823969 kJ/mol
# Density = 1.816830 g / cm^3
# Si number density = 18.209748 Si / 1000 Ang^3
#
#
#
# Elastic Constant Matrix: (Units=GPa)
#
#
# Indices 1 2 3 4 5 6 
#
# 1 126.8252 33.3395 46.0426 0.0000 0.0000 0.0000
# 2 33.3395 71.6337 36.6092 0.0000 0.0000 0.0000
# 3 46.0426 36.6092 92.9931 0.0000 0.0000 0.0000
# 4 0.0000 0.0000 0.0000 34.4079 0.0000 0.0000
# 5 0.0000 0.0000 0.0000 0.0000 17.1723 0.0000
# 6 0.0000 0.0000 0.0000 0.0000 0.0000 21.4292
#
#
#
# Elastic Compliance Matrix: (Units=1/GPa)
#
#
# Indices 1 2 3 4 5 6 
#
# 1 0.010002 -0.002659 -0.003905 0.000000 0.000000 0.000000
# 2 -0.002659 0.018183 -0.005842 0.000000 0.000000 0.000000
# 3 -0.003905 -0.005842 0.014987 0.000000 0.000000 0.000000
# 4 0.000000 0.000000 0.000000 0.029063 0.000000 0.000000
# 5 0.000000 0.000000 0.000000 0.000000 0.058233 0.000000
# 6 0.000000 0.000000 0.000000 0.000000 0.000000 0.046665
#
#
# Mechanical properties :
#
#
# Convention : Reuss Voigt Hill
#
# Bulk Modulus (GPa) = 54.46782 58.15940 56.31361
# Shear Modulus (GPa) = 24.03100 26.29926 25.16513
#
# Velocity S-wave (km/s) = 3.63668 3.80444 3.72150
# Velocity P-wave (km/s) = 6.90001 7.16284 7.03266
#
# Compressibility (1/GPa) = 0.01835946
#
# Stress axis : x y z
#
# Youngs Moduli (GPa) = 99.98381 54.99656 66.72583
#
# Poissons Ratio (x) = 0.14624 0.26057
# Poissons Ratio (y) = 0.26587 0.38979
# Poissons Ratio (z) = 0.39045 0.32127
#
# Static dielectric constant tensor:
#      x y z
#    x 3.698110 0.000000 0.000000 
#    y 0.000000 3.315480 0.000000 
#    z 0.000000 0.000000 3.441320 
# 
# 
# High freq. dielectric constant tensor:
#      x y z
#    x 1.695990 0.000000 0.000000 
#    y 0.000000 1.697390 0.000000 
#    z 0.000000 0.000000 1.699760 
# 
# From -- ./inp_files/18642.got.cif
#   From: 2010.03.12/outbox.cif.g09.slc.cpg/sg62_10_cif.got.tgz:18642.got - 2010.04.10 19:12:36.
