data_PCOD8251934
_publ_section_title
;
Structure prediction by ZEFSAII (Michael W. Deem and Ramdas Pophale) SiO2 
 PCOD8251934
Probable space group: P N M A
;
_chemical_formula_sum "Si O2"
_cell_formula_units_Z 48
_cell_length_a 18.539536
_cell_length_b 20.331798
_cell_length_c 7.408654
_cell_angle_alpha 90.000000
_cell_angle_beta 90.000000
_cell_angle_gamma 90.000000
_cell_volume 2792.633604
_symmetry_space_group_name_H-M "P N M A"
_symmetry_group_IT_number 62
_symmetry_cell_setting 'orthorhombic'
loop_
_space_group_symop_operation_xyz
x,y,z
1/2-x,-y,1/2+z
1/2+x,1/2-y,1/2-z
-x,1/2+y,-z
-x,-y,-z
1/2+x,y,1/2-z
1/2-x,1/2+y,1/2+z
x,1/2-y,z
loop_
_atom_site_type_symbol
_atom_site_label
_atom_site_fract_x
_atom_site_fract_y
_atom_site_fract_z
Si Si1 0.240344 0.612525 0.417036
Si Si2 0.937816 0.932751 0.330637
Si Si3 0.827206 0.823426 0.804186
Si Si4 0.325192 0.674321 0.108898
Si Si5 0.098294 0.537070 0.377752
Si Si6 0.124599 0.449539 0.038629
O O1 0.255158 0.666715 0.573885
O O2 0.157654 0.591772 0.421334
O O3 0.293456 0.549819 0.457329
O O4 0.259904 0.643417 0.223096
O O5 0.900536 0.861664 0.344839
O O6 0.931062 0.959849 0.125852
O O7 0.021674 0.926240 0.379942
O O8 0.898227 0.981855 0.468555
O O9 0.858858 0.750000 0.831635
O O10 0.804054 0.834968 0.598680
O O11 0.887204 0.877443 0.866133
O O12 0.336651 0.750000 0.161699
O O13 0.114022 0.507031 0.181593
#
# Coordination Sequence:
#
# PCOD8251934 Si02
#       6
#     8   8   8   8   8   8
#     4   9  21  30  54  79 103 136 171 223 259 308
#     4  10  21  35  53  78 108 146 169 216 262 319
#     4   9  18  33  55  77  99 130 179 225 256 300
#     4  10  19  36  57  76 100 140 187 217 258 312
#     4  11  21  35  50  81 115 135 175 212 271 318
#     4   9  20  31  54  77 105 138 173 215 260 312
#
# _framework density 17.188075999999999
#
# number of rings (size 3 to 8) (size 9 to 14) (size 15 to 20)
#    1.000    1.333    1.667    1.000    4.667    1.333 
#    0.000    1.667    0.000    0.000    0.000    0.000 
#    0.000    0.000    0.000    0.000    0.000    0.000 
#
# Total GULP energy -594870.912011 kJ/mol
# GULP energy per Si atom -12393.144000 kJ/mol
# Density = 1.714895 g / cm^3
# Si number density = 17.188076 Si / 1000 Ang^3
#
#
#
# Elastic Constant Matrix: (Units=GPa)
#
#
# Indices 1 2 3 4 5 6 
#
# 1 76.0989 32.8256 22.1278 0.0000 0.0000 0.0000
# 2 32.8256 55.3645 22.6044 0.0000 0.0000 0.0000
# 3 22.1278 22.6044 113.5460 0.0000 0.0000 0.0000
# 4 0.0000 0.0000 0.0000 20.2253 0.0000 0.0000
# 5 0.0000 0.0000 0.0000 0.0000 16.7996 0.0000
# 6 0.0000 0.0000 0.0000 0.0000 0.0000 15.5510
#
#
#
# Elastic Compliance Matrix: (Units=1/GPa)
#
#
# Indices 1 2 3 4 5 6 
#
# 1 0.017887 -0.009994 -0.001496 0.000000 0.000000 0.000000
# 2 -0.009994 0.025244 -0.003078 0.000000 0.000000 0.000000
# 3 -0.001496 -0.003078 0.009711 0.000000 0.000000 0.000000
# 4 0.000000 0.000000 0.000000 0.049443 0.000000 0.000000
# 5 0.000000 0.000000 0.000000 0.000000 0.059525 0.000000
# 6 0.000000 0.000000 0.000000 0.000000 0.000000 0.064304
#
#
# Mechanical properties :
#
#
# Convention : Reuss Voigt Hill
#
# Bulk Modulus (GPa) = 42.18355 44.45834 43.32095
# Shear Modulus (GPa) = 19.00028 21.67862 20.33945
#
# Velocity S-wave (km/s) = 3.32841 3.55527 3.44371
# Velocity P-wave (km/s) = 6.27429 6.54028 6.40867
#
# Compressibility (1/GPa) = 0.02370592
#
# Stress axis : x y z
#
# Youngs Moduli (GPa) = 55.90668 39.61269 102.97270
#
# Poissons Ratio (x) = 0.39590 0.15406
# Poissons Ratio (y) = 0.55875 0.31694
# Poissons Ratio (z) = 0.08365 0.12192
#
# Static dielectric constant tensor:
#      x y z
#    x 2.869400 0.000000 0.000000 
#    y 0.000000 3.044660 0.000000 
#    z 0.000000 0.000000 3.453980 
# 
# 
# High freq. dielectric constant tensor:
#      x y z
#    x 1.626940 0.000000 0.000000 
#    y 0.000000 1.647720 0.000000 
#    z 0.000000 0.000000 1.689800 
# 
# From -- ./inp_files/8005.got.cif
#   From: 2010.03.12/outbox.cif.g09.slc.cpg/sg62_5_cif.got.tgz:8005.got - 2010.04.10 19:12:36.
