data_PCOD8251957
_publ_section_title
;
Structure prediction by ZEFSAII (Michael W. Deem and Ramdas Pophale) SiO2 
 PCOD8251957
Probable space group: P N M A
;
_chemical_formula_sum "Si O2"
_cell_formula_units_Z 48
_cell_length_a 8.199267
_cell_length_b 17.155102
_cell_length_c 16.284645
_cell_angle_alpha 90.000000
_cell_angle_beta 90.000000
_cell_angle_gamma 90.000000
_cell_volume 2290.586143
_symmetry_space_group_name_H-M "P N M A"
_symmetry_group_IT_number 62
_symmetry_cell_setting 'orthorhombic'
loop_
_space_group_symop_operation_xyz
x,y,z
1/2-x,-y,1/2+z
1/2+x,1/2-y,1/2-z
-x,1/2+y,-z
-x,-y,-z
1/2+x,y,1/2-z
1/2-x,1/2+y,1/2+z
x,1/2-y,z
loop_
_atom_site_type_symbol
_atom_site_label
_atom_site_fract_x
_atom_site_fract_y
_atom_site_fract_z
Si Si1 0.772364 0.338199 0.311386
Si Si2 0.861401 0.662247 0.636980
Si Si3 0.640119 0.008409 0.355778
Si Si4 0.540684 0.658659 0.153920
Si Si5 0.133879 0.435390 0.517648
Si Si6 0.658833 0.427343 0.715131
O O1 0.724263 0.250000 0.337470
O O2 0.759368 0.347765 0.213377
O O3 0.651019 0.397331 0.358930
O O4 0.956419 0.359330 0.334744
O O5 0.855072 0.750000 0.602552
O O6 0.805115 0.602799 0.566781
O O7 0.707415 0.972579 0.440183
O O8 0.456589 0.979467 0.342706
O O9 0.754023 0.983889 0.279486
O O10 0.571071 0.750000 0.149110
O O11 0.441953 0.632090 0.074198
O O12 0.713814 0.614699 0.155203
O O13 0.443382 0.638738 0.237169
O O14 0.000000 0.500000 0.500000
#
# Coordination Sequence:
#
# PCOD8251957 Si02
#       6
#     8   8   8   8   8   8
#     4  10  20  35  59  84 112 154 198 243 288 344
#     4  10  21  38  59  84 114 151 197 244 294 349
#     4  10  19  36  58  89 121 151 197 245 292 355
#     4  10  20  37  59  85 118 155 194 237 288 349
#     4  11  22  37  57  87 117 157 192 240 303 351
#     4   9  20  34  60  88 115 155 194 240 286 347
#
# _framework density 20.955335999999999
#
# number of rings (size 3 to 8) (size 9 to 14) (size 15 to 20)
#    0.000    2.000    1.667    2.000    4.667    0.000 
#    0.000    5.000    0.000    2.000    0.000    0.000 
#    0.000    0.000    0.000    0.000    0.000    0.000 
#
# Total GULP energy -595380.508253 kJ/mol
# GULP energy per Si atom -12403.760589 kJ/mol
# Density = 2.090764 g / cm^3
# Si number density = 20.955336 Si / 1000 Ang^3
#
#
#
# Elastic Constant Matrix: (Units=GPa)
#
#
# Indices 1 2 3 4 5 6 
#
# 1 61.5636 23.4805 16.9067 0.0000 0.0000 0.0000
# 2 23.4805 119.4084 40.5049 0.0000 0.0000 0.0000
# 3 16.9067 40.5049 79.2029 0.0000 0.0000 0.0000
# 4 0.0000 0.0000 0.0000 33.0233 0.0000 0.0000
# 5 0.0000 0.0000 0.0000 0.0000 24.2689 0.0000
# 6 0.0000 0.0000 0.0000 0.0000 0.0000 25.6062
#
#
#
# Elastic Compliance Matrix: (Units=1/GPa)
#
#
# Indices 1 2 3 4 5 6 
#
# 1 0.017945 -0.002697 -0.002451 0.000000 0.000000 0.000000
# 2 -0.002697 0.010538 -0.004813 0.000000 0.000000 0.000000
# 3 -0.002451 -0.004813 0.015611 0.000000 0.000000 0.000000
# 4 0.000000 0.000000 0.000000 0.030282 0.000000 0.000000
# 5 0.000000 0.000000 0.000000 0.000000 0.041205 0.000000
# 6 0.000000 0.000000 0.000000 0.000000 0.000000 0.039053
#
#
# Mechanical properties :
#
#
# Convention : Reuss Voigt Hill
#
# Bulk Modulus (GPa) = 41.37356 46.88433 44.12894
# Shear Modulus (GPa) = 27.38022 28.53186 27.95604
#
# Velocity S-wave (km/s) = 3.61861 3.69393 3.65647
# Velocity P-wave (km/s) = 6.10292 6.37303 6.23944
#
# Compressibility (1/GPa) = 0.02417003
#
# Stress axis : x y z
#
# Youngs Moduli (GPa) = 55.72502 94.89688 64.05907
#
# Poissons Ratio (x) = 0.25596 0.15702
# Poissons Ratio (y) = 0.15031 0.30834
# Poissons Ratio (z) = 0.13659 0.45677
#
# Static dielectric constant tensor:
#      x y z
#    x 3.704690 0.000000 0.000000 
#    y 0.000000 3.929670 0.000000 
#    z 0.000000 0.000000 3.743280 
# 
# 
# High freq. dielectric constant tensor:
#      x y z
#    x 1.813330 0.000000 0.000000 
#    y 0.000000 1.834270 0.000000 
#    z 0.000000 0.000000 1.804750 
# 
# From -- ./inp_files/16909.got.cif
#   From: 2010.03.12/outbox.cif.g09.slc.cpg/sg62_9_cif.got.tgz:16909.got - 2010.04.10 19:12:36.
