data_PCOD8251158
_publ_section_title
;
Structure prediction by ZEFSAII (Michael W. Deem and Ramdas Pophale) SiO2 
 PCOD8251158
Probable space group: P N M A
;
_chemical_formula_sum "Si O2"
_cell_formula_units_Z 40
_cell_length_a 15.677048
_cell_length_b 9.157904
_cell_length_c 15.694678
_cell_angle_alpha 90.000000
_cell_angle_beta 90.000000
_cell_angle_gamma 90.000000
_cell_volume 2253.267666
_symmetry_space_group_name_H-M "P N M A"
_symmetry_group_IT_number 62
_symmetry_cell_setting 'orthorhombic'
loop_
_space_group_symop_operation_xyz
x,y,z
1/2-x,-y,1/2+z
1/2+x,1/2-y,1/2-z
-x,1/2+y,-z
-x,-y,-z
1/2+x,y,1/2-z
1/2-x,1/2+y,1/2+z
x,1/2-y,z
loop_
_atom_site_type_symbol
_atom_site_label
_atom_site_fract_x
_atom_site_fract_y
_atom_site_fract_z
Si Si1 0.188336 0.580779 0.570900
Si Si2 0.059805 0.583811 0.437803
Si Si3 0.123037 0.418973 0.030652
Si Si4 0.436625 0.921789 0.199142
Si Si5 0.548021 0.920091 0.624551
O O1 0.174590 0.750000 0.596558
O O2 0.156214 0.555230 0.471714
O O3 0.287481 0.537890 0.573843
O O4 0.137973 0.480168 0.637312
O O5 0.034425 0.750000 0.450171
O O6 0.000000 0.500000 0.500000
O O7 0.031520 0.541975 0.341076
O O8 0.121812 0.250000 0.002122
O O9 0.050145 0.451170 0.100158
O O10 0.109939 0.517672 0.947861
O O11 0.422960 0.750000 0.213062
O O12 0.429645 0.000979 0.288381
O O13 0.566911 0.750000 0.634966
#
# Coordination Sequence:
#
# PCOD8251158 Si02
#       5
#     8   8   8   8   8
#     4   9  17  33  55  77 105 134 168 213 261 307
#     4   8  15  28  48  72  99 132 163 198 248 301
#     4   9  19  36  56  75 101 136 174 215 260 308
#     4  10  19  32  51  77 107 136 172 212 254 305
#     4  10  20  35  54  74 101 139 176 211 257 307
#
# _framework density 17.751996999999999
#
# number of rings (size 3 to 8) (size 9 to 14) (size 15 to 20)
#    0.000    2.800    0.000    1.200    0.000    2.400 
#    3.600    0.000    0.000    0.000    0.000    0.000 
#    0.000    0.000    0.000    0.000    0.000    0.000 
#
# Total GULP energy -495554.030180 kJ/mol
# GULP energy per Si atom -12388.850755 kJ/mol
# Density = 1.771159 g / cm^3
# Si number density = 17.751997 Si / 1000 Ang^3
#
#
#
# Elastic Constant Matrix: (Units=GPa)
#
#
# Indices 1 2 3 4 5 6 
#
# 1 89.5351 36.6007 46.7915 0.0000 0.0000 0.0000
# 2 36.6007 80.7264 59.9284 0.0000 0.0000 0.0000
# 3 46.7915 59.9284 114.7470 0.0000 0.0000 0.0000
# 4 0.0000 0.0000 0.0000 27.2343 0.0000 0.0000
# 5 0.0000 0.0000 0.0000 0.0000 14.2318 0.0000
# 6 0.0000 0.0000 0.0000 0.0000 0.0000 23.0671
#
#
#
# Elastic Compliance Matrix: (Units=1/GPa)
#
#
# Indices 1 2 3 4 5 6 
#
# 1 0.014823 -0.003648 -0.004140 0.000000 0.000000 0.000000
# 2 -0.003648 0.021129 -0.009548 0.000000 0.000000 0.000000
# 3 -0.004140 -0.009548 0.015389 0.000000 0.000000 0.000000
# 4 0.000000 0.000000 0.000000 0.036718 0.000000 0.000000
# 5 0.000000 0.000000 0.000000 0.000000 0.070265 0.000000
# 6 0.000000 0.000000 0.000000 0.000000 0.000000 0.043352
#
#
# Mechanical properties :
#
#
# Convention : Reuss Voigt Hill
#
# Bulk Modulus (GPa) = 59.98084 63.51662 61.74873
# Shear Modulus (GPa) = 20.66937 22.35249 21.51093
#
# Velocity S-wave (km/s) = 3.41595 3.55231 3.48479
# Velocity P-wave (km/s) = 7.02992 7.25829 7.14502
#
# Compressibility (1/GPa) = 0.01667199
#
# Stress axis : x y z
#
# Youngs Moduli (GPa) = 67.46135 47.32808 64.98057
#
# Poissons Ratio (x) = 0.17264 0.26899
# Poissons Ratio (y) = 0.24608 0.62040
# Poissons Ratio (z) = 0.27926 0.45187
#
# Static dielectric constant tensor:
#      x y z
#    x 3.563230 0.000000 0.000000 
#    y 0.000000 3.339030 0.000000 
#    z 0.000000 0.000000 3.348750 
# 
# 
# High freq. dielectric constant tensor:
#      x y z
#    x 1.677750 0.000000 0.000000 
#    y 0.000000 1.695010 0.000000 
#    z 0.000000 0.000000 1.676700 
# 
# From -- ./inp_files/18605.got.cif
#   From: 2010.03.12/outbox.cif.g09.slc.cpg/sg62_10_cif.got.tgz:18605.got - 2010.04.10 19:12:36.
