data_PCOD8251138
_publ_section_title
;
Structure prediction by ZEFSAII (Michael W. Deem and Ramdas Pophale) SiO2 
 PCOD8251138
Probable space group: P N M A
;
_chemical_formula_sum "Si O2"
_cell_formula_units_Z 48
_cell_length_a 19.446508
_cell_length_b 9.275207
_cell_length_c 15.547357
_cell_angle_alpha 90.000000
_cell_angle_beta 90.000000
_cell_angle_gamma 90.000000
_cell_volume 2804.282801
_symmetry_space_group_name_H-M "P N M A"
_symmetry_group_IT_number 62
_symmetry_cell_setting 'orthorhombic'
loop_
_space_group_symop_operation_xyz
x,y,z
1/2-x,-y,1/2+z
1/2+x,1/2-y,1/2-z
-x,1/2+y,-z
-x,-y,-z
1/2+x,y,1/2-z
1/2-x,1/2+y,1/2+z
x,1/2-y,z
loop_
_atom_site_type_symbol
_atom_site_label
_atom_site_fract_x
_atom_site_fract_y
_atom_site_fract_z
Si Si1 0.807174 0.082383 0.430215
Si Si2 0.937940 0.912026 0.250424
Si Si3 0.949244 0.583971 0.438528
Si Si4 0.453383 0.913474 0.435385
Si Si5 0.303279 0.415365 0.259565
Si Si6 0.204308 0.418873 0.921637
O O1 0.828368 0.250000 0.442400
O O2 0.772032 0.060068 0.336056
O O3 0.750334 0.031918 0.498413
O O4 0.873598 0.983524 0.443850
O O5 0.904275 0.750000 0.247367
O O6 0.979178 0.927882 0.340342
O O7 0.982784 0.930198 0.162921
O O8 0.881838 0.036337 0.248758
O O9 0.945176 0.750000 0.467882
O O10 0.000000 0.500000 0.500000
O O11 0.456554 0.750000 0.466983
O O12 0.374324 0.968301 0.438207
O O13 0.500000 0.000000 0.500000
O O14 0.299758 0.250000 0.287436
O O15 0.266103 0.506654 0.334628
O O16 0.208662 0.250000 0.906379
#
# Coordination Sequence:
#
# PCOD8251138 Si02
#       6
#     8   8   8   8   8   8
#     4   9  18  33  51  70  95 126 158 195 239 283
#     4   8  16  31  48  65  91 127 159 186 227 284
#     4  10  19  32  51  73  97 125 158 195 234 280
#     4   9  17  30  48  69  92 121 156 191 230 277
#     4   9  16  27  47  72  93 117 156 199 232 272
#     4   9  18  33  50  67  93 128 158 188 236 290
#
# _framework density 17.116675999999998
#
# number of rings (size 3 to 8) (size 9 to 14) (size 15 to 20)
#    0.000    3.000    0.000    2.000    0.000    4.667 
#    0.000    1.667    0.000    4.000    0.000    0.000 
#    0.000    0.000    0.000    0.000    0.000    0.000 
#
# Total GULP energy -594668.308118 kJ/mol
# GULP energy per Si atom -12388.923086 kJ/mol
# Density = 1.707772 g / cm^3
# Si number density = 17.116676 Si / 1000 Ang^3
#
#
#
# Elastic Constant Matrix: (Units=GPa)
#
#
# Indices 1 2 3 4 5 6 
#
# 1 58.2688 38.1695 64.5138 0.0000 0.0000 0.0000
# 2 38.1695 74.5268 67.1504 0.0000 0.0000 0.0000
# 3 64.5138 67.1504 171.6083 0.0000 0.0000 0.0000
# 4 0.0000 0.0000 0.0000 32.6536 0.0000 0.0000
# 5 0.0000 0.0000 0.0000 0.0000 31.4322 0.0000
# 6 0.0000 0.0000 0.0000 0.0000 0.0000 22.1532
#
#
#
# Elastic Compliance Matrix: (Units=1/GPa)
#
#
# Indices 1 2 3 4 5 6 
#
# 1 0.032730 -0.008768 -0.008874 0.000000 0.000000 0.000000
# 2 -0.008768 0.023074 -0.005733 0.000000 0.000000 0.000000
# 3 -0.008874 -0.005733 0.011406 0.000000 0.000000 0.000000
# 4 0.000000 0.000000 0.000000 0.030625 0.000000 0.000000
# 5 0.000000 0.000000 0.000000 0.000000 0.031814 0.000000
# 6 0.000000 0.000000 0.000000 0.000000 0.000000 0.045140
#
#
# Mechanical properties :
#
#
# Convention : Reuss Voigt Hill
#
# Bulk Modulus (GPa) = 48.87079 71.56348 60.21713
# Shear Modulus (GPa) = 21.89554 26.21914 24.05734
#
# Velocity S-wave (km/s) = 3.58046 3.91805 3.75306
# Velocity P-wave (km/s) = 6.76066 7.89735 7.35101
#
# Compressibility (1/GPa) = 0.02046212
#
# Stress axis : x y z
#
# Youngs Moduli (GPa) = 30.55333 43.33953 87.67072
#
# Poissons Ratio (x) = 0.37998 0.77795
# Poissons Ratio (y) = 0.26788 0.50259
# Poissons Ratio (z) = 0.27112 0.24845
#
# Static dielectric constant tensor:
#      x y z
#    x 2.792700 0.000000 0.000000 
#    y 0.000000 3.268020 0.000000 
#    z 0.000000 0.000000 3.692710 
# 
# 
# High freq. dielectric constant tensor:
#      x y z
#    x 1.603220 0.000000 0.000000 
#    y 0.000000 1.667790 0.000000 
#    z 0.000000 0.000000 1.684570 
# 
# From -- ./inp_files/20021.got.cif
#   From: 2010.03.12/outbox.cif.g09.slc.cpg/sg62_11_cif.got.tgz:20021.got - 2010.04.10 19:12:36.
