data_PCOD8251282
_publ_section_title
;
Structure prediction by ZEFSAII (Michael W. Deem and Ramdas Pophale) SiO2 
 PCOD8251282
Probable space group: P N M A
;
_chemical_formula_sum "Si O2"
_cell_formula_units_Z 64
_cell_length_a 21.629830
_cell_length_b 9.113483
_cell_length_c 17.015346
_cell_angle_alpha 90.000000
_cell_angle_beta 90.000000
_cell_angle_gamma 90.000000
_cell_volume 3354.117547
_symmetry_space_group_name_H-M "P N M A"
_symmetry_group_IT_number 62
_symmetry_cell_setting 'orthorhombic'
loop_
_space_group_symop_operation_xyz
x,y,z
1/2-x,-y,1/2+z
1/2+x,1/2-y,1/2-z
-x,1/2+y,-z
-x,-y,-z
1/2+x,y,1/2-z
1/2-x,1/2+y,1/2+z
x,1/2-y,z
loop_
_atom_site_type_symbol
_atom_site_label
_atom_site_fract_x
_atom_site_fract_y
_atom_site_fract_z
Si Si1 0.274851 0.916174 0.662867
Si Si2 0.384960 0.581437 0.779970
Si Si3 0.971461 0.924210 0.855996
Si Si4 0.076419 0.578714 0.427288
Si Si5 0.631162 0.421192 0.474104
Si Si6 0.934507 0.580599 0.418562
Si Si7 0.111669 0.575402 0.868064
Si Si8 0.341912 0.578770 0.217025
O O1 0.249226 0.750000 0.661219
O O2 0.319945 0.936219 0.736668
O O3 0.310672 0.950633 0.582283
O O4 0.219181 0.029878 0.670778
O O5 0.398174 0.750000 0.801521
O O6 0.439645 0.517793 0.724093
O O7 0.380946 0.488606 0.859497
O O8 0.968330 0.750000 0.853864
O O9 0.931637 0.976845 0.931210
O O10 0.041142 0.983405 0.861879
O O11 0.088416 0.750000 0.430674
O O12 0.095947 0.512273 0.511126
O O13 0.005779 0.536546 0.407578
O O14 0.626249 0.250000 0.496147
O O15 0.641396 0.516506 0.551835
O O16 0.927339 0.750000 0.441460
O O17 0.900555 0.542992 0.337587
O O18 0.114725 0.750000 0.866406
O O19 0.151639 0.512593 0.796746
O O20 0.337538 0.750000 0.237175
#
# Coordination Sequence:
#
# PCOD8251282 Si02
#       8
#     8   8   8   8   8   8   8   8
#     4   9  20  39  59  77 103 142 184 225 268 317
#     4   9  17  33  56  79 107 143 178 217 268 318
#     4   8  16  31  54  83 113 146 179 215 265 323
#     4  10  19  32  54  84 111 136 175 221 267 325
#     4   9  18  36  58  80 110 145 181 222 270 318
#     4   9  20  37  54  76 108 143 176 219 275 324
#     4  11  21  33  54  85 115 142 178 219 265 326
#     4  11  23  39  57  77 106 144 184 227 273 318
#
# _framework density 19.081022999999998
#
# number of rings (size 3 to 8) (size 9 to 14) (size 15 to 20)
#    0.000    2.500    0.000    3.750    0.000    2.500 
#    2.250    3.125    0.000    0.000    0.000    0.000 
#    0.000    0.000    0.000    0.000    0.000    0.000 
#
# Total GULP energy -793749.108864 kJ/mol
# GULP energy per Si atom -12402.329826 kJ/mol
# Density = 1.903759 g / cm^3
# Si number density = 19.081023 Si / 1000 Ang^3
#
#
#
# Elastic Constant Matrix: (Units=GPa)
#
#
# Indices 1 2 3 4 5 6 
#
# 1 62.4230 29.0905 22.3834 0.0000 0.0000 0.0000
# 2 29.0905 77.1373 51.9791 0.0000 0.0000 0.0000
# 3 22.3834 51.9791 107.9684 0.0000 0.0000 0.0000
# 4 0.0000 0.0000 0.0000 30.1505 0.0000 0.0000
# 5 0.0000 0.0000 0.0000 0.0000 15.8862 0.0000
# 6 0.0000 0.0000 0.0000 0.0000 0.0000 27.6703
#
#
#
# Elastic Compliance Matrix: (Units=1/GPa)
#
#
# Indices 1 2 3 4 5 6 
#
# 1 0.019476 -0.006844 -0.000742 0.000000 0.000000 0.000000
# 2 -0.006844 0.021594 -0.008977 0.000000 0.000000 0.000000
# 3 -0.000742 -0.008977 0.013738 0.000000 0.000000 0.000000
# 4 0.000000 0.000000 0.000000 0.033167 0.000000 0.000000
# 5 0.000000 0.000000 0.000000 0.000000 0.062948 0.000000
# 6 0.000000 0.000000 0.000000 0.000000 0.000000 0.036140
#
#
# Mechanical properties :
#
#
# Convention : Reuss Voigt Hill
#
# Bulk Modulus (GPa) = 46.12641 50.49276 48.30958
# Shear Modulus (GPa) = 21.98602 24.34643 23.16623
#
# Velocity S-wave (km/s) = 3.39816 3.57592 3.48817
# Velocity P-wave (km/s) = 6.29469 6.60071 6.44951
#
# Compressibility (1/GPa) = 0.02167955
#
# Stress axis : x y z
#
# Youngs Moduli (GPa) = 51.34620 46.30819 72.79191
#
# Poissons Ratio (x) = 0.31695 0.05405
# Poissons Ratio (y) = 0.35144 0.65347
# Poissons Ratio (z) = 0.03812 0.41572
#
# Static dielectric constant tensor:
#      x y z
#    x 3.390660 0.000000 0.000000 
#    y 0.000000 3.278190 0.000000 
#    z 0.000000 0.000000 3.458320 
# 
# 
# High freq. dielectric constant tensor:
#      x y z
#    x 1.727720 0.000000 0.000000 
#    y 0.000000 1.730000 0.000000 
#    z 0.000000 0.000000 1.749310 
# 
# From -- ./inp_files/24687.got.cif
#   From: 2010.03.12/outbox.cif.g09.slc.cpg/sg62_13_cif.got.tgz:24687.got - 2010.04.10 19:12:36.
