data_PCOD8251828
_publ_section_title
;
Structure prediction by ZEFSAII (Michael W. Deem and Ramdas Pophale) SiO2 
 PCOD8251828
Probable space group: P N M A
;
_chemical_formula_sum "Si O2"
_cell_formula_units_Z 56
_cell_length_a 20.429995
_cell_length_b 9.647116
_cell_length_c 14.407736
_cell_angle_alpha 90.000000
_cell_angle_beta 90.000000
_cell_angle_gamma 90.000000
_cell_volume 2839.628348
_symmetry_space_group_name_H-M "P N M A"
_symmetry_group_IT_number 62
_symmetry_cell_setting 'orthorhombic'
loop_
_space_group_symop_operation_xyz
x,y,z
1/2-x,-y,1/2+z
1/2+x,1/2-y,1/2-z
-x,1/2+y,-z
-x,-y,-z
1/2+x,y,1/2-z
1/2-x,1/2+y,1/2+z
x,1/2-y,z
loop_
_atom_site_type_symbol
_atom_site_label
_atom_site_fract_x
_atom_site_fract_y
_atom_site_fract_z
Si Si1 0.281584 0.912426 0.862804
Si Si2 0.160304 0.911315 0.732104
Si Si3 0.711582 0.094326 0.921621
Si Si4 0.404191 0.095391 0.800572
Si Si5 0.547611 0.098523 0.447118
Si Si6 0.854641 0.102168 0.898734
Si Si7 0.487840 0.097427 0.246183
O O1 0.296767 0.750000 0.844145
O O2 0.214854 0.957271 0.808514
O O3 0.342923 0.004481 0.833022
O O4 0.273466 0.943582 0.971800
O O5 0.168940 0.750000 0.711365
O O6 0.087120 0.948248 0.767298
O O7 0.164912 0.989253 0.632767
O O8 0.682896 0.250000 0.913362
O O9 0.780334 0.078582 0.868108
O O10 0.405972 0.250000 0.847650
O O11 0.399453 0.117066 0.691179
O O12 0.472623 0.012192 0.819185
O O13 0.550630 0.250000 0.494141
O O14 0.526099 0.112229 0.341744
O O15 0.500000 0.000000 0.500000
O O16 0.619153 0.027864 0.457601
O O17 0.859636 0.250000 0.954828
O O18 0.487858 0.250000 0.197658
#
# Coordination Sequence:
#
# PCOD8251828 Si02
#       7
#     8   8   8   8   8   8   8
#     4  10  21  36  59  85 114 152 190 226 282 348
#     4  10  21  38  60  85 114 148 189 237 282 335
#     4  10  21  37  58  84 115 150 186 233 287 338
#     4  10  19  35  58  83 111 146 187 234 280 327
#     4  10  20  32  50  76 109 145 184 226 275 335
#     4   9  18  33  53  75 107 145 180 222 275 330
#     4   9  20  37  57  79 109 150 191 233 284 340
#
# _framework density 19.720891000000002
#
# number of rings (size 3 to 8) (size 9 to 14) (size 15 to 20)
#    0.000    2.286    1.429    0.857    2.000    2.857 
#    0.000    0.714    0.000    0.000    0.000    0.000 
#    0.000    0.000    0.000    0.000    0.000    0.000 
#
# Total GULP energy -693764.283918 kJ/mol
# GULP energy per Si atom -12388.647927 kJ/mol
# Density = 1.967600 g / cm^3
# Si number density = 19.720891 Si / 1000 Ang^3
#
#
#
# Elastic Constant Matrix: (Units=GPa)
#
#
# Indices 1 2 3 4 5 6 
#
# 1 105.1223 55.2619 16.8581 0.0000 0.0000 0.0000
# 2 55.2619 120.8084 24.7037 0.0000 0.0000 0.0000
# 3 16.8581 24.7037 42.5839 0.0000 0.0000 0.0000
# 4 0.0000 0.0000 0.0000 27.2709 0.0000 0.0000
# 5 0.0000 0.0000 0.0000 0.0000 21.0493 0.0000
# 6 0.0000 0.0000 0.0000 0.0000 0.0000 30.7391
#
#
#
# Elastic Compliance Matrix: (Units=1/GPa)
#
#
# Indices 1 2 3 4 5 6 
#
# 1 0.012655 -0.005406 -0.001874 0.000000 0.000000 0.000000
# 2 -0.005406 0.011701 -0.004648 0.000000 0.000000 0.000000
# 3 -0.001874 -0.004648 0.026921 0.000000 0.000000 0.000000
# 4 0.000000 0.000000 0.000000 0.036669 0.000000 0.000000
# 5 0.000000 0.000000 0.000000 0.000000 0.047507 0.000000
# 6 0.000000 0.000000 0.000000 0.000000 0.000000 0.032532
#
#
# Mechanical properties :
#
#
# Convention : Reuss Voigt Hill
#
# Bulk Modulus (GPa) = 36.46693 51.35133 43.90913
# Shear Modulus (GPa) = 24.87801 27.25792 26.06796
#
# Velocity S-wave (km/s) = 3.55562 3.72181 3.63966
# Velocity P-wave (km/s) = 5.94880 6.67568 6.32270
#
# Compressibility (1/GPa) = 0.02742210
#
# Stress axis : x y z
#
# Youngs Moduli (GPa) = 79.02059 85.46499 37.14541
#
# Poissons Ratio (x) = 0.46199 0.06961
# Poissons Ratio (y) = 0.42715 0.17265
# Poissons Ratio (z) = 0.14808 0.39723
#
# Static dielectric constant tensor:
#      x y z
#    x 3.666670 0.000000 0.000000 
#    y 0.000000 4.085120 0.000000 
#    z 0.000000 0.000000 3.258340 
# 
# 
# High freq. dielectric constant tensor:
#      x y z
#    x 1.768570 0.000000 0.000000 
#    y 0.000000 1.780750 0.000000 
#    z 0.000000 0.000000 1.727650 
# 
# From -- ./inp_files/20404.got.cif
#   From: 2010.03.12/outbox.cif.g09.slc.cpg/sg62_11_cif.got.tgz:20404.got - 2010.04.10 19:12:36.
