data_PCOD8251717
_publ_section_title
;
Structure prediction by ZEFSAII (Michael W. Deem and Ramdas Pophale) SiO2 
 PCOD8251717
Probable space group: P N M A
;
_chemical_formula_sum "Si O2"
_cell_formula_units_Z 64
_cell_length_a 18.438400
_cell_length_b 11.525266
_cell_length_c 15.026218
_cell_angle_alpha 90.000000
_cell_angle_beta 90.000000
_cell_angle_gamma 90.000000
_cell_volume 3193.183490
_symmetry_space_group_name_H-M "P N M A"
_symmetry_group_IT_number 62
_symmetry_cell_setting 'orthorhombic'
loop_
_space_group_symop_operation_xyz
x,y,z
1/2-x,-y,1/2+z
1/2+x,1/2-y,1/2-z
-x,1/2+y,-z
-x,-y,-z
1/2+x,y,1/2-z
1/2-x,1/2+y,1/2+z
x,1/2-y,z
loop_
_atom_site_type_symbol
_atom_site_label
_atom_site_fract_x
_atom_site_fract_y
_atom_site_fract_z
Si Si1 0.182544 0.035536 0.511864
Si Si2 0.757590 0.115073 0.328401
Si Si3 0.029063 0.381230 0.545842
Si Si4 0.374517 0.463230 0.679060
Si Si5 0.339102 0.982796 0.320612
Si Si6 0.484678 0.618117 0.250137
Si Si7 0.162654 0.877992 0.987776
Si Si8 0.192744 0.623980 0.353278
O O1 0.116290 0.114211 0.544183
O O2 0.250018 0.117866 0.490102
O O3 0.205599 0.945464 0.587623
O O4 0.158691 0.968304 0.421883
O O5 0.763404 0.250000 0.343892
O O6 0.800569 0.080939 0.239398
O O7 0.671784 0.082619 0.320160
O O8 0.007783 0.250000 0.507083
O O9 0.999758 0.386192 0.645587
O O10 0.000000 0.500000 0.500000
O O11 0.459969 0.472421 0.702334
O O12 0.370634 0.406728 0.582776
O O13 0.340030 0.381644 0.754531
O O14 0.369352 0.038060 0.411878
O O15 0.403351 0.922000 0.268133
O O16 0.279611 0.887296 0.346549
O O17 0.495723 0.750000 0.285450
O O18 0.138131 0.750000 0.961312
O O19 0.174958 0.750000 0.392609
#
# Coordination Sequence:
#
# PCOD8251717 Si02
#       8
#     8   8   8   8   8   8   8   8
#     4  10  20  36  60  88 115 152 201 252 306 368
#     4  10  20  38  60  84 118 155 200 257 313 370
#     4  11  24  41  61  91 128 167 207 252 310 375
#     4  10  22  37  57  84 113 154 202 244 302 363
#     4  10  21  36  56  86 117 154 204 246 310 364
#     4  11  22  40  61  85 123 161 203 257 305 362
#     4  10  20  36  58  83 113 150 196 251 304 358
#     4  10  19  34  58  86 116 152 202 256 305 362
#
# _framework density 20.042693
#
# number of rings (size 3 to 8) (size 9 to 14) (size 15 to 20)
#    0.000    1.750    1.250    3.375    0.000    2.500 
#    0.000    6.875    0.000    0.000    0.000    0.000 
#    0.000    0.000    0.000    0.000    0.000    0.000 
#
# Total GULP energy -793256.061149 kJ/mol
# GULP energy per Si atom -12394.625955 kJ/mol
# Density = 1.999708 g / cm^3
# Si number density = 20.042693 Si / 1000 Ang^3
#
#
#
# Elastic Constant Matrix: (Units=GPa)
#
#
# Indices 1 2 3 4 5 6 
#
# 1 62.1028 18.1773 7.0406 0.0000 0.0000 0.0000
# 2 18.1773 103.9412 28.8322 0.0000 0.0000 0.0000
# 3 7.0406 28.8322 96.1462 0.0000 0.0000 0.0000
# 4 0.0000 0.0000 0.0000 13.5259 0.0000 0.0000
# 5 0.0000 0.0000 0.0000 0.0000 32.3171 0.0000
# 6 0.0000 0.0000 0.0000 0.0000 0.0000 15.7780
#
#
#
# Elastic Compliance Matrix: (Units=1/GPa)
#
#
# Indices 1 2 3 4 5 6 
#
# 1 0.016984 -0.002863 -0.000385 0.000000 0.000000 0.000000
# 2 -0.002863 0.010976 -0.003082 0.000000 0.000000 0.000000
# 3 -0.000385 -0.003082 0.011353 0.000000 0.000000 0.000000
# 4 0.000000 0.000000 0.000000 0.073932 0.000000 0.000000
# 5 0.000000 0.000000 0.000000 0.000000 0.030943 0.000000
# 6 0.000000 0.000000 0.000000 0.000000 0.000000 0.063379
#
#
# Mechanical properties :
#
#
# Convention : Reuss Voigt Hill
#
# Bulk Modulus (GPa) = 37.51912 41.14339 39.33126
# Shear Modulus (GPa) = 21.82320 26.20020 24.01170
#
# Velocity S-wave (km/s) = 3.30333 3.61947 3.46501
# Velocity P-wave (km/s) = 5.77144 6.16765 5.97283
#
# Compressibility (1/GPa) = 0.02665307
#
# Stress axis : x y z
#
# Youngs Moduli (GPa) = 58.87861 91.10395 88.08069
#
# Poissons Ratio (x) = 0.26087 0.03392
# Poissons Ratio (y) = 0.16859 0.27146
# Poissons Ratio (z) = 0.02267 0.28078
#
# Static dielectric constant tensor:
#      x y z
#    x 3.637410 0.000000 0.000000 
#    y 0.000000 3.585610 0.000000 
#    z 0.000000 0.000000 3.715880 
# 
# 
# High freq. dielectric constant tensor:
#      x y z
#    x 1.776030 0.000000 0.000000 
#    y 0.000000 1.770850 0.000000 
#    z 0.000000 0.000000 1.790280 
# 
# From -- ./inp_files/19893.got.cif
#   From: 2010.03.12/outbox.cif.g09.slc.cpg/sg62_10_cif.got.tgz:19893.got - 2010.04.10 19:12:36.
