data_PCOD8251913
_publ_section_title
;
Structure prediction by ZEFSAII (Michael W. Deem and Ramdas Pophale) SiO2 
 PCOD8251913
Probable space group: P N M A
;
_chemical_formula_sum "Si O2"
_cell_formula_units_Z 24
_cell_length_a 8.650402
_cell_length_b 7.744346
_cell_length_c 18.388467
_cell_angle_alpha 90.000000
_cell_angle_beta 90.000000
_cell_angle_gamma 90.000000
_cell_volume 1231.874777
_symmetry_space_group_name_H-M "P N M A"
_symmetry_group_IT_number 62
_symmetry_cell_setting 'orthorhombic'
loop_
_space_group_symop_operation_xyz
x,y,z
1/2-x,-y,1/2+z
1/2+x,1/2-y,1/2-z
-x,1/2+y,-z
-x,-y,-z
1/2+x,y,1/2-z
1/2-x,1/2+y,1/2+z
x,1/2-y,z
loop_
_atom_site_type_symbol
_atom_site_label
_atom_site_fract_x
_atom_site_fract_y
_atom_site_fract_z
Si Si1 0.890901 0.940060 0.412817
Si Si2 0.296977 0.250000 0.695291
Si Si3 0.851354 0.750000 0.153289
Si Si4 0.785639 0.555567 0.567376
O O1 0.956912 0.750000 0.434081
O O2 0.778421 0.921953 0.342448
O O3 0.795029 0.005588 0.483000
O O4 0.041661 0.055421 0.396963
O O5 0.478628 0.250000 0.685369
O O6 0.270372 0.250000 0.780940
O O7 0.829001 0.576597 0.106743
O O8 0.718587 0.750000 0.574928
#
# Coordination Sequence:
#
# PCOD8251913 Si02
#       4
#     8   4   4   8
#     4   8  17  37  58  86 113 151 192 227 288 347
#     4  10  22  40  60  82 119 160 193 236 300 350
#     4  12  22  38  62  80 121 158 191 244 294 340
#     4  10  19  35  62  89 115 149 196 235 286 350
#
# _framework density 19.482498
#
# number of rings (size 3 to 8) (size 9 to 14) (size 15 to 20)
#    1.000    1.333    1.667    2.000    2.333    1.333 
#    0.000    8.333    0.000    0.000    0.000    0.000 
#    0.000    0.000    0.000    0.000    0.000    0.000 
#
# Total GULP energy -297384.130164 kJ/mol
# GULP energy per Si atom -12391.005424 kJ/mol
# Density = 1.943815 g / cm^3
# Si number density = 19.482498 Si / 1000 Ang^3
#
#
#
# Elastic Constant Matrix: (Units=GPa)
#
#
# Indices 1 2 3 4 5 6 
#
# 1 41.0738 8.7246 -10.2682 0.0000 0.0000 0.0000
# 2 8.7246 69.1496 11.8245 0.0000 0.0000 0.0000
# 3 -10.2682 11.8245 50.6749 0.0000 0.0000 0.0000
# 4 0.0000 0.0000 0.0000 25.4517 0.0000 0.0000
# 5 0.0000 0.0000 0.0000 0.0000 36.0301 0.0000
# 6 0.0000 0.0000 0.0000 0.0000 0.0000 26.0026
#
#
#
# Elastic Compliance Matrix: (Units=1/GPa)
#
#
# Indices 1 2 3 4 5 6 
#
# 1 0.026932 -0.004511 0.006510 0.000000 0.000000 0.000000
# 2 -0.004511 0.015818 -0.004605 0.000000 0.000000 0.000000
# 3 0.006510 -0.004605 0.022127 0.000000 0.000000 0.000000
# 4 0.000000 0.000000 0.000000 0.039290 0.000000 0.000000
# 5 0.000000 0.000000 0.000000 0.000000 0.027755 0.000000
# 6 0.000000 0.000000 0.000000 0.000000 0.000000 0.038458
#
#
# Mechanical properties :
#
#
# Convention : Reuss Voigt Hill
#
# Bulk Modulus (GPa) = 16.76037 20.16224 18.46131
# Shear Modulus (GPa) = 25.57796 27.53804 26.55800
#
# Velocity S-wave (km/s) = 3.62728 3.76370 3.69612
# Velocity P-wave (km/s) = 5.11511 5.40912 5.26417
#
# Compressibility (1/GPa) = 0.05966454
#
# Stress axis : x y z
#
# Youngs Moduli (GPa) = 37.13040 63.21896 45.19313
#
# Poissons Ratio (x) = 0.28519 -0.29420
# Poissons Ratio (y) = 0.16750 0.20812
# Poissons Ratio (z) = -0.24171 0.29113
#
# Static dielectric constant tensor:
#      x y z
#    x 3.207860 0.000000 0.000000 
#    y 0.000000 3.366920 0.000000 
#    z 0.000000 0.000000 3.459900 
# 
# 
# High freq. dielectric constant tensor:
#      x y z
#    x 1.740240 0.000000 0.000000 
#    y 0.000000 1.735150 0.000000 
#    z 0.000000 0.000000 1.751670 
# 
# From -- ./inp_files/21748.got.cif
#   From: 2010.03.12/outbox.cif.g09.slc.cpg/sg62_11_cif.got.tgz:21748.got - 2010.04.10 19:12:36.
