data_PCOD8251273
_publ_section_title
;
Structure prediction by ZEFSAII (Michael W. Deem and Ramdas Pophale) SiO2 
 PCOD8251273
Probable space group: P N M A
;
_chemical_formula_sum "Si O2"
_cell_formula_units_Z 64
_cell_length_a 11.866777
_cell_length_b 9.339180
_cell_length_c 29.230384
_cell_angle_alpha 90.000000
_cell_angle_beta 90.000000
_cell_angle_gamma 90.000000
_cell_volume 3239.485556
_symmetry_space_group_name_H-M "P N M A"
_symmetry_group_IT_number 62
_symmetry_cell_setting 'orthorhombic'
loop_
_space_group_symop_operation_xyz
x,y,z
1/2-x,-y,1/2+z
1/2+x,1/2-y,1/2-z
-x,1/2+y,-z
-x,-y,-z
1/2+x,y,1/2-z
1/2-x,1/2+y,1/2+z
x,1/2-y,z
loop_
_atom_site_type_symbol
_atom_site_label
_atom_site_fract_x
_atom_site_fract_y
_atom_site_fract_z
Si Si1 0.767913 0.915565 0.031175
Si Si2 0.635603 0.589171 0.156961
Si Si3 0.694310 0.583108 0.936517
Si Si4 0.991592 0.913401 0.810121
Si Si5 0.022297 0.909604 0.435433
Si Si6 0.553983 0.418419 0.775926
Si Si7 0.739561 0.918631 0.834470
Si Si8 0.832753 0.085712 0.114451
O O1 0.792403 0.750000 0.042583
O O2 0.638797 0.955710 0.041426
O O3 0.845456 0.009315 0.064971
O O4 0.785906 0.950312 0.977059
O O5 0.686489 0.750000 0.158289
O O6 0.537678 0.579835 0.119115
O O7 0.571111 0.551101 0.203906
O O8 0.736282 0.480472 0.146931
O O9 0.669801 0.750000 0.935471
O O10 0.576270 0.513706 0.950933
O O11 0.738475 0.529451 0.887486
O O12 0.004337 0.750000 0.792887
O O13 0.048672 0.930766 0.859807
O O14 0.861623 0.956387 0.814645
O O15 0.054873 0.017069 0.774822
O O16 0.987827 0.750000 0.450223
O O17 0.580720 0.250000 0.774099
O O18 0.649227 0.494329 0.805725
O O19 0.713141 0.750000 0.830980
O O20 0.800974 0.250000 0.105844
#
# Coordination Sequence:
#
# PCOD8251273 Si02
#       8
#     8   8   8   8   8   8   8   8
#     4   9  19  34  52  79 116 152 189 234 290 343
#     4   9  19  35  54  81 116 148 178 228 288 337
#     4  10  19  32  54  82 111 150 193 234 284 341
#     4  10  24  43  60  82 115 153 194 241 288 339
#     4   9  16  29  48  74 114 150 176 225 284 334
#     4  11  23  39  61  88 116 146 187 237 291 349
#     4  10  22  41  62  85 118 154 192 238 289 346
#     4  10  21  37  58  82 110 150 198 239 278 334
#
# _framework density 19.756224
#
# number of rings (size 3 to 8) (size 9 to 14) (size 15 to 20)
#    0.000    2.250    1.250    1.875    1.750    5.000 
#    0.000    0.625    0.000    0.000    0.000    0.000 
#    0.000    0.000    0.000    0.000    0.000    0.000 
#
# Total GULP energy -793466.123720 kJ/mol
# GULP energy per Si atom -12397.908183 kJ/mol
# Density = 1.971126 g / cm^3
# Si number density = 19.756224 Si / 1000 Ang^3
#
#
#
# Elastic Constant Matrix: (Units=GPa)
#
#
# Indices 1 2 3 4 5 6 
#
# 1 53.9935 39.1278 27.1459 0.0000 0.0000 0.0000
# 2 39.1278 83.2602 49.3041 0.0000 0.0000 0.0000
# 3 27.1459 49.3041 117.5887 0.0000 0.0000 0.0000
# 4 0.0000 0.0000 0.0000 28.1506 0.0000 0.0000
# 5 0.0000 0.0000 0.0000 0.0000 16.1055 0.0000
# 6 0.0000 0.0000 0.0000 0.0000 0.0000 19.2037
#
#
#
# Elastic Compliance Matrix: (Units=1/GPa)
#
#
# Indices 1 2 3 4 5 6 
#
# 1 0.028227 -0.012513 -0.001270 0.000000 0.000000 0.000000
# 2 -0.012513 0.021525 -0.006136 0.000000 0.000000 0.000000
# 3 -0.001270 -0.006136 0.011370 0.000000 0.000000 0.000000
# 4 0.000000 0.000000 0.000000 0.035523 0.000000 0.000000
# 5 0.000000 0.000000 0.000000 0.000000 0.062091 0.000000
# 6 0.000000 0.000000 0.000000 0.000000 0.000000 0.052073
#
#
# Mechanical properties :
#
#
# Convention : Reuss Voigt Hill
#
# Bulk Modulus (GPa) = 46.98482 53.99978 50.49230
# Shear Modulus (GPa) = 19.39915 21.97627 20.68771
#
# Velocity S-wave (km/s) = 3.13697 3.33884 3.23948
# Velocity P-wave (km/s) = 6.07904 6.50048 6.29329
#
# Compressibility (1/GPa) = 0.02128347
#
# Stress axis : x y z
#
# Youngs Moduli (GPa) = 35.42675 46.45752 87.94841
#
# Poissons Ratio (x) = 0.58135 0.11166
# Poissons Ratio (y) = 0.44331 0.53970
# Poissons Ratio (z) = 0.04498 0.28509
#
# Static dielectric constant tensor:
#      x y z
#    x 3.256790 0.000000 0.000000 
#    y 0.000000 3.544720 0.000000 
#    z 0.000000 0.000000 3.895900 
# 
# 
# High freq. dielectric constant tensor:
#      x y z
#    x 1.742100 0.000000 0.000000 
#    y 0.000000 1.766310 0.000000 
#    z 0.000000 0.000000 1.782820 
# 
# From -- ./inp_files/32492.got.cif
#   From: 2010.03.12/outbox.cif.g09.slc.cpg/sg62_17_cif.got.tgz:32492.got - 2010.04.10 19:12:36.
