data_PCOD8251772
_publ_section_title
;
Structure prediction by ZEFSAII (Michael W. Deem and Ramdas Pophale) SiO2 
 PCOD8251772
Probable space group: P N M A
;
_chemical_formula_sum "Si O2"
_cell_formula_units_Z 40
_cell_length_a 22.985885
_cell_length_b 8.935557
_cell_length_c 10.348929
_cell_angle_alpha 90.000000
_cell_angle_beta 90.000000
_cell_angle_gamma 90.000000
_cell_volume 2125.583972
_symmetry_space_group_name_H-M "P N M A"
_symmetry_group_IT_number 62
_symmetry_cell_setting 'orthorhombic'
loop_
_space_group_symop_operation_xyz
x,y,z
1/2-x,-y,1/2+z
1/2+x,1/2-y,1/2-z
-x,1/2+y,-z
-x,-y,-z
1/2+x,y,1/2-z
1/2-x,1/2+y,1/2+z
x,1/2-y,z
loop_
_atom_site_type_symbol
_atom_site_label
_atom_site_fract_x
_atom_site_fract_y
_atom_site_fract_z
Si Si1 0.616725 0.425568 0.734583
Si Si2 0.696786 0.073857 0.494308
Si Si3 0.821612 0.926943 0.497265
Si Si4 0.120265 0.072738 0.242640
Si Si5 0.497528 0.072578 0.360162
O O1 0.602219 0.250000 0.731381
O O2 0.660935 0.469800 0.621481
O O3 0.557534 0.516860 0.719937
O O4 0.644926 0.477239 0.868840
O O5 0.706797 0.250000 0.485231
O O6 0.661856 0.010797 0.370747
O O7 0.758190 0.995156 0.500161
O O8 0.814978 0.750000 0.502812
O O9 0.857797 0.989097 0.619749
O O10 0.122920 0.250000 0.239967
O O11 0.054373 0.019487 0.218919
O O12 0.495685 0.250000 0.377128
O O13 0.500000 0.000000 0.500000
#
# Coordination Sequence:
#
# PCOD8251772 Si02
#       5
#     8   8   8   8   8
#     4  10  21  37  56  82 114 144 178 229 277 316
#     4  10  19  35  56  77 111 149 181 223 270 317
#     4  10  21  36  55  81 112 145 182 222 270 326
#     4   9  19  36  56  78 110 146 176 220 277 321
#     4  11  21  37  60  82 107 143 187 227 274 331
#
# _framework density 18.818359000000001
#
# number of rings (size 3 to 8) (size 9 to 14) (size 15 to 20)
#    0.000    2.000    2.000    1.800    0.000    2.400 
#    0.000    2.000    0.000    0.000    0.000    0.000 
#    0.000    0.000    0.000    0.000    0.000    0.000 
#
# Total GULP energy -496103.578299 kJ/mol
# GULP energy per Si atom -12402.589457 kJ/mol
# Density = 1.877553 g / cm^3
# Si number density = 18.818359 Si / 1000 Ang^3
#
#
#
# Elastic Constant Matrix: (Units=GPa)
#
#
# Indices 1 2 3 4 5 6 
#
# 1 187.0972 42.8001 95.7146 0.0000 0.0000 0.0000
# 2 42.8001 31.7488 29.3645 0.0000 0.0000 0.0000
# 3 95.7146 29.3645 183.0399 0.0000 0.0000 0.0000
# 4 0.0000 0.0000 0.0000 9.2734 0.0000 0.0000
# 5 0.0000 0.0000 0.0000 0.0000 -551.0497 0.0000
# 6 0.0000 0.0000 0.0000 0.0000 0.0000 38.0285
#
#
#
# Elastic Compliance Matrix: (Units=1/GPa)
#
#
# Indices 1 2 3 4 5 6 
#
# 1 0.009158 -0.009296 -0.003298 0.000000 0.000000 0.000000
# 2 -0.009296 0.046421 -0.002586 0.000000 0.000000 0.000000
# 3 -0.003298 -0.002586 0.007603 0.000000 0.000000 0.000000
# 4 0.000000 0.000000 0.000000 0.107835 0.000000 0.000000
# 5 0.000000 0.000000 0.000000 0.000000 -0.001815 0.000000
# 6 0.000000 0.000000 0.000000 0.000000 0.000000 0.026296
#
#
# Mechanical properties :
#
#
# Convention : Reuss Voigt Hill
#
# Bulk Modulus (GPa) = 30.46720 81.96048 56.21384
# Shear Modulus (GPa) = 21.11490 -85.14911 -32.01711
#
# Velocity S-wave (km/s) = 3.35332 -6.73395 -4.12925
# Velocity P-wave (km/s) = 5.58733 4.10042 2.68373
#
# Compressibility (1/GPa) = 0.03282218
#
# Stress axis : x y z
#
# Youngs Moduli (GPa) = 109.18846 21.54186 131.53385
#
# Poissons Ratio (x) = 0.20026 0.43377
# Poissons Ratio (y) = 1.01505 0.34015
# Poissons Ratio (z) = 0.36008 0.05571
#
# Static dielectric constant tensor:
#      x y z
#    x 3.604670 0.000000 0.000000 
#    y 0.000000 3.333340 0.000000 
#    z 0.000000 0.000000 4.024770 
# 
# 
# High freq. dielectric constant tensor:
#      x y z
#    x 1.746350 0.000000 0.000000 
#    y 0.000000 1.706560 0.000000 
#    z 0.000000 0.000000 1.744530 
# 
# From -- ./inp_files/8473.got.cif
#   From: 2010.03.12/outbox.cif.g09.slc.cpg/sg62_5_cif.got.tgz:8473.got - 2010.04.10 19:12:36.
