data_PCOD8251815
_publ_section_title
;
Structure prediction by ZEFSAII (Michael W. Deem and Ramdas Pophale) SiO2 
 PCOD8251815
Probable space group: P N M A
;
_chemical_formula_sum "Si O2"
_cell_formula_units_Z 56
_cell_length_a 17.030052
_cell_length_b 13.511122
_cell_length_c 12.612711
_cell_angle_alpha 90.000000
_cell_angle_beta 90.000000
_cell_angle_gamma 90.000000
_cell_volume 2902.123128
_symmetry_space_group_name_H-M "P N M A"
_symmetry_group_IT_number 62
_symmetry_cell_setting 'orthorhombic'
loop_
_space_group_symop_operation_xyz
x,y,z
1/2-x,-y,1/2+z
1/2+x,1/2-y,1/2-z
-x,1/2+y,-z
-x,-y,-z
1/2+x,y,1/2-z
1/2-x,1/2+y,1/2+z
x,1/2-y,z
loop_
_atom_site_type_symbol
_atom_site_label
_atom_site_fract_x
_atom_site_fract_y
_atom_site_fract_z
Si Si1 0.082229 0.865985 0.485042
Si Si2 0.186421 0.139220 0.497838
Si Si3 0.278448 0.455672 0.875045
Si Si4 0.321927 0.139139 0.663632
Si Si5 0.445699 0.958899 0.133443
Si Si6 0.959613 0.362948 0.984473
Si Si7 0.904232 0.533974 0.121525
O O1 0.065521 0.750000 0.504691
O O2 0.173287 0.881545 0.452181
O O3 0.031402 0.911660 0.387807
O O4 0.060624 0.927658 0.591399
O O5 0.174494 0.250000 0.454705
O O6 0.265539 0.128472 0.563857
O O7 0.113721 0.111475 0.571203
O O8 0.193828 0.067848 0.396827
O O9 0.297252 0.438345 0.752380
O O10 0.186617 0.440735 0.896886
O O11 0.317592 0.250000 0.711898
O O12 0.408581 0.115170 0.620991
O O13 0.426889 0.954695 0.256491
O O14 0.953936 0.250000 0.020280
O O15 0.048522 0.389748 0.953087
O O16 0.927174 0.423821 0.084682
#
# Coordination Sequence:
#
# PCOD8251815 Si02
#       7
#     8   8   8   8   8   8   8
#     4  10  22  39  58  86 118 150 191 239 290 338
#     4  10  20  35  58  85 112 148 193 234 277 335
#     4  11  21  35  59  85 119 147 186 241 287 330
#     4  10  19  35  58  81 109 148 187 229 278 329
#     4  10  21  39  61  84 114 153 192 241 283 337
#     4  10  23  40  58  82 115 151 190 233 279 343
#     4  11  22  37  59  86 114 149 191 232 286 340
#
# _framework density 19.296219000000001
#
# number of rings (size 3 to 8) (size 9 to 14) (size 15 to 20)
#    0.000    1.714    2.857    1.714    0.000    4.000 
#    0.000    0.000    0.000    8.571    0.000    0.000 
#    0.000    0.000    0.000    0.000    0.000    0.000 
#
# Total GULP energy -694465.180735 kJ/mol
# GULP energy per Si atom -12401.163942 kJ/mol
# Density = 1.925230 g / cm^3
# Si number density = 19.296219 Si / 1000 Ang^3
#
#
#
# Elastic Constant Matrix: (Units=GPa)
#
#
# Indices 1 2 3 4 5 6 
#
# 1 116.1060 37.5822 25.0053 0.0000 0.0000 0.0000
# 2 37.5822 129.4382 38.1685 0.0000 0.0000 0.0000
# 3 25.0053 38.1685 67.2416 0.0000 0.0000 0.0000
# 4 0.0000 0.0000 0.0000 23.5248 0.0000 0.0000
# 5 0.0000 0.0000 0.0000 0.0000 18.2226 0.0000
# 6 0.0000 0.0000 0.0000 0.0000 0.0000 19.6711
#
#
#
# Elastic Compliance Matrix: (Units=1/GPa)
#
#
# Indices 1 2 3 4 5 6 
#
# 1 0.009830 -0.002133 -0.002445 0.000000 0.000000 0.000000
# 2 -0.002133 0.009742 -0.004736 0.000000 0.000000 0.000000
# 3 -0.002445 -0.004736 0.018469 0.000000 0.000000 0.000000
# 4 0.000000 0.000000 0.000000 0.042508 0.000000 0.000000
# 5 0.000000 0.000000 0.000000 0.000000 0.054877 0.000000
# 6 0.000000 0.000000 0.000000 0.000000 0.000000 0.050836
#
#
# Mechanical properties :
#
#
# Convention : Reuss Voigt Hill
#
# Bulk Modulus (GPa) = 51.51324 57.14419 54.32872
# Shear Modulus (GPa) = 23.65616 26.41902 25.03759
#
# Velocity S-wave (km/s) = 3.50515 3.70419 3.60604
# Velocity P-wave (km/s) = 6.56776 6.92627 6.74939
#
# Compressibility (1/GPa) = 0.01941248
#
# Stress axis : x y z
#
# Youngs Moduli (GPa) = 101.73161 102.65108 54.14377
#
# Poissons Ratio (x) = 0.21898 0.13236
# Poissons Ratio (y) = 0.21702 0.25645
# Poissons Ratio (z) = 0.24869 0.48620
#
# Static dielectric constant tensor:
#      x y z
#    x 3.808040 0.000000 0.000000 
#    y 0.000000 3.598840 0.000000 
#    z 0.000000 0.000000 3.279840 
# 
# 
# High freq. dielectric constant tensor:
#      x y z
#    x 1.771520 0.000000 0.000000 
#    y 0.000000 1.748580 0.000000 
#    z 0.000000 0.000000 1.731540 
# 
# From -- ./inp_files/13371.got.cif
#   From: 2010.03.12/outbox.cif.g09.slc.cpg/sg62_7_cif.got.tgz:13371.got - 2010.04.10 19:12:36.
