data_PCOD8251928
_publ_section_title
;
Structure prediction by ZEFSAII (Michael W. Deem and Ramdas Pophale) SiO2 
 PCOD8251928
Probable space group: P N M A
;
_chemical_formula_sum "Si O2"
_cell_formula_units_Z 56
_cell_length_a 15.443186
_cell_length_b 23.971489
_cell_length_c 8.194931
_cell_angle_alpha 90.000000
_cell_angle_beta 90.000000
_cell_angle_gamma 90.000000
_cell_volume 3033.732015
_symmetry_space_group_name_H-M "P N M A"
_symmetry_group_IT_number 62
_symmetry_cell_setting 'orthorhombic'
loop_
_space_group_symop_operation_xyz
x,y,z
1/2-x,-y,1/2+z
1/2+x,1/2-y,1/2-z
-x,1/2+y,-z
-x,-y,-z
1/2+x,y,1/2-z
1/2-x,1/2+y,1/2+z
x,1/2-y,z
loop_
_atom_site_type_symbol
_atom_site_label
_atom_site_fract_x
_atom_site_fract_y
_atom_site_fract_z
Si Si1 0.360366 0.184722 0.195995
Si Si2 0.351421 0.435258 0.802030
Si Si3 0.213754 0.372341 0.001489
Si Si4 0.713754 0.627658 0.498510
Si Si5 1.000000 0.119125 0.499999
Si Si6 0.860366 0.684721 0.304006
Si Si7 0.648579 0.064742 0.197970
O O1 0.374852 0.250000 0.211441
O O2 0.277209 0.172878 0.083325
O O3 0.347738 0.159176 0.375084
O O4 0.445943 0.158404 0.119461
O O5 0.347962 0.400462 0.634938
O O6 0.348906 0.500000 0.759582
O O7 0.269082 0.420636 0.914066
O O8 0.439801 0.421045 0.893781
O O9 0.152040 0.400462 0.134939
O O10 0.152261 0.340822 0.875086
O O11 0.777209 0.672877 0.416673
O O12 0.769083 0.579363 0.585929
O O13 0.054057 0.158402 0.619463
O O14 0.060198 0.078955 0.393776
O O15 0.874853 0.750000 0.288566
#
# Coordination Sequence:
#
# PCOD8251928 Si02
#       7
#     8   8   8   8   8   8   8
#     4  10  19  36  55  77 106 137 169 216 259 300
#     4  10  19  36  55  77 106 137 169 216 259 300
#     4   9  20  34  56  81 100 132 182 211 250 314
#     4   9  20  34  56  81 100 132 182 211 250 314
#     4  10  22  34  52  80 108 136 174 206 256 320
#     4  10  19  36  55  77 106 137 169 216 259 300
#     4  10  19  36  55  77 106 137 169 216 259 300
#
# _framework density 18.459112999999999
#
# number of rings (size 3 to 8) (size 9 to 14) (size 15 to 20)
#    0.000    2.286    0.000    2.571    0.000    1.143 
#    0.000   11.429    0.000    0.000    0.000    0.000 
#    0.000    0.000    0.000    0.000    0.000    0.000 
#
# Total GULP energy -694661.803882 kJ/mol
# GULP energy per Si atom -12404.675069 kJ/mol
# Density = 1.841710 g / cm^3
# Si number density = 18.459113 Si / 1000 Ang^3
#
#
#
# Elastic Constant Matrix: (Units=GPa)
#
#
# Indices 1 2 3 4 5 6 
#
# 1 22.9752 -3.6745 3.9011 0.0000 0.0000 0.0000
# 2 -3.6745 74.7679 3.5267 0.0000 0.0000 0.0000
# 3 3.9011 3.5267 91.5096 0.0000 0.0000 0.0000
# 4 0.0000 0.0000 0.0000 15.4189 0.0000 0.0000
# 5 0.0000 0.0000 0.0000 0.0000 36.5704 0.0000
# 6 0.0000 0.0000 0.0000 0.0000 0.0000 13.0214
#
#
#
# Elastic Compliance Matrix: (Units=1/GPa)
#
#
# Indices 1 2 3 4 5 6 
#
# 1 0.044223 0.002266 -0.001973 0.000000 0.000000 0.000000
# 2 0.002266 0.013515 -0.000617 0.000000 0.000000 0.000000
# 3 -0.001973 -0.000617 0.011036 0.000000 0.000000 0.000000
# 4 0.000000 0.000000 0.000000 0.064856 0.000000 0.000000
# 5 0.000000 0.000000 0.000000 0.000000 0.027345 0.000000
# 6 0.000000 0.000000 0.000000 0.000000 0.000000 0.076797
#
#
# Mechanical properties :
#
#
# Convention : Reuss Voigt Hill
#
# Bulk Modulus (GPa) = 14.67865 21.86216 18.27040
# Shear Modulus (GPa) = 19.14782 25.36877 22.25829
#
# Velocity S-wave (km/s) = 3.22422 3.71121 3.47625
# Velocity P-wave (km/s) = 4.67227 5.49849 5.10213
#
# Compressibility (1/GPa) = 0.06812617
#
# Stress axis : x y z
#
# Youngs Moduli (GPa) = 22.61288 73.99061 90.61500
#
# Poissons Ratio (x) = -0.16769 0.17874
# Poissons Ratio (y) = -0.05125 0.05595
# Poissons Ratio (z) = 0.04461 0.04569
#
# Static dielectric constant tensor:
#      x y z
#    x 3.314490 0.000000 0.000000 
#    y 0.000000 3.231780 0.000000 
#    z 0.000000 0.000000 3.583260 
# 
# 
# High freq. dielectric constant tensor:
#      x y z
#    x 1.709550 0.000000 0.000000 
#    y 0.000000 1.718110 0.000000 
#    z 0.000000 0.000000 1.730360 
# 
# From -- ./inp_files/6778.got.cif
#   From: 2010.03.12/outbox.cif.g09.slc.cpg/sg62_4_cif.got.tgz:6778.got - 2010.04.10 19:12:36.
