data_PCOD8251292
_publ_section_title
;
Structure prediction by ZEFSAII (Michael W. Deem and Ramdas Pophale) SiO2 
 PCOD8251292
Probable space group: P N M A
;
_chemical_formula_sum "Si O2"
_cell_formula_units_Z 56
_cell_length_a 22.354054
_cell_length_b 8.779721
_cell_length_c 14.227034
_cell_angle_alpha 90.000000
_cell_angle_beta 90.000000
_cell_angle_gamma 90.000000
_cell_volume 2792.231231
_symmetry_space_group_name_H-M "P N M A"
_symmetry_group_IT_number 62
_symmetry_cell_setting 'orthorhombic'
loop_
_space_group_symop_operation_xyz
x,y,z
1/2-x,-y,1/2+z
1/2+x,1/2-y,1/2-z
-x,1/2+y,-z
-x,-y,-z
1/2+x,y,1/2-z
1/2-x,1/2+y,1/2+z
x,1/2-y,z
loop_
_atom_site_type_symbol
_atom_site_label
_atom_site_fract_x
_atom_site_fract_y
_atom_site_fract_z
Si Si1 0.652670 0.073445 0.892705
Si Si2 0.717988 0.076112 0.614097
Si Si3 0.495593 0.571600 0.397771
Si Si4 0.277543 0.575861 0.601040
Si Si5 0.388365 0.427311 0.285321
Si Si6 0.658578 0.075280 0.103290
Si Si7 0.603038 0.424581 0.292810
O O1 0.643703 0.250000 0.870357
O O2 0.722035 0.032252 0.875048
O O3 0.609384 0.978755 0.823696
O O4 0.633974 0.032364 0.999794
O O5 0.707825 0.250000 0.646172
O O6 0.700667 0.053506 0.505511
O O7 0.677228 0.965186 0.675636
O O8 0.786612 0.032468 0.631045
O O9 0.500000 0.500000 0.500000
O O10 0.491566 0.750000 0.411223
O O11 0.436422 0.516482 0.346174
O O12 0.552776 0.532315 0.334743
O O13 0.257406 0.750000 0.619092
O O14 0.332563 0.528486 0.666470
O O15 0.402376 0.250000 0.292541
O O16 0.681430 0.250000 0.103337
O O17 0.605964 0.052623 0.179806
O O18 0.587808 0.250000 0.319091
#
# Coordination Sequence:
#
# PCOD8251292 Si02
#       7
#     8   8   8   8   8   8   8
#     4  10  20  35  56  85 119 153 192 236 281 333
#     4  10  19  32  54  86 121 153 188 233 285 342
#     4  12  26  44  64  87 114 145 185 232 283 340
#     4   9  18  32  54  85 120 154 185 225 281 341
#     4  12  24  39  59  82 112 152 195 238 287 339
#     4   9  19  35  57  86 121 156 190 233 284 339
#     4  10  20  37  59  83 114 153 194 235 283 336
#
# _framework density 20.055644999999998
#
# number of rings (size 3 to 8) (size 9 to 14) (size 15 to 20)
#    0.000    1.714    0.000    5.143    0.000    4.571 
#    0.000    0.714    0.000    0.000    0.000    0.000 
#    0.000    0.000    0.000    0.000    0.000    0.000 
#
# Total GULP energy -694622.354305 kJ/mol
# GULP energy per Si atom -12403.970613 kJ/mol
# Density = 2.001000 g / cm^3
# Si number density = 20.055645 Si / 1000 Ang^3
#
#
#
# Elastic Constant Matrix: (Units=GPa)
#
#
# Indices 1 2 3 4 5 6 
#
# 1 56.9231 39.2710 56.9399 0.0000 0.0000 0.0000
# 2 39.2710 115.2765 51.5330 0.0000 0.0000 0.0000
# 3 56.9399 51.5330 138.3859 0.0000 0.0000 0.0000
# 4 0.0000 0.0000 0.0000 31.9189 0.0000 0.0000
# 5 0.0000 0.0000 0.0000 0.0000 30.0684 0.0000
# 6 0.0000 0.0000 0.0000 0.0000 0.0000 34.9660
#
#
#
# Elastic Compliance Matrix: (Units=1/GPa)
#
#
# Indices 1 2 3 4 5 6 
#
# 1 0.033225 -0.006247 -0.011344 0.000000 0.000000 0.000000
# 2 -0.006247 0.011582 -0.001742 0.000000 0.000000 0.000000
# 3 -0.011344 -0.001742 0.012543 0.000000 0.000000 0.000000
# 4 0.000000 0.000000 0.000000 0.031329 0.000000 0.000000
# 5 0.000000 0.000000 0.000000 0.000000 0.033258 0.000000
# 6 0.000000 0.000000 0.000000 0.000000 0.000000 0.028599
#
#
# Mechanical properties :
#
#
# Convention : Reuss Voigt Hill
#
# Bulk Modulus (GPa) = 53.52845 67.34145 60.43495
# Shear Modulus (GPa) = 25.58438 30.24677 27.91558
#
# Velocity S-wave (km/s) = 3.57553 3.88769 3.73487
# Velocity P-wave (km/s) = 6.61769 7.33501 6.98556
#
# Compressibility (1/GPa) = 0.01868166
#
# Stress axis : x y z
#
# Youngs Moduli (GPa) = 30.09759 86.34067 79.72746
#
# Poissons Ratio (x) = 0.53941 0.90445
# Poissons Ratio (y) = 0.18803 0.13892
# Poissons Ratio (z) = 0.34144 0.15044
#
# Static dielectric constant tensor:
#      x y z
#    x 3.374600 0.000000 0.000000 
#    y 0.000000 3.670410 0.000000 
#    z 0.000000 0.000000 3.733970 
# 
# 
# High freq. dielectric constant tensor:
#      x y z
#    x 1.754100 0.000000 0.000000 
#    y 0.000000 1.784550 0.000000 
#    z 0.000000 0.000000 1.804410 
# 
# From -- ./inp_files/20185.got.cif
#   From: 2010.03.12/outbox.cif.g09.slc.cpg/sg62_11_cif.got.tgz:20185.got - 2010.04.10 19:12:36.
