data_PCOD8251302
_publ_section_title
;
Structure prediction by ZEFSAII (Michael W. Deem and Ramdas Pophale) SiO2 
 PCOD8251302
Probable space group: P N M A
;
_chemical_formula_sum "Si O2"
_cell_formula_units_Z 64
_cell_length_a 21.805893
_cell_length_b 9.117971
_cell_length_c 16.822081
_cell_angle_alpha 90.000000
_cell_angle_beta 90.000000
_cell_angle_gamma 90.000000
_cell_volume 3344.658666
_symmetry_space_group_name_H-M "P N M A"
_symmetry_group_IT_number 62
_symmetry_cell_setting 'orthorhombic'
loop_
_space_group_symop_operation_xyz
x,y,z
1/2-x,-y,1/2+z
1/2+x,1/2-y,1/2-z
-x,1/2+y,-z
-x,-y,-z
1/2+x,y,1/2-z
1/2-x,1/2+y,1/2+z
x,1/2-y,z
loop_
_atom_site_type_symbol
_atom_site_label
_atom_site_fract_x
_atom_site_fract_y
_atom_site_fract_z
Si Si1 0.117689 0.083563 0.280013
Si Si2 0.935783 0.581282 0.418302
Si Si3 0.721774 0.079460 0.344071
Si Si4 0.840344 0.579253 0.285115
Si Si5 0.531724 0.421949 0.362918
Si Si6 0.424363 0.421445 0.926792
Si Si7 0.131786 0.919726 0.042433
Si Si8 0.108630 0.918363 0.861542
O O1 0.110735 0.250000 0.309033
O O2 0.181435 0.058827 0.234860
O O3 0.061508 0.041137 0.222240
O O4 0.118738 0.981139 0.356967
O O5 0.931880 0.750000 0.443697
O O6 0.901604 0.550981 0.335907
O O7 0.904281 0.489580 0.489031
O O8 0.005965 0.531826 0.406588
O O9 0.731366 0.250000 0.363966
O O10 0.786167 0.002608 0.330358
O O11 0.688605 0.004835 0.418894
O O12 0.824079 0.750000 0.278236
O O13 0.850906 0.515313 0.197632
O O14 0.538739 0.250000 0.383125
O O15 0.566851 0.512576 0.430758
O O16 0.461555 0.473389 0.361803
O O17 0.414900 0.250000 0.932420
O O18 0.133663 0.750000 0.068185
O O19 0.138006 0.937018 0.948065
O O20 0.111252 0.750000 0.833064
#
# Coordination Sequence:
#
# PCOD8251302 Si02
#       8
#     8   8   8   8   8   8   8   8
#     4   9  18  33  54  79 108 145 181 222 274 322
#     4   9  20  37  54  78 113 145 174 220 280 329
#     4  10  22  41  60  77 106 148 190 231 280 332
#     4  11  23  39  59  82 109 145 188 235 284 331
#     4   9  18  33  55  84 118 154 187 222 274 333
#     4  10  19  32  55  85 111 139 180 223 267 328
#     4  10  20  35  57  85 115 149 187 229 277 327
#     4  10  21  36  56  85 118 150 184 225 278 338
#
# _framework density 19.134986000000001
#
# number of rings (size 3 to 8) (size 9 to 14) (size 15 to 20)
#    0.000    2.250    0.000    3.375    0.000    5.500 
#    2.250    0.000    0.000    0.000    0.000    0.000 
#    0.000    0.000    0.000    0.000    0.000    0.000 
#
# Total GULP energy -793873.682784 kJ/mol
# GULP energy per Si atom -12404.276293 kJ/mol
# Density = 1.909143 g / cm^3
# Si number density = 19.134986 Si / 1000 Ang^3
#
#
#
# Elastic Constant Matrix: (Units=GPa)
#
#
# Indices 1 2 3 4 5 6 
#
# 1 69.5111 33.9401 17.6037 0.0000 0.0000 0.0000
# 2 33.9401 98.8898 48.2865 0.0000 0.0000 0.0000
# 3 17.6037 48.2865 87.3484 0.0000 0.0000 0.0000
# 4 0.0000 0.0000 0.0000 36.2138 0.0000 0.0000
# 5 0.0000 0.0000 0.0000 0.0000 17.0066 0.0000
# 6 0.0000 0.0000 0.0000 0.0000 0.0000 31.5706
#
#
#
# Elastic Compliance Matrix: (Units=1/GPa)
#
#
# Indices 1 2 3 4 5 6 
#
# 1 0.017287 -0.005797 -0.000280 0.000000 0.000000 0.000000
# 2 -0.005797 0.015795 -0.007563 0.000000 0.000000 0.000000
# 3 -0.000280 -0.007563 0.015686 0.000000 0.000000 0.000000
# 4 0.000000 0.000000 0.000000 0.027614 0.000000 0.000000
# 5 0.000000 0.000000 0.000000 0.000000 0.058801 0.000000
# 6 0.000000 0.000000 0.000000 0.000000 0.000000 0.031675
#
#
# Mechanical properties :
#
#
# Convention : Reuss Voigt Hill
#
# Bulk Modulus (GPa) = 46.53556 50.60110 48.56833
# Shear Modulus (GPa) = 24.83867 27.35280 26.09574
#
# Velocity S-wave (km/s) = 3.60679 3.78493 3.69693
# Velocity P-wave (km/s) = 6.45892 6.75297 6.60758
#
# Compressibility (1/GPa) = 0.02148894
#
# Stress axis : x y z
#
# Youngs Moduli (GPa) = 57.84573 63.31213 63.75242
#
# Poissons Ratio (x) = 0.36700 0.01782
# Poissons Ratio (y) = 0.33532 0.48217
# Poissons Ratio (z) = 0.01617 0.47884
#
# Static dielectric constant tensor:
#      x y z
#    x 3.386840 0.000000 0.000000 
#    y 0.000000 3.518780 0.000000 
#    z 0.000000 0.000000 3.397730 
# 
# 
# High freq. dielectric constant tensor:
#      x y z
#    x 1.731400 0.000000 0.000000 
#    y 0.000000 1.750090 0.000000 
#    z 0.000000 0.000000 1.745200 
# 
# From -- ./inp_files/20841.got.cif
#   From: 2010.03.12/outbox.cif.g09.slc.cpg/sg62_11_cif.got.tgz:20841.got - 2010.04.10 19:12:36.
