data_PCOD8251419
_publ_section_title
;
Structure prediction by ZEFSAII (Michael W. Deem and Ramdas Pophale) SiO2 
 PCOD8251419
Probable space group: P N M A
;
_chemical_formula_sum "Si O2"
_cell_formula_units_Z 64
_cell_length_a 19.816692
_cell_length_b 19.246511
_cell_length_c 9.419566
_cell_angle_alpha 90.000000
_cell_angle_beta 90.000000
_cell_angle_gamma 90.000000
_cell_volume 3592.643012
_symmetry_space_group_name_H-M "P N M A"
_symmetry_group_IT_number 62
_symmetry_cell_setting 'orthorhombic'
loop_
_space_group_symop_operation_xyz
x,y,z
1/2-x,-y,1/2+z
1/2+x,1/2-y,1/2-z
-x,1/2+y,-z
-x,-y,-z
1/2+x,y,1/2-z
1/2-x,1/2+y,1/2+z
x,1/2-y,z
loop_
_atom_site_type_symbol
_atom_site_label
_atom_site_fract_x
_atom_site_fract_y
_atom_site_fract_z
Si Si1 0.193996 0.544010 0.077317
Si Si2 0.996726 0.671051 0.820232
Si Si3 0.796684 0.455054 0.588645
Si Si4 0.650801 0.670060 0.601557
Si Si5 0.534359 0.824365 0.991013
Si Si6 0.048849 0.963853 0.393252
Si Si7 0.442982 0.968775 0.596794
Si Si8 0.189243 0.673803 0.589891
O O1 0.215461 0.548749 0.242235
O O2 0.131889 0.491138 0.050916
O O3 0.254975 0.517426 0.980578
O O4 0.175211 0.621415 0.026949
O O5 0.974852 0.750000 0.859821
O O6 0.072075 0.655835 0.873346
O O7 0.991047 0.659693 0.650527
O O8 0.946922 0.615332 0.894884
O O9 0.874435 0.471025 0.553740
O O10 0.774969 0.382851 0.511625
O O11 0.662761 0.750000 0.556707
O O12 0.694004 0.652438 0.743666
O O13 0.511669 0.750000 0.056155
O O14 0.526200 0.882792 0.111315
O O15 0.611126 0.819512 0.943902
O O16 0.037358 0.997326 0.244140
O O17 0.000000 0.000000 0.500000
O O18 0.500000 0.000000 0.500000
O O19 0.223166 0.750000 0.565887
#
# Coordination Sequence:
#
# PCOD8251419 Si02
#       8
#     8   8   8   8   8   8   8   8
#     4  11  22  36  53  77 112 145 185 225 266 323
#     4   9  16  30  52  78 108 139 174 218 271 326
#     4  10  22  34  51  78 109 145 181 222 270 318
#     4   9  17  31  55  80 103 138 178 222 271 322
#     4   8  14  27  50  77 104 136 175 218 263 313
#     4  10  19  33  54  79 105 137 182 228 271 325
#     4  11  21  33  52  82 110 139 175 223 278 321
#     4   8  15  30  52  77 102 133 177 219 264 321
#
# _framework density 17.814183
#
# number of rings (size 3 to 8) (size 9 to 14) (size 15 to 20)
#    0.000    2.500    2.500    2.250    0.000    1.500 
#    0.000    3.125    0.000    3.750    0.000    1.750 
#    0.000    0.000    0.000    0.000    0.000    0.000 
#
# Total GULP energy -793163.355009 kJ/mol
# GULP energy per Si atom -12393.177422 kJ/mol
# Density = 1.777364 g / cm^3
# Si number density = 17.814183 Si / 1000 Ang^3
#
#
#
# Elastic Constant Matrix: (Units=GPa)
#
#
# Indices 1 2 3 4 5 6 
#
# 1 52.9392 42.9314 39.6270 0.0000 0.0000 0.0000
# 2 42.9314 144.5870 56.1505 0.0000 0.0000 0.0000
# 3 39.6270 56.1505 84.4086 0.0000 0.0000 0.0000
# 4 0.0000 0.0000 0.0000 32.3555 0.0000 0.0000
# 5 0.0000 0.0000 0.0000 0.0000 21.9049 0.0000
# 6 0.0000 0.0000 0.0000 0.0000 0.0000 25.3234
#
#
#
# Elastic Compliance Matrix: (Units=1/GPa)
#
#
# Indices 1 2 3 4 5 6 
#
# 1 0.031471 -0.004863 -0.011540 0.000000 0.000000 0.000000
# 2 -0.004863 0.010077 -0.004420 0.000000 0.000000 0.000000
# 3 -0.011540 -0.004420 0.020205 0.000000 0.000000 0.000000
# 4 0.000000 0.000000 0.000000 0.030907 0.000000 0.000000
# 5 0.000000 0.000000 0.000000 0.000000 0.045652 0.000000
# 6 0.000000 0.000000 0.000000 0.000000 0.000000 0.039489
#
#
# Mechanical properties :
#
#
# Convention : Reuss Voigt Hill
#
# Bulk Modulus (GPa) = 49.73373 62.15030 55.94202
# Shear Modulus (GPa) = 22.10928 25.46515 23.78722
#
# Velocity S-wave (km/s) = 3.52675 3.78496 3.65814
# Velocity P-wave (km/s) = 6.67553 7.35289 7.02238
#
# Compressibility (1/GPa) = 0.02010708
#
# Stress axis : x y z
#
# Youngs Moduli (GPa) = 31.77505 99.23733 49.49254
#
# Poissons Ratio (x) = 0.48261 0.57113
# Poissons Ratio (y) = 0.15453 0.21877
# Poissons Ratio (z) = 0.36667 0.43866
#
# Static dielectric constant tensor:
#      x y z
#    x 2.985240 0.000000 0.000000 
#    y 0.000000 3.648590 0.000000 
#    z 0.000000 0.000000 3.193140 
# 
# 
# High freq. dielectric constant tensor:
#      x y z
#    x 1.650200 0.000000 0.000000 
#    y 0.000000 1.705360 0.000000 
#    z 0.000000 0.000000 1.680220 
# 
# From -- ./inp_files/8906.got.cif
#   From: 2010.03.12/outbox.cif.g09.slc.cpg/sg62_5_cif.got.tgz:8906.got - 2010.04.10 19:12:36.
