data_PCOD8251421
_publ_section_title
;
Structure prediction by ZEFSAII (Michael W. Deem and Ramdas Pophale) SiO2 
 PCOD8251421
Probable space group: P N M A
;
_chemical_formula_sum "Si O2"
_cell_formula_units_Z 64
_cell_length_a 25.168031
_cell_length_b 9.035645
_cell_length_c 14.464991
_cell_angle_alpha 90.000000
_cell_angle_beta 90.000000
_cell_angle_gamma 90.000000
_cell_volume 3289.474830
_symmetry_space_group_name_H-M "P N M A"
_symmetry_group_IT_number 62
_symmetry_cell_setting 'orthorhombic'
loop_
_space_group_symop_operation_xyz
x,y,z
1/2-x,-y,1/2+z
1/2+x,1/2-y,1/2-z
-x,1/2+y,-z
-x,-y,-z
1/2+x,y,1/2-z
1/2-x,1/2+y,1/2+z
x,1/2-y,z
loop_
_atom_site_type_symbol
_atom_site_label
_atom_site_fract_x
_atom_site_fract_y
_atom_site_fract_z
Si Si1 0.692722 0.074643 0.753891
Si Si2 0.073096 0.076241 0.758740
Si Si3 0.751982 0.925974 0.437529
Si Si4 0.633493 0.924354 0.415286
Si Si5 0.107690 0.925140 0.285348
Si Si6 0.283333 0.424956 0.881686
Si Si7 0.545320 0.924409 0.557700
Si Si8 0.492760 0.076374 0.901209
O O1 0.691780 0.250000 0.755796
O O2 0.633078 0.013531 0.744019
O O3 0.716971 0.015093 0.848624
O O4 0.730688 0.018760 0.671693
O O5 0.070946 0.250000 0.781500
O O6 0.044422 0.042800 0.661545
O O7 0.043331 0.989809 0.839818
O O8 0.752086 0.750000 0.445820
O O9 0.692184 0.990054 0.431465
O O10 0.784470 0.994077 0.521352
O O11 0.638575 0.750000 0.401898
O O12 0.606658 0.987058 0.320468
O O13 0.600003 0.966210 0.505797
O O14 0.101512 0.750000 0.283664
O O15 0.163864 0.974236 0.327877
O O16 0.058943 0.988419 0.346870
O O17 0.282271 0.250000 0.895629
O O18 0.536059 0.750000 0.561515
O O19 0.500000 0.000000 0.500000
O O20 0.486240 0.250000 0.919387
O O21 0.500000 0.000000 0.000000
#
# Coordination Sequence:
#
# PCOD8251421 Si02
#       8
#     8   8   8   8   8   8   8   8
#     4   9  18  34  56  80 109 145 180 219 272 330
#     4  10  21  38  57  80 112 148 185 228 280 336
#     4  10  19  33  55  81 108 140 179 223 272 326
#     4   9  17  33  57  82 108 142 183 221 267 333
#     4   9  17  33  55  76 102 140 183 220 258 319
#     4  10  19  33  54  79 106 141 182 220 265 322
#     4  11  22  36  58  86 113 145 185 231 281 334
#     4  10  22  38  57  79 107 145 188 231 275 325
#
# _framework density 19.455992999999999
#
# number of rings (size 3 to 8) (size 9 to 14) (size 15 to 20)
#    0.000    2.250    1.250    1.875    1.750    2.500 
#    0.000    1.875    0.000    2.250    0.000    0.000 
#    0.000    0.000    0.000    0.000    0.000    0.000 
#
# Total GULP energy -793527.872032 kJ/mol
# GULP energy per Si atom -12398.873000 kJ/mol
# Density = 1.941171 g / cm^3
# Si number density = 19.455993 Si / 1000 Ang^3
#
#
#
# Elastic Constant Matrix: (Units=GPa)
#
#
# Indices 1 2 3 4 5 6 
#
# 1 101.3196 25.8958 22.3818 0.0000 0.0000 0.0000
# 2 25.8958 33.4865 33.7960 0.0000 0.0000 0.0000
# 3 22.3818 33.7960 118.1331 0.0000 0.0000 0.0000
# 4 0.0000 0.0000 0.0000 32.4228 0.0000 0.0000
# 5 0.0000 0.0000 0.0000 0.0000 33.9785 0.0000
# 6 0.0000 0.0000 0.0000 0.0000 0.0000 16.3233
#
#
#
# Elastic Compliance Matrix: (Units=1/GPa)
#
#
# Indices 1 2 3 4 5 6 
#
# 1 0.012326 -0.010088 0.000551 0.000000 0.000000 0.000000
# 2 -0.010088 0.050241 -0.012462 0.000000 0.000000 0.000000
# 3 0.000551 -0.012462 0.011926 0.000000 0.000000 0.000000
# 4 0.000000 0.000000 0.000000 0.030842 0.000000 0.000000
# 5 0.000000 0.000000 0.000000 0.000000 0.029430 0.000000
# 6 0.000000 0.000000 0.000000 0.000000 0.000000 0.061262
#
#
# Mechanical properties :
#
#
# Convention : Reuss Voigt Hill
#
# Bulk Modulus (GPa) = 32.79243 46.34293 39.56768
# Shear Modulus (GPa) = 19.98465 27.93595 23.96030
#
# Velocity S-wave (km/s) = 3.20843 3.79338 3.51310
# Velocity P-wave (km/s) = 5.53323 6.56181 6.06935
#
# Compressibility (1/GPa) = 0.03049484
#
# Stress axis : x y z
#
# Youngs Moduli (GPa) = 81.12614 19.90404 83.85153
#
# Poissons Ratio (x) = 0.20079 -0.04617
# Poissons Ratio (y) = 0.81840 1.04495
# Poissons Ratio (z) = -0.04467 0.24804
#
# Static dielectric constant tensor:
#      x y z
#    x 3.725870 0.000000 0.000000 
#    y 0.000000 3.062350 0.000000 
#    z 0.000000 0.000000 4.120160 
# 
# 
# High freq. dielectric constant tensor:
#      x y z
#    x 1.773080 0.000000 0.000000 
#    y 0.000000 1.708230 0.000000 
#    z 0.000000 0.000000 1.772150 
# 
# From -- ./inp_files/15335.got.cif
#   From: 2010.03.12/outbox.cif.g09.slc.cpg/sg62_8_cif.got.tgz:15335.got - 2010.04.10 19:12:36.
