data_PCOD8251180
_publ_section_title
;
Structure prediction by ZEFSAII (Michael W. Deem and Ramdas Pophale) SiO2 
 PCOD8251180
Probable space group: P N M A
;
_chemical_formula_sum "Si O2"
_cell_formula_units_Z 48
_cell_length_a 8.457972
_cell_length_b 15.984232
_cell_length_c 20.116239
_cell_angle_alpha 90.000000
_cell_angle_beta 90.000000
_cell_angle_gamma 90.000000
_cell_volume 2719.598571
_symmetry_space_group_name_H-M "P N M A"
_symmetry_group_IT_number 62
_symmetry_cell_setting 'orthorhombic'
loop_
_space_group_symop_operation_xyz
x,y,z
1/2-x,-y,1/2+z
1/2+x,1/2-y,1/2-z
-x,1/2+y,-z
-x,-y,-z
1/2+x,y,1/2-z
1/2-x,1/2+y,1/2+z
x,1/2-y,z
loop_
_atom_site_type_symbol
_atom_site_label
_atom_site_fract_x
_atom_site_fract_y
_atom_site_fract_z
Si Si1 0.855409 0.657561 0.155823
Si Si2 0.991960 0.994034 0.078159
Si Si3 0.231532 0.005714 0.673463
Si Si4 0.606274 0.657031 0.652181
Si Si5 0.941595 0.403057 0.725039
Si Si6 0.211103 0.158501 0.225858
O O1 0.879619 0.750000 0.123887
O O2 0.674608 0.652791 0.180737
O O3 0.886524 0.584895 0.101706
O O4 0.972620 0.651646 0.218676
O O5 0.169456 0.979696 0.106011
O O6 0.913419 0.081823 0.100301
O O7 0.000000 0.000000 0.000000
O O8 0.341110 0.025300 0.737965
O O9 0.071515 0.059146 0.674301
O O10 0.190494 0.907997 0.681616
O O11 0.600870 0.750000 0.617643
O O12 0.767147 0.645103 0.694452
O O13 0.473193 0.649714 0.709126
O O14 0.275359 0.250000 0.205375
#
# Coordination Sequence:
#
# PCOD8251180 Si02
#       6
#     8   8   8   8   8   8
#     4  10  19  32  52  76 100 126 159 206 256 303
#     4  10  21  34  47  68  98 138 176 198 229 283
#     4   9  16  29  48  71  99 127 157 200 248 297
#     4   9  17  29  48  71  95 119 149 194 243 289
#     4   9  17  30  51  76  97 120 154 203 263 307
#     4   9  15  24  42  70  94 114 144 187 242 289
#
# _framework density 17.649664000000001
#
# number of rings (size 3 to 8) (size 9 to 14) (size 15 to 20)
#    0.000    2.667    0.000    4.500    0.000    0.667 
#    0.000    1.667    0.000    0.000    0.000    7.000 
#    0.000    0.000    0.000    0.000    0.000    0.000 
#
# Total GULP energy -594770.781798 kJ/mol
# GULP energy per Si atom -12391.057954 kJ/mol
# Density = 1.760949 g / cm^3
# Si number density = 17.649664 Si / 1000 Ang^3
#
#
#
# Elastic Constant Matrix: (Units=GPa)
#
#
# Indices 1 2 3 4 5 6 
#
# 1 70.3114 37.6342 33.1766 0.0000 0.0000 0.0000
# 2 37.6342 138.1039 51.3638 0.0000 0.0000 0.0000
# 3 33.1766 51.3638 97.5955 0.0000 0.0000 0.0000
# 4 0.0000 0.0000 0.0000 15.0649 0.0000 0.0000
# 5 0.0000 0.0000 0.0000 0.0000 16.0538 0.0000
# 6 0.0000 0.0000 0.0000 0.0000 0.0000 18.3527
#
#
#
# Elastic Compliance Matrix: (Units=1/GPa)
#
#
# Indices 1 2 3 4 5 6 
#
# 1 0.018061 -0.003280 -0.004413 0.000000 0.000000 0.000000
# 2 -0.003280 0.009599 -0.003937 0.000000 0.000000 0.000000
# 3 -0.004413 -0.003937 0.013818 0.000000 0.000000 0.000000
# 4 0.000000 0.000000 0.000000 0.066379 0.000000 0.000000
# 5 0.000000 0.000000 0.000000 0.000000 0.062291 0.000000
# 6 0.000000 0.000000 0.000000 0.000000 0.000000 0.054488
#
#
# Mechanical properties :
#
#
# Convention : Reuss Voigt Hill
#
# Bulk Modulus (GPa) = 54.89181 61.15114 58.02147
# Shear Modulus (GPa) = 19.68748 22.15004 20.91876
#
# Velocity S-wave (km/s) = 3.34347 3.54642 3.44644
# Velocity P-wave (km/s) = 6.78774 7.17578 6.98445
#
# Compressibility (1/GPa) = 0.01821765
#
# Stress axis : x y z
#
# Youngs Moduli (GPa) = 55.36926 104.17756 72.36694
#
# Poissons Ratio (x) = 0.34173 0.31936
# Poissons Ratio (y) = 0.18163 0.28489
# Poissons Ratio (z) = 0.24435 0.41012
#
# Static dielectric constant tensor:
#      x y z
#    x 3.327210 0.000000 0.000000 
#    y 0.000000 3.529630 0.000000 
#    z 0.000000 0.000000 2.789540 
# 
# 
# High freq. dielectric constant tensor:
#      x y z
#    x 1.678270 0.000000 0.000000 
#    y 0.000000 1.703060 0.000000 
#    z 0.000000 0.000000 1.623030 
# 
# From -- ./inp_files/22337.got.cif
#   From: 2010.03.12/outbox.cif.g09.slc.cpg/sg62_12_cif.got.tgz:22337.got - 2010.04.10 19:12:36.
