data_PCOD8251668
_publ_section_title
;
Structure prediction by ZEFSAII (Michael W. Deem and Ramdas Pophale) SiO2 
 PCOD8251668
Probable space group: P N M A
;
_chemical_formula_sum "Si O2"
_cell_formula_units_Z 48
_cell_length_a 21.716791
_cell_length_b 12.497945
_cell_length_c 9.100886
_cell_angle_alpha 90.000000
_cell_angle_beta 90.000000
_cell_angle_gamma 90.000000
_cell_volume 2470.119335
_symmetry_space_group_name_H-M "P N M A"
_symmetry_group_IT_number 62
_symmetry_cell_setting 'orthorhombic'
loop_
_space_group_symop_operation_xyz
x,y,z
1/2-x,-y,1/2+z
1/2+x,1/2-y,1/2-z
-x,1/2+y,-z
-x,-y,-z
1/2+x,y,1/2-z
1/2-x,1/2+y,1/2+z
x,1/2-y,z
loop_
_atom_site_type_symbol
_atom_site_label
_atom_site_fract_x
_atom_site_fract_y
_atom_site_fract_z
Si Si1 0.503636 0.481816 0.732393
Si Si2 0.926313 0.625136 0.984875
Si Si3 0.383220 0.128442 0.821808
Si Si4 0.900198 0.369890 0.356075
Si Si5 0.194505 0.011717 0.102728
Si Si6 0.282819 0.374092 0.326780
O O1 0.549418 0.402632 0.646485
O O2 0.470841 0.567855 0.629488
O O3 0.453449 0.410722 0.813889
O O4 0.544113 0.546559 0.849645
O O5 0.930373 0.750000 0.954860
O O6 0.855727 0.588752 0.970844
O O7 0.380380 0.250000 0.768534
O O8 0.337135 0.066469 0.718124
O O9 0.362953 0.113892 0.991272
O O10 0.927863 0.250000 0.352530
O O11 0.854228 0.385357 0.218972
O O12 0.242896 0.082985 0.191010
O O13 0.227950 0.942063 0.975571
O O14 0.265493 0.250000 0.356019
#
# Coordination Sequence:
#
# PCOD8251668 Si02
#       6
#     8   8   8   8   8   8
#     4  10  19  34  56  85 116 156 189 240 286 348
#     4  10  20  34  55  85 117 150 192 239 296 349
#     4  10  21  36  59  86 118 155 193 240 293 351
#     4  10  20  36  57  85 117 154 194 237 293 349
#     4  11  22  40  61  84 118 152 200 248 297 349
#     4  11  23  40  63  86 116 157 202 248 299 356
#
# _framework density 19.432258999999998
#
# number of rings (size 3 to 8) (size 9 to 14) (size 15 to 20)
#    0.000    1.667    1.667    3.500    0.000    0.000 
#    0.000    2.500    0.000    4.000    0.000    0.000 
#    0.000    0.000    0.000    0.000    0.000    0.000 
#
# Total GULP energy -595258.701716 kJ/mol
# GULP energy per Si atom -12401.222952 kJ/mol
# Density = 1.938803 g / cm^3
# Si number density = 19.432259 Si / 1000 Ang^3
#
#
#
# Elastic Constant Matrix: (Units=GPa)
#
#
# Indices 1 2 3 4 5 6 
#
# 1 57.0430 18.4268 9.0774 0.0000 0.0000 0.0000
# 2 18.4268 86.8518 16.0095 0.0000 0.0000 0.0000
# 3 9.0774 16.0095 71.0228 0.0000 0.0000 0.0000
# 4 0.0000 0.0000 0.0000 30.2133 0.0000 0.0000
# 5 0.0000 0.0000 0.0000 0.0000 27.5233 0.0000
# 6 0.0000 0.0000 0.0000 0.0000 0.0000 22.0308
#
#
#
# Elastic Compliance Matrix: (Units=1/GPa)
#
#
# Indices 1 2 3 4 5 6 
#
# 1 0.018990 -0.003737 -0.001585 0.000000 0.000000 0.000000
# 2 -0.003737 0.012748 -0.002396 0.000000 0.000000 0.000000
# 3 -0.001585 -0.002396 0.014823 0.000000 0.000000 0.000000
# 4 0.000000 0.000000 0.000000 0.033098 0.000000 0.000000
# 5 0.000000 0.000000 0.000000 0.000000 0.036333 0.000000
# 6 0.000000 0.000000 0.000000 0.000000 0.000000 0.045391
#
#
# Mechanical properties :
#
#
# Convention : Reuss Voigt Hill
#
# Bulk Modulus (GPa) = 32.12786 33.54943 32.83864
# Shear Modulus (GPa) = 26.71034 27.38040 27.04537
#
# Velocity S-wave (km/s) = 3.71150 3.75776 3.73470
# Velocity P-wave (km/s) = 5.91068 6.01082 5.96096
#
# Compressibility (1/GPa) = 0.03112564
#
# Stress axis : x y z
#
# Youngs Moduli (GPa) = 52.65939 78.44142 67.46435
#
# Poissons Ratio (x) = 0.29312 0.10691
# Poissons Ratio (y) = 0.19678 0.16165
# Poissons Ratio (z) = 0.08345 0.18795
#
# Static dielectric constant tensor:
#      x y z
#    x 3.438200 0.000000 0.000000 
#    y 0.000000 3.550520 0.000000 
#    z 0.000000 0.000000 3.540300 
# 
# 
# High freq. dielectric constant tensor:
#      x y z
#    x 1.748990 0.000000 0.000000 
#    y 0.000000 1.764710 0.000000 
#    z 0.000000 0.000000 1.761190 
# 
# From -- ./inp_files/9299.got.cif
#   From: 2010.03.12/outbox.cif.g09.slc.cpg/sg62_5_cif.got.tgz:9299.got - 2010.04.10 19:12:36.
