data_PCOD8251245
_publ_section_title
;
Structure prediction by ZEFSAII (Michael W. Deem and Ramdas Pophale) SiO2 
 PCOD8251245
Probable space group: P N M A
;
_chemical_formula_sum "Si O2"
_cell_formula_units_Z 48
_cell_length_a 9.651277
_cell_length_b 27.560737
_cell_length_c 8.914734
_cell_angle_alpha 90.000000
_cell_angle_beta 90.000000
_cell_angle_gamma 90.000000
_cell_volume 2371.286323
_symmetry_space_group_name_H-M "P N M A"
_symmetry_group_IT_number 62
_symmetry_cell_setting 'orthorhombic'
loop_
_space_group_symop_operation_xyz
x,y,z
1/2-x,-y,1/2+z
1/2+x,1/2-y,1/2-z
-x,1/2+y,-z
-x,-y,-z
1/2+x,y,1/2-z
1/2-x,1/2+y,1/2+z
x,1/2-y,z
loop_
_atom_site_type_symbol
_atom_site_label
_atom_site_fract_x
_atom_site_fract_y
_atom_site_fract_z
Si Si1 0.584717 0.855396 0.918056
Si Si2 0.397381 0.564956 0.000189
Si Si3 0.571950 0.750000 0.912878
Si Si4 0.876277 0.750000 0.854832
Si Si5 0.593743 0.145347 0.385064
Si Si6 0.902848 0.068247 0.989281
Si Si7 0.495587 0.498411 0.250472
O O1 0.522816 0.896587 0.027852
O O2 0.572640 0.802058 0.000273
O O3 0.742892 0.868211 0.872548
O O4 0.485176 0.858156 0.772897
O O5 0.249592 0.592355 0.007963
O O6 0.407262 0.539698 0.836744
O O7 0.397079 0.523848 0.128196
O O8 0.713093 0.750000 0.816115
O O9 0.439636 0.750000 0.808992
O O10 0.919209 0.798844 0.944728
O O11 0.520892 0.109584 0.503148
O O12 0.916442 0.039657 0.833626
O O13 0.906974 0.030824 0.127768
#
# Coordination Sequence:
#
# PCOD8251245 Si02
#       7
#     8   8   4   4   8   8   8
#     4  10  19  32  53  80 111 144 181 226 274 326
#     4  11  22  38  58  82 111 146 186 227 274 328
#     4   8  16  30  48  75 108 141 176 220 274 324
#     4   8  16  30  48  75 108 141 176 220 274 324
#     4  10  19  32  53  80 111 144 181 226 274 326
#     4  11  22  38  58  82 111 146 186 227 274 328
#     4  10  24  38  56  80 112 146 186 226 274 324
#
# _framework density 20.242179
#
# number of rings (size 3 to 8) (size 9 to 14) (size 15 to 20)
#    0.000    2.000    1.667    2.000    0.000    8.000 
#    0.000    0.000    0.000    1.000    0.000    0.000 
#    0.000    0.000    0.000    0.000    0.000    0.000 
#
# Total GULP energy -594638.291356 kJ/mol
# GULP energy per Si atom -12388.297737 kJ/mol
# Density = 2.019611 g / cm^3
# Si number density = 20.242179 Si / 1000 Ang^3
#
#
#
# Elastic Constant Matrix: (Units=GPa)
#
#
# Indices 1 2 3 4 5 6 
#
# 1 138.0646 46.2539 9.9417 0.0000 0.0000 0.0000
# 2 46.2539 120.1047 16.2457 0.0000 0.0000 0.0000
# 3 9.9417 16.2457 51.2341 0.0000 0.0000 0.0000
# 4 0.0000 0.0000 0.0000 13.7551 0.0000 0.0000
# 5 0.0000 0.0000 0.0000 0.0000 11.6254 0.0000
# 6 0.0000 0.0000 0.0000 0.0000 0.0000 24.8498
#
#
#
# Elastic Compliance Matrix: (Units=1/GPa)
#
#
# Indices 1 2 3 4 5 6 
#
# 1 0.008335 -0.003125 -0.000626 0.000000 0.000000 0.000000
# 2 -0.003125 0.009871 -0.002524 0.000000 0.000000 0.000000
# 3 -0.000626 -0.002524 0.020440 0.000000 0.000000 0.000000
# 4 0.000000 0.000000 0.000000 0.072700 0.000000 0.000000
# 5 0.000000 0.000000 0.000000 0.000000 0.086018 0.000000
# 6 0.000000 0.000000 0.000000 0.000000 0.000000 0.040242
#
#
# Mechanical properties :
#
#
# Convention : Reuss Voigt Hill
#
# Bulk Modulus (GPa) = 38.32046 50.47622 44.39834
# Shear Modulus (GPa) = 19.31581 25.84355 22.57968
#
# Velocity S-wave (km/s) = 3.09242 3.57700 3.34350
# Velocity P-wave (km/s) = 5.63230 6.48461 6.07343
#
# Compressibility (1/GPa) = 0.02609572
#
# Stress axis : x y z
#
# Youngs Moduli (GPa) = 119.97472 101.30723 48.92374
#
# Poissons Ratio (x) = 0.31661 0.03065
# Poissons Ratio (y) = 0.37495 0.12346
# Poissons Ratio (z) = 0.07515 0.25565
#
# Static dielectric constant tensor:
#      x y z
#    x 3.689580 0.000000 0.000000 
#    y 0.000000 4.288240 0.000000 
#    z 0.000000 0.000000 3.252930 
# 
# 
# High freq. dielectric constant tensor:
#      x y z
#    x 1.800490 0.000000 0.000000 
#    y 0.000000 1.808380 0.000000 
#    z 0.000000 0.000000 1.730360 
# 
# From -- ./inp_files/4553.got.cif
#   From: 2010.03.12/outbox.cif.g09.slc.cpg/sg62_3_cif.got.tgz:4553.got - 2010.04.10 19:12:36.
