data_PCOD8251902
_publ_section_title
;
Structure prediction by ZEFSAII (Michael W. Deem and Ramdas Pophale) SiO2 
 PCOD8251902
Probable space group: P N M A
;
_chemical_formula_sum "Si O2"
_cell_formula_units_Z 64
_cell_length_a 18.939748
_cell_length_b 8.875225
_cell_length_c 18.818219
_cell_angle_alpha 90.000000
_cell_angle_beta 90.000000
_cell_angle_gamma 90.000000
_cell_volume 3163.239583
_symmetry_space_group_name_H-M "P N M A"
_symmetry_group_IT_number 62
_symmetry_cell_setting 'orthorhombic'
loop_
_space_group_symop_operation_xyz
x,y,z
1/2-x,-y,1/2+z
1/2+x,1/2-y,1/2-z
-x,1/2+y,-z
-x,-y,-z
1/2+x,y,1/2-z
1/2-x,1/2+y,1/2+z
x,1/2-y,z
loop_
_atom_site_type_symbol
_atom_site_label
_atom_site_fract_x
_atom_site_fract_y
_atom_site_fract_z
Si Si1 0.958478 0.577088 0.145864
Si Si2 0.301577 0.927774 0.722563
Si Si3 0.667633 0.075450 0.544326
Si Si4 0.404783 0.572502 0.598775
Si Si5 0.307907 0.572604 0.978882
Si Si6 0.623012 0.572641 0.148190
Si Si7 0.034732 0.073271 0.694153
Si Si8 0.831301 0.427608 0.370051
O O1 0.982210 0.750000 0.145123
O O2 0.882503 0.552560 0.111581
O O3 0.016135 0.487553 0.101301
O O4 0.954309 0.516631 0.225766
O O5 0.307341 0.750000 0.735502
O O6 0.359040 0.985058 0.665329
O O7 0.223838 0.971740 0.692732
O O8 0.318619 0.011198 0.796240
O O9 0.690384 0.250000 0.535860
O O10 0.629828 0.014026 0.473670
O O11 0.734806 0.971520 0.559203
O O12 0.407816 0.750000 0.597655
O O13 0.318162 0.750000 0.983919
O O14 0.307195 0.503025 0.057025
O O15 0.368833 0.503510 0.929012
O O16 0.634151 0.750000 0.141455
O O17 0.544332 0.530121 0.172275
O O18 0.049731 0.250000 0.685058
O O19 0.090109 0.982890 0.646585
O O20 0.830733 0.250000 0.381935
#
# Coordination Sequence:
#
# PCOD8251902 Si02
#       8
#     8   8   8   8   8   8   8   8
#     4  10  21  37  59  90 128 165 210 257 303 367
#     4  10  21  39  63  93 127 161 205 253 301 366
#     4  10  21  39  60  89 129 169 206 254 311 365
#     4  10  19  35  60  88 127 168 204 250 305 368
#     4  12  26  43  65  93 124 159 210 263 308 371
#     4  11  24  43  67  91 125 166 207 256 312 368
#     4  10  23  42  62  93 125 160 211 260 307 366
#     4  11  24  44  68  93 126 165 205 254 315 371
#
# _framework density 20.232422
#
# number of rings (size 3 to 8) (size 9 to 14) (size 15 to 20)
#    0.000    1.500    2.500    2.250    1.750    4.000 
#    0.000    0.000    0.000    0.000    0.000    0.000 
#    0.000    0.000    0.000    0.000    0.000    0.000 
#
# Total GULP energy -793880.559091 kJ/mol
# GULP energy per Si atom -12404.383736 kJ/mol
# Density = 2.018637 g / cm^3
# Si number density = 20.232422 Si / 1000 Ang^3
#
#
#
# Elastic Constant Matrix: (Units=GPa)
#
#
# Indices 1 2 3 4 5 6 
#
# 1 105.5783 46.1171 49.3800 0.0000 0.0000 0.0000
# 2 46.1171 76.0457 36.1014 0.0000 0.0000 0.0000
# 3 49.3800 36.1014 73.2308 0.0000 0.0000 0.0000
# 4 0.0000 0.0000 0.0000 32.7044 0.0000 0.0000
# 5 0.0000 0.0000 0.0000 0.0000 33.9705 0.0000
# 6 0.0000 0.0000 0.0000 0.0000 0.0000 34.5627
#
#
#
# Elastic Compliance Matrix: (Units=1/GPa)
#
#
# Indices 1 2 3 4 5 6 
#
# 1 0.015590 -0.005828 -0.007640 0.000000 0.000000 0.000000
# 2 -0.005828 0.019346 -0.005608 0.000000 0.000000 0.000000
# 3 -0.007640 -0.005608 0.021571 0.000000 0.000000 0.000000
# 4 0.000000 0.000000 0.000000 0.030577 0.000000 0.000000
# 5 0.000000 0.000000 0.000000 0.000000 0.029437 0.000000
# 6 0.000000 0.000000 0.000000 0.000000 0.000000 0.028933
#
#
# Mechanical properties :
#
#
# Convention : Reuss Voigt Hill
#
# Bulk Modulus (GPa) = 54.47266 57.56131 56.01698
# Shear Modulus (GPa) = 26.35391 28.46459 27.40925
#
# Velocity S-wave (km/s) = 3.61301 3.75491 3.68464
# Velocity P-wave (km/s) = 6.66236 6.87829 6.77119
#
# Compressibility (1/GPa) = 0.01835783
#
# Stress axis : x y z
#
# Youngs Moduli (GPa) = 64.14184 51.68942 46.35754
#
# Poissons Ratio (x) = 0.30124 0.35416
# Poissons Ratio (y) = 0.37381 0.25996
# Poissons Ratio (z) = 0.49003 0.28986
#
# Static dielectric constant tensor:
#      x y z
#    x 3.717640 0.000000 0.000000 
#    y 0.000000 3.586330 0.000000 
#    z 0.000000 0.000000 3.788260 
# 
# 
# High freq. dielectric constant tensor:
#      x y z
#    x 1.795930 0.000000 0.000000 
#    y 0.000000 1.781400 0.000000 
#    z 0.000000 0.000000 1.799430 
# 
# From -- ./inp_files/27769.got.cif
#   From: 2010.03.12/outbox.cif.g09.slc.cpg/sg62_14_cif.got.tgz:27769.got - 2010.04.10 19:12:36.
