data_PCOD8251671
_publ_section_title
;
Structure prediction by ZEFSAII (Michael W. Deem and Ramdas Pophale) SiO2 
 PCOD8251671
Probable space group: P N M A
;
_chemical_formula_sum "Si O2"
_cell_formula_units_Z 56
_cell_length_a 21.240932
_cell_length_b 8.902569
_cell_length_c 14.841329
_cell_angle_alpha 90.000000
_cell_angle_beta 90.000000
_cell_angle_gamma 90.000000
_cell_volume 2806.478436
_symmetry_space_group_name_H-M "P N M A"
_symmetry_group_IT_number 62
_symmetry_cell_setting 'orthorhombic'
loop_
_space_group_symop_operation_xyz
x,y,z
1/2-x,-y,1/2+z
1/2+x,1/2-y,1/2-z
-x,1/2+y,-z
-x,-y,-z
1/2+x,y,1/2-z
1/2-x,1/2+y,1/2+z
x,1/2-y,z
loop_
_atom_site_type_symbol
_atom_site_label
_atom_site_fract_x
_atom_site_fract_y
_atom_site_fract_z
Si Si1 0.481879 0.086917 0.121764
Si Si2 0.402621 0.587419 0.002854
Si Si3 0.049836 0.572343 0.933781
Si Si4 0.209609 0.426457 0.375947
Si Si5 0.179167 0.424156 0.983792
Si Si6 0.474133 0.425645 0.712114
Si Si7 0.657208 0.423456 0.315103
O O1 0.470774 0.250000 0.168873
O O2 0.529315 0.111701 0.040137
O O3 0.515267 0.963478 0.184025
O O4 0.413699 0.027656 0.085742
O O5 0.378996 0.750000 0.039496
O O6 0.353232 0.526273 0.929632
O O7 0.045375 0.750000 0.939997
O O8 0.119362 0.521692 0.957936
O O9 0.031144 0.514084 0.835431
O O10 0.000000 0.500000 0.000000
O O11 0.224629 0.250000 0.384460
O O12 0.264805 0.522223 0.420019
O O13 0.200188 0.471634 0.270509
O O14 0.165400 0.250000 0.964282
O O15 0.194816 0.447504 0.090669
O O16 0.479491 0.250000 0.692979
O O17 0.406000 0.479423 0.678883
O O18 0.636838 0.250000 0.302457
#
# Coordination Sequence:
#
# PCOD8251671 Si02
#       7
#     8   8   8   8   8   8   8
#     4  10  19  34  56  85 122 161 201 251 309 364
#     4   9  18  34  57  85 118 159 205 255 305 362
#     4  12  24  41  65  93 124 159 199 252 314 370
#     4  10  21  41  65  88 123 169 213 258 313 374
#     4  11  24  42  65  93 125 162 208 261 312 372
#     4  12  23  36  61  93 123 157 201 253 306 369
#     4  10  21  41  66  89 119 163 209 254 309 372
#
# _framework density 19.953832999999999
#
# number of rings (size 3 to 8) (size 9 to 14) (size 15 to 20)
#    0.000    1.429    2.857    3.429    0.000    2.286 
#    2.571    0.000    0.000    0.000    0.000    0.000 
#    0.000    0.000    0.000    0.000    0.000    0.000 
#
# Total GULP energy -694197.502291 kJ/mol
# GULP energy per Si atom -12396.383969 kJ/mol
# Density = 1.990842 g / cm^3
# Si number density = 19.953833 Si / 1000 Ang^3
#
#
#
# Elastic Constant Matrix: (Units=GPa)
#
#
# Indices 1 2 3 4 5 6 
#
# 1 86.8696 51.2145 46.4786 0.0000 0.0000 0.0000
# 2 51.2145 138.4093 49.5894 0.0000 0.0000 0.0000
# 3 46.4786 49.5894 89.0825 0.0000 0.0000 0.0000
# 4 0.0000 0.0000 0.0000 32.4071 0.0000 0.0000
# 5 0.0000 0.0000 0.0000 0.0000 36.3568 0.0000
# 6 0.0000 0.0000 0.0000 0.0000 0.0000 31.4255
#
#
#
# Elastic Compliance Matrix: (Units=1/GPa)
#
#
# Indices 1 2 3 4 5 6 
#
# 1 0.017598 -0.004025 -0.006941 0.000000 0.000000 0.000000
# 2 -0.004025 0.009945 -0.003436 0.000000 0.000000 0.000000
# 3 -0.006941 -0.003436 0.016760 0.000000 0.000000 0.000000
# 4 0.000000 0.000000 0.000000 0.030857 0.000000 0.000000
# 5 0.000000 0.000000 0.000000 0.000000 0.027505 0.000000
# 6 0.000000 0.000000 0.000000 0.000000 0.000000 0.031821
#
#
# Mechanical properties :
#
#
# Convention : Reuss Voigt Hill
#
# Bulk Modulus (GPa) = 64.52150 67.65847 66.08999
# Shear Modulus (GPa) = 29.68082 31.17646 30.42864
#
# Velocity S-wave (km/s) = 3.86096 3.95705 3.90930
# Velocity P-wave (km/s) = 7.23060 7.40667 7.31917
#
# Compressibility (1/GPa) = 0.01549871
#
# Stress axis : x y z
#
# Youngs Moduli (GPa) = 56.82389 100.54914 59.66548
#
# Poissons Ratio (x) = 0.40469 0.41416
# Poissons Ratio (y) = 0.22870 0.20503
# Poissons Ratio (z) = 0.39444 0.34552
#
# Static dielectric constant tensor:
#      x y z
#    x 3.449380 0.000000 0.000000 
#    y 0.000000 3.841220 0.000000 
#    z 0.000000 0.000000 4.146310 
# 
# 
# High freq. dielectric constant tensor:
#      x y z
#    x 1.755200 0.000000 0.000000 
#    y 0.000000 1.786570 0.000000 
#    z 0.000000 0.000000 1.781990 
# 
# From -- ./inp_files/20441.got.cif
#   From: 2010.03.12/outbox.cif.g09.slc.cpg/sg62_11_cif.got.tgz:20441.got - 2010.04.10 19:12:36.
