data_PCOD8251236
_publ_section_title
;
Structure prediction by ZEFSAII (Michael W. Deem and Ramdas Pophale) SiO2 
 PCOD8251236
Probable space group: P N M A
;
_chemical_formula_sum "Si O2"
_cell_formula_units_Z 56
_cell_length_a 22.136824
_cell_length_b 9.376140
_cell_length_c 14.288972
_cell_angle_alpha 90.000000
_cell_angle_beta 90.000000
_cell_angle_gamma 90.000000
_cell_volume 2965.789893
_symmetry_space_group_name_H-M "P N M A"
_symmetry_group_IT_number 62
_symmetry_cell_setting 'orthorhombic'
loop_
_space_group_symop_operation_xyz
x,y,z
1/2-x,-y,1/2+z
1/2+x,1/2-y,1/2-z
-x,1/2+y,-z
-x,-y,-z
1/2+x,y,1/2-z
1/2-x,1/2+y,1/2+z
x,1/2-y,z
loop_
_atom_site_type_symbol
_atom_site_label
_atom_site_fract_x
_atom_site_fract_y
_atom_site_fract_z
Si Si1 0.548343 0.086032 0.622198
Si Si2 0.692904 0.581495 0.922973
Si Si3 0.808922 0.918783 0.810644
Si Si4 0.585531 0.913105 0.787586
Si Si5 0.337845 0.917847 0.894886
Si Si6 0.571098 0.085442 0.410333
Si Si7 0.024831 0.412271 0.414688
O O1 0.538365 0.250000 0.649728
O O2 0.579707 0.070809 0.521604
O O3 0.593278 0.012145 0.696626
O O4 0.484248 0.007945 0.625231
O O5 0.696176 0.750000 0.941087
O O6 0.749532 0.524077 0.862958
O O7 0.632324 0.538472 0.867561
O O8 0.694359 0.502911 0.022210
O O9 0.810749 0.750000 0.816303
O O10 0.807055 0.966874 0.702332
O O11 0.868781 0.976873 0.862152
O O12 0.598762 0.750000 0.758662
O O13 0.517558 0.933786 0.824810
O O14 0.329737 0.750000 0.912722
O O15 0.408151 0.960863 0.887113
O O16 0.558523 0.250000 0.382114
O O17 0.024126 0.250000 0.448402
O O18 0.000000 0.500000 0.500000
#
# Coordination Sequence:
#
# PCOD8251236 Si02
#       7
#     8   8   8   8   8   8   8
#     4  10  20  32  53  83 109 137 177 224 269 316
#     4  10  21  37  56  78 106 142 184 221 260 319
#     4   9  19  37  59  78 103 145 186 217 262 328
#     4  10  20  34  52  77 110 146 178 215 271 328
#     4  10  20  35  56  80 107 140 179 223 273 322
#     4   9  18  36  57  77 106 141 177 219 271 324
#     4  10  19  32  53  79 107 140 175 218 273 324
#
# _framework density 18.881983999999999
#
# number of rings (size 3 to 8) (size 9 to 14) (size 15 to 20)
#    0.000    2.286    1.429    1.286    0.000    5.143 
#    0.000    3.571    0.000    0.000    0.000    0.000 
#    0.000    0.000    0.000    0.000    0.000    0.000 
#
# Total GULP energy -694506.621108 kJ/mol
# GULP energy per Si atom -12401.903948 kJ/mol
# Density = 1.883901 g / cm^3
# Si number density = 18.881984 Si / 1000 Ang^3
#
#
#
# Elastic Constant Matrix: (Units=GPa)
#
#
# Indices 1 2 3 4 5 6 
#
# 1 99.1977 30.6233 65.3827 0.0000 0.0000 0.0000
# 2 30.6233 62.1484 54.0907 0.0000 0.0000 0.0000
# 3 65.3827 54.0907 143.2498 0.0000 0.0000 0.0000
# 4 0.0000 0.0000 0.0000 36.6900 0.0000 0.0000
# 5 0.0000 0.0000 0.0000 0.0000 31.5945 0.0000
# 6 0.0000 0.0000 0.0000 0.0000 0.0000 19.1506
#
#
#
# Elastic Compliance Matrix: (Units=1/GPa)
#
#
# Indices 1 2 3 4 5 6 
#
# 1 0.014596 -0.002076 -0.005878 0.000000 0.000000 0.000000
# 2 -0.002076 0.024262 -0.008214 0.000000 0.000000 0.000000
# 3 -0.005878 -0.008214 0.012765 0.000000 0.000000 0.000000
# 4 0.000000 0.000000 0.000000 0.027255 0.000000 0.000000
# 5 0.000000 0.000000 0.000000 0.000000 0.031651 0.000000
# 6 0.000000 0.000000 0.000000 0.000000 0.000000 0.052218
#
#
# Mechanical properties :
#
#
# Convention : Reuss Voigt Hill
#
# Bulk Modulus (GPa) = 51.84673 67.19881 59.52277
# Shear Modulus (GPa) = 24.81227 27.78697 26.29962
#
# Velocity S-wave (km/s) = 3.62894 3.84032 3.73613
# Velocity P-wave (km/s) = 6.71393 7.43843 7.08545
#
# Compressibility (1/GPa) = 0.01928762
#
# Stress axis : x y z
#
# Youngs Moduli (GPa) = 68.51122 41.21609 78.33802
#
# Poissons Ratio (x) = 0.08557 0.46048
# Poissons Ratio (y) = 0.14225 0.64345
# Poissons Ratio (z) = 0.40271 0.33854
#
# Static dielectric constant tensor:
#      x y z
#    x 1.721930 0.000000 0.000000 
#    y 0.000000 3.282860 0.000000 
#    z 0.000000 0.000000 3.966510 
# 
# 
# High freq. dielectric constant tensor:
#      x y z
#    x 1.728460 0.000000 0.000000 
#    y 0.000000 1.711610 0.000000 
#    z 0.000000 0.000000 1.744770 
# 
# From -- ./inp_files/20444.got.cif
#   From: 2010.03.12/outbox.cif.g09.slc.cpg/sg62_11_cif.got.tgz:20444.got - 2010.04.10 19:12:36.
