data_PCOD8251242
_publ_section_title
;
Structure prediction by ZEFSAII (Michael W. Deem and Ramdas Pophale) SiO2 
 PCOD8251242
Probable space group: P N M A
;
_chemical_formula_sum "Si O2"
_cell_formula_units_Z 64
_cell_length_a 13.165683
_cell_length_b 8.705106
_cell_length_c 27.900409
_cell_angle_alpha 90.000000
_cell_angle_beta 90.000000
_cell_angle_gamma 90.000000
_cell_volume 3197.628659
_symmetry_space_group_name_H-M "P N M A"
_symmetry_group_IT_number 62
_symmetry_cell_setting 'orthorhombic'
loop_
_space_group_symop_operation_xyz
x,y,z
1/2-x,-y,1/2+z
1/2+x,1/2-y,1/2-z
-x,1/2+y,-z
-x,-y,-z
1/2+x,y,1/2-z
1/2-x,1/2+y,1/2+z
x,1/2-y,z
loop_
_atom_site_type_symbol
_atom_site_label
_atom_site_fract_x
_atom_site_fract_y
_atom_site_fract_z
Si Si1 0.563915 0.568416 0.836300
Si Si2 0.163689 0.069599 0.309226
Si Si3 0.900296 0.918875 0.516271
Si Si4 0.365043 0.928249 0.627397
Si Si5 0.739733 0.930226 0.287364
Si Si6 0.322448 0.578782 0.085872
Si Si7 0.246019 0.932517 0.909617
Si Si8 0.469146 0.432845 0.448382
O O1 0.571352 0.750000 0.843298
O O2 0.453978 0.522365 0.815736
O O3 0.654542 0.512704 0.801494
O O4 0.575430 0.484564 0.888123
O O5 0.173163 0.250000 0.299014
O O6 0.232347 0.021367 0.354925
O O7 0.210602 0.975624 0.265987
O O8 0.931850 0.750000 0.533902
O O9 0.827401 0.911199 0.470695
O O10 0.837952 0.003044 0.558434
O O11 0.000000 0.000000 0.500000
O O12 0.379522 0.750000 0.639731
O O13 0.456225 0.989435 0.594076
O O14 0.353278 0.019512 0.677572
O O15 0.263227 0.955187 0.597557
O O16 0.756453 0.750000 0.290219
O O17 0.297297 0.750000 0.106291
O O18 0.246451 0.750000 0.915766
O O19 0.140006 0.995863 0.930556
O O20 0.500000 0.500000 0.500000
O O21 0.471991 0.250000 0.453050
#
# Coordination Sequence:
#
# PCOD8251242 Si02
#       8
#     8   8   8   8   8   8   8   8
#     4  10  20  36  59  83 109 143 185 231 277 334
#     4  10  21  38  60  82 108 147 192 237 284 336
#     4  10  20  33  52  77 106 140 177 217 265 323
#     4  10  20  35  56  82 109 143 190 233 272 329
#     4  11  23  38  58  84 115 149 187 237 293 348
#     4  10  19  32  53  80 109 141 177 222 274 323
#     4   9  19  37  57  79 109 146 186 226 275 333
#     4  10  21  37  59  85 116 153 191 233 281 340
#
# _framework density 20.014831999999998
#
# number of rings (size 3 to 8) (size 9 to 14) (size 15 to 20)
#    0.000    2.000    0.000    5.250    0.000    6.000 
#    0.000    4.375    0.000    0.000    0.000    0.000 
#    0.000    0.000    0.000    0.000    0.000    0.000 
#
# Total GULP energy -793281.758008 kJ/mol
# GULP energy per Si atom -12395.027469 kJ/mol
# Density = 1.996928 g / cm^3
# Si number density = 20.014832 Si / 1000 Ang^3
#
#
#
# Elastic Constant Matrix: (Units=GPa)
#
#
# Indices 1 2 3 4 5 6 
#
# 1 111.7766 17.9766 57.2006 0.0000 0.0000 0.0000
# 2 17.9766 51.1135 28.2964 0.0000 0.0000 0.0000
# 3 57.2006 28.2964 134.8560 0.0000 0.0000 0.0000
# 4 0.0000 0.0000 0.0000 31.6225 0.0000 0.0000
# 5 0.0000 0.0000 0.0000 0.0000 34.8154 0.0000
# 6 0.0000 0.0000 0.0000 0.0000 0.0000 19.7761
#
#
#
# Elastic Compliance Matrix: (Units=1/GPa)
#
#
# Indices 1 2 3 4 5 6 
#
# 1 0.011531 -0.001525 -0.004571 0.000000 0.000000 0.000000
# 2 -0.001525 0.022337 -0.004040 0.000000 0.000000 0.000000
# 3 -0.004571 -0.004040 0.010202 0.000000 0.000000 0.000000
# 4 0.000000 0.000000 0.000000 0.031623 0.000000 0.000000
# 5 0.000000 0.000000 0.000000 0.000000 0.028723 0.000000
# 6 0.000000 0.000000 0.000000 0.000000 0.000000 0.050566
#
#
# Mechanical properties :
#
#
# Convention : Reuss Voigt Hill
#
# Bulk Modulus (GPa) = 42.02054 56.07705 49.04880
# Shear Modulus (GPa) = 27.29456 30.19428 28.74442
#
# Velocity S-wave (km/s) = 3.69686 3.88828 3.79378
# Velocity P-wave (km/s) = 6.26599 6.94528 6.61436
#
# Compressibility (1/GPa) = 0.02379789
#
# Stress axis : x y z
#
# Youngs Moduli (GPa) = 86.72427 44.76832 98.02132
#
# Poissons Ratio (x) = 0.06827 0.44805
# Poissons Ratio (y) = 0.13225 0.39602
# Poissons Ratio (z) = 0.39641 0.18087
#
# Static dielectric constant tensor:
#      x y z
#    x 3.763950 0.000000 0.000000 
#    y 0.000000 3.497820 0.000000 
#    z 0.000000 0.000000 4.109330 
# 
# 
# High freq. dielectric constant tensor:
#      x y z
#    x 1.781180 0.000000 0.000000 
#    y 0.000000 1.764500 0.000000 
#    z 0.000000 0.000000 1.792690 
# 
# From -- ./inp_files/32544.got.cif
#   From: 2010.03.12/outbox.cif.g09.slc.cpg/sg62_17_cif.got.tgz:32544.got - 2010.04.10 19:12:36.
