data_PCOD8251144
_publ_section_title
;
Structure prediction by ZEFSAII (Michael W. Deem and Ramdas Pophale) SiO2 
 PCOD8251144
Probable space group: P N M A
;
_chemical_formula_sum "Si O2"
_cell_formula_units_Z 48
_cell_length_a 15.438936
_cell_length_b 9.053049
_cell_length_c 19.145509
_cell_angle_alpha 90.000000
_cell_angle_beta 90.000000
_cell_angle_gamma 90.000000
_cell_volume 2675.957150
_symmetry_space_group_name_H-M "P N M A"
_symmetry_group_IT_number 62
_symmetry_cell_setting 'orthorhombic'
loop_
_space_group_symop_operation_xyz
x,y,z
1/2-x,-y,1/2+z
1/2+x,1/2-y,1/2-z
-x,1/2+y,-z
-x,-y,-z
1/2+x,y,1/2-z
1/2-x,1/2+y,1/2+z
x,1/2-y,z
loop_
_atom_site_type_symbol
_atom_site_label
_atom_site_fract_x
_atom_site_fract_y
_atom_site_fract_z
Si Si1 0.926457 0.577911 0.043666
Si Si2 0.067884 0.074824 0.449398
Si Si3 0.259085 0.413167 0.456516
Si Si4 0.421082 0.920663 0.295647
Si Si5 0.582017 0.923422 0.197923
Si Si6 0.247576 0.584485 0.790601
O O1 0.934079 0.750000 0.030626
O O2 0.831861 0.525979 0.016367
O O3 0.938797 0.533544 0.124378
O O4 0.000000 0.500000 0.000000
O O5 0.052513 0.250000 0.443606
O O6 0.163068 0.040783 0.482018
O O7 0.057146 0.004560 0.373329
O O8 0.000000 0.000000 0.500000
O O9 0.283285 0.250000 0.484392
O O10 0.255046 0.412468 0.373500
O O11 0.394899 0.750000 0.291392
O O12 0.506543 0.956914 0.252614
O O13 0.341094 0.011616 0.262665
O O14 0.594045 0.750000 0.183446
O O15 0.669627 0.987878 0.232495
O O16 0.255956 0.750000 0.759990
#
# Coordination Sequence:
#
# PCOD8251144 Si02
#       6
#     8   8   8   8   8   8
#     4  10  19  32  51  74  99 128 164 204 246 294
#     4  10  20  34  53  77 103 132 167 207 250 296
#     4   8  16  31  49  70  96 127 163 200 241 291
#     4   9  19  34  52  74  99 131 168 204 247 298
#     4  10  19  33  53  75 101 133 168 207 250 299
#     4   9  17  30  50  74  99 129 165 206 249 296
#
# _framework density 17.937508000000001
#
# number of rings (size 3 to 8) (size 9 to 14) (size 15 to 20)
#    0.000    2.667    0.000    3.000    0.000    6.667 
#    0.000    1.667    0.000    4.000    0.000    0.000 
#    0.000    0.000    0.000    0.000    0.000    0.000 
#
# Total GULP energy -595103.430806 kJ/mol
# GULP energy per Si atom -12397.988142 kJ/mol
# Density = 1.789668 g / cm^3
# Si number density = 17.937508 Si / 1000 Ang^3
#
#
#
# Elastic Constant Matrix: (Units=GPa)
#
#
# Indices 1 2 3 4 5 6 
#
# 1 171.5177 92.4629 55.8782 0.0000 0.0000 0.0000
# 2 92.4629 124.6884 45.5195 0.0000 0.0000 0.0000
# 3 55.8782 45.5195 49.4578 0.0000 0.0000 0.0000
# 4 0.0000 0.0000 0.0000 23.2959 0.0000 0.0000
# 5 0.0000 0.0000 0.0000 0.0000 28.5982 0.0000
# 6 0.0000 0.0000 0.0000 0.0000 0.0000 39.0735
#
#
#
# Elastic Compliance Matrix: (Units=1/GPa)
#
#
# Indices 1 2 3 4 5 6 
#
# 1 0.011357 -0.005629 -0.007651 0.000000 0.000000 0.000000
# 2 -0.005629 0.014868 -0.007324 0.000000 0.000000 0.000000
# 3 -0.007651 -0.007324 0.035605 0.000000 0.000000 0.000000
# 4 0.000000 0.000000 0.000000 0.042926 0.000000 0.000000
# 5 0.000000 0.000000 0.000000 0.000000 0.034967 0.000000
# 6 0.000000 0.000000 0.000000 0.000000 0.000000 0.025593
#
#
# Mechanical properties :
#
#
# Convention : Reuss Voigt Hill
#
# Bulk Modulus (GPa) = 48.49353 81.48723 64.99038
# Shear Modulus (GPa) = 23.43029 28.31374 25.87202
#
# Velocity S-wave (km/s) = 3.61808 3.97730 3.80194
# Velocity P-wave (km/s) = 6.67439 8.16204 7.45541
#
# Compressibility (1/GPa) = 0.02062131
#
# Stress axis : x y z
#
# Youngs Moduli (GPa) = 88.04811 67.25822 28.08616
#
# Poissons Ratio (x) = 0.37860 0.21489
# Poissons Ratio (y) = 0.49562 0.20571
# Poissons Ratio (z) = 0.67366 0.49263
#
# Static dielectric constant tensor:
#      x y z
#    x 3.652980 0.000000 0.000000 
#    y 0.000000 3.586520 0.000000 
#    z 0.000000 0.000000 2.955240 
# 
# 
# High freq. dielectric constant tensor:
#      x y z
#    x 1.711490 0.000000 0.000000 
#    y 0.000000 1.707980 0.000000 
#    z 0.000000 0.000000 1.649120 
# 
# From -- ./inp_files/26854.got.cif
#   From: 2010.03.12/outbox.cif.g09.slc.cpg/sg62_14_cif.got.tgz:26854.got - 2010.04.10 19:12:36.
