data_PCOD8251431
_publ_section_title
;
Structure prediction by ZEFSAII (Michael W. Deem and Ramdas Pophale) SiO2 
 PCOD8251431
Probable space group: P N M A
;
_chemical_formula_sum "Si O2"
_cell_formula_units_Z 64
_cell_length_a 23.412250
_cell_length_b 13.829592
_cell_length_c 10.113332
_cell_angle_alpha 90.000000
_cell_angle_beta 90.000000
_cell_angle_gamma 90.000000
_cell_volume 3274.513499
_symmetry_space_group_name_H-M "P N M A"
_symmetry_group_IT_number 62
_symmetry_cell_setting 'orthorhombic'
loop_
_space_group_symop_operation_xyz
x,y,z
1/2-x,-y,1/2+z
1/2+x,1/2-y,1/2-z
-x,1/2+y,-z
-x,-y,-z
1/2+x,y,1/2-z
1/2-x,1/2+y,1/2+z
x,1/2-y,z
loop_
_atom_site_type_symbol
_atom_site_label
_atom_site_fract_x
_atom_site_fract_y
_atom_site_fract_z
Si Si1 0.077989 0.958557 0.774222
Si Si2 0.337052 0.010770 0.914997
Si Si3 0.311308 0.545924 0.180530
Si Si4 0.684328 0.483997 0.364881
Si Si5 0.596941 0.862207 0.454859
Si Si6 0.496278 0.859397 0.250643
Si Si7 0.939070 0.361080 0.491489
Si Si8 0.724880 0.141610 0.579624
O O1 0.045637 0.905446 0.652232
O O2 0.145555 0.966833 0.744110
O O3 0.068819 0.897666 0.907703
O O4 0.052796 0.066202 0.792496
O O5 0.345922 0.956876 0.774699
O O6 0.279540 0.073633 0.913415
O O7 0.387194 0.085060 0.939415
O O8 0.334138 0.929882 0.032110
O O9 0.250560 0.495998 0.166246
O O10 0.306642 0.638419 0.276839
O O11 0.655356 0.580240 0.424544
O O12 0.679510 0.396823 0.470051
O O13 0.613551 0.750000 0.466423
O O14 0.552755 0.880922 0.336484
O O15 0.475034 0.750000 0.279949
O O16 0.508187 0.871125 0.093372
O O17 0.921551 0.250000 0.472124
O O18 0.742892 0.250000 0.545564
#
# Coordination Sequence:
#
# PCOD8251431 Si02
#       8
#     8   8   8   8   8   8   8   8
#     4  11  21  38  57  85 117 154 180 238 293 339
#     4   9  18  33  57  78 112 145 187 238 282 324
#     4   9  20  34  56  81 111 148 188 228 281 341
#     4  10  19  36  57  82 116 146 189 239 283 332
#     4  11  22  38  60  87 111 144 194 243 287 335
#     4  10  22  38  59  85 111 146 194 234 282 351
#     4  10  19  34  58  87 110 141 190 236 282 332
#     4  10  19  33  54  80 113 153 190 225 281 348
#
# _framework density 19.544886999999999
#
# number of rings (size 3 to 8) (size 9 to 14) (size 15 to 20)
#    0.000    2.000    2.500    1.500    0.000    2.500 
#    0.000    1.250    0.000    1.500    0.000    0.000 
#    0.000    0.000    0.000    0.000    0.000    0.000 
#
# Total GULP energy -793113.326183 kJ/mol
# GULP energy per Si atom -12392.395722 kJ/mol
# Density = 1.950040 g / cm^3
# Si number density = 19.544887 Si / 1000 Ang^3
#
#
#
# Elastic Constant Matrix: (Units=GPa)
#
#
# Indices 1 2 3 4 5 6 
#
# 1 50.7310 31.6162 15.5223 0.0000 0.0000 0.0000
# 2 31.6162 77.0036 48.6759 0.0000 0.0000 0.0000
# 3 15.5223 48.6759 138.2955 0.0000 0.0000 0.0000
# 4 0.0000 0.0000 0.0000 24.0006 0.0000 0.0000
# 5 0.0000 0.0000 0.0000 0.0000 16.5753 0.0000
# 6 0.0000 0.0000 0.0000 0.0000 0.0000 18.6379
#
#
#
# Elastic Compliance Matrix: (Units=1/GPa)
#
#
# Indices 1 2 3 4 5 6 
#
# 1 0.026621 -0.011628 0.001105 0.000000 0.000000 0.000000
# 2 -0.011628 0.021782 -0.006361 0.000000 0.000000 0.000000
# 3 0.001105 -0.006361 0.009346 0.000000 0.000000 0.000000
# 4 0.000000 0.000000 0.000000 0.041666 0.000000 0.000000
# 5 0.000000 0.000000 0.000000 0.000000 0.060331 0.000000
# 6 0.000000 0.000000 0.000000 0.000000 0.000000 0.053654
#
#
# Mechanical properties :
#
#
# Convention : Reuss Voigt Hill
#
# Bulk Modulus (GPa) = 41.70348 50.85098 46.27723
# Shear Modulus (GPa) = 19.59541 23.19048 21.39295
#
# Velocity S-wave (km/s) = 3.16980 3.44833 3.31199
# Velocity P-wave (km/s) = 5.89749 6.47524 6.19311
#
# Compressibility (1/GPa) = 0.02397881
#
# Stress axis : x y z
#
# Youngs Moduli (GPa) = 37.56475 45.90938 106.99861
#
# Poissons Ratio (x) = 0.53385 -0.11823
# Poissons Ratio (y) = 0.43682 0.68067
# Poissons Ratio (z) = -0.04151 0.29205
#
# Static dielectric constant tensor:
#      x y z
#    x 3.364290 0.000000 0.000000 
#    y 0.000000 3.315290 0.000000 
#    z 0.000000 0.000000 4.402390 
# 
# 
# High freq. dielectric constant tensor:
#      x y z
#    x 1.745420 0.000000 0.000000 
#    y 0.000000 1.728400 0.000000 
#    z 0.000000 0.000000 1.789650 
# 
# From -- ./inp_files/9507.got.cif
#   From: 2010.03.12/outbox.cif.g09.slc.cpg/sg62_5_cif.got.tgz:9507.got - 2010.04.10 19:12:36.
