data_PCOD8251805
_publ_section_title
;
Structure prediction by ZEFSAII (Michael W. Deem and Ramdas Pophale) SiO2 
 PCOD8251805
Probable space group: P N M A
;
_chemical_formula_sum "Si O2"
_cell_formula_units_Z 64
_cell_length_a 11.901555
_cell_length_b 8.981116
_cell_length_c 30.374646
_cell_angle_alpha 90.000000
_cell_angle_beta 90.000000
_cell_angle_gamma 90.000000
_cell_volume 3246.723010
_symmetry_space_group_name_H-M "P N M A"
_symmetry_group_IT_number 62
_symmetry_cell_setting 'orthorhombic'
loop_
_space_group_symop_operation_xyz
x,y,z
1/2-x,-y,1/2+z
1/2+x,1/2-y,1/2-z
-x,1/2+y,-z
-x,-y,-z
1/2+x,y,1/2-z
1/2-x,1/2+y,1/2+z
x,1/2-y,z
loop_
_atom_site_type_symbol
_atom_site_label
_atom_site_fract_x
_atom_site_fract_y
_atom_site_fract_z
Si Si1 0.284816 0.425656 0.708871
Si Si2 0.218262 0.578348 0.042631
Si Si3 0.643588 0.073511 0.875326
Si Si4 0.744937 0.922677 0.555788
Si Si5 0.509968 0.080286 0.327853
Si Si6 0.505595 0.421098 0.428817
Si Si7 0.611255 0.573068 0.128812
Si Si8 0.238680 0.924673 0.799311
O O1 0.277877 0.250000 0.716173
O O2 0.211346 0.480916 0.667469
O O3 0.414252 0.471954 0.701734
O O4 0.235212 0.508418 0.750815
O O5 0.196781 0.750000 0.052961
O O6 0.297581 0.507910 0.080553
O O7 0.095528 0.504514 0.040954
O O8 0.277854 0.556736 0.995401
O O9 0.643552 0.250000 0.877755
O O10 0.516600 0.014763 0.872762
O O11 0.752795 0.750000 0.570762
O O12 0.619187 0.984409 0.563435
O O13 0.829761 0.019791 0.584235
O O14 0.532873 0.250000 0.313242
O O15 0.541699 0.054968 0.378450
O O16 0.380086 0.039655 0.321713
O O17 0.506837 0.250000 0.442937
O O18 0.618984 0.750000 0.132225
O O19 0.665654 0.502920 0.172119
O O20 0.263732 0.750000 0.797350
#
# Coordination Sequence:
#
# PCOD8251805 Si02
#       8
#     8   8   8   8   8   8   8   8
#     4  11  23  40  63  90 121 154 198 244 294 352
#     4  10  20  37  61  86 116 156 197 237 294 353
#     4   9  21  40  58  84 119 153 192 245 291 340
#     4  10  21  38  59  86 120 156 193 240 296 351
#     4  10  21  39  62  87 120 156 190 240 297 350
#     4  10  19  35  57  86 122 150 187 241 294 346
#     4  11  23  40  61  85 117 156 200 244 293 346
#     4  11  24  43  63  88 122 155 197 243 297 354
#
# _framework density 19.712183
#
# number of rings (size 3 to 8) (size 9 to 14) (size 15 to 20)
#    0.000    1.750    2.500    1.500    1.750    2.500 
#    0.000    3.125    0.000    0.000    0.000    0.000 
#    0.000    0.000    0.000    0.000    0.000    0.000 
#
# Total GULP energy -793847.503309 kJ/mol
# GULP energy per Si atom -12403.867239 kJ/mol
# Density = 1.966732 g / cm^3
# Si number density = 19.712183 Si / 1000 Ang^3
#
#
#
# Elastic Constant Matrix: (Units=GPa)
#
#
# Indices 1 2 3 4 5 6 
#
# 1 119.3222 41.3674 44.5214 0.0000 0.0000 0.0000
# 2 41.3674 66.4928 35.6786 0.0000 0.0000 0.0000
# 3 44.5214 35.6786 107.4574 0.0000 0.0000 0.0000
# 4 0.0000 0.0000 0.0000 32.0292 0.0000 0.0000
# 5 0.0000 0.0000 0.0000 0.0000 27.1615 0.0000
# 6 0.0000 0.0000 0.0000 0.0000 0.0000 28.4939
#
#
#
# Elastic Compliance Matrix: (Units=1/GPa)
#
#
# Indices 1 2 3 4 5 6 
#
# 1 0.011371 -0.005532 -0.002874 0.000000 0.000000 0.000000
# 2 -0.005532 0.020991 -0.004677 0.000000 0.000000 0.000000
# 3 -0.002874 -0.004677 0.012050 0.000000 0.000000 0.000000
# 4 0.000000 0.000000 0.000000 0.031221 0.000000 0.000000
# 5 0.000000 0.000000 0.000000 0.000000 0.036817 0.000000
# 6 0.000000 0.000000 0.000000 0.000000 0.000000 0.035095
#
#
# Mechanical properties :
#
#
# Convention : Reuss Voigt Hill
#
# Bulk Modulus (GPa) = 54.81265 59.60078 57.20671
# Shear Modulus (GPa) = 27.80957 28.98393 28.39675
#
# Velocity S-wave (km/s) = 3.76011 3.83868 3.79960
# Velocity P-wave (km/s) = 6.83506 7.06742 6.95221
#
# Compressibility (1/GPa) = 0.01824396
#
# Stress axis : x y z
#
# Youngs Moduli (GPa) = 87.94279 47.64034 82.98767
#
# Poissons Ratio (x) = 0.26354 0.23855
# Poissons Ratio (y) = 0.48649 0.38817
# Poissons Ratio (z) = 0.25279 0.22284
#
# Static dielectric constant tensor:
#      x y z
#    x 3.648880 0.000000 0.000000 
#    y 0.000000 3.401480 0.000000 
#    z 0.000000 0.000000 3.716730 
# 
# 
# High freq. dielectric constant tensor:
#      x y z
#    x 1.770380 0.000000 0.000000 
#    y 0.000000 1.752780 0.000000 
#    z 0.000000 0.000000 1.781480 
# 
# From -- ./inp_files/32610.got.cif
#   From: 2010.03.12/outbox.cif.g09.slc.cpg/sg62_17_cif.got.tgz:32610.got - 2010.04.10 19:12:36.
