data_PCOD8251084
_publ_section_title
;
Structure prediction by ZEFSAII (Michael W. Deem and Ramdas Pophale) SiO2 
 PCOD8251084
Probable space group: P N M A
;
_chemical_formula_sum "Si O2"
_cell_formula_units_Z 64
_cell_length_a 20.511561
_cell_length_b 8.875848
_cell_length_c 18.994544
_cell_angle_alpha 90.000000
_cell_angle_beta 90.000000
_cell_angle_gamma 90.000000
_cell_volume 3458.099150
_symmetry_space_group_name_H-M "P N M A"
_symmetry_group_IT_number 62
_symmetry_cell_setting 'orthorhombic'
loop_
_space_group_symop_operation_xyz
x,y,z
1/2-x,-y,1/2+z
1/2+x,1/2-y,1/2-z
-x,1/2+y,-z
-x,-y,-z
1/2+x,y,1/2-z
1/2-x,1/2+y,1/2+z
x,1/2-y,z
loop_
_atom_site_type_symbol
_atom_site_label
_atom_site_fract_x
_atom_site_fract_y
_atom_site_fract_z
Si Si1 0.819497 0.922185 0.535268
Si Si2 0.248990 0.921885 0.828589
Si Si3 0.251286 0.923424 0.669773
Si Si4 0.439159 0.072358 0.461910
Si Si5 0.614258 0.427009 0.829932
Si Si6 0.312585 0.423854 0.547466
Si Si7 0.938660 0.072609 0.462557
Si Si8 0.386061 0.573996 0.330071
O O1 0.842050 0.750000 0.522386
O O2 0.808554 0.955476 0.618312
O O3 0.751136 0.955673 0.498305
O O4 0.873839 0.033501 0.506131
O O5 0.224260 0.750000 0.839568
O O6 0.275279 0.947875 0.749739
O O7 0.188403 0.029204 0.845145
O O8 0.234164 0.750000 0.654946
O O9 0.187534 0.021430 0.652988
O O10 0.309173 0.979631 0.619261
O O11 0.447472 0.250000 0.460324
O O12 0.374619 0.020857 0.503444
O O13 0.500000 0.000000 0.500000
O O14 0.434909 0.012945 0.381881
O O15 0.610565 0.250000 0.843572
O O16 0.565140 0.510013 0.882904
O O17 0.594911 0.469608 0.750086
O O18 0.319670 0.250000 0.568111
O O19 0.947883 0.250000 0.459775
O O20 0.000000 0.000000 0.500000
O O21 0.393793 0.750000 0.343371
#
# Coordination Sequence:
#
# PCOD8251084 Si02
#       8
#     8   8   8   8   8   8   8   8
#     4  10  19  36  59  82 113 149 186 231 283 338
#     4   9  18  34  55  82 115 150 186 232 286 336
#     4  10  19  31  54  86 115 145 189 237 281 333
#     4  11  23  40  59  83 115 155 196 237 286 342
#     4  10  20  36  57  83 115 149 187 231 283 340
#     4  10  20  35  57  81 113 151 185 227 286 337
#     4  12  25  40  59  85 115 151 192 236 285 340
#     4  10  20  34  57  86 114 147 188 235 283 337
#
# _framework density 18.507276999999998
#
# number of rings (size 3 to 8) (size 9 to 14) (size 15 to 20)
#    0.000    1.750    2.500    2.625    0.000    3.500 
#    0.000    1.250    0.000    3.000    0.000    0.000 
#    0.000    0.000    0.000    0.000    0.000    0.000 
#
# Total GULP energy -793784.770303 kJ/mol
# GULP energy per Si atom -12402.887036 kJ/mol
# Density = 1.846515 g / cm^3
# Si number density = 18.507277 Si / 1000 Ang^3
#
#
#
# Elastic Constant Matrix: (Units=GPa)
#
#
# Indices 1 2 3 4 5 6 
#
# 1 92.7010 51.4264 61.0491 0.0000 0.0000 0.0000
# 2 51.4264 103.0535 64.6440 0.0000 0.0000 0.0000
# 3 61.0491 64.6440 145.8214 0.0000 0.0000 0.0000
# 4 0.0000 0.0000 0.0000 33.8509 0.0000 0.0000
# 5 0.0000 0.0000 0.0000 0.0000 31.4266 0.0000
# 6 0.0000 0.0000 0.0000 0.0000 0.0000 29.4823
#
#
#
# Elastic Compliance Matrix: (Units=1/GPa)
#
#
# Indices 1 2 3 4 5 6 
#
# 1 0.016902 -0.005535 -0.004622 0.000000 0.000000 0.000000
# 2 -0.005535 0.015254 -0.004445 0.000000 0.000000 0.000000
# 3 -0.004622 -0.004445 0.010763 0.000000 0.000000 0.000000
# 4 0.000000 0.000000 0.000000 0.029541 0.000000 0.000000
# 5 0.000000 0.000000 0.000000 0.000000 0.031820 0.000000
# 6 0.000000 0.000000 0.000000 0.000000 0.000000 0.033919
#
#
# Mechanical properties :
#
#
# Convention : Reuss Voigt Hill
#
# Bulk Modulus (GPa) = 72.91448 77.31278 75.11363
# Shear Modulus (GPa) = 29.07375 29.91570 29.49473
#
# Velocity S-wave (km/s) = 3.96780 4.02485 3.99643
# Velocity P-wave (km/s) = 7.77654 7.96644 7.87206
#
# Compressibility (1/GPa) = 0.01371470
#
# Stress axis : x y z
#
# Youngs Moduli (GPa) = 59.16417 65.55613 92.90692
#
# Poissons Ratio (x) = 0.36285 0.42946
# Poissons Ratio (y) = 0.32747 0.41297
# Poissons Ratio (z) = 0.27349 0.29140
#
# Static dielectric constant tensor:
#      x y z
#    x 3.240110 0.000000 0.000000 
#    y 0.000000 3.454650 0.000000 
#    z 0.000000 0.000000 3.822090 
# 
# 
# High freq. dielectric constant tensor:
#      x y z
#    x 1.683410 0.000000 0.000000 
#    y 0.000000 1.724810 0.000000 
#    z 0.000000 0.000000 1.737410 
# 
# From -- ./inp_files/24811.got.cif
#   From: 2010.03.12/outbox.cif.g09.slc.cpg/sg62_13_cif.got.tgz:24811.got - 2010.04.10 19:12:36.
