data_PCOD8251889
_publ_section_title
;
Structure prediction by ZEFSAII (Michael W. Deem and Ramdas Pophale) SiO2 
 PCOD8251889
Probable space group: P N M A
;
_chemical_formula_sum "Si O2"
_cell_formula_units_Z 56
_cell_length_a 21.633191
_cell_length_b 8.770576
_cell_length_c 14.684389
_cell_angle_alpha 90.000000
_cell_angle_beta 90.000000
_cell_angle_gamma 90.000000
_cell_volume 2786.150561
_symmetry_space_group_name_H-M "P N M A"
_symmetry_group_IT_number 62
_symmetry_cell_setting 'orthorhombic'
loop_
_space_group_symop_operation_xyz
x,y,z
1/2-x,-y,1/2+z
1/2+x,1/2-y,1/2-z
-x,1/2+y,-z
-x,-y,-z
1/2+x,y,1/2-z
1/2-x,1/2+y,1/2+z
x,1/2-y,z
loop_
_atom_site_type_symbol
_atom_site_label
_atom_site_fract_x
_atom_site_fract_y
_atom_site_fract_z
Si Si1 0.752982 0.930386 0.388231
Si Si2 0.962278 0.569139 0.582677
Si Si3 0.406963 0.425373 0.388808
Si Si4 0.010785 0.570549 0.227472
Si Si5 0.722717 0.924752 0.704447
Si Si6 0.384873 0.069071 0.590633
Si Si7 0.322862 0.931269 0.935872
O O1 0.750197 0.750000 0.395474
O O2 0.683485 0.999116 0.392310
O O3 0.793772 0.997426 0.470934
O O4 0.786130 0.977383 0.295138
O O5 0.964949 0.750000 0.576610
O O6 0.992187 0.515468 0.676867
O O7 0.892179 0.506911 0.576292
O O8 0.000000 0.500000 0.500000
O O9 0.428723 0.250000 0.378917
O O10 0.448828 0.533338 0.327298
O O11 0.336256 0.443857 0.359529
O O12 0.411455 0.483734 0.492917
O O13 0.014503 0.750000 0.245117
O O14 0.069648 0.510214 0.169871
O O15 0.732480 0.750000 0.732861
O O16 0.781931 0.988053 0.649185
O O17 0.381365 0.250000 0.590630
O O18 0.321697 0.750000 0.939569
#
# Coordination Sequence:
#
# PCOD8251889 Si02
#       7
#     8   8   8   8   8   8   8
#     4  10  19  35  60  86 113 148 188 233 288 345
#     4  11  24  42  62  86 117 157 200 244 292 345
#     4  10  20  37  60  85 116 153 193 240 293 347
#     4  11  23  38  58  86 118 155 197 241 289 348
#     4  10  20  36  58  86 116 149 191 237 287 346
#     4   9  18  36  61  87 116 154 195 236 290 350
#     4   9  19  38  62  84 112 151 190 231 284 345
#
# _framework density 20.099416999999999
#
# number of rings (size 3 to 8) (size 9 to 14) (size 15 to 20)
#    0.000    2.000    1.429    2.143    2.000    0.571 
#    0.000    4.286    0.000    0.000    0.000    0.000 
#    0.000    0.000    0.000    0.000    0.000    0.000 
#
# Total GULP energy -694565.533205 kJ/mol
# GULP energy per Si atom -12402.955950 kJ/mol
# Density = 2.005367 g / cm^3
# Si number density = 20.099417 Si / 1000 Ang^3
#
#
#
# Elastic Constant Matrix: (Units=GPa)
#
#
# Indices 1 2 3 4 5 6 
#
# 1 81.0376 24.1254 27.9604 0.0000 0.0000 0.0000
# 2 24.1254 35.9328 23.1099 0.0000 0.0000 0.0000
# 3 27.9604 23.1099 138.8804 0.0000 0.0000 0.0000
# 4 0.0000 0.0000 0.0000 25.9531 0.0000 0.0000
# 5 0.0000 0.0000 0.0000 0.0000 33.4303 0.0000
# 6 0.0000 0.0000 0.0000 0.0000 0.0000 24.4001
#
#
#
# Elastic Compliance Matrix: (Units=1/GPa)
#
#
# Indices 1 2 3 4 5 6 
#
# 1 0.015725 -0.009543 -0.001578 0.000000 0.000000 0.000000
# 2 -0.009543 0.036957 -0.004228 0.000000 0.000000 0.000000
# 3 -0.001578 -0.004228 0.008222 0.000000 0.000000 0.000000
# 4 0.000000 0.000000 0.000000 0.038531 0.000000 0.000000
# 5 0.000000 0.000000 0.000000 0.000000 0.029913 0.000000
# 6 0.000000 0.000000 0.000000 0.000000 0.000000 0.040983
#
#
# Mechanical properties :
#
#
# Convention : Reuss Voigt Hill
#
# Bulk Modulus (GPa) = 33.10747 45.13800 39.12274
# Shear Modulus (GPa) = 23.68563 28.80038 26.24301
#
# Velocity S-wave (km/s) = 3.43654 3.78947 3.61731
# Velocity P-wave (km/s) = 5.67926 6.45390 6.07894
#
# Compressibility (1/GPa) = 0.03020466
#
# Stress axis : x y z
#
# Youngs Moduli (GPa) = 63.59100 27.05882 121.62907
#
# Poissons Ratio (x) = 0.25823 0.19192
# Poissons Ratio (y) = 0.60687 0.51428
# Poissons Ratio (z) = 0.10034 0.11441
#
# Static dielectric constant tensor:
#      x y z
#    x 3.847170 0.000000 0.000000 
#    y 0.000000 3.276730 0.000000 
#    z 0.000000 0.000000 3.737190 
# 
# 
# High freq. dielectric constant tensor:
#      x y z
#    x 1.794520 0.000000 0.000000 
#    y 0.000000 1.748410 0.000000 
#    z 0.000000 0.000000 1.800750 
# 
# From -- ./inp_files/20212.got.cif
#   From: 2010.03.12/outbox.cif.g09.slc.cpg/sg62_11_cif.got.tgz:20212.got - 2010.04.10 19:12:36.
