data_PCOD8251609
_publ_section_title
;
Structure prediction by ZEFSAII (Michael W. Deem and Ramdas Pophale) SiO2 
 PCOD8251609
Probable space group: P N M A
;
_chemical_formula_sum "Si O2"
_cell_formula_units_Z 56
_cell_length_a 17.753330
_cell_length_b 30.779058
_cell_length_c 5.004490
_cell_angle_alpha 90.000000
_cell_angle_beta 90.000000
_cell_angle_gamma 90.000000
_cell_volume 2734.607343
_symmetry_space_group_name_H-M "P N M A"
_symmetry_group_IT_number 62
_symmetry_cell_setting 'orthorhombic'
loop_
_space_group_symop_operation_xyz
x,y,z
1/2-x,-y,1/2+z
1/2+x,1/2-y,1/2-z
-x,1/2+y,-z
-x,-y,-z
1/2+x,y,1/2-z
1/2-x,1/2+y,1/2+z
x,1/2-y,z
loop_
_atom_site_type_symbol
_atom_site_label
_atom_site_fract_x
_atom_site_fract_y
_atom_site_fract_z
Si Si1 0.132074 0.801076 0.307000
Si Si2 0.610856 0.334949 0.145283
Si Si3 0.916074 0.516080 0.977390
Si Si4 0.726157 0.698741 0.700304
Si Si5 0.728248 0.524617 0.587154
Si Si6 0.369484 0.931350 0.021706
Si Si7 0.968983 0.800278 0.152935
O O1 0.120893 0.750000 0.326211
O O2 0.165903 0.818936 0.583599
O O3 0.049487 0.820346 0.244848
O O4 0.192587 0.813775 0.084358
O O5 0.695199 0.325361 0.241128
O O6 0.600927 0.383773 0.042489
O O7 0.556486 0.327520 0.396171
O O8 0.589287 0.303882 0.898221
O O9 0.861566 0.473968 0.029686
O O10 0.896258 0.555000 0.183068
O O11 0.904639 0.533718 0.680102
O O12 0.000000 0.500000 0.000000
O O13 0.739760 0.750000 0.736119
O O14 0.759413 0.485124 0.400233
O O15 0.777232 0.567115 0.504097
O O16 0.974788 0.750000 0.066090
#
# Coordination Sequence:
#
# PCOD8251609 Si02
#       7
#     8   8   8   8   8   8   8
#     4   9  19  35  55  75 102 139 191 246 286 332
#     4  12  23  36  57  85 119 152 190 250 297 339
#     4  10  19  36  62  86 108 144 189 227 269 343
#     4  10  19  34  55  80 106 145 195 240 285 343
#     4   8  16  32  55  77 104 139 175 212 263 334
#     4  10  21  37  54  83 118 147 179 227 290 335
#     4  11  22  38  58  82 113 160 206 242 293 354
#
# _framework density 20.478261
#
# number of rings (size 3 to 8) (size 9 to 14) (size 15 to 20)
#    0.000    2.000    0.000    4.286    0.000    3.429 
#    0.000    4.286    0.000    3.429    0.000    0.000 
#    0.000    0.000    0.000    0.000    0.000    0.000 
#
# Total GULP energy -694252.124299 kJ/mol
# GULP energy per Si atom -12397.359362 kJ/mol
# Density = 2.043165 g / cm^3
# Si number density = 20.478261 Si / 1000 Ang^3
#
#
#
# Elastic Constant Matrix: (Units=GPa)
#
#
# Indices 1 2 3 4 5 6 
#
# 1 125.9179 26.1291 8.3101 0.0000 0.0000 0.0000
# 2 26.1291 40.6139 7.9763 0.0000 0.0000 0.0000
# 3 8.3101 7.9763 85.5938 0.0000 0.0000 0.0000
# 4 0.0000 0.0000 0.0000 23.1305 0.0000 0.0000
# 5 0.0000 0.0000 0.0000 0.0000 27.6040 0.0000
# 6 0.0000 0.0000 0.0000 0.0000 0.0000 12.5244
#
#
#
# Elastic Compliance Matrix: (Units=1/GPa)
#
#
# Indices 1 2 3 4 5 6 
#
# 1 0.009175 -0.005835 -0.000347 0.000000 0.000000 0.000000
# 2 -0.005835 0.028792 -0.002117 0.000000 0.000000 0.000000
# 3 -0.000347 -0.002117 0.011914 0.000000 0.000000 0.000000
# 4 0.000000 0.000000 0.000000 0.043233 0.000000 0.000000
# 5 0.000000 0.000000 0.000000 0.000000 0.036227 0.000000
# 6 0.000000 0.000000 0.000000 0.000000 0.000000 0.079844
#
#
# Mechanical properties :
#
#
# Convention : Reuss Voigt Hill
#
# Bulk Modulus (GPa) = 30.04436 37.43961 33.74199
# Shear Modulus (GPa) = 21.10804 26.63244 23.87024
#
# Velocity S-wave (km/s) = 3.21402 3.61019 3.41785
# Velocity P-wave (km/s) = 5.33633 5.97497 5.66466
#
# Compressibility (1/GPa) = 0.03328412
#
# Stress axis : x y z
#
# Youngs Moduli (GPa) = 108.98737 34.73229 83.93471
#
# Poissons Ratio (x) = 0.20266 0.02913
# Poissons Ratio (y) = 0.63592 0.17765
# Poissons Ratio (z) = 0.03783 0.07351
#
# Static dielectric constant tensor:
#      x y z
#    x 3.932630 0.000000 0.000000 
#    y 0.000000 3.250120 0.000000 
#    z 0.000000 0.000000 3.916780 
# 
# 
# High freq. dielectric constant tensor:
#      x y z
#    x 1.811440 0.000000 0.000000 
#    y 0.000000 1.746300 0.000000 
#    z 0.000000 0.000000 1.822530 
# 
# From -- ./inp_files/1289.got.cif
#   From: 2010.03.12/outbox.cif.g09.slc.cpg/sg62_1_cif.got.tgz:1289.got - 2010.04.10 19:12:36.
