data_PCOD8251486
_publ_section_title
;
Structure prediction by ZEFSAII (Michael W. Deem and Ramdas Pophale) SiO2 
 PCOD8251486
Probable space group: P N M A
;
_chemical_formula_sum "Si O2"
_cell_formula_units_Z 56
_cell_length_a 14.602721
_cell_length_b 8.929987
_cell_length_c 21.741346
_cell_angle_alpha 90.000000
_cell_angle_beta 90.000000
_cell_angle_gamma 90.000000
_cell_volume 2835.117364
_symmetry_space_group_name_H-M "P N M A"
_symmetry_group_IT_number 62
_symmetry_cell_setting 'orthorhombic'
loop_
_space_group_symop_operation_xyz
x,y,z
1/2-x,-y,1/2+z
1/2+x,1/2-y,1/2-z
-x,1/2+y,-z
-x,-y,-z
1/2+x,y,1/2-z
1/2-x,1/2+y,1/2+z
x,1/2-y,z
loop_
_atom_site_type_symbol
_atom_site_label
_atom_site_fract_x
_atom_site_fract_y
_atom_site_fract_z
Si Si1 0.654023 0.080375 0.653810
Si Si2 0.013627 0.574065 0.631254
Si Si3 0.299114 0.423713 0.623819
Si Si4 0.177037 0.925629 0.718413
Si Si5 0.847701 0.420140 0.591199
Si Si6 0.632583 0.076089 0.964224
Si Si7 0.010862 0.572593 0.066620
O O1 0.634573 0.250000 0.675859
O O2 0.746123 0.070867 0.615688
O O3 0.572724 0.022074 0.610113
O O4 0.664316 0.974366 0.711971
O O5 0.995135 0.750000 0.632549
O O6 0.085414 0.522713 0.682991
O O7 0.052066 0.524310 0.564717
O O8 0.918753 0.484391 0.642267
O O9 0.306214 0.250000 0.639723
O O10 0.267171 0.503319 0.686888
O O11 0.227410 0.458397 0.570108
O O12 0.396765 0.485134 0.600128
O O13 0.190342 0.750000 0.714906
O O14 0.873169 0.250000 0.573531
O O15 0.854408 0.530510 0.533994
O O16 0.605756 0.250000 0.959372
O O17 0.013090 0.750000 0.057065
O O18 0.000000 0.500000 0.000000
#
# Coordination Sequence:
#
# PCOD8251486 Si02
#       7
#     8   8   8   8   8   8   8
#     4  10  23  40  57  79 112 149 184 226 277 331
#     4  10  21  37  56  80 110 143 179 223 271 323
#     4   9  19  36  59  84 112 147 185 224 275 334
#     4  10  22  39  59  82 108 141 185 232 278 327
#     4  11  22  35  53  79 109 144 181 219 267 321
#     4  10  19  33  55  83 113 144 177 219 268 322
#     4  10  21  38  60  87 116 150 190 233 282 336
#
# _framework density 19.752269999999999
#
# number of rings (size 3 to 8) (size 9 to 14) (size 15 to 20)
#    0.000    2.000    0.000    3.000    0.000    5.714 
#    0.000    4.286    0.000    0.000    0.000    0.000 
#    0.000    0.000    0.000    0.000    0.000    0.000 
#
# Total GULP energy -694555.532278 kJ/mol
# GULP energy per Si atom -12402.777362 kJ/mol
# Density = 1.970731 g / cm^3
# Si number density = 19.752270 Si / 1000 Ang^3
#
#
#
# Elastic Constant Matrix: (Units=GPa)
#
#
# Indices 1 2 3 4 5 6 
#
# 1 130.4920 37.6871 35.1814 0.0000 0.0000 0.0000
# 2 37.6871 48.5448 20.2841 0.0000 0.0000 0.0000
# 3 35.1814 20.2841 90.6245 0.0000 0.0000 0.0000
# 4 0.0000 0.0000 0.0000 35.4291 0.0000 0.0000
# 5 0.0000 0.0000 0.0000 0.0000 21.3896 0.0000
# 6 0.0000 0.0000 0.0000 0.0000 0.0000 23.9959
#
#
#
# Elastic Compliance Matrix: (Units=1/GPa)
#
#
# Indices 1 2 3 4 5 6 
#
# 1 0.010348 -0.007011 -0.002448 0.000000 0.000000 0.000000
# 2 -0.007011 0.027474 -0.003428 0.000000 0.000000 0.000000
# 3 -0.002448 -0.003428 0.012752 0.000000 0.000000 0.000000
# 4 0.000000 0.000000 0.000000 0.028225 0.000000 0.000000
# 5 0.000000 0.000000 0.000000 0.000000 0.046752 0.000000
# 6 0.000000 0.000000 0.000000 0.000000 0.000000 0.041674
#
#
# Mechanical properties :
#
#
# Convention : Reuss Voigt Hill
#
# Bulk Modulus (GPa) = 40.32018 50.66295 45.49156
# Shear Modulus (GPa) = 24.84276 27.93017 26.38646
#
# Velocity S-wave (km/s) = 3.55028 3.76443 3.65892
# Velocity P-wave (km/s) = 6.10436 6.67828 6.39776
#
# Compressibility (1/GPa) = 0.02480148
#
# Stress axis : x y z
#
# Youngs Moduli (GPa) = 96.63657 36.39741 78.41812
#
# Poissons Ratio (x) = 0.25517 0.19197
# Poissons Ratio (y) = 0.67749 0.26881
# Poissons Ratio (z) = 0.23657 0.12477
#
# Static dielectric constant tensor:
#      x y z
#    x 3.947750 0.000000 0.000000 
#    y 0.000000 3.582900 0.000000 
#    z 0.000000 0.000000 3.457480 
# 
# 
# High freq. dielectric constant tensor:
#      x y z
#    x 1.784270 0.000000 0.000000 
#    y 0.000000 1.769940 0.000000 
#    z 0.000000 0.000000 1.762090 
# 
# From -- ./inp_files/27143.got.cif
#   From: 2010.03.12/outbox.cif.g09.slc.cpg/sg62_14_cif.got.tgz:27143.got - 2010.04.10 19:12:36.
