data_PCOD8251417
_publ_section_title
;
Structure prediction by ZEFSAII (Michael W. Deem and Ramdas Pophale) SiO2 
 PCOD8251417
Probable space group: P N M A
;
_chemical_formula_sum "Si O2"
_cell_formula_units_Z 48
_cell_length_a 16.480555
_cell_length_b 9.066652
_cell_length_c 16.798354
_cell_angle_alpha 90.000000
_cell_angle_beta 90.000000
_cell_angle_gamma 90.000000
_cell_volume 2510.068126
_symmetry_space_group_name_H-M "P N M A"
_symmetry_group_IT_number 62
_symmetry_cell_setting 'orthorhombic'
loop_
_space_group_symop_operation_xyz
x,y,z
1/2-x,-y,1/2+z
1/2+x,1/2-y,1/2-z
-x,1/2+y,-z
-x,-y,-z
1/2+x,y,1/2-z
1/2-x,1/2+y,1/2+z
x,1/2-y,z
loop_
_atom_site_type_symbol
_atom_site_label
_atom_site_fract_x
_atom_site_fract_y
_atom_site_fract_z
Si Si1 0.878513 0.913226 0.490656
Si Si2 0.276891 0.420336 0.886377
Si Si3 0.018966 0.912502 0.618935
Si Si4 0.885845 0.925362 0.737895
Si Si5 0.573199 0.921452 0.396378
Si Si6 0.103940 0.082045 0.946329
O O1 0.842388 0.750000 0.475084
O O2 0.955466 0.901457 0.547462
O O3 0.810947 0.016511 0.530403
O O4 0.906968 0.980850 0.405709
O O5 0.302987 0.250000 0.879714
O O6 0.310203 0.508216 0.810546
O O7 0.179814 0.439839 0.887455
O O8 0.054881 0.750000 0.636275
O O9 0.970810 0.973200 0.696105
O O10 0.876301 0.750000 0.737514
O O11 0.884271 0.987596 0.826423
O O12 0.591887 0.750000 0.383824
O O13 0.477011 0.955536 0.396686
O O14 0.612771 0.973519 0.478903
O O15 0.099689 0.250000 0.978416
#
# Coordination Sequence:
#
# PCOD8251417 Si02
#       6
#     8   8   8   8   8   8
#     4   9  16  26  43  69 100 134 172 212 254 305
#     4  10  19  33  54  78 107 141 175 215 264 314
#     4   8  15  27  43  65  96 136 175 208 248 303
#     4  10  20  34  53  79 110 140 174 217 264 313
#     4  10  20  36  59  82 104 135 176 218 261 310
#     4   9  20  38  58  80 105 136 176 218 259 309
#
# _framework density 19.122986999999998
#
# number of rings (size 3 to 8) (size 9 to 14) (size 15 to 20)
#    0.000    2.667    0.000    3.000    0.000    6.667 
#    0.000    1.667    0.000    4.000    0.000    0.000 
#    0.000    0.000    0.000    0.000    0.000    0.000 
#
# Total GULP energy -595138.297405 kJ/mol
# GULP energy per Si atom -12398.714529 kJ/mol
# Density = 1.907946 g / cm^3
# Si number density = 19.122987 Si / 1000 Ang^3
#
#
#
# Elastic Constant Matrix: (Units=GPa)
#
#
# Indices 1 2 3 4 5 6 
#
# 1 70.2865 39.9840 34.1203 0.0000 0.0000 0.0000
# 2 39.9840 114.3021 44.8768 0.0000 0.0000 0.0000
# 3 34.1203 44.8768 77.3606 0.0000 0.0000 0.0000
# 4 0.0000 0.0000 0.0000 30.2768 0.0000 0.0000
# 5 0.0000 0.0000 0.0000 0.0000 15.9073 0.0000
# 6 0.0000 0.0000 0.0000 0.0000 0.0000 23.5110
#
#
#
# Elastic Compliance Matrix: (Units=1/GPa)
#
#
# Indices 1 2 3 4 5 6 
#
# 1 0.019755 -0.004519 -0.006092 0.000000 0.000000 0.000000
# 2 -0.004519 0.012363 -0.005178 0.000000 0.000000 0.000000
# 3 -0.006092 -0.005178 0.018617 0.000000 0.000000 0.000000
# 4 0.000000 0.000000 0.000000 0.033029 0.000000 0.000000
# 5 0.000000 0.000000 0.000000 0.000000 0.062864 0.000000
# 6 0.000000 0.000000 0.000000 0.000000 0.000000 0.042533
#
#
# Mechanical properties :
#
#
# Convention : Reuss Voigt Hill
#
# Bulk Modulus (GPa) = 52.20023 55.54570 53.87296
# Shear Modulus (GPa) = 22.01428 23.47024 22.74226
#
# Velocity S-wave (km/s) = 3.39661 3.50713 3.45231
# Velocity P-wave (km/s) = 6.53750 6.74608 6.64261
#
# Compressibility (1/GPa) = 0.01915701
#
# Stress axis : x y z
#
# Youngs Moduli (GPa) = 50.61904 80.88883 53.71335
#
# Poissons Ratio (x) = 0.36553 0.32721
# Poissons Ratio (y) = 0.22874 0.27815
# Poissons Ratio (z) = 0.30836 0.41888
#
# Static dielectric constant tensor:
#      x y z
#    x 3.330220 0.000000 0.000000 
#    y 0.000000 3.702150 0.000000 
#    z 0.000000 0.000000 3.273760 
# 
# 
# High freq. dielectric constant tensor:
#      x y z
#    x 1.721750 0.000000 0.000000 
#    y 0.000000 1.756480 0.000000 
#    z 0.000000 0.000000 1.719560 
# 
# From -- ./inp_files/24217.got.cif
#   From: 2010.03.12/outbox.cif.g09.slc.cpg/sg62_13_cif.got.tgz:24217.got - 2010.04.10 19:12:36.
