data_PCOD8251208
_publ_section_title
;
Structure prediction by ZEFSAII (Michael W. Deem and Ramdas Pophale) SiO2 
 PCOD8251208
Probable space group: P N M A
;
_chemical_formula_sum "Si O2"
_cell_formula_units_Z 64
_cell_length_a 19.753188
_cell_length_b 8.681811
_cell_length_c 19.341485
_cell_angle_alpha 90.000000
_cell_angle_beta 90.000000
_cell_angle_gamma 90.000000
_cell_volume 3316.937891
_symmetry_space_group_name_H-M "P N M A"
_symmetry_group_IT_number 62
_symmetry_cell_setting 'orthorhombic'
loop_
_space_group_symop_operation_xyz
x,y,z
1/2-x,-y,1/2+z
1/2+x,1/2-y,1/2-z
-x,1/2+y,-z
-x,-y,-z
1/2+x,y,1/2-z
1/2-x,1/2+y,1/2+z
x,1/2-y,z
loop_
_atom_site_type_symbol
_atom_site_label
_atom_site_fract_x
_atom_site_fract_y
_atom_site_fract_z
Si Si1 0.960513 0.572040 0.100388
Si Si2 0.875847 0.069391 0.600984
Si Si3 0.148145 0.930090 0.549404
Si Si4 0.787858 0.570313 0.879917
Si Si5 0.002884 0.070527 0.233257
Si Si6 0.647858 0.932220 0.251154
Si Si7 0.599986 0.928321 0.474739
Si Si8 0.473799 0.569449 0.127572
O O1 0.951124 0.750000 0.118460
O O2 0.953626 0.472027 0.169824
O O3 0.033599 0.533154 0.068989
O O4 0.902226 0.521673 0.046735
O O5 0.873636 0.250000 0.609838
O O6 0.837418 0.018848 0.530645
O O7 0.841325 0.005815 0.671980
O O8 0.954155 0.016896 0.595816
O O9 0.129581 0.750000 0.551774
O O10 0.211588 0.968511 0.597640
O O11 0.084507 0.027653 0.574180
O O12 0.804022 0.750000 0.886766
O O13 0.798346 0.516314 0.800906
O O14 0.835533 0.477712 0.931276
O O15 0.020866 0.250000 0.233013
O O16 0.071674 0.972303 0.225724
O O17 0.961984 0.024672 0.301894
O O18 0.658220 0.750000 0.258725
O O19 0.604896 0.750000 0.493008
O O20 0.472505 0.750000 0.144140
#
# Coordination Sequence:
#
# PCOD8251208 Si02
#       8
#     8   8   8   8   8   8   8   8
#     4  10  19  32  52  79 111 144 183 231 278 326
#     4   8  17  35  59  83 107 137 180 231 279 328
#     4  10  21  38  57  80 111 147 185 229 283 338
#     4  11  22  35  54  79 112 151 189 227 275 337
#     4  11  20  32  54  82 113 144 179 225 279 332
#     4  10  19  34  56  81 107 140 183 228 274 328
#     4  10  20  33  52  76 107 146 186 231 278 326
#     4  10  20  35  57  84 111 141 182 232 285 335
#
# _framework density 19.294905
#
# number of rings (size 3 to 8) (size 9 to 14) (size 15 to 20)
#    0.000    2.000    1.250    4.125    0.000    2.000 
#    0.000    4.375    0.000    4.500    0.000    0.000 
#    0.000    0.000    0.000    0.000    0.000    0.000 
#
# Total GULP energy -793569.538289 kJ/mol
# GULP energy per Si atom -12399.524036 kJ/mol
# Density = 1.925099 g / cm^3
# Si number density = 19.294905 Si / 1000 Ang^3
#
#
#
# Elastic Constant Matrix: (Units=GPa)
#
#
# Indices 1 2 3 4 5 6 
#
# 1 57.0793 10.8528 43.5870 0.0000 0.0000 0.0000
# 2 10.8528 52.2837 25.3313 0.0000 0.0000 0.0000
# 3 43.5870 25.3313 144.2991 0.0000 0.0000 0.0000
# 4 0.0000 0.0000 0.0000 31.6185 0.0000 0.0000
# 5 0.0000 0.0000 0.0000 0.0000 30.2054 0.0000
# 6 0.0000 0.0000 0.0000 0.0000 0.0000 22.6139
#
#
#
# Elastic Compliance Matrix: (Units=1/GPa)
#
#
# Indices 1 2 3 4 5 6 
#
# 1 0.022884 -0.001531 -0.006643 0.000000 0.000000 0.000000
# 2 -0.001531 0.021007 -0.003225 0.000000 0.000000 0.000000
# 3 -0.006643 -0.003225 0.009503 0.000000 0.000000 0.000000
# 4 0.000000 0.000000 0.000000 0.031627 0.000000 0.000000
# 5 0.000000 0.000000 0.000000 0.000000 0.033107 0.000000
# 6 0.000000 0.000000 0.000000 0.000000 0.000000 0.044221
#
#
# Mechanical properties :
#
#
# Convention : Reuss Voigt Hill
#
# Bulk Modulus (GPa) = 32.68653 45.91158 39.29906
# Shear Modulus (GPa) = 25.59566 28.48028 27.03797
#
# Velocity S-wave (km/s) = 3.64614 3.84611 3.74746
# Velocity P-wave (km/s) = 5.89093 6.60074 6.25591
#
# Compressibility (1/GPa) = 0.03059364
#
# Stress axis : x y z
#
# Youngs Moduli (GPa) = 43.69923 47.60351 105.23073
#
# Poissons Ratio (x) = 0.07290 0.69909
# Poissons Ratio (y) = 0.06692 0.33938
# Poissons Ratio (z) = 0.29031 0.15353
#
# Static dielectric constant tensor:
#      x y z
#    x 3.183760 0.000000 0.000000 
#    y 0.000000 3.426020 0.000000 
#    z 0.000000 0.000000 3.955070 
# 
# 
# High freq. dielectric constant tensor:
#      x y z
#    x 1.710340 0.000000 0.000000 
#    y 0.000000 1.748670 0.000000 
#    z 0.000000 0.000000 1.768810 
# 
# From -- ./inp_files/24701.got.cif
#   From: 2010.03.12/outbox.cif.g09.slc.cpg/sg62_13_cif.got.tgz:24701.got - 2010.04.10 19:12:36.
