data_PCOD8251277
_publ_section_title
;
Structure prediction by ZEFSAII (Michael W. Deem and Ramdas Pophale) SiO2 
 PCOD8251277
Probable space group: P N M A
;
_chemical_formula_sum "Si O2"
_cell_formula_units_Z 64
_cell_length_a 14.611843
_cell_length_b 18.660570
_cell_length_c 12.474345
_cell_angle_alpha 90.000000
_cell_angle_beta 90.000000
_cell_angle_gamma 90.000000
_cell_volume 3401.321260
_symmetry_space_group_name_H-M "P N M A"
_symmetry_group_IT_number 62
_symmetry_cell_setting 'orthorhombic'
loop_
_space_group_symop_operation_xyz
x,y,z
1/2-x,-y,1/2+z
1/2+x,1/2-y,1/2-z
-x,1/2+y,-z
-x,-y,-z
1/2+x,y,1/2-z
1/2-x,1/2+y,1/2+z
x,1/2-y,z
loop_
_atom_site_type_symbol
_atom_site_label
_atom_site_fract_x
_atom_site_fract_y
_atom_site_fract_z
Si Si1 0.595988 0.333428 0.648858
Si Si2 0.990291 0.833625 0.724244
Si Si3 0.798550 0.831828 0.356697
Si Si4 0.903842 0.073371 0.571520
Si Si5 0.829822 0.332061 0.384501
Si Si6 0.896864 0.330810 0.772709
Si Si7 0.404529 0.584653 0.972451
Si Si8 0.872794 0.666568 0.914473
O O1 0.619372 0.250000 0.645575
O O2 0.654927 0.365098 0.748404
O O3 0.488571 0.349080 0.662578
O O4 0.624978 0.368573 0.533899
O O5 0.968032 0.750000 0.718707
O O6 0.935521 0.868189 0.627053
O O7 0.952183 0.865435 0.836838
O O8 0.099829 0.848539 0.713656
O O9 0.832702 0.750000 0.371701
O O10 0.688922 0.835639 0.352213
O O11 0.824837 0.876419 0.461795
O O12 0.851640 0.116716 0.481605
O O13 0.880115 0.110404 0.682660
O O14 0.012644 0.073986 0.555567
O O15 0.868138 0.991687 0.570522
O O16 0.843222 0.250000 0.422501
O O17 0.724257 0.346396 0.353819
O O18 0.903709 0.250000 0.723567
O O19 0.892527 0.750000 0.930752
#
# Coordination Sequence:
#
# PCOD8251277 Si02
#       8
#     8   8   8   8   8   8   8   8
#     4   9  17  30  51  79 108 136 168 223 278 315
#     4   9  18  33  53  75 103 139 178 221 262 313
#     4  10  19  33  55  82 110 139 181 230 277 328
#     4  10  19  33  54  77 106 142 177 221 267 325
#     4   9  17  31  54  79  98 133 183 220 258 314
#     4  10  19  32  54  83 109 140 179 227 282 327
#     4  10  20  34  52  78 108 142 177 218 273 322
#     4   9  17  32  52  77 105 134 174 219 266 316
#
# _framework density 18.816217000000002
#
# number of rings (size 3 to 8) (size 9 to 14) (size 15 to 20)
#    0.000    2.500    1.250    1.500    0.000    3.000 
#    4.500    0.000    0.000    0.750    0.000    0.000 
#    0.000    0.000    0.000    0.000    0.000    0.000 
#
# Total GULP energy -793264.487451 kJ/mol
# GULP energy per Si atom -12394.757616 kJ/mol
# Density = 1.877339 g / cm^3
# Si number density = 18.816217 Si / 1000 Ang^3
#
#
#
# Elastic Constant Matrix: (Units=GPa)
#
#
# Indices 1 2 3 4 5 6 
#
# 1 99.0324 20.9873 31.9380 0.0000 0.0000 0.0000
# 2 20.9873 61.5476 26.8075 0.0000 0.0000 0.0000
# 3 31.9380 26.8075 74.0446 0.0000 0.0000 0.0000
# 4 0.0000 0.0000 0.0000 -84.5975 0.0000 0.0000
# 5 0.0000 0.0000 0.0000 0.0000 25.7444 0.0000
# 6 0.0000 0.0000 0.0000 0.0000 0.0000 11.6304
#
#
#
# Elastic Compliance Matrix: (Units=1/GPa)
#
#
# Indices 1 2 3 4 5 6 
#
# 1 0.011970 -0.002176 -0.004375 0.000000 0.000000 0.000000
# 2 -0.002176 0.019685 -0.006188 0.000000 0.000000 0.000000
# 3 -0.004375 -0.006188 0.017633 0.000000 0.000000 0.000000
# 4 0.000000 0.000000 0.000000 -0.011821 0.000000 0.000000
# 5 0.000000 0.000000 0.000000 0.000000 0.038843 0.000000
# 6 0.000000 0.000000 0.000000 0.000000 0.000000 0.085982
#
#
# Mechanical properties :
#
#
# Convention : Reuss Voigt Hill
#
# Bulk Modulus (GPa) = 42.00119 43.78782 42.89450
# Shear Modulus (GPa) = 25.54836 0.88157 13.21497
#
# Velocity S-wave (km/s) = 3.68881 0.68523 2.65300
# Velocity P-wave (km/s) = 6.36501 4.89366 5.67720
#
# Compressibility (1/GPa) = 0.02380885
#
# Stress axis : x y z
#
# Youngs Moduli (GPa) = 83.54318 50.80030 56.71183
#
# Poissons Ratio (x) = 0.11054 0.24813
# Poissons Ratio (y) = 0.18179 0.35095
# Poissons Ratio (z) = 0.36552 0.31437
#
# Static dielectric constant tensor:
#      x y z
#    x 3.541200 0.000000 0.000000 
#    y 0.000000 3.243180 0.000000 
#    z 0.000000 0.000000 3.500400 
# 
# 
# High freq. dielectric constant tensor:
#      x y z
#    x 1.733950 0.000000 0.000000 
#    y 0.000000 1.695620 0.000000 
#    z 0.000000 0.000000 1.717540 
# 
# From -- ./inp_files/13611.got.cif
#   From: 2010.03.12/outbox.cif.g09.slc.cpg/sg62_7_cif.got.tgz:13611.got - 2010.04.10 19:12:36.
