data_PCOD8251422
_publ_section_title
;
Structure prediction by ZEFSAII (Michael W. Deem and Ramdas Pophale) SiO2 
 PCOD8251422
Probable space group: P N M A
;
_chemical_formula_sum "Si O2"
_cell_formula_units_Z 64
_cell_length_a 20.286868
_cell_length_b 8.933196
_cell_length_c 19.495132
_cell_angle_alpha 90.000000
_cell_angle_beta 90.000000
_cell_angle_gamma 90.000000
_cell_volume 3533.035866
_symmetry_space_group_name_H-M "P N M A"
_symmetry_group_IT_number 62
_symmetry_cell_setting 'orthorhombic'
loop_
_space_group_symop_operation_xyz
x,y,z
1/2-x,-y,1/2+z
1/2+x,1/2-y,1/2-z
-x,1/2+y,-z
-x,-y,-z
1/2+x,y,1/2-z
1/2-x,1/2+y,1/2+z
x,1/2-y,z
loop_
_atom_site_type_symbol
_atom_site_label
_atom_site_fract_x
_atom_site_fract_y
_atom_site_fract_z
Si Si1 0.773613 0.577844 0.077668
Si Si2 0.697356 0.573385 0.713552
Si Si3 0.682425 0.573944 0.292514
Si Si4 0.229986 0.577474 0.059770
Si Si5 0.382354 0.576071 0.060212
Si Si6 0.381646 0.076772 0.921322
Si Si7 0.076347 0.921423 0.693046
Si Si8 0.071162 0.421980 0.287110
O O1 0.793224 0.750000 0.084112
O O2 0.811243 0.486513 0.136440
O O3 0.696054 0.551289 0.086315
O O4 0.797148 0.519737 0.003374
O O5 0.706122 0.750000 0.711791
O O6 0.761483 0.503217 0.747898
O O7 0.632426 0.523346 0.754706
O O8 0.688473 0.750000 0.279428
O O9 0.689304 0.533538 0.372533
O O10 0.611212 0.516856 0.268770
O O11 0.220706 0.750000 0.040068
O O12 0.306012 0.541232 0.075408
O O13 0.395375 0.750000 0.046726
O O14 0.423843 0.523221 0.125448
O O15 0.406801 0.484402 0.994171
O O16 0.400922 0.250000 0.914585
O O17 0.417463 0.982709 0.863201
O O18 0.089157 0.750000 0.670910
O O19 0.006063 0.938646 0.730517
O O20 0.094103 0.250000 0.283874
#
# Coordination Sequence:
#
# PCOD8251422 Si02
#       8
#     8   8   8   8   8   8   8   8
#     4  10  20  33  54  83 113 140 178 227 270 321
#     4  11  21  35  58  82 109 145 182 225 274 321
#     4  11  21  36  57  84 112 140 180 228 273 323
#     4   9  19  34  54  81 112 141 176 223 274 325
#     4  10  19  33  54  79 108 146 186 224 270 323
#     4  10  20  34  52  77 111 147 184 225 268 320
#     4  10  23  39  54  78 111 147 187 227 272 324
#     4  11  23  38  55  78 110 148 187 226 270 326
#
# _framework density 18.114733000000001
#
# number of rings (size 3 to 8) (size 9 to 14) (size 15 to 20)
#    0.000    1.750    2.500    2.250    0.000    4.500 
#    0.000    0.000    0.000    0.750    0.000    0.000 
#    0.000    0.000    0.000    0.000    0.000    0.000 
#
# Total GULP energy -793904.576088 kJ/mol
# GULP energy per Si atom -12404.759001 kJ/mol
# Density = 1.807350 g / cm^3
# Si number density = 18.114733 Si / 1000 Ang^3
#
#
#
# Elastic Constant Matrix: (Units=GPa)
#
#
# Indices 1 2 3 4 5 6 
#
# 1 48.3248 13.9988 30.5051 0.0000 0.0000 0.0000
# 2 13.9988 71.6067 41.7928 0.0000 0.0000 0.0000
# 3 30.5051 41.7928 107.5640 0.0000 0.0000 0.0000
# 4 0.0000 0.0000 0.0000 35.1634 0.0000 0.0000
# 5 0.0000 0.0000 0.0000 0.0000 21.6440 0.0000
# 6 0.0000 0.0000 0.0000 0.0000 0.0000 18.0433
#
#
#
# Elastic Compliance Matrix: (Units=1/GPa)
#
#
# Indices 1 2 3 4 5 6 
#
# 1 0.025259 -0.000979 -0.006783 0.000000 0.000000 0.000000
# 2 -0.000979 0.018099 -0.006754 0.000000 0.000000 0.000000
# 3 -0.006783 -0.006754 0.013845 0.000000 0.000000 0.000000
# 4 0.000000 0.000000 0.000000 0.028439 0.000000 0.000000
# 5 0.000000 0.000000 0.000000 0.000000 0.046202 0.000000
# 6 0.000000 0.000000 0.000000 0.000000 0.000000 0.055422
#
#
# Mechanical properties :
#
#
# Convention : Reuss Voigt Hill
#
# Bulk Modulus (GPa) = 35.49965 44.45434 39.97700
# Shear Modulus (GPa) = 22.15448 24.38339 23.26893
#
# Velocity S-wave (km/s) = 3.50095 3.67284 3.58792
# Velocity P-wave (km/s) = 5.99849 6.52534 6.26745
#
# Compressibility (1/GPa) = 0.02816929
#
# Stress axis : x y z
#
# Youngs Moduli (GPa) = 39.59040 55.25240 72.22947
#
# Poissons Ratio (x) = 0.05410 0.48993
# Poissons Ratio (y) = 0.03876 0.48787
# Poissons Ratio (z) = 0.26854 0.37320
#
# Static dielectric constant tensor:
#      x y z
#    x 3.181410 0.000000 0.000000 
#    y 0.000000 3.433140 0.000000 
#    z 0.000000 0.000000 3.435290 
# 
# 
# High freq. dielectric constant tensor:
#      x y z
#    x 1.674390 0.000000 0.000000 
#    y 0.000000 1.715200 0.000000 
#    z 0.000000 0.000000 1.704500 
# 
# From -- ./inp_files/24767.got.cif
#   From: 2010.03.12/outbox.cif.g09.slc.cpg/sg62_13_cif.got.tgz:24767.got - 2010.04.10 19:12:36.
