data_PCOD8251945
_publ_section_title
;
Structure prediction by ZEFSAII (Michael W. Deem and Ramdas Pophale) SiO2 
 PCOD8251945
Probable space group: P N M A
;
_chemical_formula_sum "Si O2"
_cell_formula_units_Z 64
_cell_length_a 16.283197
_cell_length_b 8.383118
_cell_length_c 22.809458
_cell_angle_alpha 90.000000
_cell_angle_beta 90.000000
_cell_angle_gamma 90.000000
_cell_volume 3113.581385
_symmetry_space_group_name_H-M "P N M A"
_symmetry_group_IT_number 62
_symmetry_cell_setting 'orthorhombic'
loop_
_space_group_symop_operation_xyz
x,y,z
1/2-x,-y,1/2+z
1/2+x,1/2-y,1/2-z
-x,1/2+y,-z
-x,-y,-z
1/2+x,y,1/2-z
1/2-x,1/2+y,1/2+z
x,1/2-y,z
loop_
_atom_site_type_symbol
_atom_site_label
_atom_site_fract_x
_atom_site_fract_y
_atom_site_fract_z
Si Si1 0.608114 0.567668 0.211247
Si Si2 0.580619 0.060389 0.965991
Si Si3 0.746684 0.560946 0.518696
Si Si4 0.554072 0.934147 0.838195
Si Si5 0.753517 0.068447 0.151030
Si Si6 0.455019 0.437060 0.667370
Si Si7 0.422935 0.440149 0.537984
Si Si8 0.384525 0.933855 0.270148
O O1 0.636093 0.750000 0.201058
O O2 0.517058 0.547486 0.186544
O O3 0.660711 0.443317 0.173756
O O4 0.611155 0.525778 0.281104
O O5 0.578032 0.250000 0.965639
O O6 0.582504 0.992191 0.901058
O O7 0.666218 0.996024 0.993925
O O8 0.500000 0.000000 0.000000
O O9 0.748904 0.750000 0.514921
O O10 0.739819 0.502403 0.585374
O O11 0.665231 0.495327 0.485616
O O12 0.527879 0.750000 0.841215
O O13 0.625633 0.963916 0.789992
O O14 0.784727 0.250000 0.154820
O O15 0.802204 0.951197 0.193284
O O16 0.463932 0.250000 0.658382
O O17 0.430455 0.510286 0.604293
O O18 0.542610 0.505083 0.688946
O O19 0.500000 0.500000 0.500000
O O20 0.423538 0.250000 0.536387
O O21 0.399680 0.750000 0.254117
#
# Coordination Sequence:
#
# PCOD8251945 Si02
#       8
#     8   8   8   8   8   8   8   8
#     4  10  20  36  57  82 108 144 189 235 286 347
#     4  11  22  39  61  86 117 159 201 243 293 351
#     4   9  21  37  56  82 116 153 191 231 285 351
#     4  11  22  38  58  84 115 148 187 239 296 352
#     4  11  21  35  54  82 115 147 185 234 287 341
#     4   8  17  33  55  79 105 136 181 229 274 329
#     4  10  19  36  58  82 111 147 183 225 276 334
#     4  10  20  36  56  81 110 146 188 234 285 345
#
# _framework density 20.555107
#
# number of rings (size 3 to 8) (size 9 to 14) (size 15 to 20)
#    0.000    2.000    0.000    4.875    0.000    2.000 
#    0.000    9.375    0.000    0.000    0.000    0.000 
#    0.000    0.000    0.000    0.000    0.000    0.000 
#
# Total GULP energy -793326.787684 kJ/mol
# GULP energy per Si atom -12395.731058 kJ/mol
# Density = 2.050832 g / cm^3
# Si number density = 20.555107 Si / 1000 Ang^3
#
#
#
# Elastic Constant Matrix: (Units=GPa)
#
#
# Indices 1 2 3 4 5 6 
#
# 1 111.5666 21.9243 63.7591 0.0000 0.0000 0.0000
# 2 21.9243 56.8161 33.3304 0.0000 0.0000 0.0000
# 3 63.7591 33.3304 177.8052 0.0000 0.0000 0.0000
# 4 0.0000 0.0000 0.0000 27.1269 0.0000 0.0000
# 5 0.0000 0.0000 0.0000 0.0000 35.3994 0.0000
# 6 0.0000 0.0000 0.0000 0.0000 0.0000 28.4154
#
#
#
# Elastic Compliance Matrix: (Units=1/GPa)
#
#
# Indices 1 2 3 4 5 6 
#
# 1 0.011529 -0.002274 -0.003708 0.000000 0.000000 0.000000
# 2 -0.002274 0.020224 -0.002976 0.000000 0.000000 0.000000
# 3 -0.003708 -0.002976 0.007512 0.000000 0.000000 0.000000
# 4 0.000000 0.000000 0.000000 0.036864 0.000000 0.000000
# 5 0.000000 0.000000 0.000000 0.000000 0.028249 0.000000
# 6 0.000000 0.000000 0.000000 0.000000 0.000000 0.035192
#
#
# Mechanical properties :
#
#
# Convention : Reuss Voigt Hill
#
# Bulk Modulus (GPa) = 46.83913 64.91282 55.87598
# Shear Modulus (GPa) = 30.37655 33.33330 31.85493
#
# Velocity S-wave (km/s) = 3.84840 4.03135 3.94094
# Velocity P-wave (km/s) = 6.52560 7.30188 6.92463
#
# Compressibility (1/GPa) = 0.02134967
#
# Stress axis : x y z
#
# Youngs Moduli (GPa) = 86.73662 49.44704 133.12737
#
# Poissons Ratio (x) = 0.11242 0.49364
# Poissons Ratio (y) = 0.19721 0.39615
# Poissons Ratio (z) = 0.32162 0.14714
#
# Static dielectric constant tensor:
#      x y z
#    x 3.774250 0.000000 0.000000 
#    y 0.000000 3.379330 0.000000 
#    z 0.000000 0.000000 4.046670 
# 
# 
# High freq. dielectric constant tensor:
#      x y z
#    x 1.799860 0.000000 0.000000 
#    y 0.000000 1.780830 0.000000 
#    z 0.000000 0.000000 1.820680 
# 
# From -- ./inp_files/27667.got.cif
#   From: 2010.03.12/outbox.cif.g09.slc.cpg/sg62_14_cif.got.tgz:27667.got - 2010.04.10 19:12:36.
