data_PCOD8251781
_publ_section_title
;
Structure prediction by ZEFSAII (Michael W. Deem and Ramdas Pophale) SiO2 
 PCOD8251781
Probable space group: P N M A
;
_chemical_formula_sum "Si O2"
_cell_formula_units_Z 64
_cell_length_a 25.238344
_cell_length_b 9.262780
_cell_length_c 14.431287
_cell_angle_alpha 90.000000
_cell_angle_beta 90.000000
_cell_angle_gamma 90.000000
_cell_volume 3373.706272
_symmetry_space_group_name_H-M "P N M A"
_symmetry_group_IT_number 62
_symmetry_cell_setting 'orthorhombic'
loop_
_space_group_symop_operation_xyz
x,y,z
1/2-x,-y,1/2+z
1/2+x,1/2-y,1/2-z
-x,1/2+y,-z
-x,-y,-z
1/2+x,y,1/2-z
1/2-x,1/2+y,1/2+z
x,1/2-y,z
loop_
_atom_site_type_symbol
_atom_site_label
_atom_site_fract_x
_atom_site_fract_y
_atom_site_fract_z
Si Si1 0.753058 0.920411 0.555309
Si Si2 0.369791 0.582903 0.888781
Si Si3 0.114118 0.920199 0.207561
Si Si4 0.010680 0.920325 0.096014
Si Si5 0.951984 0.581925 0.454335
Si Si6 0.572491 0.421213 0.749821
Si Si7 0.188947 0.078186 0.800709
Si Si8 0.728933 0.920684 0.350976
O O1 0.744030 0.750000 0.564440
O O2 0.809273 0.968034 0.597904
O O3 0.750428 0.972260 0.449557
O O4 0.705264 0.004390 0.603686
O O5 0.372572 0.750000 0.861234
O O6 0.397387 0.493116 0.806740
O O7 0.399386 0.554307 0.985503
O O8 0.114618 0.750000 0.225022
O O9 0.068841 0.961594 0.133779
O O10 0.169818 0.980099 0.168109
O O11 0.005128 0.750000 0.079131
O O12 0.968594 0.975710 0.172314
O O13 0.000000 0.000000 0.000000
O O14 0.966354 0.750000 0.450520
O O15 0.943028 0.518775 0.351150
O O16 0.000000 0.500000 0.500000
O O17 0.572822 0.250000 0.754582
O O18 0.630666 0.478341 0.724318
O O19 0.190764 0.250000 0.810964
O O20 0.229843 0.019277 0.723964
O O21 0.727341 0.750000 0.345783
#
# Coordination Sequence:
#
# PCOD8251781 Si02
#       8
#     8   8   8   8   8   8   8   8
#     4  10  20  34  53  79 110 142 176 221 275 324
#     4  10  20  34  55  84 114 141 173 222 280 326
#     4  10  20  36  57  79 107 145 186 223 264 322
#     4  10  22  38  56  79 107 143 185 226 268 315
#     4  10  20  36  58  83 109 141 179 220 269 325
#     4   9  19  36  56  78 107 143 182 221 265 322
#     4  10  19  35  57  79 105 142 184 221 261 319
#     4   9  18  33  54  78 105 141 181 218 264 321
#
# _framework density 18.970234999999999
#
# number of rings (size 3 to 8) (size 9 to 14) (size 15 to 20)
#    0.000    2.250    1.250    1.500    1.750    5.000 
#    0.000    2.500    0.000    1.500    0.000    0.000 
#    0.000    0.000    0.000    0.000    0.000    0.000 
#
# Total GULP energy -793696.233981 kJ/mol
# GULP energy per Si atom -12401.503656 kJ/mol
# Density = 1.892706 g / cm^3
# Si number density = 18.970235 Si / 1000 Ang^3
#
#
#
# Elastic Constant Matrix: (Units=GPa)
#
#
# Indices 1 2 3 4 5 6 
#
# 1 133.6550 27.7652 50.6310 0.0000 0.0000 0.0000
# 2 27.7652 30.1611 33.9360 0.0000 0.0000 0.0000
# 3 50.6310 33.9360 130.5052 0.0000 0.0000 0.0000
# 4 0.0000 0.0000 0.0000 31.6397 0.0000 0.0000
# 5 0.0000 0.0000 0.0000 0.0000 36.8070 0.0000
# 6 0.0000 0.0000 0.0000 0.0000 0.0000 18.5061
#
#
#
# Elastic Compliance Matrix: (Units=1/GPa)
#
#
# Indices 1 2 3 4 5 6 
#
# 1 0.009613 -0.006578 -0.002019 0.000000 0.000000 0.000000
# 2 -0.006578 0.051369 -0.010806 0.000000 0.000000 0.000000
# 3 -0.002019 -0.010806 0.011256 0.000000 0.000000 0.000000
# 4 0.000000 0.000000 0.000000 0.031606 0.000000 0.000000
# 5 0.000000 0.000000 0.000000 0.000000 0.027169 0.000000
# 6 0.000000 0.000000 0.000000 0.000000 0.000000 0.054036
#
#
# Mechanical properties :
#
#
# Convention : Reuss Voigt Hill
#
# Bulk Modulus (GPa) = 29.91113 57.66507 43.78810
# Shear Modulus (GPa) = 21.27678 29.52317 25.39997
#
# Velocity S-wave (km/s) = 3.35264 3.94926 3.66312
# Velocity P-wave (km/s) = 5.54875 7.15955 6.40499
#
# Compressibility (1/GPa) = 0.03343237
#
# Stress axis : x y z
#
# Youngs Moduli (GPa) = 104.02270 19.46713 88.84350
#
# Poissons Ratio (x) = 0.12805 0.17939
# Poissons Ratio (y) = 0.68424 0.96002
# Poissons Ratio (z) = 0.21004 0.21036
#
# Static dielectric constant tensor:
#      x y z
#    x 3.772550 0.000000 0.000000 
#    y 0.000000 3.095740 0.000000 
#    z 0.000000 0.000000 3.711690 
# 
# 
# High freq. dielectric constant tensor:
#      x y z
#    x 1.751400 0.000000 0.000000 
#    y 0.000000 1.698970 0.000000 
#    z 0.000000 0.000000 1.749840 
# 
# From -- ./inp_files/20854.got.cif
#   From: 2010.03.12/outbox.cif.g09.slc.cpg/sg62_11_cif.got.tgz:20854.got - 2010.04.10 19:12:36.
