data_PCOD8251351
_publ_section_title
;
Structure prediction by ZEFSAII (Michael W. Deem and Ramdas Pophale) SiO2 
 PCOD8251351
Probable space group: P N M A
;
_chemical_formula_sum "Si O2"
_cell_formula_units_Z 56
_cell_length_a 22.044286
_cell_length_b 8.742753
_cell_length_c 14.720417
_cell_angle_alpha 90.000000
_cell_angle_beta 90.000000
_cell_angle_gamma 90.000000
_cell_volume 2837.032812
_symmetry_space_group_name_H-M "P N M A"
_symmetry_group_IT_number 62
_symmetry_cell_setting 'orthorhombic'
loop_
_space_group_symop_operation_xyz
x,y,z
1/2-x,-y,1/2+z
1/2+x,1/2-y,1/2-z
-x,1/2+y,-z
-x,-y,-z
1/2+x,y,1/2-z
1/2-x,1/2+y,1/2+z
x,1/2-y,z
loop_
_atom_site_type_symbol
_atom_site_label
_atom_site_fract_x
_atom_site_fract_y
_atom_site_fract_z
Si Si1 0.120939 0.927946 0.297183
Si Si2 0.851289 0.430133 0.346834
Si Si3 0.036338 0.927032 0.130813
Si Si4 0.869300 0.928574 0.988768
Si Si5 0.716173 0.431035 0.326609
Si Si6 0.566886 0.567598 0.012345
Si Si7 0.590800 0.928583 0.657867
O O1 0.134843 0.750000 0.304817
O O2 0.067836 0.966001 0.226404
O O3 0.097810 0.991051 0.394264
O O4 0.183680 0.005631 0.264295
O O5 0.845283 0.250000 0.357757
O O6 0.783583 0.499606 0.339362
O O7 0.889479 0.494629 0.431925
O O8 0.885574 0.476485 0.255811
O O9 0.044808 0.750000 0.104671
O O10 0.064597 0.031378 0.051688
O O11 0.966613 0.966636 0.138973
O O12 0.864094 0.750000 0.009642
O O13 0.819457 0.984275 0.916555
O O14 0.859530 0.024264 0.081693
O O15 0.716823 0.250000 0.316816
O O16 0.561017 0.750000 0.011009
O O17 0.500000 0.500000 0.000000
O O18 0.575032 0.750000 0.652554
#
# Coordination Sequence:
#
# PCOD8251351 Si02
#       7
#     8   8   8   8   8   8   8
#     4   9  19  34  55  81 107 137 171 217 269 309
#     4   9  20  37  55  76 105 140 175 216 262 311
#     4  10  19  33  52  77 109 137 167 208 255 308
#     4  10  20  34  54  78 103 134 172 212 254 305
#     4   9  19  37  57  76 101 137 179 214 255 317
#     4  10  20  36  57  81 110 142 179 221 268 319
#     4  11  21  33  51  75 104 137 171 208 255 305
#
# _framework density 19.738931000000001
#
# number of rings (size 3 to 8) (size 9 to 14) (size 15 to 20)
#    0.000    2.286    0.000    2.571    0.000    2.857 
#    0.000    4.286    0.000    0.000    0.000    0.000 
#    0.000    0.000    0.000    0.000    0.000    0.000 
#
# Total GULP energy -694403.686574 kJ/mol
# GULP energy per Si atom -12400.065832 kJ/mol
# Density = 1.969400 g / cm^3
# Si number density = 19.738931 Si / 1000 Ang^3
#
#
#
# Elastic Constant Matrix: (Units=GPa)
#
#
# Indices 1 2 3 4 5 6 
#
# 1 121.9192 16.0366 53.2860 0.0000 0.0000 0.0000
# 2 16.0366 30.4050 28.7992 0.0000 0.0000 0.0000
# 3 53.2860 28.7992 154.6070 0.0000 0.0000 0.0000
# 4 0.0000 0.0000 0.0000 27.0504 0.0000 0.0000
# 5 0.0000 0.0000 0.0000 0.0000 22.9000 0.0000
# 6 0.0000 0.0000 0.0000 0.0000 0.0000 23.2942
#
#
#
# Elastic Compliance Matrix: (Units=1/GPa)
#
#
# Indices 1 2 3 4 5 6 
#
# 1 0.009798 -0.002391 -0.002932 0.000000 0.000000 0.000000
# 2 -0.002391 0.040519 -0.006723 0.000000 0.000000 0.000000
# 3 -0.002932 -0.006723 0.008731 0.000000 0.000000 0.000000
# 4 0.000000 0.000000 0.000000 0.036968 0.000000 0.000000
# 5 0.000000 0.000000 0.000000 0.000000 0.043668 0.000000
# 6 0.000000 0.000000 0.000000 0.000000 0.000000 0.042929
#
#
# Mechanical properties :
#
#
# Convention : Reuss Voigt Hill
#
# Bulk Modulus (GPa) = 28.60789 55.90831 42.25810
# Shear Modulus (GPa) = 22.89834 28.56957 25.73395
#
# Velocity S-wave (km/s) = 3.40966 3.80856 3.61462
# Velocity P-wave (km/s) = 5.47957 6.90837 6.23503
#
# Compressibility (1/GPa) = 0.03495539
#
# Stress axis : x y z
#
# Youngs Moduli (GPa) = 102.06269 24.67991 114.53743
#
# Poissons Ratio (x) = 0.05901 0.33577
# Poissons Ratio (y) = 0.24404 0.77009
# Poissons Ratio (z) = 0.29920 0.16593
#
# Static dielectric constant tensor:
#      x y z
#    x 3.655310 0.000000 0.000000 
#    y 0.000000 3.332280 0.000000 
#    z 0.000000 0.000000 3.952760 
# 
# 
# High freq. dielectric constant tensor:
#      x y z
#    x 1.766460 0.000000 0.000000 
#    y 0.000000 1.748860 0.000000 
#    z 0.000000 0.000000 1.783250 
# 
# From -- ./inp_files/20363.got.cif
#   From: 2010.03.12/outbox.cif.g09.slc.cpg/sg62_11_cif.got.tgz:20363.got - 2010.04.10 19:12:36.
