data_PCOD8251451
_publ_section_title
;
Structure prediction by ZEFSAII (Michael W. Deem and Ramdas Pophale) SiO2 
 PCOD8251451
Probable space group: P N M A
;
_chemical_formula_sum "Si O2"
_cell_formula_units_Z 48
_cell_length_a 14.122932
_cell_length_b 9.039241
_cell_length_c 17.991599
_cell_angle_alpha 90.000000
_cell_angle_beta 90.000000
_cell_angle_gamma 90.000000
_cell_volume 2296.818071
_symmetry_space_group_name_H-M "P N M A"
_symmetry_group_IT_number 62
_symmetry_cell_setting 'orthorhombic'
loop_
_space_group_symop_operation_xyz
x,y,z
1/2-x,-y,1/2+z
1/2+x,1/2-y,1/2-z
-x,1/2+y,-z
-x,-y,-z
1/2+x,y,1/2-z
1/2-x,1/2+y,1/2+z
x,1/2-y,z
loop_
_atom_site_type_symbol
_atom_site_label
_atom_site_fract_x
_atom_site_fract_y
_atom_site_fract_z
Si Si1 0.171780 0.074703 0.486188
Si Si2 0.686743 0.421434 0.289813
Si Si3 0.541050 0.914230 0.392445
Si Si4 0.125386 0.914677 0.945137
Si Si5 0.866073 0.574334 0.347841
Si Si6 0.943459 0.920715 0.653282
O O1 0.183042 0.250000 0.490629
O O2 0.271779 0.010461 0.456823
O O3 0.148717 0.013391 0.568092
O O4 0.089118 0.028599 0.429093
O O5 0.704333 0.250000 0.307028
O O6 0.613552 0.482650 0.349552
O O7 0.785998 0.507240 0.294562
O O8 0.645032 0.446192 0.207790
O O9 0.537955 0.750000 0.356633
O O10 0.573473 0.902335 0.476649
O O11 0.435995 0.985026 0.388889
O O12 0.134374 0.750000 0.910069
O O13 0.860606 0.750000 0.343585
O O14 0.968577 0.519956 0.320174
O O15 0.975208 0.750000 0.653840
#
# Coordination Sequence:
#
# PCOD8251451 Si02
#       6
#     8   8   8   8   8   8
#     4   9  18  37  62  87 117 155 197 244 294 350
#     4  11  23  39  60  86 120 162 203 241 292 359
#     4  10  19  33  54  84 119 153 196 245 295 348
#     4   9  17  32  55  84 117 153 192 240 296 351
#     4  11  22  40  65  90 118 152 193 246 305 354
#     4  10  23  41  61  87 118 155 200 242 290 355
#
# _framework density 20.898477
#
# number of rings (size 3 to 8) (size 9 to 14) (size 15 to 20)
#    0.000    2.000    1.667    2.000    0.000    3.333 
#    0.000    5.000    0.000    0.000    0.000    0.000 
#    0.000    0.000    0.000    0.000    0.000    0.000 
#
# Total GULP energy -595266.487123 kJ/mol
# GULP energy per Si atom -12401.385148 kJ/mol
# Density = 2.085091 g / cm^3
# Si number density = 20.898477 Si / 1000 Ang^3
#
#
#
# Elastic Constant Matrix: (Units=GPa)
#
#
# Indices 1 2 3 4 5 6 
#
# 1 129.3123 53.1389 29.1315 0.0000 0.0000 0.0000
# 2 53.1389 100.7435 37.3879 0.0000 0.0000 0.0000
# 3 29.1315 37.3879 49.8132 0.0000 0.0000 0.0000
# 4 0.0000 0.0000 0.0000 15.2590 0.0000 0.0000
# 5 0.0000 0.0000 0.0000 0.0000 23.0441 0.0000
# 6 0.0000 0.0000 0.0000 0.0000 0.0000 27.3766
#
#
#
# Elastic Compliance Matrix: (Units=1/GPa)
#
#
# Indices 1 2 3 4 5 6 
#
# 1 0.010120 -0.004354 -0.002650 0.000000 0.000000 0.000000
# 2 -0.004354 0.015632 -0.009186 0.000000 0.000000 0.000000
# 3 -0.002650 -0.009186 0.028520 0.000000 0.000000 0.000000
# 4 0.000000 0.000000 0.000000 0.065535 0.000000 0.000000
# 5 0.000000 0.000000 0.000000 0.000000 0.043395 0.000000
# 6 0.000000 0.000000 0.000000 0.000000 0.000000 0.036527
#
#
# Mechanical properties :
#
#
# Convention : Reuss Voigt Hill
#
# Bulk Modulus (GPa) = 45.68268 57.68729 51.68499
# Shear Modulus (GPa) = 20.88492 23.81666 22.35079
#
# Velocity S-wave (km/s) = 3.16468 3.37951 3.27386
# Velocity P-wave (km/s) = 5.93805 6.54917 6.25108
#
# Compressibility (1/GPa) = 0.02189013
#
# Stress axis : x y z
#
# Youngs Moduli (GPa) = 98.81903 63.97038 35.06345
#
# Poissons Ratio (x) = 0.27855 0.09291
# Poissons Ratio (y) = 0.43029 0.32211
# Poissons Ratio (z) = 0.26186 0.58766
#
# Static dielectric constant tensor:
#      x y z
#    x 3.852860 0.000000 0.000000 
#    y 0.000000 3.768840 0.000000 
#    z 0.000000 0.000000 3.727880 
# 
# 
# High freq. dielectric constant tensor:
#      x y z
#    x 1.829180 0.000000 0.000000 
#    y 0.000000 1.802010 0.000000 
#    z 0.000000 0.000000 1.805150 
# 
# From -- ./inp_files/23719.got.cif
#   From: 2010.03.12/outbox.cif.g09.slc.cpg/sg62_12_cif.got.tgz:23719.got - 2010.04.10 19:12:36.
