data_PCOD8251544
_publ_section_title
;
Structure prediction by ZEFSAII (Michael W. Deem and Ramdas Pophale) SiO2 
 PCOD8251544
Probable space group: P N M A
;
_chemical_formula_sum "Si O2"
_cell_formula_units_Z 56
_cell_length_a 17.004644
_cell_length_b 15.376712
_cell_length_c 9.801215
_cell_angle_alpha 90.000000
_cell_angle_beta 90.000000
_cell_angle_gamma 90.000000
_cell_volume 2562.777725
_symmetry_space_group_name_H-M "P N M A"
_symmetry_group_IT_number 62
_symmetry_cell_setting 'orthorhombic'
loop_
_space_group_symop_operation_xyz
x,y,z
1/2-x,-y,1/2+z
1/2+x,1/2-y,1/2-z
-x,1/2+y,-z
-x,-y,-z
1/2+x,y,1/2-z
1/2-x,1/2+y,1/2+z
x,1/2-y,z
loop_
_atom_site_type_symbol
_atom_site_label
_atom_site_fract_x
_atom_site_fract_y
_atom_site_fract_z
Si Si1 0.780638 0.471452 0.146109
Si Si2 0.250268 0.898605 0.570468
Si Si3 0.585100 0.346346 0.335122
Si Si4 0.456109 0.027521 0.307321
Si Si5 0.472075 0.849835 0.175424
Si Si6 0.654252 0.348090 0.047316
Si Si7 0.420037 0.154957 0.070348
O O1 0.758650 0.469346 0.306354
O O2 0.873394 0.459997 0.116282
O O3 0.735696 0.398525 0.059457
O O4 0.751927 0.561155 0.080457
O O5 0.330954 0.846680 0.589922
O O6 0.174493 0.837043 0.573373
O O7 0.549184 0.250000 0.359397
O O8 0.525482 0.421861 0.391045
O O9 0.596461 0.365920 0.174522
O O10 0.450748 0.076270 0.161939
O O11 0.475706 0.924393 0.291701
O O12 0.467917 0.750000 0.234211
O O13 0.393485 0.871700 0.089030
O O14 0.549523 0.860672 0.082910
O O15 0.682210 0.250000 0.045671
O O16 0.451951 0.250000 0.120866
#
# Coordination Sequence:
#
# PCOD8251544 Si02
#       7
#     8   8   8   8   8   8   8
#     4  10  22  37  57  89 114 158 202 244 294 360
#     4  10  22  37  59  84 121 155 200 246 300 356
#     4  10  20  34  55  85 115 152 196 245 301 356
#     4  11  21  33  58  85 123 156 197 251 305 356
#     4  10  20  34  57  89 120 158 204 251 304 358
#     4   9  17  32  54  82 118 150 193 249 297 344
#     4  10  19  33  58  91 117 147 204 255 292 346
#
# _framework density 21.851292000000001
#
# number of rings (size 3 to 8) (size 9 to 14) (size 15 to 20)
#    0.000    2.000    1.429    3.000    4.000    4.571 
#    0.000    1.429    0.000    2.571    0.000    0.000 
#    0.000    0.000    0.000    0.000    0.000    0.000 
#
# Total GULP energy -693984.185428 kJ/mol
# GULP energy per Si atom -12392.574740 kJ/mol
# Density = 2.180156 g / cm^3
# Si number density = 21.851292 Si / 1000 Ang^3
#
#
#
# Elastic Constant Matrix: (Units=GPa)
#
#
# Indices 1 2 3 4 5 6 
#
# 1 128.9240 43.9507 12.5291 0.0000 0.0000 0.0000
# 2 43.9507 124.9707 17.4702 0.0000 0.0000 0.0000
# 3 12.5291 17.4702 33.9845 0.0000 0.0000 0.0000
# 4 0.0000 0.0000 0.0000 5.0310 0.0000 0.0000
# 5 0.0000 0.0000 0.0000 0.0000 12.6594 0.0000
# 6 0.0000 0.0000 0.0000 0.0000 0.0000 32.3718
#
#
#
# Elastic Compliance Matrix: (Units=1/GPa)
#
#
# Indices 1 2 3 4 5 6 
#
# 1 0.008915 -0.002883 -0.001805 0.000000 0.000000 0.000000
# 2 -0.002883 0.009554 -0.003848 0.000000 0.000000 0.000000
# 3 -0.001805 -0.003848 0.032069 0.000000 0.000000 0.000000
# 4 0.000000 0.000000 0.000000 0.198766 0.000000 0.000000
# 5 0.000000 0.000000 0.000000 0.000000 0.078993 0.000000
# 6 0.000000 0.000000 0.000000 0.000000 0.000000 0.030891
#
#
# Mechanical properties :
#
#
# Convention : Reuss Voigt Hill
#
# Bulk Modulus (GPa) = 29.88156 48.41991 39.15074
# Shear Modulus (GPa) = 12.90610 24.27439 18.59024
#
# Velocity S-wave (km/s) = 2.43293 3.33662 2.91995
# Velocity P-wave (km/s) = 4.64724 6.08695 5.41516
#
# Compressibility (1/GPa) = 0.03346545
#
# Stress axis : x y z
#
# Youngs Moduli (GPa) = 112.17456 104.67101 31.18294
#
# Poissons Ratio (x) = 0.30176 0.05627
# Poissons Ratio (y) = 0.32339 0.12000
# Poissons Ratio (z) = 0.20243 0.40281
#
# Static dielectric constant tensor:
#      x y z
#    x 4.160760 0.000000 0.000000 
#    y 0.000000 4.070220 0.000000 
#    z 0.000000 0.000000 3.505590 
# 
# 
# High freq. dielectric constant tensor:
#      x y z
#    x 1.871900 0.000000 0.000000 
#    y 0.000000 1.857850 0.000000 
#    z 0.000000 0.000000 1.814710 
# 
# From -- ./inp_files/13366.got.cif
#   From: 2010.03.12/outbox.cif.g09.slc.cpg/sg62_7_cif.got.tgz:13366.got - 2010.04.10 19:12:36.
