data_PCOD8251949
_publ_section_title
;
Structure prediction by ZEFSAII (Michael W. Deem and Ramdas Pophale) SiO2 
 PCOD8251949
Probable space group: P N M A
;
_chemical_formula_sum "Si O2"
_cell_formula_units_Z 64
_cell_length_a 22.317191
_cell_length_b 8.870985
_cell_length_c 16.673894
_cell_angle_alpha 90.000000
_cell_angle_beta 90.000000
_cell_angle_gamma 90.000000
_cell_volume 3301.021945
_symmetry_space_group_name_H-M "P N M A"
_symmetry_group_IT_number 62
_symmetry_cell_setting 'orthorhombic'
loop_
_space_group_symop_operation_xyz
x,y,z
1/2-x,-y,1/2+z
1/2+x,1/2-y,1/2-z
-x,1/2+y,-z
-x,-y,-z
1/2+x,y,1/2-z
1/2-x,1/2+y,1/2+z
x,1/2-y,z
loop_
_atom_site_type_symbol
_atom_site_label
_atom_site_fract_x
_atom_site_fract_y
_atom_site_fract_z
Si Si1 0.267557 0.074261 0.418500
Si Si2 0.064812 0.071277 0.501233
Si Si3 0.859171 0.927411 0.647280
Si Si4 0.382588 0.570482 0.677555
Si Si5 0.616896 0.926723 0.683716
Si Si6 0.355435 0.572080 0.151097
Si Si7 0.499536 0.572069 0.586601
Si Si8 0.236430 0.071777 0.089707
O O1 0.268059 0.250000 0.442539
O O2 0.210551 0.033157 0.364167
O O3 0.325876 0.027608 0.368928
O O4 0.263461 0.976829 0.498029
O O5 0.058934 0.250000 0.497506
O O6 0.101232 0.005544 0.425028
O O7 0.099868 0.019784 0.580751
O O8 0.000000 0.000000 0.500000
O O9 0.868259 0.750000 0.647789
O O10 0.880649 0.995876 0.732092
O O11 0.382827 0.750000 0.680246
O O12 0.442191 0.509104 0.634729
O O13 0.324893 0.512194 0.629239
O O14 0.616905 0.750000 0.703825
O O15 0.558585 0.976456 0.634520
O O16 0.616167 0.018441 0.765829
O O17 0.347082 0.750000 0.150858
O O18 0.290891 0.498221 0.139073
O O19 0.500000 0.500000 0.500000
O O20 0.496124 0.750000 0.576088
O O21 0.241927 0.250000 0.095904
#
# Coordination Sequence:
#
# PCOD8251949 Si02
#       8
#     8   8   8   8   8   8   8   8
#     4  10  19  36  58  82 117 152 189 237 292 344
#     4  10  22  38  59  84 112 151 188 230 291 350
#     4   9  17  34  57  78 106 147 187 226 279 336
#     4   9  19  34  56  83 112 149 191 236 282 334
#     4  10  22  37  60  90 116 153 201 243 284 344
#     4  11  23  40  59  85 120 154 190 239 301 350
#     4  10  21  38  59  86 118 151 192 234 284 343
#     4  11  21  35  58  87 116 151 199 242 284 344
#
# _framework density 19.387934999999999
#
# number of rings (size 3 to 8) (size 9 to 14) (size 15 to 20)
#    0.000    2.000    1.250    2.250    1.750    4.000 
#    0.000    0.625    0.000    2.250    0.000    0.000 
#    0.000    0.000    0.000    0.000    0.000    0.000 
#
# Total GULP energy -793791.736634 kJ/mol
# GULP energy per Si atom -12402.995885 kJ/mol
# Density = 1.934381 g / cm^3
# Si number density = 19.387935 Si / 1000 Ang^3
#
#
#
# Elastic Constant Matrix: (Units=GPa)
#
#
# Indices 1 2 3 4 5 6 
#
# 1 185.9675 33.8071 87.3521 0.0000 0.0000 0.0000
# 2 33.8071 35.4330 35.7664 0.0000 0.0000 0.0000
# 3 87.3521 35.7664 170.3702 0.0000 0.0000 0.0000
# 4 0.0000 0.0000 0.0000 32.9197 0.0000 0.0000
# 5 0.0000 0.0000 0.0000 0.0000 35.1242 0.0000
# 6 0.0000 0.0000 0.0000 0.0000 0.0000 25.1571
#
#
#
# Elastic Compliance Matrix: (Units=1/GPa)
#
#
# Indices 1 2 3 4 5 6 
#
# 1 0.007541 -0.004177 -0.002989 0.000000 0.000000 0.000000
# 2 -0.004177 0.038125 -0.005862 0.000000 0.000000 0.000000
# 3 -0.002989 -0.005862 0.008633 0.000000 0.000000 0.000000
# 4 0.000000 0.000000 0.000000 0.030377 0.000000 0.000000
# 5 0.000000 0.000000 0.000000 0.000000 0.028470 0.000000
# 6 0.000000 0.000000 0.000000 0.000000 0.000000 0.039750
#
#
# Mechanical properties :
#
#
# Convention : Reuss Voigt Hill
#
# Bulk Modulus (GPa) = 35.40886 78.40243 56.90565
# Shear Modulus (GPa) = 26.54388 34.29654 30.42021
#
# Velocity S-wave (km/s) = 3.70414 4.21047 3.96539
# Velocity P-wave (km/s) = 6.04956 8.01024 7.09793
#
# Compressibility (1/GPa) = 0.02824152
#
# Stress axis : x y z
#
# Youngs Moduli (GPa) = 132.61115 26.22951 115.83600
#
# Poissons Ratio (x) = 0.10957 0.34628
# Poissons Ratio (y) = 0.55396 0.67902
# Poissons Ratio (z) = 0.39643 0.15376
#
# Static dielectric constant tensor:
#      x y z
#    x 3.832930 0.000000 0.000000 
#    y 0.000000 3.220660 0.000000 
#    z 0.000000 0.000000 3.808230 
# 
# 
# High freq. dielectric constant tensor:
#      x y z
#    x 1.771860 0.000000 0.000000 
#    y 0.000000 1.722410 0.000000 
#    z 0.000000 0.000000 1.771760 
# 
# From -- ./inp_files/20868.got.cif
#   From: 2010.03.12/outbox.cif.g09.slc.cpg/sg62_11_cif.got.tgz:20868.got - 2010.04.10 19:12:36.
