data_PCOD8251673
_publ_section_title
;
Structure prediction by ZEFSAII (Michael W. Deem and Ramdas Pophale) SiO2 
 PCOD8251673
Probable space group: P N M A
;
_chemical_formula_sum "Si O2"
_cell_formula_units_Z 64
_cell_length_a 14.199647
_cell_length_b 27.154361
_cell_length_c 9.084913
_cell_angle_alpha 90.000000
_cell_angle_beta 90.000000
_cell_angle_gamma 90.000000
_cell_volume 3502.982020
_symmetry_space_group_name_H-M "P N M A"
_symmetry_group_IT_number 62
_symmetry_cell_setting 'orthorhombic'
loop_
_space_group_symop_operation_xyz
x,y,z
1/2-x,-y,1/2+z
1/2+x,1/2-y,1/2-z
-x,1/2+y,-z
-x,-y,-z
1/2+x,y,1/2-z
1/2-x,1/2+y,1/2+z
x,1/2-y,z
loop_
_atom_site_type_symbol
_atom_site_label
_atom_site_fract_x
_atom_site_fract_y
_atom_site_fract_z
Si Si1 0.261843 0.443600 0.406915
Si Si2 0.247131 0.858211 0.284232
Si Si3 0.870919 0.635718 0.473733
Si Si4 0.303559 0.038009 0.735774
Si Si5 0.538146 0.194745 0.226370
Si Si6 0.933236 0.104272 0.618687
Si Si7 0.367881 0.373183 0.200164
Si Si8 0.210690 0.194150 0.071300
O O1 0.169901 0.410101 0.434345
O O2 0.230117 0.486820 0.299544
O O3 0.304870 0.464816 0.558251
O O4 0.342759 0.413110 0.323619
O O5 0.266786 0.917752 0.289366
O O6 0.132709 0.852705 0.304217
O O7 0.300463 0.828420 0.409469
O O8 0.288307 0.840272 0.127327
O O9 0.907636 0.678189 0.579542
O O10 0.956890 0.616952 0.369374
O O11 0.408315 0.052500 0.798679
O O12 0.501617 0.250000 0.198176
O O13 0.451180 0.159969 0.264846
O O14 0.606608 0.192764 0.364588
O O15 0.901970 0.099705 0.447899
O O16 0.278775 0.338344 0.171740
O O17 0.249456 0.250000 0.062979
#
# Coordination Sequence:
#
# PCOD8251673 Si02
#       8
#     8   8   8   8   8   8   8   8
#     4  11  20  34  59  81 113 155 193 238 290 341
#     4   8  19  36  52  79 113 146 184 231 286 334
#     4  10  19  35  59  82 109 152 191 238 283 344
#     4   9  20  34  54  83 113 150 193 235 286 340
#     4  10  21  35  55  85 110 142 191 238 285 342
#     4   8  18  35  54  78 111 147 183 233 276 337
#     4  10  19  35  56  78 114 146 185 233 287 335
#     4  10  19  34  57  78 107 148 185 232 289 338
#
# _framework density 18.270149
#
# number of rings (size 3 to 8) (size 9 to 14) (size 15 to 20)
#    0.750    1.750    1.250    1.125    0.000    2.000 
#    0.000    1.250    0.000    6.750    0.000    0.000 
#    0.000    0.000    0.000    0.000    0.000    0.000 
#
# Total GULP energy -793043.250821 kJ/mol
# GULP energy per Si atom -12391.300794 kJ/mol
# Density = 1.822857 g / cm^3
# Si number density = 18.270149 Si / 1000 Ang^3
#
#
#
# Elastic Constant Matrix: (Units=GPa)
#
#
# Indices 1 2 3 4 5 6 
#
# 1 61.9282 4.3263 17.5197 0.0000 0.0000 0.0000
# 2 4.3263 56.7875 29.2354 0.0000 0.0000 0.0000
# 3 17.5197 29.2354 78.2602 0.0000 0.0000 0.0000
# 4 0.0000 0.0000 0.0000 30.0301 0.0000 0.0000
# 5 0.0000 0.0000 0.0000 0.0000 29.1316 0.0000
# 6 0.0000 0.0000 0.0000 0.0000 0.0000 23.6665
#
#
#
# Elastic Compliance Matrix: (Units=1/GPa)
#
#
# Indices 1 2 3 4 5 6 
#
# 1 0.017271 0.000835 -0.004179 0.000000 0.000000 0.000000
# 2 0.000835 0.021843 -0.008347 0.000000 0.000000 0.000000
# 3 -0.004179 -0.008347 0.016831 0.000000 0.000000 0.000000
# 4 0.000000 0.000000 0.000000 0.033300 0.000000 0.000000
# 5 0.000000 0.000000 0.000000 0.000000 0.034327 0.000000
# 6 0.000000 0.000000 0.000000 0.000000 0.000000 0.042254
#
#
# Mechanical properties :
#
#
# Convention : Reuss Voigt Hill
#
# Bulk Modulus (GPa) = 30.70692 33.23761 31.97226
# Shear Modulus (GPa) = 24.99227 26.29195 25.64211
#
# Velocity S-wave (km/s) = 3.70257 3.79762 3.75039
# Velocity P-wave (km/s) = 5.92641 6.12054 6.02425
#
# Compressibility (1/GPa) = 0.03256595
#
# Stress axis : x y z
#
# Youngs Moduli (GPa) = 57.89886 45.78128 59.41271
#
# Poissons Ratio (x) = -0.03825 0.24826
# Poissons Ratio (y) = -0.04837 0.49591
# Poissons Ratio (z) = 0.24193 0.38213
#
# Static dielectric constant tensor:
#      x y z
#    x 3.369580 0.000000 0.000000 
#    y 0.000000 3.247450 0.000000 
#    z 0.000000 0.000000 3.323470 
# 
# 
# High freq. dielectric constant tensor:
#      x y z
#    x 1.697360 0.000000 0.000000 
#    y 0.000000 1.694500 0.000000 
#    z 0.000000 0.000000 1.708750 
# 
# From -- ./inp_files/7017.got.cif
#   From: 2010.03.12/outbox.cif.g09.slc.cpg/sg62_4_cif.got.tgz:7017.got - 2010.04.10 19:12:36.
