data_PCOD8251059
_publ_section_title
;
Structure prediction by ZEFSAII (Michael W. Deem and Ramdas Pophale) SiO2 
 PCOD8251059
Probable space group: P N M A
;
_chemical_formula_sum "Si O2"
_cell_formula_units_Z 64
_cell_length_a 16.799917
_cell_length_b 9.225028
_cell_length_c 21.755489
_cell_angle_alpha 90.000000
_cell_angle_beta 90.000000
_cell_angle_gamma 90.000000
_cell_volume 3371.659261
_symmetry_space_group_name_H-M "P N M A"
_symmetry_group_IT_number 62
_symmetry_cell_setting 'orthorhombic'
loop_
_space_group_symop_operation_xyz
x,y,z
1/2-x,-y,1/2+z
1/2+x,1/2-y,1/2-z
-x,1/2+y,-z
-x,-y,-z
1/2+x,y,1/2-z
1/2-x,1/2+y,1/2+z
x,1/2-y,z
loop_
_atom_site_type_symbol
_atom_site_label
_atom_site_fract_x
_atom_site_fract_y
_atom_site_fract_z
Si Si1 0.087695 0.418779 0.323965
Si Si2 0.028078 0.417909 0.192464
Si Si3 0.234045 0.076978 0.402200
Si Si4 0.870062 0.915002 0.158798
Si Si5 0.809723 0.914305 0.864000
Si Si6 0.811074 0.587300 0.292468
Si Si7 0.424596 0.416408 0.124787
Si Si8 0.299741 0.082599 0.024569
O O1 0.100387 0.250000 0.314196
O O2 0.062552 0.481541 0.257134
O O3 0.170285 0.480622 0.351304
O O4 0.018757 0.451049 0.374820
O O5 0.001781 0.250000 0.200054
O O6 0.095372 0.434433 0.139629
O O7 0.955064 0.512355 0.169199
O O8 0.242111 0.250000 0.401761
O O9 0.320099 0.004900 0.391363
O O10 0.202831 0.026180 0.468166
O O11 0.883051 0.750000 0.135920
O O12 0.817326 0.918011 0.219679
O O13 0.785259 0.750000 0.848351
O O14 0.775134 0.954261 0.930974
O O15 0.770910 0.011806 0.811208
O O16 0.810245 0.750000 0.317879
O O17 0.887182 0.508095 0.320407
O O18 0.408810 0.250000 0.142031
O O19 0.382852 0.451535 0.059831
O O20 0.296512 0.250000 0.002740
#
# Coordination Sequence:
#
# PCOD8251059 Si02
#       8
#     8   8   8   8   8   8   8   8
#     4   9  18  33  56  86 114 139 180 230 272 323
#     4  10  19  35  60  86 109 138 181 228 273 330
#     4  11  23  38  57  80 107 147 195 234 269 321
#     4  11  23  37  53  79 115 147 176 222 285 336
#     4   9  19  35  58  83 108 145 187 227 274 327
#     4  10  19  31  51  81 113 143 176 217 271 330
#     4   9  17  33  57  81 110 148 181 220 272 325
#     4   9  19  36  55  78 112 149 186 226 275 327
#
# _framework density 18.981752
#
# number of rings (size 3 to 8) (size 9 to 14) (size 15 to 20)
#    0.000    2.250    1.250    2.625    0.000    5.500 
#    0.000    3.125    0.000    0.000    0.000    0.000 
#    0.000    0.000    0.000    0.000    0.000    0.000 
#
# Total GULP energy -793426.489438 kJ/mol
# GULP energy per Si atom -12397.288897 kJ/mol
# Density = 1.893855 g / cm^3
# Si number density = 18.981752 Si / 1000 Ang^3
#
#
#
# Elastic Constant Matrix: (Units=GPa)
#
#
# Indices 1 2 3 4 5 6 
#
# 1 113.6026 37.5625 34.0285 0.0000 0.0000 0.0000
# 2 37.5625 80.0720 21.0884 0.0000 0.0000 0.0000
# 3 34.0285 21.0884 53.8192 0.0000 0.0000 0.0000
# 4 0.0000 0.0000 0.0000 30.0836 0.0000 0.0000
# 5 0.0000 0.0000 0.0000 0.0000 24.3402 0.0000
# 6 0.0000 0.0000 0.0000 0.0000 0.0000 12.7055
#
#
#
# Elastic Compliance Matrix: (Units=1/GPa)
#
#
# Indices 1 2 3 4 5 6 
#
# 1 0.011917 -0.004021 -0.005959 0.000000 0.000000 0.000000
# 2 -0.004021 0.015283 -0.003446 0.000000 0.000000 0.000000
# 3 -0.005959 -0.003446 0.023699 0.000000 0.000000 0.000000
# 4 0.000000 0.000000 0.000000 0.033241 0.000000 0.000000
# 5 0.000000 0.000000 0.000000 0.000000 0.041084 0.000000
# 6 0.000000 0.000000 0.000000 0.000000 0.000000 0.078706
#
#
# Mechanical properties :
#
#
# Convention : Reuss Voigt Hill
#
# Bulk Modulus (GPa) = 41.58670 48.09476 44.84073
# Shear Modulus (GPa) = 20.93824 23.74683 22.34254
#
# Velocity S-wave (km/s) = 3.32486 3.54083 3.43454
# Velocity P-wave (km/s) = 6.05771 6.48915 6.27714
#
# Compressibility (1/GPa) = 0.02404615
#
# Stress axis : x y z
#
# Youngs Moduli (GPa) = 83.91225 65.43399 42.19594
#
# Poissons Ratio (x) = 0.26311 0.25146
# Poissons Ratio (y) = 0.33741 0.14541
# Poissons Ratio (z) = 0.50007 0.22548
#
# Static dielectric constant tensor:
#      x y z
#    x 3.616590 0.000000 0.000000 
#    y 0.000000 3.395890 0.000000 
#    z 0.000000 0.000000 3.314010 
# 
# 
# High freq. dielectric constant tensor:
#      x y z
#    x 1.742410 0.000000 0.000000 
#    y 0.000000 1.726230 0.000000 
#    z 0.000000 0.000000 1.718720 
# 
# From -- ./inp_files/27728.got.cif
#   From: 2010.03.12/outbox.cif.g09.slc.cpg/sg62_14_cif.got.tgz:27728.got - 2010.04.10 19:12:36.
