data_PCOD8251265
_publ_section_title
;
Structure prediction by ZEFSAII (Michael W. Deem and Ramdas Pophale) SiO2 
 PCOD8251265
Probable space group: P N M A
;
_chemical_formula_sum "Si O2"
_cell_formula_units_Z 64
_cell_length_a 19.568087
_cell_length_b 28.504803
_cell_length_c 5.288352
_cell_angle_alpha 90.000000
_cell_angle_beta 90.000000
_cell_angle_gamma 90.000000
_cell_volume 2949.760591
_symmetry_space_group_name_H-M "P N M A"
_symmetry_group_IT_number 62
_symmetry_cell_setting 'orthorhombic'
loop_
_space_group_symop_operation_xyz
x,y,z
1/2-x,-y,1/2+z
1/2+x,1/2-y,1/2-z
-x,1/2+y,-z
-x,-y,-z
1/2+x,y,1/2-z
1/2-x,1/2+y,1/2+z
x,1/2-y,z
loop_
_atom_site_type_symbol
_atom_site_label
_atom_site_fract_x
_atom_site_fract_y
_atom_site_fract_z
Si Si1 0.843529 0.533663 0.879073
Si Si2 0.453670 0.938916 0.937614
Si Si3 0.207882 0.552662 0.399223
Si Si4 0.653259 0.802674 0.768425
Si Si5 0.911071 0.028399 0.278707
Si Si6 0.490920 0.855711 0.253519
Si Si7 0.491041 0.697414 0.750756
Si Si8 0.346916 0.144484 0.726628
O O1 0.888399 0.573950 0.738781
O O2 0.797691 0.500340 0.701166
O O3 0.788133 0.561322 0.046702
O O4 0.897276 0.499691 0.023190
O O5 0.524009 0.935600 0.769132
O O6 0.458593 0.906759 0.188543
O O7 0.434145 0.992400 0.003400
O O8 0.156869 0.557140 0.641384
O O9 0.185208 0.592590 0.201935
O O10 0.682693 0.750000 0.783534
O O11 0.572169 0.801058 0.748431
O O12 0.678362 0.830328 0.016805
O O13 0.681190 0.827073 0.514302
O O14 0.467150 0.822956 0.019776
O O15 0.571895 0.860421 0.271781
O O16 0.463073 0.834676 0.518122
O O17 0.461710 0.750000 0.718255
#
# Coordination Sequence:
#
# PCOD8251265 Si02
#       8
#     8   8   8   8   8   8   8   8
#     4  11  23  37  57  77 117 160 194 247 287 340
#     4  10  22  36  55  85 108 156 195 237 290 343
#     4  11  22  36  56  82 113 158 202 238 289 343
#     4   9  18  33  52  81 116 146 181 238 302 348
#     4  10  21  39  55  78 116 149 199 237 289 336
#     4  10  19  32  54  80 115 145 188 238 285 349
#     4   9  18  31  51  80 114 147 179 231 299 353
#     4  10  20  32  55  84 112 150 191 237 286 354
#
# _framework density 21.696677000000001
#
# number of rings (size 3 to 8) (size 9 to 14) (size 15 to 20)
#    0.000    2.000    2.500    1.125    3.500    4.000 
#    0.000    0.000    0.000    0.000    0.000    5.250 
#    0.000    0.000    0.000    0.000    0.000    0.000 
#
# Total GULP energy -793251.608129 kJ/mol
# GULP energy per Si atom -12394.556377 kJ/mol
# Density = 2.164729 g / cm^3
# Si number density = 21.696677 Si / 1000 Ang^3
#
#
#
# Elastic Constant Matrix: (Units=GPa)
#
#
# Indices 1 2 3 4 5 6 
#
# 1 58.5502 3.1403 9.0838 0.0000 0.0000 0.0000
# 2 3.1403 65.7555 -2.5714 0.0000 0.0000 0.0000
# 3 9.0838 -2.5714 84.1708 0.0000 0.0000 0.0000
# 4 0.0000 0.0000 0.0000 32.1293 0.0000 0.0000
# 5 0.0000 0.0000 0.0000 0.0000 12.2737 0.0000
# 6 0.0000 0.0000 0.0000 0.0000 0.0000 10.8920
#
#
#
# Elastic Compliance Matrix: (Units=1/GPa)
#
#
# Indices 1 2 3 4 5 6 
#
# 1 0.017424 -0.000907 -0.001908 0.000000 0.000000 0.000000
# 2 -0.000907 0.015273 0.000564 0.000000 0.000000 0.000000
# 3 -0.001908 0.000564 0.012104 0.000000 0.000000 0.000000
# 4 0.000000 0.000000 0.000000 0.031124 0.000000 0.000000
# 5 0.000000 0.000000 0.000000 0.000000 0.081475 0.000000
# 6 0.000000 0.000000 0.000000 0.000000 0.000000 0.091811
#
#
# Mechanical properties :
#
#
# Convention : Reuss Voigt Hill
#
# Bulk Modulus (GPa) = 24.81376 25.30910 25.06143
# Shear Modulus (GPa) = 18.71642 24.31392 21.51517
#
# Velocity S-wave (km/s) = 2.94026 3.35121 3.15244
# Velocity P-wave (km/s) = 4.79461 5.16376 4.98261
#
# Compressibility (1/GPa) = 0.04030021
#
# Stress axis : x y z
#
# Youngs Moduli (GPa) = 57.39202 65.47403 82.61890
#
# Poissons Ratio (x) = 0.05937 0.15765
# Poissons Ratio (y) = 0.05204 -0.04663
# Poissons Ratio (z) = 0.10951 -0.03696
#
# Static dielectric constant tensor:
#      x y z
#    x 3.635390 0.000000 0.000000 
#    y 0.000000 3.895020 0.000000 
#    z 0.000000 0.000000 4.007100 
# 
# 
# High freq. dielectric constant tensor:
#      x y z
#    x 1.803300 0.000000 0.000000 
#    y 0.000000 1.838170 0.000000 
#    z 0.000000 0.000000 1.860120 
# 
# From -- ./inp_files/2396.got.cif
#   From: 2010.03.12/outbox.cif.g09.slc.cpg/sg62_2_cif.got.tgz:2396.got - 2010.04.10 19:12:36.
