data_PCOD8251238
_publ_section_title
;
Structure prediction by ZEFSAII (Michael W. Deem and Ramdas Pophale) SiO2 
 PCOD8251238
Probable space group: P N M A
;
_chemical_formula_sum "Si O2"
_cell_formula_units_Z 64
_cell_length_a 10.703629
_cell_length_b 9.601682
_cell_length_c 32.683083
_cell_angle_alpha 90.000000
_cell_angle_beta 90.000000
_cell_angle_gamma 90.000000
_cell_volume 3358.933322
_symmetry_space_group_name_H-M "P N M A"
_symmetry_group_IT_number 62
_symmetry_cell_setting 'orthorhombic'
loop_
_space_group_symop_operation_xyz
x,y,z
1/2-x,-y,1/2+z
1/2+x,1/2-y,1/2-z
-x,1/2+y,-z
-x,-y,-z
1/2+x,y,1/2-z
1/2-x,1/2+y,1/2+z
x,1/2-y,z
loop_
_atom_site_type_symbol
_atom_site_label
_atom_site_fract_x
_atom_site_fract_y
_atom_site_fract_z
Si Si1 0.939250 0.914081 0.217937
Si Si2 0.160367 0.094342 0.868299
Si Si3 0.580872 0.904617 0.414201
Si Si4 0.751061 0.088289 0.361045
Si Si5 0.084552 0.593178 0.563912
Si Si6 0.237428 0.590268 0.011422
Si Si7 0.700327 0.409131 0.075572
Si Si8 0.724705 0.916212 0.280947
O O1 0.942004 0.750000 0.218130
O O2 0.080930 0.963217 0.230340
O O3 0.906171 0.967403 0.172256
O O4 0.826354 0.965372 0.247130
O O5 0.211169 0.250000 0.859338
O O6 0.066165 0.094469 0.906653
O O7 0.272873 0.998119 0.883625
O O8 0.633825 0.750000 0.401860
O O9 0.610996 0.933346 0.462082
O O10 0.635673 0.026381 0.386283
O O11 0.724614 0.250000 0.350169
O O12 0.873315 0.070177 0.389095
O O13 0.770697 0.997287 0.320759
O O14 0.116898 0.750000 0.550402
O O15 0.150598 0.492669 0.532185
O O16 0.939453 0.561469 0.561622
O O17 0.281039 0.750000 0.011696
O O18 0.215907 0.546681 0.964064
O O19 0.723612 0.250000 0.088131
O O20 0.730070 0.750000 0.288263
#
# Coordination Sequence:
#
# PCOD8251238 Si02
#       8
#     8   8   8   8   8   8   8   8
#     4   9  19  35  57  81 106 136 175 220 268 319
#     4  10  20  35  53  75 103 137 177 220 264 317
#     4   9  17  33  55  76 102 136 174 221 265 304
#     4  10  19  32  53  80 104 135 176 212 256 319
#     4   9  19  34  51  73 107 143 175 216 266 316
#     4   9  18  32  53  78 102 135 182 224 264 315
#     4  10  21  35  49  73 109 144 175 218 272 319
#     4  10  19  36  59  82 107 139 175 221 271 319
#
# _framework density 19.053666
#
# number of rings (size 3 to 8) (size 9 to 14) (size 15 to 20)
#    0.000    2.500    1.250    0.750    0.000    3.500 
#    0.000    2.500    0.000    0.000    0.000    0.000 
#    0.000    0.000    0.000    0.000    0.000    0.000 
#
# Total GULP energy -793063.962084 kJ/mol
# GULP energy per Si atom -12391.624408 kJ/mol
# Density = 1.901030 g / cm^3
# Si number density = 19.053666 Si / 1000 Ang^3
#
#
#
# Elastic Constant Matrix: (Units=GPa)
#
#
# Indices 1 2 3 4 5 6 
#
# 1 48.6367 23.1449 36.9732 0.0000 0.0000 0.0000
# 2 23.1449 60.0121 32.5511 0.0000 0.0000 0.0000
# 3 36.9732 32.5511 71.9089 0.0000 0.0000 0.0000
# 4 0.0000 0.0000 0.0000 24.8152 0.0000 0.0000
# 5 0.0000 0.0000 0.0000 0.0000 24.9402 0.0000
# 6 0.0000 0.0000 0.0000 0.0000 0.0000 22.0036
#
#
#
# Elastic Compliance Matrix: (Units=1/GPa)
#
#
# Indices 1 2 3 4 5 6 
#
# 1 0.034820 -0.004928 -0.015672 0.000000 0.000000 0.000000
# 2 -0.004928 0.022784 -0.007780 0.000000 0.000000 0.000000
# 3 -0.015672 -0.007780 0.025486 0.000000 0.000000 0.000000
# 4 0.000000 0.000000 0.000000 0.040298 0.000000 0.000000
# 5 0.000000 0.000000 0.000000 0.000000 0.040096 0.000000
# 6 0.000000 0.000000 0.000000 0.000000 0.000000 0.045447
#
#
# Mechanical properties :
#
#
# Convention : Reuss Voigt Hill
#
# Bulk Modulus (GPa) = 37.98018 40.65510 39.31764
# Shear Modulus (GPa) = 18.21710 20.21104 19.21407
#
# Velocity S-wave (km/s) = 3.09543 3.26044 3.17901
# Velocity P-wave (km/s) = 5.72295 5.96300 5.84421
#
# Compressibility (1/GPa) = 0.02632952
#
# Stress axis : x y z
#
# Youngs Moduli (GPa) = 28.71930 43.89111 39.23671
#
# Poissons Ratio (x) = 0.21630 0.61493
# Poissons Ratio (y) = 0.14153 0.30525
# Poissons Ratio (z) = 0.45010 0.34146
#
# Static dielectric constant tensor:
#      x y z
#    x 3.436040 0.000000 0.000000 
#    y 0.000000 3.459570 0.000000 
#    z 0.000000 0.000000 3.625520 
# 
# 
# High freq. dielectric constant tensor:
#      x y z
#    x 1.729600 0.000000 0.000000 
#    y 0.000000 1.726630 0.000000 
#    z 0.000000 0.000000 1.739090 
# 
# From -- ./inp_files/32497.got.cif
#   From: 2010.03.12/outbox.cif.g09.slc.cpg/sg62_17_cif.got.tgz:32497.got - 2010.04.10 19:12:36.
