data_PCOD8251674
_publ_section_title
;
Structure prediction by ZEFSAII (Michael W. Deem and Ramdas Pophale) SiO2 
 PCOD8251674
Probable space group: P N M A
;
_chemical_formula_sum "Si O2"
_cell_formula_units_Z 56
_cell_length_a 23.282832
_cell_length_b 14.438323
_cell_length_c 9.618399
_cell_angle_alpha 90.000000
_cell_angle_beta 90.000000
_cell_angle_gamma 90.000000
_cell_volume 3233.369569
_symmetry_space_group_name_H-M "P N M A"
_symmetry_group_IT_number 62
_symmetry_cell_setting 'orthorhombic'
loop_
_space_group_symop_operation_xyz
x,y,z
1/2-x,-y,1/2+z
1/2+x,1/2-y,1/2-z
-x,1/2+y,-z
-x,-y,-z
1/2+x,y,1/2-z
1/2-x,1/2+y,1/2+z
x,1/2-y,z
loop_
_atom_site_type_symbol
_atom_site_label
_atom_site_fract_x
_atom_site_fract_y
_atom_site_fract_z
Si Si1 0.157548 0.857274 0.191388
Si Si2 0.029919 0.006514 0.852618
Si Si3 0.958986 0.146255 0.358876
Si Si4 0.160549 0.514586 0.922615
Si Si5 0.249288 0.856689 0.422305
Si Si6 0.462174 0.358196 0.829160
Si Si7 0.675900 0.646917 0.814505
O O1 0.153401 0.750000 0.140909
O O2 0.215491 0.873314 0.278644
O O3 0.102709 0.883250 0.285325
O O4 0.158082 0.926906 0.063172
O O5 0.008419 0.097078 0.773229
O O6 0.012333 0.917791 0.758794
O O7 0.097661 0.013548 0.872019
O O8 0.000000 0.000000 0.000000
O O9 0.983196 0.250000 0.337107
O O10 0.973791 0.108571 0.512879
O O11 0.891086 0.146033 0.344052
O O12 0.194562 0.419188 0.936296
O O13 0.192613 0.577622 0.808812
O O14 0.268780 0.750000 0.433539
O O15 0.207422 0.885490 0.546740
O O16 0.472306 0.250000 0.818401
O O17 0.695693 0.750000 0.770848
#
# Coordination Sequence:
#
# PCOD8251674 Si02
#       7
#     8   8   8   8   8   8   8
#     4  10  19  34  57  80 102 133 181 225 258 308
#     4  11  22  34  50  82 113 139 176 218 264 324
#     4   9  18  34  57  77  98 135 180 223 262 304
#     4  11  21  33  52  79 111 136 170 215 272 314
#     4  10  20  35  54  75 103 139 175 211 261 322
#     4  10  19  35  56  76 102 142 182 221 261 305
#     4   9  17  32  53  77 100 127 171 220 260 305
#
# _framework density 17.319393999999999
#
# number of rings (size 3 to 8) (size 9 to 14) (size 15 to 20)
#    0.000    2.000    2.857    1.714    0.000    1.714 
#    0.000    0.000    0.000    0.000    0.000    0.000 
#    0.000    0.000    0.000    0.000    0.000    0.000 
#
# Total GULP energy -694378.375271 kJ/mol
# GULP energy per Si atom -12399.613844 kJ/mol
# Density = 1.727997 g / cm^3
# Si number density = 17.319394 Si / 1000 Ang^3
#
#
#
# Elastic Constant Matrix: (Units=GPa)
#
#
# Indices 1 2 3 4 5 6 
#
# 1 52.2518 38.2303 27.9923 0.0000 0.0000 0.0000
# 2 38.2303 82.0139 60.7256 0.0000 0.0000 0.0000
# 3 27.9923 60.7256 126.3713 0.0000 0.0000 0.0000
# 4 0.0000 0.0000 0.0000 30.7214 0.0000 0.0000
# 5 0.0000 0.0000 0.0000 0.0000 23.2913 0.0000
# 6 0.0000 0.0000 0.0000 0.0000 0.0000 29.5510
#
#
#
# Elastic Compliance Matrix: (Units=1/GPa)
#
#
# Indices 1 2 3 4 5 6 
#
# 1 0.029045 -0.013622 0.000112 0.000000 0.000000 0.000000
# 2 -0.013622 0.025316 -0.009148 0.000000 0.000000 0.000000
# 3 0.000112 -0.009148 0.012284 0.000000 0.000000 0.000000
# 4 0.000000 0.000000 0.000000 0.032551 0.000000 0.000000
# 5 0.000000 0.000000 0.000000 0.000000 0.042935 0.000000
# 6 0.000000 0.000000 0.000000 0.000000 0.000000 0.033840
#
#
# Mechanical properties :
#
#
# Convention : Reuss Voigt Hill
#
# Bulk Modulus (GPa) = 46.88317 57.17038 52.02678
# Shear Modulus (GPa) = 21.89183 25.62530 23.75856
#
# Velocity S-wave (km/s) = 3.55914 3.85069 3.70779
# Velocity P-wave (km/s) = 6.63465 7.26991 6.95953
#
# Compressibility (1/GPa) = 0.02132961
#
# Stress axis : x y z
#
# Youngs Moduli (GPa) = 34.42972 39.50018 81.40528
#
# Poissons Ratio (x) = 0.53808 -0.00914
# Poissons Ratio (y) = 0.46901 0.74469
# Poissons Ratio (z) = -0.00386 0.36135
#
# Static dielectric constant tensor:
#      x y z
#    x 3.040580 0.000000 0.000000 
#    y 0.000000 3.334960 0.000000 
#    z 0.000000 0.000000 3.236060 
# 
# 
# High freq. dielectric constant tensor:
#      x y z
#    x 1.647540 0.000000 0.000000 
#    y 0.000000 1.669470 0.000000 
#    z 0.000000 0.000000 1.684700 
# 
# From -- ./inp_files/8719.got.cif
#   From: 2010.03.12/outbox.cif.g09.slc.cpg/sg62_5_cif.got.tgz:8719.got - 2010.04.10 19:12:36.
