data_PCOD8251835
_publ_section_title
;
Structure prediction by ZEFSAII (Michael W. Deem and Ramdas Pophale) SiO2 
 PCOD8251835
Probable space group: P N M A
;
_chemical_formula_sum "Si O2"
_cell_formula_units_Z 48
_cell_length_a 14.939722
_cell_length_b 8.985799
_cell_length_c 19.380421
_cell_angle_alpha 90.000000
_cell_angle_beta 90.000000
_cell_angle_gamma 90.000000
_cell_volume 2601.731187
_symmetry_space_group_name_H-M "P N M A"
_symmetry_group_IT_number 62
_symmetry_cell_setting 'orthorhombic'
loop_
_space_group_symop_operation_xyz
x,y,z
1/2-x,-y,1/2+z
1/2+x,1/2-y,1/2-z
-x,1/2+y,-z
-x,-y,-z
1/2+x,y,1/2-z
1/2-x,1/2+y,1/2+z
x,1/2-y,z
loop_
_atom_site_type_symbol
_atom_site_label
_atom_site_fract_x
_atom_site_fract_y
_atom_site_fract_z
Si Si1 0.705427 0.922755 0.667697
Si Si2 0.567682 0.425818 0.447229
Si Si3 0.492285 0.076077 0.298354
Si Si4 0.913426 0.423925 0.530511
Si Si5 0.116530 0.921745 0.309994
Si Si6 0.732854 0.575166 0.508951
O O1 0.723741 0.750000 0.679755
O O2 0.611669 0.973377 0.700951
O O3 0.700527 0.958500 0.586518
O O4 0.785913 0.009141 0.704928
O O5 0.500000 0.500000 0.500000
O O6 0.568563 0.250000 0.460424
O O7 0.537682 0.466107 0.370395
O O8 0.665609 0.494817 0.456746
O O9 0.500320 0.250000 0.284019
O O10 0.540512 0.991272 0.237181
O O11 0.911730 0.250000 0.512364
O O12 0.912397 0.452667 0.611935
O O13 0.829272 0.503719 0.495040
O O14 0.000000 0.500000 0.500000
O O15 0.123849 0.750000 0.292472
O O16 0.735999 0.750000 0.493240
#
# Coordination Sequence:
#
# PCOD8251835 Si02
#       6
#     8   8   8   8   8   8
#     4   9  18  36  59  80 107 148 189 224 273 338
#     4  11  21  35  56  86 118 149 188 230 278 337
#     4  10  21  38  58  82 113 151 191 229 277 341
#     4  10  21  39  61  86 113 148 191 235 284 338
#     4  10  22  38  57  85 114 144 187 236 283 332
#     4  10  19  35  58  85 114 146 185 232 281 334
#
# _framework density 18.449255000000001
#
# number of rings (size 3 to 8) (size 9 to 14) (size 15 to 20)
#    0.000    2.000    1.667    2.000    0.000    4.667 
#    3.000    0.000    0.000    0.000    0.000    0.000 
#    0.000    0.000    0.000    0.000    0.000    0.000 
#
# Total GULP energy -595377.522184 kJ/mol
# GULP energy per Si atom -12403.698379 kJ/mol
# Density = 1.840726 g / cm^3
# Si number density = 18.449255 Si / 1000 Ang^3
#
#
#
# Elastic Constant Matrix: (Units=GPa)
#
#
# Indices 1 2 3 4 5 6 
#
# 1 173.9373 67.2236 56.5115 0.0000 0.0000 0.0000
# 2 67.2236 85.8862 41.0107 0.0000 0.0000 0.0000
# 3 56.5115 41.0107 48.5951 0.0000 0.0000 0.0000
# 4 0.0000 0.0000 0.0000 30.9089 0.0000 0.0000
# 5 0.0000 0.0000 0.0000 0.0000 36.6957 0.0000
# 6 0.0000 0.0000 0.0000 0.0000 0.0000 40.1239
#
#
#
# Elastic Compliance Matrix: (Units=1/GPa)
#
#
# Indices 1 2 3 4 5 6 
#
# 1 0.009923 -0.003780 -0.008349 0.000000 0.000000 0.000000
# 2 -0.003780 0.020942 -0.013278 0.000000 0.000000 0.000000
# 3 -0.008349 -0.013278 0.041493 0.000000 0.000000 0.000000
# 4 0.000000 0.000000 0.000000 0.032353 0.000000 0.000000
# 5 0.000000 0.000000 0.000000 0.000000 0.027251 0.000000
# 6 0.000000 0.000000 0.000000 0.000000 0.000000 0.024923
#
#
# Mechanical properties :
#
#
# Convention : Reuss Voigt Hill
#
# Bulk Modulus (GPa) = 46.41693 70.87890 58.64792
# Shear Modulus (GPa) = 23.26874 31.12390 27.19632
#
# Velocity S-wave (km/s) = 3.55523 4.11177 3.84359
# Velocity P-wave (km/s) = 6.48589 7.81306 7.18020
#
# Compressibility (1/GPa) = 0.02154386
#
# Stress axis : x y z
#
# Youngs Moduli (GPa) = 100.77969 47.75089 24.10023
#
# Poissons Ratio (x) = 0.18048 0.20122
# Poissons Ratio (y) = 0.38092 0.32001
# Poissons Ratio (z) = 0.84144 0.63404
#
# Static dielectric constant tensor:
#      x y z
#    x 2.807600 0.000000 0.000000 
#    y 0.000000 3.508120 0.000000 
#    z 0.000000 0.000000 3.399420 
# 
# 
# High freq. dielectric constant tensor:
#      x y z
#    x 1.732040 0.000000 0.000000 
#    y 0.000000 1.725460 0.000000 
#    z 0.000000 0.000000 1.695950 
# 
# From -- ./inp_files/23731.got.cif
#   From: 2010.03.12/outbox.cif.g09.slc.cpg/sg62_12_cif.got.tgz:23731.got - 2010.04.10 19:12:36.
