data_PCOD8251409
_publ_section_title
;
Structure prediction by ZEFSAII (Michael W. Deem and Ramdas Pophale) SiO2 
 PCOD8251409
Probable space group: P N M A
;
_chemical_formula_sum "Si O2"
_cell_formula_units_Z 48
_cell_length_a 9.674327
_cell_length_b 8.956745
_cell_length_c 31.068803
_cell_angle_alpha 90.000000
_cell_angle_beta 90.000000
_cell_angle_gamma 90.000000
_cell_volume 2692.126693
_symmetry_space_group_name_H-M "P N M A"
_symmetry_group_IT_number 62
_symmetry_cell_setting 'orthorhombic'
loop_
_space_group_symop_operation_xyz
x,y,z
1/2-x,-y,1/2+z
1/2+x,1/2-y,1/2-z
-x,1/2+y,-z
-x,-y,-z
1/2+x,y,1/2-z
1/2-x,1/2+y,1/2+z
x,1/2-y,z
loop_
_atom_site_type_symbol
_atom_site_label
_atom_site_fract_x
_atom_site_fract_y
_atom_site_fract_z
Si Si1 0.095697 0.080674 0.966439
Si Si2 0.903648 0.920372 0.621534
Si Si3 0.599507 0.421328 0.720334
Si Si4 0.586751 0.925221 0.037162
Si Si5 0.893410 0.575568 0.716445
Si Si6 0.873165 0.918239 0.126181
O O1 0.092934 0.250000 0.981178
O O2 0.253917 0.022837 0.967729
O O3 0.036263 0.059359 0.917452
O O4 0.000000 0.000000 0.000000
O O5 0.925304 0.750000 0.607691
O O6 0.964084 0.951603 0.669398
O O7 0.970718 0.021433 0.583923
O O8 0.741843 0.954746 0.626123
O O9 0.592914 0.250000 0.736502
O O10 0.757229 0.476076 0.722759
O O11 0.505241 0.527344 0.748720
O O12 0.542642 0.432545 0.670850
O O13 0.568225 0.750000 0.033953
O O14 0.500000 0.000000 0.000000
O O15 0.855966 0.750000 0.722307
O O16 0.806337 0.750000 0.123499
#
# Coordination Sequence:
#
# PCOD8251409 Si02
#       6
#     8   8   8   8   8   8
#     4   9  18  32  50  73  99 126 159 199 242 288
#     4   9  17  30  50  73  97 129 166 201 244 299
#     4  10  19  33  54  76  99 132 172 209 248 300
#     4  10  20  34  52  74 100 130 166 207 247 291
#     4  10  20  34  52  76 105 133 164 208 258 303
#     4   8  16  31  49  70  97 128 164 204 242 289
#
# _framework density 17.829768999999999
#
# number of rings (size 3 to 8) (size 9 to 14) (size 15 to 20)
#    0.000    2.667    0.000    3.000    0.000    6.000 
#    0.000    1.667    0.000    4.000    0.000    0.000 
#    0.000    0.000    0.000    0.000    0.000    0.000 
#
# Total GULP energy -594737.205214 kJ/mol
# GULP energy per Si atom -12390.358442 kJ/mol
# Density = 1.778919 g / cm^3
# Si number density = 17.829769 Si / 1000 Ang^3
#
#
#
# Elastic Constant Matrix: (Units=GPa)
#
#
# Indices 1 2 3 4 5 6 
#
# 1 45.6305 25.2427 49.3991 0.0000 0.0000 0.0000
# 2 25.2427 73.0435 54.4636 0.0000 0.0000 0.0000
# 3 49.3991 54.4636 156.0200 0.0000 0.0000 0.0000
# 4 0.0000 0.0000 0.0000 33.4040 0.0000 0.0000
# 5 0.0000 0.0000 0.0000 0.0000 30.2565 0.0000
# 6 0.0000 0.0000 0.0000 0.0000 0.0000 28.4518
#
#
#
# Elastic Compliance Matrix: (Units=1/GPa)
#
#
# Indices 1 2 3 4 5 6 
#
# 1 0.034715 -0.005139 -0.009198 0.000000 0.000000 0.000000
# 2 -0.005139 0.019269 -0.005099 0.000000 0.000000 0.000000
# 3 -0.009198 -0.005099 0.011102 0.000000 0.000000 0.000000
# 4 0.000000 0.000000 0.000000 0.029937 0.000000 0.000000
# 5 0.000000 0.000000 0.000000 0.000000 0.033051 0.000000
# 6 0.000000 0.000000 0.000000 0.000000 0.000000 0.035147
#
#
# Mechanical properties :
#
#
# Convention : Reuss Voigt Hill
#
# Bulk Modulus (GPa) = 38.14779 59.21164 48.67972
# Shear Modulus (GPa) = 23.71585 28.12837 25.92211
#
# Velocity S-wave (km/s) = 3.65105 3.97622 3.81710
# Velocity P-wave (km/s) = 6.26223 7.37306 6.84023
#
# Compressibility (1/GPa) = 0.02621384
#
# Stress axis : x y z
#
# Youngs Moduli (GPa) = 28.80572 51.89813 90.07704
#
# Poissons Ratio (x) = 0.26670 0.82850
# Poissons Ratio (y) = 0.14803 0.45932
# Poissons Ratio (z) = 0.26494 0.26464
#
# Static dielectric constant tensor:
#      x y z
#    x 2.834280 0.000000 0.000000 
#    y 0.000000 3.397050 0.000000 
#    z 0.000000 0.000000 3.772170 
# 
# 
# High freq. dielectric constant tensor:
#      x y z
#    x 1.631280 0.000000 0.000000 
#    y 0.000000 1.702720 0.000000 
#    z 0.000000 0.000000 1.714460 
# 
# From -- ./inp_files/31943.got.cif
#   From: 2010.03.12/outbox.cif.g09.slc.cpg/sg62_16_cif.got.tgz:31943.got - 2010.04.10 19:12:36.
