data_PCOD8251980
_publ_section_title
;
Structure prediction by ZEFSAII (Michael W. Deem and Ramdas Pophale) SiO2 
 PCOD8251980
Probable space group: P N M A
;
_chemical_formula_sum "Si O2"
_cell_formula_units_Z 64
_cell_length_a 19.513542
_cell_length_b 9.256295
_cell_length_c 19.487813
_cell_angle_alpha 90.000000
_cell_angle_beta 90.000000
_cell_angle_gamma 90.000000
_cell_volume 3519.949221
_symmetry_space_group_name_H-M "P N M A"
_symmetry_group_IT_number 62
_symmetry_cell_setting 'orthorhombic'
loop_
_space_group_symop_operation_xyz
x,y,z
1/2-x,-y,1/2+z
1/2+x,1/2-y,1/2-z
-x,1/2+y,-z
-x,-y,-z
1/2+x,y,1/2-z
1/2-x,1/2+y,1/2+z
x,1/2-y,z
loop_
_atom_site_type_symbol
_atom_site_label
_atom_site_fract_x
_atom_site_fract_y
_atom_site_fract_z
Si Si1 0.317480 0.080226 0.071918
Si Si2 0.520103 0.420472 0.710191
Si Si3 0.966577 0.417802 0.937086
Si Si4 0.142093 0.913988 0.723133
Si Si5 0.904024 0.417955 0.683406
Si Si6 0.314457 0.419307 0.602538
Si Si7 0.436158 0.083370 0.971507
Si Si8 0.797369 0.583607 0.758132
O O1 0.299123 0.250000 0.073351
O O2 0.353579 0.035922 0.143662
O O3 0.247471 0.991723 0.060214
O O4 0.366894 0.035425 0.009962
O O5 0.528792 0.250000 0.712183
O O6 0.499411 0.474199 0.634306
O O7 0.591776 0.487815 0.732956
O O8 0.461585 0.469347 0.763151
O O9 0.982976 0.250000 0.945969
O O10 0.885044 0.445403 0.938065
O O11 0.000000 0.500000 0.000000
O O12 0.115572 0.750000 0.727186
O O13 0.216863 0.930194 0.756732
O O14 0.885243 0.250000 0.692828
O O15 0.930951 0.451988 0.608103
O O16 0.836457 0.514696 0.693578
O O17 0.300247 0.250000 0.613119
O O18 0.320940 0.492985 0.676220
O O19 0.449657 0.250000 0.986161
O O20 0.500000 0.000000 0.000000
O O21 0.818137 0.750000 0.769299
#
# Coordination Sequence:
#
# PCOD8251980 Si02
#       8
#     8   8   8   8   8   8   8   8
#     4   9  19  36  55  82 118 150 188 230 270 325
#     4  10  20  36  56  81 110 139 180 228 273 326
#     4  10  22  39  57  80 109 142 181 231 280 332
#     4   9  19  34  53  80 112 144 180 223 268 320
#     4  10  20  36  57  81 112 147 186 230 274 328
#     4  10  19  36  60  82 108 143 185 230 275 328
#     4  10  21  36  56  82 116 153 188 232 279 329
#     4  10  20  35  56  82 110 142 182 228 274 326
#
# _framework density 18.182081
#
# number of rings (size 3 to 8) (size 9 to 14) (size 15 to 20)
#    0.000    2.250    1.250    2.250    0.000    5.500 
#    2.250    0.000    0.000    0.000    0.000    0.000 
#    0.000    0.000    0.000    0.000    0.000    0.000 
#
# Total GULP energy -793725.214965 kJ/mol
# GULP energy per Si atom -12401.956484 kJ/mol
# Density = 1.814070 g / cm^3
# Si number density = 18.182081 Si / 1000 Ang^3
#
#
#
# Elastic Constant Matrix: (Units=GPa)
#
#
# Indices 1 2 3 4 5 6 
#
# 1 119.5360 63.7015 76.9572 0.0000 0.0000 0.0000
# 2 63.7015 74.4788 54.2917 0.0000 0.0000 0.0000
# 3 76.9572 54.2917 117.7510 0.0000 0.0000 0.0000
# 4 0.0000 0.0000 0.0000 27.9860 0.0000 0.0000
# 5 0.0000 0.0000 0.0000 0.0000 29.9234 0.0000
# 6 0.0000 0.0000 0.0000 0.0000 0.0000 38.2610
#
#
#
# Elastic Compliance Matrix: (Units=1/GPa)
#
#
# Indices 1 2 3 4 5 6 
#
# 1 0.018820 -0.010740 -0.007348 0.000000 0.000000 0.000000
# 2 -0.010740 0.026353 -0.005131 0.000000 0.000000 0.000000
# 3 -0.007348 -0.005131 0.015661 0.000000 0.000000 0.000000
# 4 0.000000 0.000000 0.000000 0.035732 0.000000 0.000000
# 5 0.000000 0.000000 0.000000 0.000000 0.033419 0.000000
# 6 0.000000 0.000000 0.000000 0.000000 0.000000 0.026136
#
#
# Mechanical properties :
#
#
# Convention : Reuss Voigt Hill
#
# Bulk Modulus (GPa) = 69.46930 77.96293 73.71612
# Shear Modulus (GPa) = 24.11293 27.02179 25.56736
#
# Velocity S-wave (km/s) = 3.64564 3.85928 3.75398
# Velocity P-wave (km/s) = 7.48408 7.92659 7.70851
#
# Compressibility (1/GPa) = 0.01439485
#
# Stress axis : x y z
#
# Youngs Moduli (GPa) = 53.13582 37.94595 63.85447
#
# Poissons Ratio (x) = 0.40755 0.46919
# Poissons Ratio (y) = 0.57069 0.32766
# Poissons Ratio (z) = 0.39043 0.19471
#
# Static dielectric constant tensor:
#      x y z
#    x 3.411950 0.000000 0.000000 
#    y 0.000000 3.391590 0.000000 
#    z 0.000000 0.000000 9.942760 
# 
# 
# High freq. dielectric constant tensor:
#      x y z
#    x 1.711320 0.000000 0.000000 
#    y 0.000000 1.704170 0.000000 
#    z 0.000000 0.000000 1.696000 
# 
# From -- ./inp_files/24713.got.cif
#   From: 2010.03.12/outbox.cif.g09.slc.cpg/sg62_13_cif.got.tgz:24713.got - 2010.04.10 19:12:36.
