data_PCOD8251400
_publ_section_title
;
Structure prediction by ZEFSAII (Michael W. Deem and Ramdas Pophale) SiO2 
 PCOD8251400
Probable space group: P N M A
;
_chemical_formula_sum "Si O2"
_cell_formula_units_Z 48
_cell_length_a 8.476777
_cell_length_b 15.637630
_cell_length_c 15.593120
_cell_angle_alpha 90.000000
_cell_angle_beta 90.000000
_cell_angle_gamma 90.000000
_cell_volume 2066.972566
_symmetry_space_group_name_H-M "P N M A"
_symmetry_group_IT_number 62
_symmetry_cell_setting 'orthorhombic'
loop_
_space_group_symop_operation_xyz
x,y,z
1/2-x,-y,1/2+z
1/2+x,1/2-y,1/2-z
-x,1/2+y,-z
-x,-y,-z
1/2+x,y,1/2-z
1/2-x,1/2+y,1/2+z
x,1/2-y,z
loop_
_atom_site_type_symbol
_atom_site_label
_atom_site_fract_x
_atom_site_fract_y
_atom_site_fract_z
Si Si1 0.515056 0.845720 0.344044
Si Si2 0.735490 0.650565 0.661331
Si Si3 0.617180 0.347278 0.346452
Si Si4 0.692814 0.436143 0.784692
Si Si5 0.601333 0.994841 0.129288
Si Si6 0.752178 0.350147 0.522237
O O1 0.576003 0.750000 0.338864
O O2 0.414790 0.862166 0.257310
O O3 0.672692 0.902236 0.348803
O O4 0.412582 0.862299 0.428316
O O5 0.752763 0.750000 0.632662
O O6 0.789132 0.639789 0.759542
O O7 0.557885 0.612208 0.656662
O O8 0.847576 0.591287 0.599136
O O9 0.582806 0.250000 0.367400
O O10 0.722905 0.381664 0.425181
O O11 0.579881 0.497090 0.840752
O O12 0.778973 0.486026 0.709005
O O13 0.621217 0.917589 0.060949
O O14 0.809346 0.250000 0.530148
#
# Coordination Sequence:
#
# PCOD8251400 Si02
#       6
#     8   8   8   8   8   8
#     4   9  16  28  48  74 107 149 188 222 265 325
#     4  10  20  36  60  83 106 143 192 239 280 331
#     4   9  19  37  59  83 109 142 188 236 283 335
#     4   9  18  29  46  74 112 149 189 227 266 333
#     4  10  19  33  53  81 114 150 190 234 282 332
#     4   9  19  35  55  82 116 150 183 225 282 339
#
# _framework density 23.222369
#
# number of rings (size 3 to 8) (size 9 to 14) (size 15 to 20)
#    0.000    2.667    0.000    1.500    0.000    5.333 
#    0.000    1.667    0.000    9.000    0.000    1.167 
#    0.000    0.000    0.000    0.000    0.000    0.000 
#
# Total GULP energy -594777.467090 kJ/mol
# GULP energy per Si atom -12391.197231 kJ/mol
# Density = 2.316951 g / cm^3
# Si number density = 23.222369 Si / 1000 Ang^3
#
#
#
# Elastic Constant Matrix: (Units=GPa)
#
#
# Indices 1 2 3 4 5 6 
#
# 1 53.6311 11.0216 3.9757 0.0000 0.0000 0.0000
# 2 11.0216 94.9191 24.3689 0.0000 0.0000 0.0000
# 3 3.9757 24.3689 38.2246 0.0000 0.0000 0.0000
# 4 0.0000 0.0000 0.0000 10.3567 0.0000 0.0000
# 5 0.0000 0.0000 0.0000 0.0000 0.9751 0.0000
# 6 0.0000 0.0000 0.0000 0.0000 0.0000 31.6492
#
#
#
# Elastic Compliance Matrix: (Units=1/GPa)
#
#
# Indices 1 2 3 4 5 6 
#
# 1 0.019117 -0.002044 -0.000685 0.000000 0.000000 0.000000
# 2 -0.002044 0.012816 -0.007958 0.000000 0.000000 0.000000
# 3 -0.000685 -0.007958 0.031306 0.000000 0.000000 0.000000
# 4 0.000000 0.000000 0.000000 0.096556 0.000000 0.000000
# 5 0.000000 0.000000 0.000000 0.000000 1.025506 0.000000
# 6 0.000000 0.000000 0.000000 0.000000 0.000000 0.031596
#
#
# Mechanical properties :
#
#
# Convention : Reuss Voigt Hill
#
# Bulk Modulus (GPa) = 23.88666 29.50080 26.69373
# Shear Modulus (GPa) = 3.99290 18.42346 11.20818
#
# Velocity S-wave (km/s) = 1.31269 2.81970 2.19930
# Velocity P-wave (km/s) = 3.55048 4.83034 4.23899
#
# Compressibility (1/GPa) = 0.04186437
#
# Stress axis : x y z
#
# Youngs Moduli (GPa) = 52.31024 78.02998 31.94320
#
# Poissons Ratio (x) = 0.15948 0.02189
# Poissons Ratio (y) = 0.10691 0.25419
# Poissons Ratio (z) = 0.03585 0.62093
#
# Static dielectric constant tensor:
#      x y z
#    x 4.171470 0.000000 0.000000 
#    y 0.000000 4.471740 0.000000 
#    z 0.000000 0.000000 4.077490 
# 
# 
# High freq. dielectric constant tensor:
#      x y z
#    x 1.919620 0.000000 0.000000 
#    y 0.000000 1.927380 0.000000 
#    z 0.000000 0.000000 1.888220 
# 
# From -- ./inp_files/16972.got.cif
#   From: 2010.03.12/outbox.cif.g09.slc.cpg/sg62_9_cif.got.tgz:16972.got - 2010.04.10 19:12:36.
