data_PCOD8251745
_publ_section_title
;
Structure prediction by ZEFSAII (Michael W. Deem and Ramdas Pophale) SiO2 
 PCOD8251745
Probable space group: P N M A
;
_chemical_formula_sum "Si O2"
_cell_formula_units_Z 40
_cell_length_a 20.548263
_cell_length_b 8.946632
_cell_length_c 10.455760
_cell_angle_alpha 90.000000
_cell_angle_beta 90.000000
_cell_angle_gamma 90.000000
_cell_volume 1922.163365
_symmetry_space_group_name_H-M "P N M A"
_symmetry_group_IT_number 62
_symmetry_cell_setting 'orthorhombic'
loop_
_space_group_symop_operation_xyz
x,y,z
1/2-x,-y,1/2+z
1/2+x,1/2-y,1/2-z
-x,1/2+y,-z
-x,-y,-z
1/2+x,y,1/2-z
1/2-x,1/2+y,1/2+z
x,1/2-y,z
loop_
_atom_site_type_symbol
_atom_site_label
_atom_site_fract_x
_atom_site_fract_y
_atom_site_fract_z
Si Si1 0.211293 0.926399 0.876711
Si Si2 0.806229 0.073161 0.417227
Si Si3 0.402186 0.587497 0.508376
Si Si4 0.944839 0.572174 0.415991
Si Si5 0.017079 0.911143 0.172947
O O1 0.218178 0.750000 0.898018
O O2 0.260479 0.011564 0.970527
O O3 0.139834 0.979821 0.918644
O O4 0.220884 0.967563 0.725812
O O5 0.812721 0.250000 0.430707
O O6 0.875533 0.999576 0.443830
O O7 0.367623 0.750000 0.528014
O O8 0.473680 0.613028 0.452276
O O9 0.418451 0.511608 0.646017
O O10 0.939535 0.750000 0.434895
O O11 0.000000 0.500000 0.500000
O O12 0.967416 0.522076 0.275607
O O13 0.043822 0.750000 0.220190
#
# Coordination Sequence:
#
# PCOD8251745 Si02
#       5
#     8   8   8   8   8
#     4  11  24  42  66  94 128 168 213 265 320 381
#     4  11  25  44  67  95 126 167 216 263 318 380
#     4  10  19  34  60  90 119 155 200 251 304 363
#     4  11  23  41  64  91 126 165 206 256 314 373
#     4   9  19  35  57  87 121 157 198 246 302 362
#
# _framework density 20.809885000000001
#
# number of rings (size 3 to 8) (size 9 to 14) (size 15 to 20)
#    0.000    1.600    2.000    2.400    0.000    6.400 
#    0.000    0.000    0.000    0.000    0.000    0.000 
#    0.000    0.000    0.000    0.000    0.000    0.000 
#
# Total GULP energy -495574.212284 kJ/mol
# GULP energy per Si atom -12389.355307 kJ/mol
# Density = 2.076252 g / cm^3
# Si number density = 20.809885 Si / 1000 Ang^3
#
#
#
# Elastic Constant Matrix: (Units=GPa)
#
#
# Indices 1 2 3 4 5 6 
#
# 1 88.2892 57.5610 69.2786 0.0000 0.0000 0.0000
# 2 57.5610 122.4068 63.6630 0.0000 0.0000 0.0000
# 3 69.2786 63.6630 92.1060 0.0000 0.0000 0.0000
# 4 0.0000 0.0000 0.0000 27.7994 0.0000 0.0000
# 5 0.0000 0.0000 0.0000 0.0000 42.0120 0.0000
# 6 0.0000 0.0000 0.0000 0.0000 0.0000 39.8165
#
#
#
# Elastic Compliance Matrix: (Units=1/GPa)
#
#
# Indices 1 2 3 4 5 6 
#
# 1 0.028583 -0.003528 -0.019061 0.000000 0.000000 0.000000
# 2 -0.003528 0.013190 -0.006464 0.000000 0.000000 0.000000
# 3 -0.019061 -0.006464 0.029661 0.000000 0.000000 0.000000
# 4 0.000000 0.000000 0.000000 0.035972 0.000000 0.000000
# 5 0.000000 0.000000 0.000000 0.000000 0.023803 0.000000
# 6 0.000000 0.000000 0.000000 0.000000 0.000000 0.025115
#
#
# Mechanical properties :
#
#
# Convention : Reuss Voigt Hill
#
# Bulk Modulus (GPa) = 75.01554 75.97858 75.49706
# Shear Modulus (GPa) = 22.84455 29.41220 26.12838
#
# Velocity S-wave (km/s) = 3.31686 3.76357 3.54725
# Velocity P-wave (km/s) = 7.12706 7.44822 7.28941
#
# Compressibility (1/GPa) = 0.01333057
#
# Stress axis : x y z
#
# Youngs Moduli (GPa) = 34.98621 75.81564 33.71399
#
# Poissons Ratio (x) = 0.26744 0.64261
# Poissons Ratio (y) = 0.12341 0.21791
# Poissons Ratio (z) = 0.66686 0.49003
#
# Static dielectric constant tensor:
#      x y z
#    x 3.505690 0.000000 0.000000 
#    y 0.000000 4.321500 0.000000 
#    z 0.000000 0.000000 3.721830 
# 
# 
# High freq. dielectric constant tensor:
#      x y z
#    x 1.806430 0.000000 0.000000 
#    y 0.000000 1.829590 0.000000 
#    z 0.000000 0.000000 1.812100 
# 
# From -- ./inp_files/14628.got.cif
#   From: 2010.03.12/outbox.cif.g09.slc.cpg/sg62_8_cif.got.tgz:14628.got - 2010.04.10 19:12:36.
