data_PCOD8251933
_publ_section_title
;
Structure prediction by ZEFSAII (Michael W. Deem and Ramdas Pophale) SiO2 
 PCOD8251933
Probable space group: P N M A
;
_chemical_formula_sum "Si O2"
_cell_formula_units_Z 56
_cell_length_a 11.286441
_cell_length_b 12.674445
_cell_length_c 22.010062
_cell_angle_alpha 90.000000
_cell_angle_beta 90.000000
_cell_angle_gamma 90.000000
_cell_volume 3148.525628
_symmetry_space_group_name_H-M "P N M A"
_symmetry_group_IT_number 62
_symmetry_cell_setting 'orthorhombic'
loop_
_space_group_symop_operation_xyz
x,y,z
1/2-x,-y,1/2+z
1/2+x,1/2-y,1/2-z
-x,1/2+y,-z
-x,-y,-z
1/2+x,y,1/2-z
1/2-x,1/2+y,1/2+z
x,1/2-y,z
loop_
_atom_site_type_symbol
_atom_site_label
_atom_site_fract_x
_atom_site_fract_y
_atom_site_fract_z
Si Si1 0.006959 0.994805 0.376779
Si Si2 0.637806 0.524678 0.329639
Si Si3 0.208118 0.128428 0.570725
Si Si4 0.683127 0.872477 0.204695
Si Si5 0.160619 0.629180 0.704510
Si Si6 0.371421 0.462588 0.330543
Si Si7 0.708993 0.128484 0.068244
O O1 0.088451 0.065069 0.420070
O O2 0.948669 0.069846 0.326531
O O3 0.081877 0.906451 0.342072
O O4 0.910937 0.937221 0.418054
O O5 0.685537 0.586444 0.388025
O O6 0.640078 0.603405 0.272683
O O7 0.715045 0.421099 0.315545
O O8 0.506561 0.487556 0.345002
O O9 0.182511 0.250000 0.586192
O O10 0.247547 0.113195 0.501319
O O11 0.708469 0.750000 0.197137
O O12 0.806113 0.930650 0.190235
O O13 0.161506 0.750000 0.683725
O O14 0.142588 0.622618 0.776857
O O15 0.315767 0.414721 0.391209
O O16 0.684220 0.250000 0.083721
#
# Coordination Sequence:
#
# PCOD8251933 Si02
#       7
#     8   8   8   8   8   8   8
#     4  10  19  36  56  82 111 136 178 230 270 320
#     4  10  21  37  52  80 110 142 180 219 269 324
#     4  10  21  36  56  80 108 146 185 221 264 315
#     4  10  20  34  55  81 109 140 175 223 277 325
#     4  10  20  34  55  81 109 140 175 223 277 325
#     4  10  21  37  52  80 110 142 180 219 269 324
#     4  10  21  36  56  80 108 146 185 221 264 315
#
# _framework density 17.786103000000001
#
# number of rings (size 3 to 8) (size 9 to 14) (size 15 to 20)
#    0.000    2.000    1.429    2.143    0.000    2.857 
#    0.000    0.000    0.000    7.714    0.000    0.000 
#    0.000    0.000    0.000    0.000    0.000    0.000 
#
# Total GULP energy -694650.168928 kJ/mol
# GULP energy per Si atom -12404.467302 kJ/mol
# Density = 1.774562 g / cm^3
# Si number density = 17.786103 Si / 1000 Ang^3
#
#
#
# Elastic Constant Matrix: (Units=GPa)
#
#
# Indices 1 2 3 4 5 6 
#
# 1 103.1081 31.7446 39.7098 0.0000 0.0000 0.0000
# 2 31.7446 111.0512 37.9943 0.0000 0.0000 0.0000
# 3 39.7098 37.9943 100.1107 0.0000 0.0000 0.0000
# 4 0.0000 0.0000 0.0000 23.1384 0.0000 0.0000
# 5 0.0000 0.0000 0.0000 0.0000 18.9190 0.0000
# 6 0.0000 0.0000 0.0000 0.0000 0.0000 13.1479
#
#
#
# Elastic Compliance Matrix: (Units=1/GPa)
#
#
# Indices 1 2 3 4 5 6 
#
# 1 0.011837 -0.002043 -0.003920 0.000000 0.000000 0.000000
# 2 -0.002043 0.010701 -0.003251 0.000000 0.000000 0.000000
# 3 -0.003920 -0.003251 0.012778 0.000000 0.000000 0.000000
# 4 0.000000 0.000000 0.000000 0.043218 0.000000 0.000000
# 5 0.000000 0.000000 0.000000 0.000000 0.052857 0.000000
# 6 0.000000 0.000000 0.000000 0.000000 0.000000 0.076058
#
#
# Mechanical properties :
#
#
# Convention : Reuss Voigt Hill
#
# Bulk Modulus (GPa) = 59.21204 59.24081 59.22643
# Shear Modulus (GPa) = 21.59775 24.69583 23.14679
#
# Velocity S-wave (km/s) = 3.48847 3.73029 3.61140
# Velocity P-wave (km/s) = 7.04197 7.20646 7.12469
#
# Compressibility (1/GPa) = 0.01688846
#
# Stress axis : x y z
#
# Youngs Moduli (GPa) = 84.47984 93.44895 78.26092
#
# Poissons Ratio (x) = 0.19087 0.30679
# Poissons Ratio (y) = 0.17255 0.25443
# Poissons Ratio (z) = 0.33117 0.30381
#
# Static dielectric constant tensor:
#      x y z
#    x 3.241460 0.000000 0.000000 
#    y 0.000000 3.259840 0.000000 
#    z 0.000000 0.000000 3.288460 
# 
# 
# High freq. dielectric constant tensor:
#      x y z
#    x 1.690180 0.000000 0.000000 
#    y 0.000000 1.692590 0.000000 
#    z 0.000000 0.000000 1.690520 
# 
# From -- ./inp_files/12510.got.cif
#   From: 2010.03.12/outbox.cif.g09.slc.cpg/sg62_7_cif.got.tgz:12510.got - 2010.04.10 19:12:36.
