data_PCOD8251175
_publ_section_title
;
Structure prediction by ZEFSAII (Michael W. Deem and Ramdas Pophale) SiO2 
 PCOD8251175
Probable space group: P N M A
;
_chemical_formula_sum "Si O2"
_cell_formula_units_Z 64
_cell_length_a 25.023551
_cell_length_b 9.206556
_cell_length_c 15.154340
_cell_angle_alpha 90.000000
_cell_angle_beta 90.000000
_cell_angle_gamma 90.000000
_cell_volume 3491.267815
_symmetry_space_group_name_H-M "P N M A"
_symmetry_group_IT_number 62
_symmetry_cell_setting 'orthorhombic'
loop_
_space_group_symop_operation_xyz
x,y,z
1/2-x,-y,1/2+z
1/2+x,1/2-y,1/2-z
-x,1/2+y,-z
-x,-y,-z
1/2+x,y,1/2-z
1/2-x,1/2+y,1/2+z
x,1/2-y,z
loop_
_atom_site_type_symbol
_atom_site_label
_atom_site_fract_x
_atom_site_fract_y
_atom_site_fract_z
Si Si1 0.562578 0.417356 0.188881
Si Si2 0.831374 0.421506 0.006498
Si Si3 0.765721 0.914678 0.732383
Si Si4 0.600627 0.423074 0.997015
Si Si5 0.215891 0.414592 0.470839
Si Si6 0.141011 0.920173 0.183793
Si Si7 0.146847 0.577880 0.803146
Si Si8 0.559160 0.918844 0.831125
O O1 0.579226 0.250000 0.199762
O O2 0.593545 0.506082 0.263223
O O3 0.500044 0.442072 0.206326
O O4 0.577194 0.472449 0.091287
O O5 0.822696 0.250000 0.019634
O O6 0.866962 0.455451 0.920636
O O7 0.771180 0.490373 0.997230
O O8 0.859355 0.482003 0.095946
O O9 0.770182 0.750000 0.768145
O O10 0.789190 0.922620 0.634423
O O11 0.704412 0.969233 0.735406
O O12 0.800516 0.021131 0.792064
O O13 0.597371 0.250000 0.987534
O O14 0.564905 0.495825 0.922278
O O15 0.661684 0.484351 0.989072
O O16 0.216191 0.250000 0.503532
O O17 0.139632 0.750000 0.202619
O O18 0.142500 0.750000 0.804766
O O19 0.099998 0.514764 0.741436
O O20 0.570581 0.750000 0.849956
#
# Coordination Sequence:
#
# PCOD8251175 Si02
#       8
#     8   8   8   8   8   8   8   8
#     4  10  21  38  54  71 104 143 177 209 255 316
#     4   8  16  30  49  74 104 136 168 205 251 311
#     4   9  16  31  53  73 101 138 169 199 249 318
#     4  10  19  32  52  75 102 142 174 201 253 319
#     4   8  14  28  49  71  98 135 170 192 235 315
#     4  11  21  31  51  80 104 129 171 221 257 291
#     4   8  16  33  55  76 102 137 173 209 255 310
#     4  10  21  35  54  79 102 132 178 225 258 293
#
# _framework density 18.331448999999999
#
# number of rings (size 3 to 8) (size 9 to 14) (size 15 to 20)
#    0.000    2.750    1.250    2.250    1.750    1.000 
#    0.000    0.625    0.000    7.500    0.000    0.000 
#    0.000    0.000    0.000    0.000    0.000    0.000 
#
# Total GULP energy -793224.121899 kJ/mol
# GULP energy per Si atom -12394.126905 kJ/mol
# Density = 1.828973 g / cm^3
# Si number density = 18.331449 Si / 1000 Ang^3
#
#
#
# Elastic Constant Matrix: (Units=GPa)
#
#
# Indices 1 2 3 4 5 6 
#
# 1 105.7514 32.9449 62.2410 0.0000 0.0000 0.0000
# 2 32.9449 37.6267 31.8033 0.0000 0.0000 0.0000
# 3 62.2410 31.8033 94.1148 0.0000 0.0000 0.0000
# 4 0.0000 0.0000 0.0000 17.0220 0.0000 0.0000
# 5 0.0000 0.0000 0.0000 0.0000 28.3322 0.0000
# 6 0.0000 0.0000 0.0000 0.0000 0.0000 16.7642
#
#
#
# Elastic Compliance Matrix: (Units=1/GPa)
#
#
# Indices 1 2 3 4 5 6 
#
# 1 0.016860 -0.007472 -0.008625 0.000000 0.000000 0.000000
# 2 -0.007472 0.040514 -0.008749 0.000000 0.000000 0.000000
# 3 -0.008625 -0.008749 0.019286 0.000000 0.000000 0.000000
# 4 0.000000 0.000000 0.000000 0.058748 0.000000 0.000000
# 5 0.000000 0.000000 0.000000 0.000000 0.035296 0.000000
# 6 0.000000 0.000000 0.000000 0.000000 0.000000 0.059651
#
#
# Mechanical properties :
#
#
# Convention : Reuss Voigt Hill
#
# Bulk Modulus (GPa) = 37.08146 54.60792 45.84469
# Shear Modulus (GPa) = 17.29882 19.79058 18.54470
#
# Velocity S-wave (km/s) = 3.07525 3.28929 3.18407
# Velocity P-wave (km/s) = 5.73427 6.65430 6.21134
#
# Compressibility (1/GPa) = 0.02696766
#
# Stress axis : x y z
#
# Youngs Moduli (GPa) = 59.31026 24.68269 51.85105
#
# Poissons Ratio (x) = 0.18443 0.44723
# Poissons Ratio (y) = 0.44317 0.45365
# Poissons Ratio (z) = 0.51157 0.21595
#
# Static dielectric constant tensor:
#      x y z
#    x 3.514190 0.000000 0.000000 
#    y 0.000000 2.954690 0.000000 
#    z 0.000000 0.000000 3.441230 
# 
# 
# High freq. dielectric constant tensor:
#      x y z
#    x 1.713140 0.000000 0.000000 
#    y 0.000000 1.665480 0.000000 
#    z 0.000000 0.000000 1.710000 
# 
# From -- ./inp_files/20985.got.cif
#   From: 2010.03.12/outbox.cif.g09.slc.cpg/sg62_11_cif.got.tgz:20985.got - 2010.04.10 19:12:36.
