data_PCOD8251015
_publ_section_title
;
Structure prediction by ZEFSAII (Michael W. Deem and Ramdas Pophale) SiO2 
 PCOD8251015
Probable space group: P N M A
;
_chemical_formula_sum "Si O2"
_cell_formula_units_Z 56
_cell_length_a 18.039825
_cell_length_b 9.123903
_cell_length_c 18.581144
_cell_angle_alpha 90.000000
_cell_angle_beta 90.000000
_cell_angle_gamma 90.000000
_cell_volume 3058.337633
_symmetry_space_group_name_H-M "P N M A"
_symmetry_group_IT_number 62
_symmetry_cell_setting 'orthorhombic'
loop_
_space_group_symop_operation_xyz
x,y,z
1/2-x,-y,1/2+z
1/2+x,1/2-y,1/2-z
-x,1/2+y,-z
-x,-y,-z
1/2+x,y,1/2-z
1/2-x,1/2+y,1/2+z
x,1/2-y,z
loop_
_atom_site_type_symbol
_atom_site_label
_atom_site_fract_x
_atom_site_fract_y
_atom_site_fract_z
Si Si1 0.336931 0.080467 0.965423
Si Si2 0.309666 0.582058 0.381573
Si Si3 0.511016 0.415770 0.289999
Si Si4 0.340750 0.085328 0.245818
Si Si5 0.956357 0.079606 0.652867
Si Si6 0.378148 0.921481 0.109301
Si Si7 0.974233 0.922429 0.071876
O O1 0.349177 0.250000 0.986360
O O2 0.253744 0.049689 0.939425
O O3 0.393449 0.033180 0.903056
O O4 0.350512 0.980013 0.033559
O O5 0.308983 0.750000 0.356336
O O6 0.293968 0.487593 0.310071
O O7 0.387481 0.542141 0.418418
O O8 0.538967 0.250000 0.303023
O O9 0.425995 0.418749 0.267565
O O10 0.558133 0.488736 0.225803
O O11 0.521586 0.509776 0.362450
O O12 0.311950 0.250000 0.234070
O O13 0.329712 0.996784 0.171955
O O14 0.952234 0.250000 0.673235
O O15 0.035269 0.040095 0.617588
O O16 0.363394 0.750000 0.113652
O O17 0.990108 0.750000 0.067792
O O18 0.000000 0.000000 0.000000
#
# Coordination Sequence:
#
# PCOD8251015 Si02
#       7
#     8   8   8   8   8   8   8
#     4  10  20  34  51  73 104 137 167 203 250 299
#     4   9  19  35  53  73  99 131 165 204 251 300
#     4   9  17  30  50  75  99 124 159 201 244 293
#     4   9  17  31  52  73  94 124 162 202 243 292
#     4   9  18  32  50  73 102 135 168 204 246 292
#     4  10  19  31  50  76 103 132 169 208 244 287
#     4  10  19  33  54  77 100 127 164 210 256 299
#
# _framework density 18.310600000000001
#
# number of rings (size 3 to 8) (size 9 to 14) (size 15 to 20)
#    0.000    2.571    0.000    2.143    0.000    5.714 
#    0.000    1.429    0.000    0.000    0.000    0.000 
#    0.000    0.000    0.000    0.000    0.000    0.000 
#
# Total GULP energy -694502.981012 kJ/mol
# GULP energy per Si atom -12401.838947 kJ/mol
# Density = 1.826892 g / cm^3
# Si number density = 18.310600 Si / 1000 Ang^3
#
#
#
# Elastic Constant Matrix: (Units=GPa)
#
#
# Indices 1 2 3 4 5 6 
#
# 1 51.4611 37.6542 45.8206 0.0000 0.0000 0.0000
# 2 37.6542 123.3240 90.7209 0.0000 0.0000 0.0000
# 3 45.8206 90.7209 161.8933 0.0000 0.0000 0.0000
# 4 0.0000 0.0000 0.0000 45.2934 0.0000 0.0000
# 5 0.0000 0.0000 0.0000 0.0000 11.9658 0.0000
# 6 0.0000 0.0000 0.0000 0.0000 0.0000 17.7320
#
#
#
# Elastic Compliance Matrix: (Units=1/GPa)
#
#
# Indices 1 2 3 4 5 6 
#
# 1 0.027387 -0.004525 -0.005215 0.000000 0.000000 0.000000
# 2 -0.004525 0.014543 -0.006869 0.000000 0.000000 0.000000
# 3 -0.005215 -0.006869 0.011502 0.000000 0.000000 0.000000
# 4 0.000000 0.000000 0.000000 0.022078 0.000000 0.000000
# 5 0.000000 0.000000 0.000000 0.000000 0.083571 0.000000
# 6 0.000000 0.000000 0.000000 0.000000 0.000000 0.056395
#
#
# Mechanical properties :
#
#
# Convention : Reuss Voigt Hill
#
# Bulk Modulus (GPa) = 49.47253 76.11886 62.79569
# Shear Modulus (GPa) = 19.57444 25.83043 22.70244
#
# Velocity S-wave (km/s) = 3.27314 3.75998 3.52497
# Velocity P-wave (km/s) = 6.43131 7.77889 7.13698
#
# Compressibility (1/GPa) = 0.02021324
#
# Stress axis : x y z
#
# Youngs Moduli (GPa) = 36.51338 68.75935 86.93959
#
# Poissons Ratio (x) = 0.31116 0.45343
# Poissons Ratio (y) = 0.16524 0.59719
# Poissons Ratio (z) = 0.19043 0.47231
#
# Static dielectric constant tensor:
#      x y z
#    x 3.167550 0.000000 0.000000 
#    y 0.000000 3.497400 0.000000 
#    z 0.000000 0.000000 3.438630 
# 
# 
# High freq. dielectric constant tensor:
#      x y z
#    x 1.675320 0.000000 0.000000 
#    y 0.000000 1.718470 0.000000 
#    z 0.000000 0.000000 1.718430 
# 
# From -- ./inp_files/24565.got.cif
#   From: 2010.03.12/outbox.cif.g09.slc.cpg/sg62_13_cif.got.tgz:24565.got - 2010.04.10 19:12:36.
