data_PCOD8251079
_publ_section_title
;
Structure prediction by ZEFSAII (Michael W. Deem and Ramdas Pophale) SiO2 
 PCOD8251079
Probable space group: P N M A
;
_chemical_formula_sum "Si O2"
_cell_formula_units_Z 64
_cell_length_a 21.897867
_cell_length_b 9.348973
_cell_length_c 16.600747
_cell_angle_alpha 90.000000
_cell_angle_beta 90.000000
_cell_angle_gamma 90.000000
_cell_volume 3398.547546
_symmetry_space_group_name_H-M "P N M A"
_symmetry_group_IT_number 62
_symmetry_cell_setting 'orthorhombic'
loop_
_space_group_symop_operation_xyz
x,y,z
1/2-x,-y,1/2+z
1/2+x,1/2-y,1/2-z
-x,1/2+y,-z
-x,-y,-z
1/2+x,y,1/2-z
1/2-x,1/2+y,1/2+z
x,1/2-y,z
loop_
_atom_site_type_symbol
_atom_site_label
_atom_site_fract_x
_atom_site_fract_y
_atom_site_fract_z
Si Si1 0.173464 0.418046 0.421820
Si Si2 0.130465 0.916982 0.568169
Si Si3 0.877652 0.915129 0.178456
Si Si4 0.900779 0.585565 0.732427
Si Si5 0.538718 0.584970 0.794276
Si Si6 0.156136 0.910798 0.136409
Si Si7 0.711116 0.091146 0.820039
Si Si8 0.187102 0.918773 0.955950
O O1 0.165477 0.250000 0.437401
O O2 0.129030 0.500323 0.483759
O O3 0.150069 0.460664 0.332933
O O4 0.243825 0.465482 0.433578
O O5 0.137985 0.750000 0.551258
O O6 0.069734 0.952472 0.619874
O O7 0.188751 0.971472 0.618139
O O8 0.893338 0.750000 0.160251
O O9 0.817611 0.931951 0.232858
O O10 0.935047 0.986782 0.222945
O O11 0.862774 0.997644 0.096503
O O12 0.893236 0.750000 0.754383
O O13 0.894076 0.504043 0.817391
O O14 0.967335 0.552826 0.695975
O O15 0.551999 0.750000 0.771800
O O16 0.130952 0.750000 0.132307
O O17 0.216807 0.922465 0.190433
O O18 0.171787 0.965196 0.046981
O O19 0.694357 0.250000 0.854291
O O20 0.179367 0.750000 0.942134
#
# Coordination Sequence:
#
# PCOD8251079 Si02
#       8
#     8   8   8   8   8   8   8   8
#     4  10  20  36  56  81 115 147 178 217 276 334
#     4  10  19  31  53  82 110 143 181 222 264 314
#     4  10  20  33  56  84 106 137 183 229 267 315
#     4  10  22  38  57  79 106 146 188 226 266 321
#     4   9  20  39  56  76 110 147 186 226 269 318
#     4  10  20  35  55  78 109 144 176 219 278 329
#     4   9  17  33  53  76 109 142 172 214 274 328
#     4  10  20  35  55  80 113 146 172 213 277 335
#
# _framework density 18.831572999999999
#
# number of rings (size 3 to 8) (size 9 to 14) (size 15 to 20)
#    0.000    2.250    1.250    1.500    0.000    4.000 
#    0.000    0.625    0.000    0.000    0.000    0.000 
#    0.000    0.000    0.000    0.000    0.000    0.000 
#
# Total GULP energy -793592.342379 kJ/mol
# GULP energy per Si atom -12399.880350 kJ/mol
# Density = 1.878871 g / cm^3
# Si number density = 18.831573 Si / 1000 Ang^3
#
#
#
# Elastic Constant Matrix: (Units=GPa)
#
#
# Indices 1 2 3 4 5 6 
#
# 1 55.2160 32.8674 39.6836 0.0000 0.0000 0.0000
# 2 32.8674 70.8061 53.4133 0.0000 0.0000 0.0000
# 3 39.6836 53.4133 106.8491 0.0000 0.0000 0.0000
# 4 0.0000 0.0000 0.0000 34.5902 0.0000 0.0000
# 5 0.0000 0.0000 0.0000 0.0000 24.0785 0.0000
# 6 0.0000 0.0000 0.0000 0.0000 0.0000 24.7035
#
#
#
# Elastic Compliance Matrix: (Units=1/GPa)
#
#
# Indices 1 2 3 4 5 6 
#
# 1 0.027301 -0.008066 -0.006108 0.000000 0.000000 0.000000
# 2 -0.008066 0.025056 -0.009530 0.000000 0.000000 0.000000
# 3 -0.006108 -0.009530 0.016391 0.000000 0.000000 0.000000
# 4 0.000000 0.000000 0.000000 0.028910 0.000000 0.000000
# 5 0.000000 0.000000 0.000000 0.000000 0.041531 0.000000
# 6 0.000000 0.000000 0.000000 0.000000 0.000000 0.040480
#
#
# Mechanical properties :
#
#
# Convention : Reuss Voigt Hill
#
# Bulk Modulus (GPa) = 46.85514 53.86665 50.36090
# Shear Modulus (GPa) = 21.35023 23.80158 22.57591
#
# Velocity S-wave (km/s) = 3.37077 3.55902 3.46617
# Velocity P-wave (km/s) = 6.33124 6.74947 6.54370
#
# Compressibility (1/GPa) = 0.02134237
#
# Stress axis : x y z
#
# Youngs Moduli (GPa) = 36.62827 39.91081 61.00809
#
# Poissons Ratio (x) = 0.32190 0.37262
# Poissons Ratio (y) = 0.29543 0.58139
# Poissons Ratio (z) = 0.22372 0.38034
#
# Static dielectric constant tensor:
#      x y z
#    x 3.266960 0.000000 0.000000 
#    y 0.000000 3.465740 0.000000 
#    z 0.000000 0.000000 3.376570 
# 
# 
# High freq. dielectric constant tensor:
#      x y z
#    x 1.713860 0.000000 0.000000 
#    y 0.000000 1.730070 0.000000 
#    z 0.000000 0.000000 1.729470 
# 
# From -- ./inp_files/20819.got.cif
#   From: 2010.03.12/outbox.cif.g09.slc.cpg/sg62_11_cif.got.tgz:20819.got - 2010.04.10 19:12:36.
