data_PCOD8251803
_publ_section_title
;
Structure prediction by ZEFSAII (Michael W. Deem and Ramdas Pophale) SiO2 
 PCOD8251803
Probable space group: P N M A
;
_chemical_formula_sum "Si O2"
_cell_formula_units_Z 48
_cell_length_a 9.265479
_cell_length_b 11.972384
_cell_length_c 22.471840
_cell_angle_alpha 90.000000
_cell_angle_beta 90.000000
_cell_angle_gamma 90.000000
_cell_volume 2492.798347
_symmetry_space_group_name_H-M "P N M A"
_symmetry_group_IT_number 62
_symmetry_cell_setting 'orthorhombic'
loop_
_space_group_symop_operation_xyz
x,y,z
1/2-x,-y,1/2+z
1/2+x,1/2-y,1/2-z
-x,1/2+y,-z
-x,-y,-z
1/2+x,y,1/2-z
1/2-x,1/2+y,1/2+z
x,1/2-y,z
loop_
_atom_site_type_symbol
_atom_site_label
_atom_site_fract_x
_atom_site_fract_y
_atom_site_fract_z
Si Si1 0.609111 0.040812 0.675899
Si Si2 0.191921 0.876198 0.417686
Si Si3 0.984486 0.379276 0.081735
Si Si4 0.211261 0.527568 0.017516
Si Si5 0.304117 0.383156 0.723459
Si Si6 0.609897 0.121427 0.882016
O O1 0.658537 0.115532 0.619124
O O2 0.746026 0.045167 0.720474
O O3 0.471398 0.091192 0.709905
O O4 0.579508 0.918820 0.646290
O O5 0.158953 0.750000 0.434716
O O6 0.054274 0.925503 0.380959
O O7 0.201004 0.937711 0.480110
O O8 0.031304 0.250000 0.087695
O O9 0.873122 0.390125 0.027055
O O10 0.115656 0.461256 0.065794
O O11 0.322406 0.603404 0.053258
O O12 0.289156 0.250000 0.735941
O O13 0.208784 0.431654 0.669244
O O14 0.606516 0.250000 0.866120
#
# Coordination Sequence:
#
# PCOD8251803 Si02
#       6
#     8   8   8   8   8   8
#     4  11  22  38  57  83 114 147 191 238 288 341
#     4  10  20  33  54  84 118 150 183 229 285 341
#     4  10  21  37  58  84 117 154 195 237 286 342
#     4  10  19  35  57  85 114 154 190 234 279 339
#     4  11  21  35  57  82 112 146 186 236 289 341
#     4  10  20  34  54  85 119 148 183 232 287 336
#
# _framework density 19.255469000000002
#
# number of rings (size 3 to 8) (size 9 to 14) (size 15 to 20)
#    0.000    1.667    1.667    4.000    0.000    1.333 
#    0.000    0.833    0.000    1.000    0.000    0.000 
#    0.000    0.000    0.000    0.000    0.000    0.000 
#
# Total GULP energy -594832.858725 kJ/mol
# GULP energy per Si atom -12392.351223 kJ/mol
# Density = 1.921164 g / cm^3
# Si number density = 19.255469 Si / 1000 Ang^3
#
#
#
# Elastic Constant Matrix: (Units=GPa)
#
#
# Indices 1 2 3 4 5 6 
#
# 1 91.4306 14.1397 25.9543 0.0000 0.0000 0.0000
# 2 14.1397 44.9833 19.8158 0.0000 0.0000 0.0000
# 3 25.9543 19.8158 92.5271 0.0000 0.0000 0.0000
# 4 0.0000 0.0000 0.0000 23.8147 0.0000 0.0000
# 5 0.0000 0.0000 0.0000 0.0000 39.6529 0.0000
# 6 0.0000 0.0000 0.0000 0.0000 0.0000 21.4876
#
#
#
# Elastic Compliance Matrix: (Units=1/GPa)
#
#
# Indices 1 2 3 4 5 6 
#
# 1 0.012144 -0.002558 -0.002859 0.000000 0.000000 0.000000
# 2 -0.002558 0.025085 -0.004655 0.000000 0.000000 0.000000
# 3 -0.002859 -0.004655 0.012606 0.000000 0.000000 0.000000
# 4 0.000000 0.000000 0.000000 0.041991 0.000000 0.000000
# 5 0.000000 0.000000 0.000000 0.000000 0.025219 0.000000
# 6 0.000000 0.000000 0.000000 0.000000 0.000000 0.046539
#
#
# Mechanical properties :
#
#
# Convention : Reuss Voigt Hill
#
# Bulk Modulus (GPa) = 33.67822 38.75120 36.21471
# Shear Modulus (GPa) = 25.82317 28.25978 27.04148
#
# Velocity S-wave (km/s) = 3.66605 3.83511 3.75154
# Velocity P-wave (km/s) = 5.95383 6.30708 6.13300
#
# Compressibility (1/GPa) = 0.02969278
#
# Stress axis : x y z
#
# Youngs Moduli (GPa) = 82.34277 39.86444 79.32487
#
# Poissons Ratio (x) = 0.10198 0.22677
# Poissons Ratio (y) = 0.21064 0.36924
# Poissons Ratio (z) = 0.23539 0.18556
#
# Static dielectric constant tensor:
#      x y z
#    x 3.769850 0.000000 0.000000 
#    y 0.000000 3.165420 0.000000 
#    z 0.000000 0.000000 3.684080 
# 
# 
# High freq. dielectric constant tensor:
#      x y z
#    x 1.760960 0.000000 0.000000 
#    y 0.000000 1.707970 0.000000 
#    z 0.000000 0.000000 1.758410 
# 
# From -- ./inp_files/28814.got.cif
#   From: 2010.03.12/outbox.cif.g09.slc.cpg/sg62_15_cif.got.tgz:28814.got - 2010.04.10 19:12:36.
