data_PCOD8251056
_publ_section_title
;
Structure prediction by ZEFSAII (Michael W. Deem and Ramdas Pophale) SiO2 
 PCOD8251056
Probable space group: P N M A
;
_chemical_formula_sum "Si O2"
_cell_formula_units_Z 56
_cell_length_a 17.508712
_cell_length_b 8.804865
_cell_length_c 19.757035
_cell_angle_alpha 90.000000
_cell_angle_beta 90.000000
_cell_angle_gamma 90.000000
_cell_volume 3045.780977
_symmetry_space_group_name_H-M "P N M A"
_symmetry_group_IT_number 62
_symmetry_cell_setting 'orthorhombic'
loop_
_space_group_symop_operation_xyz
x,y,z
1/2-x,-y,1/2+z
1/2+x,1/2-y,1/2-z
-x,1/2+y,-z
-x,-y,-z
1/2+x,y,1/2-z
1/2-x,1/2+y,1/2+z
x,1/2-y,z
loop_
_atom_site_type_symbol
_atom_site_label
_atom_site_fract_x
_atom_site_fract_y
_atom_site_fract_z
Si Si1 0.468726 0.068900 0.837981
Si Si2 0.879562 0.928665 0.406129
Si Si3 0.199102 0.074218 0.967953
Si Si4 0.933058 0.428632 0.809838
Si Si5 0.968444 0.926003 0.067200
Si Si6 0.146568 0.429079 0.442060
Si Si7 0.288640 0.071989 0.609095
O O1 0.469068 0.250000 0.837277
O O2 0.549826 0.001016 0.864228
O O3 0.453005 0.000727 0.763259
O O4 0.401944 0.014804 0.886461
O O5 0.888852 0.750000 0.405603
O O6 0.881409 0.985031 0.483866
O O7 0.798463 0.975249 0.372009
O O8 0.223311 0.250000 0.968578
O O9 0.122141 0.048171 0.924918
O O10 0.265201 0.975781 0.932742
O O11 0.182823 0.020450 0.044257
O O12 0.945575 0.250000 0.805470
O O13 0.844940 0.466953 0.828778
O O14 0.989960 0.496720 0.866742
O O15 0.989255 0.750000 0.061665
O O16 0.000000 0.000000 0.000000
O O17 0.137955 0.250000 0.432936
O O18 0.291706 0.250000 0.590105
#
# Coordination Sequence:
#
# PCOD8251056 Si02
#       7
#     8   8   8   8   8   8   8
#     4  10  19  34  52  76 105 134 173 217 262 311
#     4   8  16  30  52  77  98 129 173 213 253 306
#     4  10  19  31  51  81 106 129 170 219 261 304
#     4   9  18  32  51  75 105 139 170 209 261 314
#     4  10  19  32  52  78 104 136 175 215 260 309
#     4  10  20  35  54  75 102 138 174 217 267 313
#     4   9  16  31  52  74 101 136 172 206 257 315
#
# _framework density 18.386089999999999
#
# number of rings (size 3 to 8) (size 9 to 14) (size 15 to 20)
#    0.000    2.571    1.429    2.143    0.000    0.571 
#    2.571    4.286    0.000    0.000    0.000    0.000 
#    0.000    0.000    0.000    0.000    0.000    0.000 
#
# Total GULP energy -694210.675538 kJ/mol
# GULP energy per Si atom -12396.619206 kJ/mol
# Density = 1.834424 g / cm^3
# Si number density = 18.386090 Si / 1000 Ang^3
#
#
#
# Elastic Constant Matrix: (Units=GPa)
#
#
# Indices 1 2 3 4 5 6 
#
# 1 135.0146 17.9403 90.6858 0.0000 0.0000 0.0000
# 2 17.9403 20.7504 16.2239 0.0000 0.0000 0.0000
# 3 90.6858 16.2239 140.0909 0.0000 0.0000 0.0000
# 4 0.0000 0.0000 0.0000 19.5940 0.0000 0.0000
# 5 0.0000 0.0000 0.0000 0.0000 23.5265 0.0000
# 6 0.0000 0.0000 0.0000 0.0000 0.0000 21.5799
#
#
#
# Elastic Compliance Matrix: (Units=1/GPa)
#
#
# Indices 1 2 3 4 5 6 
#
# 1 0.013628 -0.005371 -0.008200 0.000000 0.000000 0.000000
# 2 -0.005371 0.055107 -0.002905 0.000000 0.000000 0.000000
# 3 -0.008200 -0.002905 0.012783 0.000000 0.000000 0.000000
# 4 0.000000 0.000000 0.000000 0.051036 0.000000 0.000000
# 5 0.000000 0.000000 0.000000 0.000000 0.042505 0.000000
# 6 0.000000 0.000000 0.000000 0.000000 0.000000 0.046339
#
#
# Mechanical properties :
#
#
# Convention : Reuss Voigt Hill
#
# Bulk Modulus (GPa) = 20.59074 60.61734 40.60404
# Shear Modulus (GPa) = 18.48164 24.34046 21.41105
#
# Velocity S-wave (km/s) = 3.17392 3.64242 3.41622
# Velocity P-wave (km/s) = 4.96539 7.12253 6.13944
#
# Compressibility (1/GPa) = 0.04856552
#
# Stress axis : x y z
#
# Youngs Moduli (GPa) = 73.37880 18.14655 78.23104
#
# Poissons Ratio (x) = 0.09747 0.64148
# Poissons Ratio (y) = 0.39414 0.22725
# Poissons Ratio (z) = 0.60169 0.05271
#
# Static dielectric constant tensor:
#      x y z
#    x 3.761050 0.000000 0.000000 
#    y 0.000000 3.111510 0.000000 
#    z 0.000000 0.000000 3.474870 
# 
# 
# High freq. dielectric constant tensor:
#      x y z
#    x 1.731110 0.000000 0.000000 
#    y 0.000000 1.682190 0.000000 
#    z 0.000000 0.000000 1.694870 
# 
# From -- ./inp_files/27570.got.cif
#   From: 2010.03.12/outbox.cif.g09.slc.cpg/sg62_14_cif.got.tgz:27570.got - 2010.04.10 19:12:36.
