data_PCOD8251832
_publ_section_title
;
Structure prediction by ZEFSAII (Michael W. Deem and Ramdas Pophale) SiO2 
 PCOD8251832
Probable space group: P N M A
;
_chemical_formula_sum "Si O2"
_cell_formula_units_Z 64
_cell_length_a 25.036065
_cell_length_b 9.270112
_cell_length_c 14.412854
_cell_angle_alpha 90.000000
_cell_angle_beta 90.000000
_cell_angle_gamma 90.000000
_cell_volume 3345.037871
_symmetry_space_group_name_H-M "P N M A"
_symmetry_group_IT_number 62
_symmetry_cell_setting 'orthorhombic'
loop_
_space_group_symop_operation_xyz
x,y,z
1/2-x,-y,1/2+z
1/2+x,1/2-y,1/2-z
-x,1/2+y,-z
-x,-y,-z
1/2+x,y,1/2-z
1/2-x,1/2+y,1/2+z
x,1/2-y,z
loop_
_atom_site_type_symbol
_atom_site_label
_atom_site_fract_x
_atom_site_fract_y
_atom_site_fract_z
Si Si1 0.755868 0.915972 0.547677
Si Si2 0.369069 0.583338 0.894693
Si Si3 0.108869 0.918690 0.215799
Si Si4 0.008560 0.918757 0.096068
Si Si5 0.953575 0.585221 0.451263
Si Si6 0.579601 0.419021 0.748550
Si Si7 0.189023 0.917165 0.778916
Si Si8 0.727243 0.920443 0.346856
O O1 0.770237 0.750000 0.531495
O O2 0.809824 0.985165 0.590854
O O3 0.705064 0.935365 0.613793
O O4 0.740190 0.982390 0.448856
O O5 0.366834 0.750000 0.864105
O O6 0.399619 0.498035 0.813713
O O7 0.398986 0.562889 0.992192
O O8 0.102339 0.750000 0.235505
O O9 0.063914 0.970171 0.143000
O O10 0.166103 0.959450 0.173842
O O11 0.010293 0.750000 0.073994
O O12 0.960813 0.956967 0.166206
O O13 0.000000 0.000000 0.000000
O O14 0.971670 0.750000 0.450630
O O15 0.945613 0.530887 0.346174
O O16 0.000000 0.500000 0.500000
O O17 0.593953 0.250000 0.751413
O O18 0.632677 0.508986 0.733801
O O19 0.185689 0.750000 0.749837
O O20 0.234742 0.994666 0.721406
O O21 0.737416 0.750000 0.336972
#
# Coordination Sequence:
#
# PCOD8251832 Si02
#       8
#     8   8   8   8   8   8   8   8
#     4   9  19  35  56  81 111 150 191 231 284 347
#     4  10  19  35  58  84 116 151 187 232 289 344
#     4  10  21  37  60  86 114 151 195 238 285 348
#     4  10  23  41  61  86 116 155 200 245 289 340
#     4  10  21  37  61  87 114 151 190 233 286 347
#     4  10  22  41  60  82 119 161 196 235 292 355
#     4  11  22  37  60  89 118 149 193 247 289 334
#     4  10  20  37  60  84 116 158 194 231 292 358
#
# _framework density 19.132819000000001
#
# number of rings (size 3 to 8) (size 9 to 14) (size 15 to 20)
#    0.000    2.000    1.250    1.875    1.750    5.000 
#    0.000    3.125    0.000    0.000    0.000    0.000 
#    0.000    0.000    0.000    0.000    0.000    0.000 
#
# Total GULP energy -793713.134669 kJ/mol
# GULP energy per Si atom -12401.767729 kJ/mol
# Density = 1.908927 g / cm^3
# Si number density = 19.132819 Si / 1000 Ang^3
#
#
#
# Elastic Constant Matrix: (Units=GPa)
#
#
# Indices 1 2 3 4 5 6 
#
# 1 115.9198 50.9186 39.2345 0.0000 0.0000 0.0000
# 2 50.9186 54.7103 45.0878 0.0000 0.0000 0.0000
# 3 39.2345 45.0878 126.9143 0.0000 0.0000 0.0000
# 4 0.0000 0.0000 0.0000 31.3040 0.0000 0.0000
# 5 0.0000 0.0000 0.0000 0.0000 31.2858 0.0000
# 6 0.0000 0.0000 0.0000 0.0000 0.0000 15.8558
#
#
#
# Elastic Compliance Matrix: (Units=1/GPa)
#
#
# Indices 1 2 3 4 5 6 
#
# 1 0.014610 -0.013963 0.000444 0.000000 0.000000 0.000000
# 2 -0.013963 0.039190 -0.009606 0.000000 0.000000 0.000000
# 3 0.000444 -0.009606 0.011155 0.000000 0.000000 0.000000
# 4 0.000000 0.000000 0.000000 0.031945 0.000000 0.000000
# 5 0.000000 0.000000 0.000000 0.000000 0.031963 0.000000
# 6 0.000000 0.000000 0.000000 0.000000 0.000000 0.063069
#
#
# Mechanical properties :
#
#
# Convention : Reuss Voigt Hill
#
# Bulk Modulus (GPa) = 53.46406 63.11402 58.28904
# Shear Modulus (GPa) = 20.45685 26.50934 23.48309
#
# Velocity S-wave (km/s) = 3.27341 3.72633 3.50719
# Velocity P-wave (km/s) = 6.50317 7.18143 6.85070
#
# Compressibility (1/GPa) = 0.01870415
#
# Stress axis : x y z
#
# Youngs Moduli (GPa) = 68.44716 25.51655 89.64803
#
# Poissons Ratio (x) = 0.35629 -0.03981
# Poissons Ratio (y) = 0.95575 0.86117
# Poissons Ratio (z) = -0.03040 0.24512
#
# Static dielectric constant tensor:
#      x y z
#    x -0.586520 0.000000 0.000000 
#    y 0.000000 3.342040 0.000000 
#    z 0.000000 0.000000 3.789700 
# 
# 
# High freq. dielectric constant tensor:
#      x y z
#    x 1.757040 0.000000 0.000000 
#    y 0.000000 1.723520 0.000000 
#    z 0.000000 0.000000 1.757560 
# 
# From -- ./inp_files/20853.got.cif
#   From: 2010.03.12/outbox.cif.g09.slc.cpg/sg62_11_cif.got.tgz:20853.got - 2010.04.10 19:12:36.
