data_PCOD8251982
_publ_section_title
;
Structure prediction by ZEFSAII (Michael W. Deem and Ramdas Pophale) SiO2 
 PCOD8251982
Probable space group: P N M A
;
_chemical_formula_sum "Si O2"
_cell_formula_units_Z 40
_cell_length_a 15.487708
_cell_length_b 8.240305
_cell_length_c 15.401286
_cell_angle_alpha 90.000000
_cell_angle_beta 90.000000
_cell_angle_gamma 90.000000
_cell_volume 1965.565064
_symmetry_space_group_name_H-M "P N M A"
_symmetry_group_IT_number 62
_symmetry_cell_setting 'orthorhombic'
loop_
_space_group_symop_operation_xyz
x,y,z
1/2-x,-y,1/2+z
1/2+x,1/2-y,1/2-z
-x,1/2+y,-z
-x,-y,-z
1/2+x,y,1/2-z
1/2-x,1/2+y,1/2+z
x,1/2-y,z
loop_
_atom_site_type_symbol
_atom_site_label
_atom_site_fract_x
_atom_site_fract_y
_atom_site_fract_z
Si Si1 0.574171 0.058813 0.438032
Si Si2 0.331047 0.439000 0.212529
Si Si3 0.311359 0.556378 0.846500
Si Si4 0.740103 0.437490 0.964195
Si Si5 0.020137 0.441883 0.253519
O O1 0.591573 0.250000 0.445200
O O2 0.547763 0.006163 0.342097
O O3 0.500000 0.000000 0.500000
O O4 0.657875 0.959992 0.465742
O O5 0.337431 0.250000 0.232484
O O6 0.261851 0.514835 0.280607
O O7 0.301862 0.462695 0.113798
O O8 0.426113 0.518629 0.225259
O O9 0.307826 0.750000 0.841444
O O10 0.405855 0.491148 0.818346
O O11 0.295714 0.494855 0.944252
O O12 0.716338 0.250000 0.952110
O O13 0.014793 0.250000 0.262569
#
# Coordination Sequence:
#
# PCOD8251982 Si02
#       5
#     8   8   8   8   8
#     4  11  21  37  61  87 115 149 197 245 288 342
#     4  10  19  36  60  82 108 148 197 239 283 345
#     4   9  18  35  56  80 113 153 195 234 282 354
#     4  11  22  36  57  85 118 153 190 240 293 342
#     4   9  18  34  59  82 106 152 199 232 278 353
#
# _framework density 20.350382
#
# number of rings (size 3 to 8) (size 9 to 14) (size 15 to 20)
#    0.000    2.000    2.000    2.400    0.000    4.000 
#    0.000    6.000    0.000    0.000    0.000    0.000 
#    0.000    0.000    0.000    0.000    0.000    0.000 
#
# Total GULP energy -495978.148081 kJ/mol
# GULP energy per Si atom -12399.453702 kJ/mol
# Density = 2.030406 g / cm^3
# Si number density = 20.350382 Si / 1000 Ang^3
#
#
#
# Elastic Constant Matrix: (Units=GPa)
#
#
# Indices 1 2 3 4 5 6 
#
# 1 94.5505 -1.0665 5.3076 0.0000 0.0000 0.0000
# 2 -1.0665 14.9337 2.3316 0.0000 0.0000 0.0000
# 3 5.3076 2.3316 93.9559 0.0000 0.0000 0.0000
# 4 0.0000 0.0000 0.0000 26.5107 0.0000 0.0000
# 5 0.0000 0.0000 0.0000 0.0000 45.2109 0.0000
# 6 0.0000 0.0000 0.0000 0.0000 0.0000 15.7518
#
#
#
# Elastic Compliance Matrix: (Units=1/GPa)
#
#
# Indices 1 2 3 4 5 6 
#
# 1 0.010621 0.000856 -0.000621 0.000000 0.000000 0.000000
# 2 0.000856 0.067292 -0.001718 0.000000 0.000000 0.000000
# 3 -0.000621 -0.001718 0.010721 0.000000 0.000000 0.000000
# 4 0.000000 0.000000 0.000000 0.037721 0.000000 0.000000
# 5 0.000000 0.000000 0.000000 0.000000 0.022119 0.000000
# 6 0.000000 0.000000 0.000000 0.000000 0.000000 0.063485
#
#
# Mechanical properties :
#
#
# Convention : Reuss Voigt Hill
#
# Bulk Modulus (GPa) = 11.67322 24.06505 17.86913
# Shear Modulus (GPa) = 20.53544 30.61916 25.57730
#
# Velocity S-wave (km/s) = 3.18007 3.88312 3.54905
# Velocity P-wave (km/s) = 4.38547 5.65295 5.05906
#
# Compressibility (1/GPa) = 0.08566617
#
# Stress axis : x y z
#
# Youngs Moduli (GPa) = 94.15411 14.86056 93.27462
#
# Poissons Ratio (x) = -0.01271 0.05794
# Poissons Ratio (y) = -0.08055 0.16027
# Poissons Ratio (z) = 0.05849 0.02553
#
# Static dielectric constant tensor:
#      x y z
#    x 4.094540 0.000000 0.000000 
#    y 0.000000 3.251590 0.000000 
#    z 0.000000 0.000000 3.928680 
# 
# 
# High freq. dielectric constant tensor:
#      x y z
#    x 1.812430 0.000000 0.000000 
#    y 0.000000 1.750930 0.000000 
#    z 0.000000 0.000000 1.805520 
# 
# From -- ./inp_files/18594.got.cif
#   From: 2010.03.12/outbox.cif.g09.slc.cpg/sg62_10_cif.got.tgz:18594.got - 2010.04.10 19:12:36.
