data_PCOD8251964
_publ_section_title
;
Structure prediction by ZEFSAII (Michael W. Deem and Ramdas Pophale) SiO2 
 PCOD8251964
Probable space group: P N M A
;
_chemical_formula_sum "Si O2"
_cell_formula_units_Z 64
_cell_length_a 24.460218
_cell_length_b 9.009527
_cell_length_c 14.630515
_cell_angle_alpha 90.000000
_cell_angle_beta 90.000000
_cell_angle_gamma 90.000000
_cell_volume 3224.199663
_symmetry_space_group_name_H-M "P N M A"
_symmetry_group_IT_number 62
_symmetry_cell_setting 'orthorhombic'
loop_
_space_group_symop_operation_xyz
x,y,z
1/2-x,-y,1/2+z
1/2+x,1/2-y,1/2-z
-x,1/2+y,-z
-x,-y,-z
1/2+x,y,1/2-z
1/2-x,1/2+y,1/2+z
x,1/2-y,z
loop_
_atom_site_type_symbol
_atom_site_label
_atom_site_fract_x
_atom_site_fract_y
_atom_site_fract_z
Si Si1 0.844140 0.583821 0.867952
Si Si2 0.480757 0.076010 0.407728
Si Si3 0.950405 0.425152 0.552766
Si Si4 0.262427 0.575215 0.160704
Si Si5 0.169761 0.574074 0.509788
Si Si6 0.741031 0.425461 0.633104
Si Si7 0.375663 0.581989 0.435390
Si Si8 0.441715 0.922189 0.756803
O O1 0.818821 0.750000 0.863014
O O2 0.795942 0.466283 0.882457
O O3 0.879982 0.549632 0.778355
O O4 0.884442 0.574716 0.955174
O O5 0.483380 0.250000 0.423355
O O6 0.516565 0.026814 0.321513
O O7 0.500000 0.000000 0.500000
O O8 0.419031 0.023880 0.385764
O O9 0.957756 0.250000 0.547748
O O10 0.892633 0.474137 0.508614
O O11 0.952340 0.474680 0.657290
O O12 0.000000 0.500000 0.500000
O O13 0.271870 0.750000 0.157394
O O14 0.311560 0.499080 0.105064
O O15 0.259870 0.511309 0.263970
O O16 0.175546 0.750000 0.519060
O O17 0.207954 0.513309 0.426609
O O18 0.746211 0.250000 0.637185
O O19 0.685031 0.476204 0.585798
O O20 0.383710 0.750000 0.399266
O O21 0.450560 0.750000 0.782838
#
# Coordination Sequence:
#
# PCOD8251964 Si02
#       8
#     8   8   8   8   8   8   8   8
#     4  10  19  36  60  84 118 162 201 244 301 359
#     4  11  22  37  57  86 123 159 198 246 298 359
#     4  11  25  44  68  92 119 158 206 257 309 365
#     4  11  22  35  58  93 123 153 200 253 296 353
#     4  10  21  42  65  85 116 161 200 240 301 366
#     4   9  19  37  59  83 119 157 193 237 292 355
#     4  10  19  36  59  82 115 159 198 240 299 358
#     4  10  22  40  62  89 122 161 207 256 306 361
#
# _framework density 19.849886999999999
#
# number of rings (size 3 to 8) (size 9 to 14) (size 15 to 20)
#    0.000    1.750    2.500    1.875    0.000    5.000 
#    0.000    5.000    0.000    0.000    0.000    0.000 
#    0.000    0.000    0.000    0.000    0.000    0.000 
#
# Total GULP energy -793674.330087 kJ/mol
# GULP energy per Si atom -12401.161408 kJ/mol
# Density = 1.980471 g / cm^3
# Si number density = 19.849887 Si / 1000 Ang^3
#
#
#
# Elastic Constant Matrix: (Units=GPa)
#
#
# Indices 1 2 3 4 5 6 
#
# 1 140.7538 46.8782 62.0730 0.0000 0.0000 0.0000
# 2 46.8782 57.1906 41.9981 0.0000 0.0000 0.0000
# 3 62.0730 41.9981 116.3097 0.0000 0.0000 0.0000
# 4 0.0000 0.0000 0.0000 33.1823 0.0000 0.0000
# 5 0.0000 0.0000 0.0000 0.0000 31.7327 0.0000
# 6 0.0000 0.0000 0.0000 0.0000 0.0000 34.3617
#
#
#
# Elastic Compliance Matrix: (Units=1/GPa)
#
#
# Indices 1 2 3 4 5 6 
#
# 1 0.010708 -0.006234 -0.003464 0.000000 0.000000 0.000000
# 2 -0.006234 0.027424 -0.006576 0.000000 0.000000 0.000000
# 3 -0.003464 -0.006576 0.012821 0.000000 0.000000 0.000000
# 4 0.000000 0.000000 0.000000 0.030137 0.000000 0.000000
# 5 0.000000 0.000000 0.000000 0.000000 0.031513 0.000000
# 6 0.000000 0.000000 0.000000 0.000000 0.000000 0.029102
#
#
# Mechanical properties :
#
#
# Convention : Reuss Voigt Hill
#
# Bulk Modulus (GPa) = 54.32875 68.46141 61.39508
# Shear Modulus (GPa) = 27.71817 30.74232 29.23024
#
# Velocity S-wave (km/s) = 3.74088 3.93967 3.84156
# Velocity P-wave (km/s) = 6.78883 7.43365 7.11854
#
# Compressibility (1/GPa) = 0.01840646
#
# Stress axis : x y z
#
# Youngs Moduli (GPa) = 93.38482 36.46459 77.99808
#
# Poissons Ratio (x) = 0.22731 0.27019
# Poissons Ratio (y) = 0.58213 0.51289
# Poissons Ratio (z) = 0.32349 0.23978
#
# Static dielectric constant tensor:
#      x y z
#    x 3.749590 0.000000 0.000000 
#    y 0.000000 3.442520 0.000000 
#    z 0.000000 0.000000 3.701040 
# 
# 
# High freq. dielectric constant tensor:
#      x y z
#    x 1.782370 0.000000 0.000000 
#    y 0.000000 1.755620 0.000000 
#    z 0.000000 0.000000 1.776030 
# 
# From -- ./inp_files/20835.got.cif
#   From: 2010.03.12/outbox.cif.g09.slc.cpg/sg62_11_cif.got.tgz:20835.got - 2010.04.10 19:12:36.
