data_PCOD8251316
_publ_section_title
;
Structure prediction by ZEFSAII (Michael W. Deem and Ramdas Pophale) SiO2 
 PCOD8251316
Probable space group: P N M A
;
_chemical_formula_sum "Si O2"
_cell_formula_units_Z 64
_cell_length_a 12.054889
_cell_length_b 23.432873
_cell_length_c 12.877684
_cell_angle_alpha 90.000000
_cell_angle_beta 90.000000
_cell_angle_gamma 90.000000
_cell_volume 3637.696971
_symmetry_space_group_name_H-M "P N M A"
_symmetry_group_IT_number 62
_symmetry_cell_setting 'orthorhombic'
loop_
_space_group_symop_operation_xyz
x,y,z
1/2-x,-y,1/2+z
1/2+x,1/2-y,1/2-z
-x,1/2+y,-z
-x,-y,-z
1/2+x,y,1/2-z
1/2-x,1/2+y,1/2+z
x,1/2-y,z
loop_
_atom_site_type_symbol
_atom_site_label
_atom_site_fract_x
_atom_site_fract_y
_atom_site_fract_z
Si Si1 0.982846 0.060668 0.451698
Si Si2 0.833623 0.920547 0.217030
Si Si3 0.763592 0.686426 0.465623
Si Si4 0.372660 0.516175 0.488088
Si Si5 0.316085 0.313760 0.752310
Si Si6 0.228535 0.963648 0.679512
Si Si7 0.514980 0.139169 0.867965
Si Si8 0.771092 0.584055 0.606915
O O1 0.888136 0.056003 0.366531
O O2 0.948786 0.105791 0.541280
O O3 0.097242 0.079183 0.400223
O O4 0.000000 0.000000 0.500000
O O5 0.868779 0.936695 0.101362
O O6 0.760871 0.863762 0.203596
O O7 0.941321 0.908121 0.286622
O O8 0.768717 0.972173 0.274024
O O9 0.761686 0.750000 0.511885
O O10 0.673903 0.679125 0.372708
O O11 0.883882 0.674480 0.416011
O O12 0.733016 0.644513 0.559687
O O13 0.500000 0.500000 0.500000
O O14 0.327007 0.542127 0.595797
O O15 0.292947 0.463675 0.459250
O O16 0.268215 0.250000 0.776562
O O17 0.435451 0.317953 0.806582
O O18 0.244685 0.918399 0.771731
#
# Coordination Sequence:
#
# PCOD8251316 Si02
#       8
#     8   8   8   8   8   8   8   8
#     4  11  19  36  56  80 112 147 182 225 273 341
#     4  10  22  33  53  79 111 151 172 231 271 338
#     4   9  19  38  57  80 109 145 190 232 271 326
#     4  11  23  34  53  85 117 147 179 225 284 339
#     4  10  20  33  54  79 109 142 183 231 277 321
#     4  11  22  36  55  83 115 145 185 225 282 335
#     4  10  19  32  57  83 110 141 188 223 277 330
#     4  10  23  36  56  83 110 145 188 228 277 336
#
# _framework density 17.59355
#
# number of rings (size 3 to 8) (size 9 to 14) (size 15 to 20)
#    0.000    1.750    2.500    2.625    8.750    0.500 
#    0.000    0.000    0.000    6.000    0.000    0.000 
#    0.000    0.000    0.000    0.000    0.000    0.000 
#
# Total GULP energy -793451.182384 kJ/mol
# GULP energy per Si atom -12397.674725 kJ/mol
# Density = 1.755351 g / cm^3
# Si number density = 17.593550 Si / 1000 Ang^3
#
#
#
# Elastic Constant Matrix: (Units=GPa)
#
#
# Indices 1 2 3 4 5 6 
#
# 1 84.3226 30.1619 48.7576 0.0000 0.0000 0.0000
# 2 30.1619 110.1790 62.8840 0.0000 0.0000 0.0000
# 3 48.7576 62.8840 137.0658 0.0000 0.0000 0.0000
# 4 0.0000 0.0000 0.0000 27.5630 0.0000 0.0000
# 5 0.0000 0.0000 0.0000 0.0000 28.9562 0.0000
# 6 0.0000 0.0000 0.0000 0.0000 0.0000 16.6506
#
#
#
# Elastic Compliance Matrix: (Units=1/GPa)
#
#
# Indices 1 2 3 4 5 6 
#
# 1 0.015099 -0.001447 -0.004707 0.000000 0.000000 0.000000
# 2 -0.001447 0.012434 -0.005190 0.000000 0.000000 0.000000
# 3 -0.004707 -0.005190 0.011351 0.000000 0.000000 0.000000
# 4 0.000000 0.000000 0.000000 0.036281 0.000000 0.000000
# 5 0.000000 0.000000 0.000000 0.000000 0.034535 0.000000
# 6 0.000000 0.000000 0.000000 0.000000 0.000000 0.060058
#
#
# Mechanical properties :
#
#
# Convention : Reuss Voigt Hill
#
# Bulk Modulus (GPa) = 61.74238 68.35271 65.04755
# Shear Modulus (GPa) = 25.27235 27.28486 26.27861
#
# Velocity S-wave (km/s) = 3.79417 3.94235 3.86897
# Velocity P-wave (km/s) = 7.37321 7.72387 7.55058
#
# Compressibility (1/GPa) = 0.01619633
#
# Stress axis : x y z
#
# Youngs Moduli (GPa) = 66.23166 80.42200 88.09495
#
# Poissons Ratio (x) = 0.11634 0.41468
# Poissons Ratio (y) = 0.09582 0.45722
# Poissons Ratio (z) = 0.31177 0.41740
#
# Static dielectric constant tensor:
#      x y z
#    x 2.909590 0.000000 0.000000 
#    y 0.000000 3.232720 0.000000 
#    z 0.000000 0.000000 3.195250 
# 
# 
# High freq. dielectric constant tensor:
#      x y z
#    x 1.674620 0.000000 0.000000 
#    y 0.000000 1.670060 0.000000 
#    z 0.000000 0.000000 1.682330 
# 
# From -- ./inp_files/12547.got.cif
#   From: 2010.03.12/outbox.cif.g09.slc.cpg/sg62_7_cif.got.tgz:12547.got - 2010.04.10 19:12:36.
