data_PCOD8251052
_publ_section_title
;
Structure prediction by ZEFSAII (Michael W. Deem and Ramdas Pophale) SiO2 
 PCOD8251052
Probable space group: P N M A
;
_chemical_formula_sum "Si O2"
_cell_formula_units_Z 64
_cell_length_a 19.225624
_cell_length_b 9.396680
_cell_length_c 19.083564
_cell_angle_alpha 90.000000
_cell_angle_beta 90.000000
_cell_angle_gamma 90.000000
_cell_volume 3447.580119
_symmetry_space_group_name_H-M "P N M A"
_symmetry_group_IT_number 62
_symmetry_cell_setting 'orthorhombic'
loop_
_space_group_symop_operation_xyz
x,y,z
1/2-x,-y,1/2+z
1/2+x,1/2-y,1/2-z
-x,1/2+y,-z
-x,-y,-z
1/2+x,y,1/2-z
1/2-x,1/2+y,1/2+z
x,1/2-y,z
loop_
_atom_site_type_symbol
_atom_site_label
_atom_site_fract_x
_atom_site_fract_y
_atom_site_fract_z
Si Si1 0.053231 0.082908 0.147380
Si Si2 0.804926 0.080643 0.209373
Si Si3 0.593315 0.917846 0.590816
Si Si4 0.350033 0.086898 0.554686
Si Si5 0.670183 0.419219 0.129472
Si Si6 0.309694 0.586655 0.028582
Si Si7 0.029246 0.418851 0.303696
Si Si8 0.877896 0.419325 0.349832
O O1 0.068846 0.250000 0.147225
O O2 0.037852 0.025843 0.224844
O O3 0.987299 0.042706 0.099407
O O4 0.120918 0.003404 0.119149
O O5 0.807608 0.250000 0.208464
O O6 0.861703 0.018448 0.154841
O O7 0.728820 0.025031 0.184606
O O8 0.825872 0.028794 0.287503
O O9 0.605339 0.750000 0.590945
O O10 0.620323 0.980254 0.517392
O O11 0.373814 0.250000 0.562811
O O12 0.267858 0.072139 0.556649
O O13 0.671923 0.250000 0.131290
O O14 0.594305 0.477945 0.151247
O O15 0.686453 0.472086 0.050902
O O16 0.335147 0.750000 0.031779
O O17 0.358269 0.491122 0.077126
O O18 0.028976 0.250000 0.303824
O O19 0.956065 0.473447 0.333815
O O20 0.874805 0.250000 0.358458
#
# Coordination Sequence:
#
# PCOD8251052 Si02
#       8
#     8   8   8   8   8   8   8   8
#     4  10  19  31  51  80 108 131 166 216 261 303
#     4   9  15  28  52  77  98 131 174 210 247 298
#     4   9  15  29  51  73 101 136 172 208 248 303
#     4  10  20  33  49  72 105 140 172 207 250 307
#     4   9  17  31  52  75 100 135 178 211 244 302
#     4  10  21  36  53  74 101 138 179 212 246 304
#     4   9  18  32  51  78 105 130 169 219 258 295
#     4  10  20  34  55  81 106 130 165 218 268 298
#
# _framework density 18.563746999999999
#
# number of rings (size 3 to 8) (size 9 to 14) (size 15 to 20)
#    0.000    2.500    2.500    0.375    1.750    1.000 
#    0.000    0.625    0.000    2.250    0.000    0.000 
#    0.000    0.000    0.000    0.000    0.000    0.000 
#
# Total GULP energy -793446.066277 kJ/mol
# GULP energy per Si atom -12397.594786 kJ/mol
# Density = 1.852149 g / cm^3
# Si number density = 18.563747 Si / 1000 Ang^3
#
#
#
# Elastic Constant Matrix: (Units=GPa)
#
#
# Indices 1 2 3 4 5 6 
#
# 1 116.2693 25.2926 57.2391 0.0000 0.0000 0.0000
# 2 25.2926 23.5203 21.4993 0.0000 0.0000 0.0000
# 3 57.2391 21.4993 79.1769 0.0000 0.0000 0.0000
# 4 0.0000 0.0000 0.0000 17.7030 0.0000 0.0000
# 5 0.0000 0.0000 0.0000 0.0000 40.2991 0.0000
# 6 0.0000 0.0000 0.0000 0.0000 0.0000 17.8322
#
#
#
# Elastic Compliance Matrix: (Units=1/GPa)
#
#
# Indices 1 2 3 4 5 6 
#
# 1 0.014386 -0.007932 -0.008246 0.000000 0.000000 0.000000
# 2 -0.007932 0.060927 -0.010809 0.000000 0.000000 0.000000
# 3 -0.008246 -0.010809 0.021526 0.000000 0.000000 0.000000
# 4 0.000000 0.000000 0.000000 0.056487 0.000000 0.000000
# 5 0.000000 0.000000 0.000000 0.000000 0.024814 0.000000
# 6 0.000000 0.000000 0.000000 0.000000 0.000000 0.056078
#
#
# Mechanical properties :
#
#
# Convention : Reuss Voigt Hill
#
# Bulk Modulus (GPa) = 23.32969 47.44762 35.38865
# Shear Modulus (GPa) = 16.52989 22.82923 19.67956
#
# Velocity S-wave (km/s) = 2.98726 3.51062 3.25946
# Velocity P-wave (km/s) = 4.94903 6.48439 5.76803
#
# Compressibility (1/GPa) = 0.04286383
#
# Stress axis : x y z
#
# Youngs Moduli (GPa) = 69.51337 16.41308 46.45488
#
# Poissons Ratio (x) = 0.13019 0.38306
# Poissons Ratio (y) = 0.55140 0.50215
# Poissons Ratio (z) = 0.57320 0.17741
#
# Static dielectric constant tensor:
#      x y z
#    x 3.595490 0.000000 0.000000 
#    y 0.000000 2.797380 0.000000 
#    z 0.000000 0.000000 3.536730 
# 
# 
# High freq. dielectric constant tensor:
#      x y z
#    x 1.732420 0.000000 0.000000 
#    y 0.000000 1.651920 0.000000 
#    z 0.000000 0.000000 1.730240 
# 
# From -- ./inp_files/24472.got.cif
#   From: 2010.03.12/outbox.cif.g09.slc.cpg/sg62_13_cif.got.tgz:24472.got - 2010.04.10 19:12:36.
