data_PCOD8251923
_publ_section_title
;
Structure prediction by ZEFSAII (Michael W. Deem and Ramdas Pophale) SiO2 
 PCOD8251923
Probable space group: P N M A
;
_chemical_formula_sum "Si O2"
_cell_formula_units_Z 64
_cell_length_a 13.342330
_cell_length_b 23.298722
_cell_length_c 8.989891
_cell_angle_alpha 90.000000
_cell_angle_beta 90.000000
_cell_angle_gamma 90.000000
_cell_volume 2794.590661
_symmetry_space_group_name_H-M "P N M A"
_symmetry_group_IT_number 62
_symmetry_cell_setting 'orthorhombic'
loop_
_space_group_symop_operation_xyz
x,y,z
1/2-x,-y,1/2+z
1/2+x,1/2-y,1/2-z
-x,1/2+y,-z
-x,-y,-z
1/2+x,y,1/2-z
1/2-x,1/2+y,1/2+z
x,1/2-y,z
loop_
_atom_site_type_symbol
_atom_site_label
_atom_site_fract_x
_atom_site_fract_y
_atom_site_fract_z
Si Si1 0.379150 0.110581 0.205933
Si Si2 0.146887 0.186789 0.504625
Si Si3 0.483507 0.184262 0.451800
Si Si4 0.025402 0.083932 0.559665
Si Si5 0.698836 0.502953 0.900986
Si Si6 0.336013 0.312450 0.697521
Si Si7 0.308043 0.816332 0.671701
Si Si8 0.675204 0.932063 0.188267
O O1 0.420467 0.139275 0.353927
O O2 0.291710 0.148872 0.131183
O O3 0.331829 0.046818 0.232687
O O4 0.468205 0.100429 0.090526
O O5 0.096932 0.250000 0.517160
O O6 0.082613 0.142565 0.605193
O O7 0.260327 0.188664 0.559527
O O8 0.150134 0.165631 0.334166
O O9 0.466164 0.250000 0.394733
O O10 0.445362 0.177644 0.621688
O O11 0.602152 0.169947 0.444939
O O12 0.104920 0.033371 0.538855
O O13 0.945585 0.061994 0.682032
O O14 0.786527 0.461829 0.840227
O O15 0.731676 0.540972 0.044723
O O16 0.332874 0.250000 0.780172
O O17 0.305344 0.363194 0.809671
O O18 0.278131 0.750000 0.670328
#
# Coordination Sequence:
#
# PCOD8251923 Si02
#       8
#     8   8   8   8   8   8   8   8
#     4  11  21  35  65  93 133 180 225 277 340 404
#     4  10  19  35  67  99 133 185 228 273 345 425
#     4  10  20  35  61 101 140 176 221 283 347 410
#     4  11  24  46  68  95 137 183 231 281 348 420
#     4  11  27  46  70  97 138 177 236 291 344 407
#     4  10  21  41  67  97 139 183 227 280 354 423
#     4  10  20  34  59 102 143 172 224 292 346 405
#     4  11  25  46  72 100 131 185 228 292 343 414
#
# _framework density 22.901387
#
# number of rings (size 3 to 8) (size 9 to 14) (size 15 to 20)
#    0.000    1.500    3.750    1.875    3.500    2.000 
#    4.500    4.375    0.000    0.000    0.000    0.000 
#    0.000    0.000    0.000    0.000    0.000    0.000 
#
# Total GULP energy -793114.242745 kJ/mol
# GULP energy per Si atom -12392.410043 kJ/mol
# Density = 2.284926 g / cm^3
# Si number density = 22.901387 Si / 1000 Ang^3
#
#
#
# Elastic Constant Matrix: (Units=GPa)
#
#
# Indices 1 2 3 4 5 6 
#
# 1 64.3098 36.1122 20.8018 0.0000 0.0000 0.0000
# 2 36.1122 161.1249 47.0982 0.0000 0.0000 0.0000
# 3 20.8018 47.0982 62.0969 0.0000 0.0000 0.0000
# 4 0.0000 0.0000 0.0000 33.3195 0.0000 0.0000
# 5 0.0000 0.0000 0.0000 0.0000 21.3983 0.0000
# 6 0.0000 0.0000 0.0000 0.0000 0.0000 30.5119
#
#
#
# Elastic Compliance Matrix: (Units=1/GPa)
#
#
# Indices 1 2 3 4 5 6 
#
# 1 0.018503 -0.003000 -0.003923 0.000000 0.000000 0.000000
# 2 -0.003000 0.008461 -0.005412 0.000000 0.000000 0.000000
# 3 -0.003923 -0.005412 0.021523 0.000000 0.000000 0.000000
# 4 0.000000 0.000000 0.000000 0.030012 0.000000 0.000000
# 5 0.000000 0.000000 0.000000 0.000000 0.046733 0.000000
# 6 0.000000 0.000000 0.000000 0.000000 0.000000 0.032774
#
#
# Mechanical properties :
#
#
# Convention : Reuss Voigt Hill
#
# Bulk Modulus (GPa) = 41.98767 55.06178 48.52473
# Shear Modulus (GPa) = 26.23078 29.28057 27.75568
#
# Velocity S-wave (km/s) = 3.38802 3.57956 3.48511
# Velocity P-wave (km/s) = 5.80334 6.41713 6.11794
#
# Compressibility (1/GPa) = 0.02381652
#
# Stress axis : x y z
#
# Youngs Moduli (GPa) = 54.04402 118.19147 46.46231
#
# Poissons Ratio (x) = 0.35463 0.18226
# Poissons Ratio (y) = 0.16216 0.25146
# Poissons Ratio (z) = 0.21200 0.63967
#
# Static dielectric constant tensor:
#      x y z
#    x 4.189470 0.000000 0.000000 
#    y 0.000000 4.538740 0.000000 
#    z 0.000000 0.000000 3.644210 
# 
# 
# High freq. dielectric constant tensor:
#      x y z
#    x 1.902460 0.000000 0.000000 
#    y 0.000000 1.923130 0.000000 
#    z 0.000000 0.000000 1.864730 
# 
# From -- ./inp_files/6961.got.cif
#   From: 2010.03.12/outbox.cif.g09.slc.cpg/sg62_4_cif.got.tgz:6961.got - 2010.04.10 19:12:36.
