data_PCOD8251742
_publ_section_title
;
Structure prediction by ZEFSAII (Michael W. Deem and Ramdas Pophale) SiO2 
 PCOD8251742
Probable space group: P N M A
;
_chemical_formula_sum "Si O2"
_cell_formula_units_Z 64
_cell_length_a 28.733520
_cell_length_b 8.927492
_cell_length_c 12.612784
_cell_angle_alpha 90.000000
_cell_angle_beta 90.000000
_cell_angle_gamma 90.000000
_cell_volume 3235.409531
_symmetry_space_group_name_H-M "P N M A"
_symmetry_group_IT_number 62
_symmetry_cell_setting 'orthorhombic'
loop_
_space_group_symop_operation_xyz
x,y,z
1/2-x,-y,1/2+z
1/2+x,1/2-y,1/2-z
-x,1/2+y,-z
-x,-y,-z
1/2+x,y,1/2-z
1/2-x,1/2+y,1/2+z
x,1/2-y,z
loop_
_atom_site_type_symbol
_atom_site_label
_atom_site_fract_x
_atom_site_fract_y
_atom_site_fract_z
Si Si1 0.433732 0.925130 0.663125
Si Si2 0.599365 0.927752 0.548100
Si Si3 0.925553 0.918897 0.442104
Si Si4 0.189678 0.072146 0.882071
Si Si5 0.463368 0.076908 0.255274
Si Si6 0.289943 0.074079 0.951535
Si Si7 0.612477 0.571688 0.140407
Si Si8 0.177050 0.082571 0.646009
O O1 0.421827 0.750000 0.657960
O O2 0.486280 0.954964 0.697430
O O3 0.428219 0.998240 0.548409
O O4 0.399013 0.003677 0.745665
O O5 0.598478 0.750000 0.534209
O O6 0.574406 0.977661 0.657759
O O7 0.652252 0.988193 0.544434
O O8 0.941776 0.750000 0.468402
O O9 0.875736 0.921859 0.388706
O O10 0.960474 0.989630 0.356292
O O11 0.923899 0.011282 0.551940
O O12 0.184418 0.250000 0.898611
O O13 0.179635 0.018971 0.763471
O O14 0.241585 0.012954 0.905403
O O15 0.455136 0.250000 0.229270
O O16 0.290298 0.250000 0.948337
O O17 0.291639 0.022009 0.072734
O O18 0.335006 0.015283 0.886763
O O19 0.608886 0.750000 0.143640
O O20 0.197601 0.250000 0.640499
#
# Coordination Sequence:
#
# PCOD8251742 Si02
#       8
#     8   8   8   8   8   8   8   8
#     4  11  24  41  60  84 119 159 196 239 293 355
#     4  11  23  39  60  87 117 151 194 242 293 348
#     4  10  19  34  60  88 113 150 196 241 291 346
#     4  10  20  37  58  84 114 149 190 236 289 345
#     4  10  22  39  60  87 117 152 195 244 296 348
#     4   9  20  36  57  83 114 150 189 234 290 346
#     4  10  21  39  59  84 120 157 195 244 295 349
#     4   9  18  33  54  80 112 147 186 235 287 338
#
# _framework density 19.781112
#
# number of rings (size 3 to 8) (size 9 to 14) (size 15 to 20)
#    0.000    2.000    1.250    1.875    0.000    5.000 
#    0.000    1.250    0.000    0.000    0.000    0.000 
#    0.000    0.000    0.000    0.000    0.000    0.000 
#
# Total GULP energy -793691.859834 kJ/mol
# GULP energy per Si atom -12401.435310 kJ/mol
# Density = 1.973609 g / cm^3
# Si number density = 19.781112 Si / 1000 Ang^3
#
#
#
# Elastic Constant Matrix: (Units=GPa)
#
#
# Indices 1 2 3 4 5 6 
#
# 1 74.0625 36.8312 17.7770 0.0000 0.0000 0.0000
# 2 36.8312 51.4958 10.9572 0.0000 0.0000 0.0000
# 3 17.7770 10.9572 46.7266 0.0000 0.0000 0.0000
# 4 0.0000 0.0000 0.0000 38.3585 0.0000 0.0000
# 5 0.0000 0.0000 0.0000 0.0000 24.0694 0.0000
# 6 0.0000 0.0000 0.0000 0.0000 0.0000 27.7059
#
#
#
# Elastic Compliance Matrix: (Units=1/GPa)
#
#
# Indices 1 2 3 4 5 6 
#
# 1 0.021981 -0.014674 -0.004922 0.000000 0.000000 0.000000
# 2 -0.014674 0.030235 -0.001507 0.000000 0.000000 0.000000
# 3 -0.004922 -0.001507 0.023627 0.000000 0.000000 0.000000
# 4 0.000000 0.000000 0.000000 0.026070 0.000000 0.000000
# 5 0.000000 0.000000 0.000000 0.000000 0.041547 0.000000
# 6 0.000000 0.000000 0.000000 0.000000 0.000000 0.036093
#
#
# Mechanical properties :
#
#
# Convention : Reuss Voigt Hill
#
# Bulk Modulus (GPa) = 29.72916 33.71285 31.72101
# Shear Modulus (GPa) = 21.46192 25.14138 23.30165
#
# Velocity S-wave (km/s) = 3.29746 3.56895 3.43589
# Velocity P-wave (km/s) = 5.43685 5.83636 5.64015
#
# Compressibility (1/GPa) = 0.03363701
#
# Stress axis : x y z
#
# Youngs Moduli (GPa) = 45.49421 33.07417 42.32457
#
# Poissons Ratio (x) = 0.48533 0.20830
# Poissons Ratio (y) = 0.66759 0.06380
# Poissons Ratio (z) = 0.22390 0.04985
#
# Static dielectric constant tensor:
#      x y z
#    x 3.692910 0.000000 0.000000 
#    y 0.000000 3.601750 0.000000 
#    z 0.000000 0.000000 3.678990 
# 
# 
# High freq. dielectric constant tensor:
#      x y z
#    x 1.770410 0.000000 0.000000 
#    y 0.000000 1.769040 0.000000 
#    z 0.000000 0.000000 1.776440 
# 
# From -- ./inp_files/15764.got.cif
#   From: 2010.03.12/outbox.cif.g09.slc.cpg/sg62_8_cif.got.tgz:15764.got - 2010.04.10 19:12:36.
