data_PCOD8251287
_publ_section_title
;
Structure prediction by ZEFSAII (Michael W. Deem and Ramdas Pophale) SiO2 
 PCOD8251287
Probable space group: P N M A
;
_chemical_formula_sum "Si O2"
_cell_formula_units_Z 48
_cell_length_a 10.209299
_cell_length_b 8.886222
_cell_length_c 27.948943
_cell_angle_alpha 90.000000
_cell_angle_beta 90.000000
_cell_angle_gamma 90.000000
_cell_volume 2535.586728
_symmetry_space_group_name_H-M "P N M A"
_symmetry_group_IT_number 62
_symmetry_cell_setting 'orthorhombic'
loop_
_space_group_symop_operation_xyz
x,y,z
1/2-x,-y,1/2+z
1/2+x,1/2-y,1/2-z
-x,1/2+y,-z
-x,-y,-z
1/2+x,y,1/2-z
1/2-x,1/2+y,1/2+z
x,1/2-y,z
loop_
_atom_site_type_symbol
_atom_site_label
_atom_site_fract_x
_atom_site_fract_y
_atom_site_fract_z
Si Si1 0.375441 0.922769 0.947554
Si Si2 0.225952 0.927450 0.644423
Si Si3 0.984570 0.574821 0.800750
Si Si4 0.247746 0.077897 0.349532
Si Si5 0.488404 0.072991 0.800224
Si Si6 0.851616 0.923888 0.446261
O O1 0.425549 0.750000 0.946732
O O2 0.269748 0.953480 0.906069
O O3 0.497592 0.030841 0.938603
O O4 0.308986 0.958041 0.998949
O O5 0.212815 0.750000 0.645408
O O6 0.351586 0.981218 0.674311
O O7 0.095079 0.997185 0.665967
O O8 0.240882 0.982334 0.589581
O O9 0.976120 0.750000 0.786653
O O10 0.102054 0.543038 0.837539
O O11 0.010579 0.478776 0.753775
O O12 0.211697 0.250000 0.336886
O O13 0.155806 0.972716 0.317553
O O14 0.505383 0.250000 0.803369
O O15 0.836664 0.750000 0.433222
#
# Coordination Sequence:
#
# PCOD8251287 Si02
#       6
#     8   8   8   8   8   8
#     4   9  18  33  56  83 111 144 181 229 281 330
#     4  11  22  38  58  81 112 151 190 226 271 329
#     4  10  23  40  58  80 110 150 191 227 271 333
#     4  10  20  38  61  83 109 145 188 230 274 329
#     4  12  24  37  57  85 112 143 186 234 282 329
#     4  10  19  32  54  85 114 141 182 232 280 326
#
# _framework density 18.930529
#
# number of rings (size 3 to 8) (size 9 to 14) (size 15 to 20)
#    0.000    1.667    1.667    3.500    0.000    6.667 
#    0.000    0.833    0.000    0.000    0.000    0.000 
#    0.000    0.000    0.000    0.000    0.000    0.000 
#
# Total GULP energy -595354.091548 kJ/mol
# GULP energy per Si atom -12403.210241 kJ/mol
# Density = 1.888744 g / cm^3
# Si number density = 18.930529 Si / 1000 Ang^3
#
#
#
# Elastic Constant Matrix: (Units=GPa)
#
#
# Indices 1 2 3 4 5 6 
#
# 1 61.0034 20.8457 25.1627 0.0000 0.0000 0.0000
# 2 20.8457 73.3596 38.5727 0.0000 0.0000 0.0000
# 3 25.1627 38.5727 126.1629 0.0000 0.0000 0.0000
# 4 0.0000 0.0000 0.0000 33.7157 0.0000 0.0000
# 5 0.0000 0.0000 0.0000 0.0000 16.5398 0.0000
# 6 0.0000 0.0000 0.0000 0.0000 0.0000 11.6056
#
#
#
# Elastic Compliance Matrix: (Units=1/GPa)
#
#
# Indices 1 2 3 4 5 6 
#
# 1 0.018806 -0.004017 -0.002522 0.000000 0.000000 0.000000
# 2 -0.004017 0.017101 -0.004427 0.000000 0.000000 0.000000
# 3 -0.002522 -0.004427 0.009783 0.000000 0.000000 0.000000
# 4 0.000000 0.000000 0.000000 0.029660 0.000000 0.000000
# 5 0.000000 0.000000 0.000000 0.000000 0.060460 0.000000
# 6 0.000000 0.000000 0.000000 0.000000 0.000000 0.086165
#
#
# Mechanical properties :
#
#
# Convention : Reuss Voigt Hill
#
# Bulk Modulus (GPa) = 42.09556 47.74312 44.91934
# Shear Modulus (GPa) = 19.85487 24.10189 21.97838
#
# Velocity S-wave (km/s) = 3.24207 3.57203 3.41104
# Velocity P-wave (km/s) = 6.02494 6.50288 6.26847
#
# Compressibility (1/GPa) = 0.02375547
#
# Stress axis : x y z
#
# Youngs Moduli (GPa) = 53.17504 58.47664 102.21943
#
# Poissons Ratio (x) = 0.23493 0.25784
# Poissons Ratio (y) = 0.21363 0.45253
# Poissons Ratio (z) = 0.13413 0.25888
#
# Static dielectric constant tensor:
#      x y z
#    x 3.297830 0.000000 0.000000 
#    y 0.000000 3.488010 0.000000 
#    z 0.000000 0.000000 3.838850 
# 
# 
# High freq. dielectric constant tensor:
#      x y z
#    x 1.711270 0.000000 0.000000 
#    y 0.000000 1.735600 0.000000 
#    z 0.000000 0.000000 1.754960 
# 
# From -- ./inp_files/31966.got.cif
#   From: 2010.03.12/outbox.cif.g09.slc.cpg/sg62_16_cif.got.tgz:31966.got - 2010.04.10 19:12:36.
