data_PCOD8251941
_publ_section_title
;
Structure prediction by ZEFSAII (Michael W. Deem and Ramdas Pophale) SiO2 
 PCOD8251941
Probable space group: P N M A
;
_chemical_formula_sum "Si O2"
_cell_formula_units_Z 64
_cell_length_a 28.554779
_cell_length_b 9.270046
_cell_length_c 12.830978
_cell_angle_alpha 90.000000
_cell_angle_beta 90.000000
_cell_angle_gamma 90.000000
_cell_volume 3396.412674
_symmetry_space_group_name_H-M "P N M A"
_symmetry_group_IT_number 62
_symmetry_cell_setting 'orthorhombic'
loop_
_space_group_symop_operation_xyz
x,y,z
1/2-x,-y,1/2+z
1/2+x,1/2-y,1/2-z
-x,1/2+y,-z
-x,-y,-z
1/2+x,y,1/2-z
1/2-x,1/2+y,1/2+z
x,1/2-y,z
loop_
_atom_site_type_symbol
_atom_site_label
_atom_site_fract_x
_atom_site_fract_y
_atom_site_fract_z
Si Si1 0.574953 0.089682 0.072331
Si Si2 0.204784 0.583105 0.541965
Si Si3 0.957337 0.579283 0.793979
Si Si4 0.694696 0.080824 0.377032
Si Si5 0.319345 0.910082 0.853933
Si Si6 0.395879 0.079306 0.118451
Si Si7 0.562229 0.920124 0.666695
Si Si8 0.109419 0.577344 0.046350
O O1 0.559437 0.250000 0.037468
O O2 0.543928 0.037711 0.170957
O O3 0.627533 0.090831 0.111999
O O4 0.570740 0.985140 0.972586
O O5 0.199943 0.750000 0.517324
O O6 0.250732 0.546052 0.607380
O O7 0.211094 0.506402 0.431230
O O8 0.158261 0.530572 0.603431
O O9 0.946934 0.750000 0.807519
O O10 0.919162 0.489267 0.857451
O O11 0.008076 0.533250 0.836329
O O12 0.683566 0.250000 0.393700
O O13 0.683529 0.026072 0.261348
O O14 0.662084 0.986063 0.453232
O O15 0.297569 0.750000 0.855205
O O16 0.401901 0.250000 0.112520
O O17 0.412294 0.016946 0.230206
O O18 0.566399 0.750000 0.671895
O O19 0.586696 0.977189 0.561948
O O20 0.110015 0.750000 0.055504
#
# Coordination Sequence:
#
# PCOD8251941 Si02
#       8
#     8   8   8   8   8   8   8   8
#     4   9  17  31  53  78 102 136 178 218 261 316
#     4   9  19  33  53  78 104 136 177 221 267 320
#     4  10  19  36  58  78 107 146 180 217 271 332
#     4  10  20  36  55  77 104 144 184 216 271 334
#     4   9  17  32  52  73 101 137 174 213 262 317
#     4   9  18  35  54  76 108 144 178 221 271 320
#     4   9  20  36  55  79 110 146 179 216 273 330
#     4  11  22  35  54  82 110 138 183 234 270 314
#
# _framework density 18.843412000000001
#
# number of rings (size 3 to 8) (size 9 to 14) (size 15 to 20)
#    0.000    2.500    1.250    0.750    0.000    3.000 
#    0.000    5.000    0.000    3.000    0.000    0.000 
#    0.000    0.000    0.000    0.000    0.000    0.000 
#
# Total GULP energy -793479.871264 kJ/mol
# GULP energy per Si atom -12398.122989 kJ/mol
# Density = 1.880052 g / cm^3
# Si number density = 18.843412 Si / 1000 Ang^3
#
#
#
# Elastic Constant Matrix: (Units=GPa)
#
#
# Indices 1 2 3 4 5 6 
#
# 1 55.1046 25.9620 27.3077 0.0000 0.0000 0.0000
# 2 25.9620 43.9116 31.6670 0.0000 0.0000 0.0000
# 3 27.3077 31.6670 99.2104 0.0000 0.0000 0.0000
# 4 0.0000 0.0000 0.0000 29.4669 0.0000 0.0000
# 5 0.0000 0.0000 0.0000 0.0000 21.8305 0.0000
# 6 0.0000 0.0000 0.0000 0.0000 0.0000 22.3589
#
#
#
# Elastic Compliance Matrix: (Units=1/GPa)
#
#
# Indices 1 2 3 4 5 6 
#
# 1 0.025780 -0.013152 -0.002898 0.000000 0.000000 0.000000
# 2 -0.013152 0.036292 -0.007964 0.000000 0.000000 0.000000
# 3 -0.002898 -0.007964 0.013419 0.000000 0.000000 0.000000
# 4 0.000000 0.000000 0.000000 0.033936 0.000000 0.000000
# 5 0.000000 0.000000 0.000000 0.000000 0.045807 0.000000
# 6 0.000000 0.000000 0.000000 0.000000 0.000000 0.044725
#
#
# Mechanical properties :
#
#
# Convention : Reuss Voigt Hill
#
# Bulk Modulus (GPa) = 36.41211 40.90001 38.65606
# Shear Modulus (GPa) = 19.44445 22.28392 20.86419
#
# Velocity S-wave (km/s) = 3.21580 3.44260 3.33113
# Velocity P-wave (km/s) = 5.75795 6.12816 5.94594
#
# Compressibility (1/GPa) = 0.02746339
#
# Stress axis : x y z
#
# Youngs Moduli (GPa) = 38.78992 27.55406 74.51960
#
# Poissons Ratio (x) = 0.36239 0.21595
# Poissons Ratio (y) = 0.51017 0.59348
# Poissons Ratio (z) = 0.11241 0.21944
#
# Static dielectric constant tensor:
#      x y z
#    x 3.500070 0.000000 0.000000 
#    y 0.000000 3.377400 0.000000 
#    z 0.000000 0.000000 3.714850 
# 
# 
# High freq. dielectric constant tensor:
#      x y z
#    x 1.730600 0.000000 0.000000 
#    y 0.000000 1.709830 0.000000 
#    z 0.000000 0.000000 1.737290 
# 
# From -- ./inp_files/15810.got.cif
#   From: 2010.03.12/outbox.cif.g09.slc.cpg/sg62_8_cif.got.tgz:15810.got - 2010.04.10 19:12:36.
