data_PCOD8251048
_publ_section_title
;
Structure prediction by ZEFSAII (Michael W. Deem and Ramdas Pophale) SiO2 
 PCOD8251048
Probable space group: P N M A
;
_chemical_formula_sum "Si O2"
_cell_formula_units_Z 56
_cell_length_a 17.878588
_cell_length_b 9.142938
_cell_length_c 18.590589
_cell_angle_alpha 90.000000
_cell_angle_beta 90.000000
_cell_angle_gamma 90.000000
_cell_volume 3038.870133
_symmetry_space_group_name_H-M "P N M A"
_symmetry_group_IT_number 62
_symmetry_cell_setting 'orthorhombic'
loop_
_space_group_symop_operation_xyz
x,y,z
1/2-x,-y,1/2+z
1/2+x,1/2-y,1/2-z
-x,1/2+y,-z
-x,-y,-z
1/2+x,y,1/2-z
1/2-x,1/2+y,1/2+z
x,1/2-y,z
loop_
_atom_site_type_symbol
_atom_site_label
_atom_site_fract_x
_atom_site_fract_y
_atom_site_fract_z
Si Si1 0.323181 0.418188 0.958127
Si Si2 0.305827 0.419846 0.385639
Si Si3 0.510897 0.588409 0.295412
Si Si4 0.339755 0.585779 0.249036
Si Si5 0.961242 0.078134 0.639690
Si Si6 0.386260 0.080261 0.115298
Si Si7 0.975472 0.418657 0.071101
O O1 0.302603 0.250000 0.942733
O O2 0.251347 0.517938 0.944142
O O3 0.390032 0.469914 0.906311
O O4 0.346128 0.442532 0.039848
O O5 0.290974 0.250000 0.372304
O O6 0.292414 0.503197 0.310275
O O7 0.388287 0.447946 0.416334
O O8 0.535742 0.750000 0.321195
O O9 0.425158 0.590281 0.272361
O O10 0.556255 0.540721 0.223719
O O11 0.523751 0.477327 0.361053
O O12 0.307830 0.750000 0.239281
O O13 0.333872 0.498487 0.174226
O O14 0.979763 0.250000 0.631065
O O15 0.031568 0.988480 0.610290
O O16 0.394455 0.250000 0.135947
O O17 0.994824 0.250000 0.062146
O O18 0.000000 0.500000 0.000000
#
# Coordination Sequence:
#
# PCOD8251048 Si02
#       7
#     8   8   8   8   8   8   8
#     4  10  21  35  51  75 109 145 176 211 259 312
#     4  10  21  36  54  77 103 133 173 217 262 315
#     4   8  15  29  50  74  98 125 160 202 246 296
#     4   9  17  32  54  74  96 130 168 207 254 308
#     4   9  18  33  52  75 104 140 179 213 253 308
#     4  10  19  31  51  79 107 136 176 221 257 298
#     4  10  20  34  54  78 101 127 165 213 261 309
#
# _framework density 18.427902
#
# number of rings (size 3 to 8) (size 9 to 14) (size 15 to 20)
#    0.000    2.571    0.000    3.000    0.000    6.857 
#    0.000    1.429    0.000    1.714    0.000    0.000 
#    0.000    0.000    0.000    0.000    0.000    0.000 
#
# Total GULP energy -694409.135838 kJ/mol
# GULP energy per Si atom -12400.163140 kJ/mol
# Density = 1.838596 g / cm^3
# Si number density = 18.427902 Si / 1000 Ang^3
#
#
#
# Elastic Constant Matrix: (Units=GPa)
#
#
# Indices 1 2 3 4 5 6 
#
# 1 41.0306 44.8619 35.7726 0.0000 0.0000 0.0000
# 2 44.8619 130.1021 75.2328 0.0000 0.0000 0.0000
# 3 35.7726 75.2328 129.3452 0.0000 0.0000 0.0000
# 4 0.0000 0.0000 0.0000 36.6509 0.0000 0.0000
# 5 0.0000 0.0000 0.0000 0.0000 20.5366 0.0000
# 6 0.0000 0.0000 0.0000 0.0000 0.0000 26.4185
#
#
#
# Elastic Compliance Matrix: (Units=1/GPa)
#
#
# Indices 1 2 3 4 5 6 
#
# 1 0.040924 -0.011401 -0.004687 0.000000 0.000000 0.000000
# 2 -0.011401 0.014758 -0.005431 0.000000 0.000000 0.000000
# 3 -0.004687 -0.005431 0.012186 0.000000 0.000000 0.000000
# 4 0.000000 0.000000 0.000000 0.027284 0.000000 0.000000
# 5 0.000000 0.000000 0.000000 0.000000 0.048694 0.000000
# 6 0.000000 0.000000 0.000000 0.000000 0.000000 0.037852
#
#
# Mechanical properties :
#
#
# Convention : Reuss Voigt Hill
#
# Bulk Modulus (GPa) = 40.27256 68.02361 54.14808
# Shear Modulus (GPa) = 21.45802 26.36190 23.90996
#
# Velocity S-wave (km/s) = 3.41608 3.78636 3.60597
# Velocity P-wave (km/s) = 6.12054 7.49058 6.83995
#
# Compressibility (1/GPa) = 0.02483081
#
# Stress axis : x y z
#
# Youngs Moduli (GPa) = 24.43546 67.75973 82.06022
#
# Poissons Ratio (x) = 0.77255 0.38460
# Poissons Ratio (y) = 0.27860 0.44564
# Poissons Ratio (z) = 0.11452 0.36798
#
# Static dielectric constant tensor:
#      x y z
#    x 3.091280 0.000000 0.000000 
#    y 0.000000 3.547910 0.000000 
#    z 0.000000 0.000000 3.624660 
# 
# 
# High freq. dielectric constant tensor:
#      x y z
#    x 1.677040 0.000000 0.000000 
#    y 0.000000 1.723400 0.000000 
#    z 0.000000 0.000000 1.727090 
# 
# From -- ./inp_files/24563.got.cif
#   From: 2010.03.12/outbox.cif.g09.slc.cpg/sg62_13_cif.got.tgz:24563.got - 2010.04.10 19:12:36.
