data_PCOD8251401
_publ_section_title
;
Structure prediction by ZEFSAII (Michael W. Deem and Ramdas Pophale) SiO2 
 PCOD8251401
Probable space group: P N M A
;
_chemical_formula_sum "Si O2"
_cell_formula_units_Z 64
_cell_length_a 29.166060
_cell_length_b 9.314146
_cell_length_c 11.917801
_cell_angle_alpha 90.000000
_cell_angle_beta 90.000000
_cell_angle_gamma 90.000000
_cell_volume 3237.553364
_symmetry_space_group_name_H-M "P N M A"
_symmetry_group_IT_number 62
_symmetry_cell_setting 'orthorhombic'
loop_
_space_group_symop_operation_xyz
x,y,z
1/2-x,-y,1/2+z
1/2+x,1/2-y,1/2-z
-x,1/2+y,-z
-x,-y,-z
1/2+x,y,1/2-z
1/2-x,1/2+y,1/2+z
x,1/2-y,z
loop_
_atom_site_type_symbol
_atom_site_label
_atom_site_fract_x
_atom_site_fract_y
_atom_site_fract_z
Si Si1 0.430471 0.910143 0.033283
Si Si2 0.322448 0.915850 0.504537
Si Si3 0.662762 0.415502 0.238814
Si Si4 0.721906 0.583538 0.059453
Si Si5 0.112233 0.920833 0.850002
Si Si6 0.149350 0.914702 0.614599
Si Si7 0.941285 0.585471 0.716035
Si Si8 0.474165 0.582082 0.266609
O O1 0.411118 0.750000 0.047028
O O2 0.464321 0.945320 0.135318
O O3 0.386294 0.010179 0.032061
O O4 0.455956 0.927817 0.914658
O O5 0.333853 0.750000 0.476677
O O6 0.318105 0.938787 0.636913
O O7 0.274654 0.964137 0.448183
O O8 0.362633 0.017396 0.458941
O O9 0.663560 0.250000 0.202275
O O10 0.696483 0.497724 0.156135
O O11 0.610444 0.471974 0.232680
O O12 0.717620 0.750000 0.090348
O O13 0.699622 0.554994 0.936054
O O14 0.105746 0.750000 0.860895
O O15 0.143725 0.966956 0.743067
O O16 0.062840 0.996940 0.841133
O O17 0.135839 0.750000 0.610599
O O18 0.945623 0.750000 0.757908
O O19 0.975714 0.486553 0.788879
O O20 0.474128 0.750000 0.299189
#
# Coordination Sequence:
#
# PCOD8251401 Si02
#       8
#     8   8   8   8   8   8   8   8
#     4   9  17  30  49  78 115 149 186 229 280 339
#     4  10  23  41  60  83 115 152 191 239 290 340
#     4  10  22  40  62  85 116 154 193 239 290 343
#     4  10  21  37  58  85 116 147 185 234 286 344
#     4  10  21  38  60  84 114 152 196 241 284 340
#     4   9  18  32  53  82 113 147 183 227 282 335
#     4  10  19  33  53  81 114 150 193 239 286 343
#     4  10  20  33  54  83 116 154 191 236 292 348
#
# _framework density 19.768013
#
# number of rings (size 3 to 8) (size 9 to 14) (size 15 to 20)
#    0.000    2.250    1.250    1.125    1.750    3.000 
#    0.000    0.625    0.000    0.000    0.000    0.000 
#    0.000    0.000    0.000    0.000    0.000    0.000 
#
# Total GULP energy -793506.612097 kJ/mol
# GULP energy per Si atom -12398.540814 kJ/mol
# Density = 1.972302 g / cm^3
# Si number density = 19.768013 Si / 1000 Ang^3
#
#
#
# Elastic Constant Matrix: (Units=GPa)
#
#
# Indices 1 2 3 4 5 6 
#
# 1 114.8540 46.5399 33.6150 0.0000 0.0000 0.0000
# 2 46.5399 68.1929 24.7552 0.0000 0.0000 0.0000
# 3 33.6150 24.7552 49.0536 0.0000 0.0000 0.0000
# 4 0.0000 0.0000 0.0000 22.7008 0.0000 0.0000
# 5 0.0000 0.0000 0.0000 0.0000 20.4090 0.0000
# 6 0.0000 0.0000 0.0000 0.0000 0.0000 32.3937
#
#
#
# Elastic Compliance Matrix: (Units=1/GPa)
#
#
# Indices 1 2 3 4 5 6 
#
# 1 0.013138 -0.006976 -0.005483 0.000000 0.000000 0.000000
# 2 -0.006976 0.021658 -0.006149 0.000000 0.000000 0.000000
# 3 -0.005483 -0.006149 0.027246 0.000000 0.000000 0.000000
# 4 0.000000 0.000000 0.000000 0.044051 0.000000 0.000000
# 5 0.000000 0.000000 0.000000 0.000000 0.048998 0.000000
# 6 0.000000 0.000000 0.000000 0.000000 0.000000 0.030870
#
#
# Mechanical properties :
#
#
# Convention : Reuss Voigt Hill
#
# Bulk Modulus (GPa) = 40.28018 49.10231 44.69124
# Shear Modulus (GPa) = 21.60271 23.58005 22.59138
#
# Velocity S-wave (km/s) = 3.30936 3.45750 3.38424
# Velocity P-wave (km/s) = 5.91803 6.39001 6.15855
#
# Compressibility (1/GPa) = 0.02482611
#
# Stress axis : x y z
#
# Youngs Moduli (GPa) = 76.11429 46.17324 36.70247
#
# Poissons Ratio (x) = 0.32211 0.20123
# Poissons Ratio (y) = 0.53098 0.22569
# Poissons Ratio (z) = 0.41731 0.28392
#
# Static dielectric constant tensor:
#      x y z
#    x 3.567150 0.000000 0.000000 
#    y 0.000000 3.581960 0.000000 
#    z 0.000000 0.000000 3.445010 
# 
# 
# High freq. dielectric constant tensor:
#      x y z
#    x 1.770190 0.000000 0.000000 
#    y 0.000000 1.767180 0.000000 
#    z 0.000000 0.000000 1.755080 
# 
# From -- ./inp_files/15882.got.cif
#   From: 2010.03.12/outbox.cif.g09.slc.cpg/sg62_8_cif.got.tgz:15882.got - 2010.04.10 19:12:36.
