data_PCOD8251836
_publ_section_title
;
Structure prediction by ZEFSAII (Michael W. Deem and Ramdas Pophale) SiO2 
 PCOD8251836
Probable space group: P N M A
;
_chemical_formula_sum "Si O2"
_cell_formula_units_Z 56
_cell_length_a 14.957692
_cell_length_b 8.732102
_cell_length_c 21.093955
_cell_angle_alpha 90.000000
_cell_angle_beta 90.000000
_cell_angle_gamma 90.000000
_cell_volume 2755.125596
_symmetry_space_group_name_H-M "P N M A"
_symmetry_group_IT_number 62
_symmetry_cell_setting 'orthorhombic'
loop_
_space_group_symop_operation_xyz
x,y,z
1/2-x,-y,1/2+z
1/2+x,1/2-y,1/2-z
-x,1/2+y,-z
-x,-y,-z
1/2+x,y,1/2-z
1/2-x,1/2+y,1/2+z
x,1/2-y,z
loop_
_atom_site_type_symbol
_atom_site_label
_atom_site_fract_x
_atom_site_fract_y
_atom_site_fract_z
Si Si1 0.787597 0.568860 0.100383
Si Si2 0.477116 0.069156 0.432198
Si Si3 0.584345 0.424294 0.787088
Si Si4 0.540074 0.573296 0.912402
Si Si5 0.140908 0.071848 0.480703
Si Si6 0.560271 0.927152 0.315615
Si Si7 0.774055 0.429320 0.735683
O O1 0.804089 0.750000 0.103743
O O2 0.882112 0.488468 0.092295
O O3 0.725879 0.526139 0.040897
O O4 0.739436 0.505426 0.164462
O O5 0.477013 0.250000 0.438091
O O6 0.500000 0.000000 0.500000
O O7 0.552938 0.017946 0.381681
O O8 0.573380 0.250000 0.811059
O O9 0.542906 0.538256 0.838258
O O10 0.533020 0.446677 0.721163
O O11 0.687247 0.467909 0.777158
O O12 0.559034 0.750000 0.926295
O O13 0.442197 0.526141 0.936304
O O14 0.616270 0.474015 0.947479
O O15 0.165132 0.250000 0.477329
O O16 0.580157 0.750000 0.331313
O O17 0.639976 0.998728 0.272176
O O18 0.789361 0.250000 0.728495
#
# Coordination Sequence:
#
# PCOD8251836 Si02
#       7
#     8   8   8   8   8   8   8
#     4  11  21  40  66  92 121 159 208 257 311 379
#     4  12  26  44  65  90 124 167 211 261 315 375
#     4  10  19  35  58  85 119 156 196 247 307 368
#     4  10  21  36  55  84 121 160 204 254 306 360
#     4  10  21  37  57  84 119 159 203 251 306 369
#     4  10  20  39  64  90 123 161 205 258 313 376
#     4   9  19  35  61  91 117 154 201 247 304 371
#
# _framework density 20.325752999999999
#
# number of rings (size 3 to 8) (size 9 to 14) (size 15 to 20)
#    0.000    1.714    1.429    3.429    0.000    4.571 
#    0.000    6.429    0.000    0.000    0.000    0.000 
#    0.000    0.000    0.000    0.000    0.000    0.000 
#
# Total GULP energy -694577.796785 kJ/mol
# GULP energy per Si atom -12403.174943 kJ/mol
# Density = 2.027949 g / cm^3
# Si number density = 20.325753 Si / 1000 Ang^3
#
#
#
# Elastic Constant Matrix: (Units=GPa)
#
#
# Indices 1 2 3 4 5 6 
#
# 1 101.9181 35.1755 40.5426 0.0000 0.0000 0.0000
# 2 35.1755 83.8114 43.5870 0.0000 0.0000 0.0000
# 3 40.5426 43.5870 117.7413 0.0000 0.0000 0.0000
# 4 0.0000 0.0000 0.0000 34.1894 0.0000 0.0000
# 5 0.0000 0.0000 0.0000 0.0000 25.9526 0.0000
# 6 0.0000 0.0000 0.0000 0.0000 0.0000 28.0333
#
#
#
# Elastic Compliance Matrix: (Units=1/GPa)
#
#
# Indices 1 2 3 4 5 6 
#
# 1 0.012203 -0.003636 -0.002856 0.000000 0.000000 0.000000
# 2 -0.003636 0.015860 -0.004619 0.000000 0.000000 0.000000
# 3 -0.002856 -0.004619 0.011186 0.000000 0.000000 0.000000
# 4 0.000000 0.000000 0.000000 0.029249 0.000000 0.000000
# 5 0.000000 0.000000 0.000000 0.000000 0.038532 0.000000
# 6 0.000000 0.000000 0.000000 0.000000 0.000000 0.035672
#
#
# Mechanical properties :
#
#
# Convention : Reuss Voigt Hill
#
# Bulk Modulus (GPa) = 58.73065 60.23120 59.48092
# Shear Modulus (GPa) = 29.30838 29.91278 29.61058
#
# Velocity S-wave (km/s) = 3.80140 3.84040 3.82095
# Velocity P-wave (km/s) = 6.94442 7.02582 6.98524
#
# Compressibility (1/GPa) = 0.01702688
#
# Stress axis : x y z
#
# Youngs Moduli (GPa) = 81.94819 63.05195 89.39363
#
# Poissons Ratio (x) = 0.22928 0.25528
# Poissons Ratio (y) = 0.29799 0.41292
# Poissons Ratio (z) = 0.23402 0.29124
#
# Static dielectric constant tensor:
#      x y z
#    x 3.775500 0.000000 0.000000 
#    y 0.000000 3.484890 0.000000 
#    z 0.000000 0.000000 3.778080 
# 
# 
# High freq. dielectric constant tensor:
#      x y z
#    x 1.796500 0.000000 0.000000 
#    y 0.000000 1.775490 0.000000 
#    z 0.000000 0.000000 1.800390 
# 
# From -- ./inp_files/27211.got.cif
#   From: 2010.03.12/outbox.cif.g09.slc.cpg/sg62_14_cif.got.tgz:27211.got - 2010.04.10 19:12:36.
