data_PCOD8251759
_publ_section_title
;
Structure prediction by ZEFSAII (Michael W. Deem and Ramdas Pophale) SiO2 
 PCOD8251759
Probable space group: P N M A
;
_chemical_formula_sum "Si O2"
_cell_formula_units_Z 48
_cell_length_a 5.548319
_cell_length_b 13.604278
_cell_length_c 26.834269
_cell_angle_alpha 90.000000
_cell_angle_beta 90.000000
_cell_angle_gamma 90.000000
_cell_volume 2025.474080
_symmetry_space_group_name_H-M "P N M A"
_symmetry_group_IT_number 62
_symmetry_cell_setting 'orthorhombic'
loop_
_space_group_symop_operation_xyz
x,y,z
1/2-x,-y,1/2+z
1/2+x,1/2-y,1/2-z
-x,1/2+y,-z
-x,-y,-z
1/2+x,y,1/2-z
1/2-x,1/2+y,1/2+z
x,1/2-y,z
loop_
_atom_site_type_symbol
_atom_site_label
_atom_site_fract_x
_atom_site_fract_y
_atom_site_fract_z
Si Si1 0.078530 0.395611 0.734768
Si Si2 0.859816 0.134264 0.958551
Si Si3 0.877453 0.966617 0.372096
Si Si4 0.355690 0.389155 0.272258
Si Si5 0.733023 0.523180 0.548228
Si Si6 0.544049 0.139179 0.373552
O O1 0.340265 0.339951 0.742547
O O2 0.022280 0.411368 0.676305
O O3 0.137023 0.494182 0.765409
O O4 0.880572 0.250000 0.967233
O O5 0.788592 0.111534 0.901584
O O6 0.674018 0.082887 0.998789
O O7 0.115003 0.080403 0.968769
O O8 0.748808 0.065477 0.352565
O O9 0.074145 0.001953 0.410494
O O10 0.108777 0.343833 0.248938
O O11 0.337621 0.362925 0.330943
O O12 0.540033 0.597141 0.573432
O O13 0.640858 0.250000 0.381758
#
# Coordination Sequence:
#
# PCOD8251759 Si02
#       6
#     8   8   8   8   8   8
#     4  10  19  35  62  92 128 176 219 272 331 398
#     4  10  23  42  66  96 127 165 220 281 340 406
#     4  11  22  39  65  92 128 172 223 268 336 398
#     4  10  19  35  52  82 124 174 219 269 321 394
#     4  10  22  42  64  92 129 171 213 275 343 409
#     4  11  23  35  55  88 127 172 218 267 324 398
#
# _framework density 23.698155
#
# number of rings (size 3 to 8) (size 9 to 14) (size 15 to 20)
#    0.000    1.667    3.333    3.000    2.333    2.667 
#    0.000    0.000    0.000    1.000    0.000    0.000 
#    0.000    0.000    0.000    0.000    0.000    0.000 
#
# Total GULP energy -594643.345093 kJ/mol
# GULP energy per Si atom -12388.403023 kJ/mol
# Density = 2.364422 g / cm^3
# Si number density = 23.698155 Si / 1000 Ang^3
#
#
#
# Elastic Constant Matrix: (Units=GPa)
#
#
# Indices 1 2 3 4 5 6 
#
# 1 116.7432 5.6901 21.8107 0.0000 0.0000 0.0000
# 2 5.6901 140.9284 27.1578 0.0000 0.0000 0.0000
# 3 21.8107 27.1578 129.9425 0.0000 0.0000 0.0000
# 4 0.0000 0.0000 0.0000 5.8095 0.0000 0.0000
# 5 0.0000 0.0000 0.0000 0.0000 33.7760 0.0000
# 6 0.0000 0.0000 0.0000 0.0000 0.0000 -14.9597
#
#
#
# Elastic Compliance Matrix: (Units=1/GPa)
#
#
# Indices 1 2 3 4 5 6 
#
# 1 0.008844 -0.000074 -0.001469 0.000000 0.000000 0.000000
# 2 -0.000074 0.007394 -0.001533 0.000000 0.000000 0.000000
# 3 -0.001469 -0.001533 0.008263 0.000000 0.000000 0.000000
# 4 0.000000 0.000000 0.000000 0.172132 0.000000 0.000000
# 5 0.000000 0.000000 0.000000 0.000000 0.029607 0.000000
# 6 0.000000 0.000000 0.000000 0.000000 0.000000 -0.066846
#
#
# Mechanical properties :
#
#
# Convention : Reuss Voigt Hill
#
# Bulk Modulus (GPa) = 54.49923 55.21457 54.85690
# Shear Modulus (GPa) = 29.12710 27.12220 28.12465
#
# Velocity S-wave (km/s) = 3.50964 3.38669 3.44871
# Velocity P-wave (km/s) = 6.28256 6.21632 6.24953
#
# Compressibility (1/GPa) = 0.01834888
#
# Stress axis : x y z
#
# Youngs Moduli (GPa) = 113.07280 135.24120 121.02635
#
# Poissons Ratio (x) = 0.01001 0.17778
# Poissons Ratio (y) = 0.00837 0.18553
# Poissons Ratio (z) = 0.16610 0.20732
#
# Static dielectric constant tensor:
#      x y z
#    x 4.785780 0.000000 0.000000 
#    y 0.000000 3.875790 0.000000 
#    z 0.000000 0.000000 4.741060 
# 
# 
# High freq. dielectric constant tensor:
#      x y z
#    x 1.927910 0.000000 0.000000 
#    y 0.000000 1.912160 0.000000 
#    z 0.000000 0.000000 1.959060 
# 
# From -- ./inp_files/30402.got.cif
#   From: 2010.03.12/outbox.cif.g09.slc.cpg/sg62_16_cif.got.tgz:30402.got - 2010.04.10 19:12:36.
