data_PCOD8251727
_publ_section_title
;
Structure prediction by ZEFSAII (Michael W. Deem and Ramdas Pophale) SiO2 
 PCOD8251727
Probable space group: P N M A
;
_chemical_formula_sum "Si O2"
_cell_formula_units_Z 64
_cell_length_a 12.651837
_cell_length_b 9.368638
_cell_length_c 29.014420
_cell_angle_alpha 90.000000
_cell_angle_beta 90.000000
_cell_angle_gamma 90.000000
_cell_volume 3439.093155
_symmetry_space_group_name_H-M "P N M A"
_symmetry_group_IT_number 62
_symmetry_cell_setting 'orthorhombic'
loop_
_space_group_symop_operation_xyz
x,y,z
1/2-x,-y,1/2+z
1/2+x,1/2-y,1/2-z
-x,1/2+y,-z
-x,-y,-z
1/2+x,y,1/2-z
1/2-x,1/2+y,1/2+z
x,1/2-y,z
loop_
_atom_site_type_symbol
_atom_site_label
_atom_site_fract_x
_atom_site_fract_y
_atom_site_fract_z
Si Si1 0.584298 0.917337 0.586720
Si Si2 0.559906 0.582972 0.098483
Si Si3 0.218460 0.417499 0.467729
Si Si4 0.052028 0.092689 0.217723
Si Si5 0.675059 0.908606 0.679887
Si Si6 0.323488 0.582092 0.071573
Si Si7 0.863188 0.917685 0.882395
Si Si8 0.630728 0.582915 0.200328
O O1 0.573647 0.750000 0.596400
O O2 0.656738 0.952919 0.542237
O O3 0.647556 0.979729 0.630498
O O4 0.462734 0.973075 0.585582
O O5 0.577870 0.750000 0.089499
O O6 0.642038 0.498993 0.066942
O O7 0.441322 0.536750 0.085588
O O8 0.577244 0.542045 0.151718
O O9 0.196911 0.250000 0.461252
O O10 0.195133 0.468476 0.519248
O O11 0.093765 0.250000 0.232774
O O12 0.111127 0.046529 0.170737
O O13 0.927819 0.101736 0.210755
O O14 0.063594 0.977186 0.257572
O O15 0.725105 0.750000 0.674025
O O16 0.754762 0.013445 0.705138
O O17 0.305094 0.750000 0.077256
O O18 0.241476 0.502440 0.104386
O O19 0.842836 0.750000 0.889765
O O20 0.641437 0.750000 0.206458
#
# Coordination Sequence:
#
# PCOD8251727 Si02
#       8
#     8   8   8   8   8   8   8   8
#     4   8  15  31  56  81 105 134 176 231 274 308
#     4  10  22  38  52  75 114 148 180 227 277 324
#     4  10  19  34  59  84 105 142 190 229 272 325
#     4   9  20  37  57  80 105 139 183 228 275 326
#     4   9  17  34  57  77 103 139 179 229 274 315
#     4  10  22  37  53  79 117 152 181 221 275 330
#     4   9  19  37  57  78 107 143 180 223 277 329
#     4  11  22  34  53  81 110 142 178 223 280 335
#
# _framework density 18.609558
#
# number of rings (size 3 to 8) (size 9 to 14) (size 15 to 20)
#    0.000    2.500    1.250    2.250    0.000    4.000 
#    0.000    5.000    0.000    0.000    0.000    0.000 
#    0.000    0.000    0.000    0.000    0.000    0.000 
#
# Total GULP energy -793367.244258 kJ/mol
# GULP energy per Si atom -12396.363192 kJ/mol
# Density = 1.856720 g / cm^3
# Si number density = 18.609558 Si / 1000 Ang^3
#
#
#
# Elastic Constant Matrix: (Units=GPa)
#
#
# Indices 1 2 3 4 5 6 
#
# 1 68.1766 27.0457 31.0132 0.0000 0.0000 0.0000
# 2 27.0457 56.2490 39.7221 0.0000 0.0000 0.0000
# 3 31.0132 39.7221 92.6208 0.0000 0.0000 0.0000
# 4 0.0000 0.0000 0.0000 27.5269 0.0000 0.0000
# 5 0.0000 0.0000 0.0000 0.0000 24.1170 0.0000
# 6 0.0000 0.0000 0.0000 0.0000 0.0000 21.3164
#
#
#
# Elastic Compliance Matrix: (Units=1/GPa)
#
#
# Indices 1 2 3 4 5 6 
#
# 1 0.018877 -0.006617 -0.003483 0.000000 0.000000 0.000000
# 2 -0.006617 0.027821 -0.009716 0.000000 0.000000 0.000000
# 3 -0.003483 -0.009716 0.016130 0.000000 0.000000 0.000000
# 4 0.000000 0.000000 0.000000 0.036328 0.000000 0.000000
# 5 0.000000 0.000000 0.000000 0.000000 0.041465 0.000000
# 6 0.000000 0.000000 0.000000 0.000000 0.000000 0.046912
#
#
# Mechanical properties :
#
#
# Convention : Reuss Voigt Hill
#
# Bulk Modulus (GPa) = 43.11056 45.84539 44.47798
# Shear Modulus (GPa) = 21.28600 22.54308 21.91454
#
# Velocity S-wave (km/s) = 3.38571 3.48425 3.43533
# Velocity P-wave (km/s) = 6.20485 6.39340 6.29983
#
# Compressibility (1/GPa) = 0.02319617
#
# Stress axis : x y z
#
# Youngs Moduli (GPa) = 52.97410 35.94436 61.99703
#
# Poissons Ratio (x) = 0.23784 0.21594
# Poissons Ratio (y) = 0.35052 0.60235
# Poissons Ratio (z) = 0.18451 0.34923
#
# Static dielectric constant tensor:
#      x y z
#    x 3.455890 0.000000 0.000000 
#    y 0.000000 3.272100 0.000000 
#    z 0.000000 0.000000 3.436010 
# 
# 
# High freq. dielectric constant tensor:
#      x y z
#    x 1.728740 0.000000 0.000000 
#    y 0.000000 1.704080 0.000000 
#    z 0.000000 0.000000 1.720260 
# 
# From -- ./inp_files/32587.got.cif
#   From: 2010.03.12/outbox.cif.g09.slc.cpg/sg62_17_cif.got.tgz:32587.got - 2010.04.10 19:12:36.
