data_PCOD8251395
_publ_section_title
;
Structure prediction by ZEFSAII (Michael W. Deem and Ramdas Pophale) SiO2 
 PCOD8251395
Probable space group: P N M A
;
_chemical_formula_sum "Si O2"
_cell_formula_units_Z 64
_cell_length_a 24.777295
_cell_length_b 12.611132
_cell_length_c 11.237367
_cell_angle_alpha 90.000000
_cell_angle_beta 90.000000
_cell_angle_gamma 90.000000
_cell_volume 3511.337121
_symmetry_space_group_name_H-M "P N M A"
_symmetry_group_IT_number 62
_symmetry_cell_setting 'orthorhombic'
loop_
_space_group_symop_operation_xyz
x,y,z
1/2-x,-y,1/2+z
1/2+x,1/2-y,1/2-z
-x,1/2+y,-z
-x,-y,-z
1/2+x,y,1/2-z
1/2-x,1/2+y,1/2+z
x,1/2-y,z
loop_
_atom_site_type_symbol
_atom_site_label
_atom_site_fract_x
_atom_site_fract_y
_atom_site_fract_z
Si Si1 0.515234 0.962084 0.628421
Si Si2 0.401487 0.507912 0.691695
Si Si3 0.065682 0.628380 0.405417
Si Si4 0.803744 0.127420 0.244664
Si Si5 0.049290 0.370430 0.686463
Si Si6 0.138209 0.489312 0.560583
Si Si7 0.115065 0.868379 0.962690
Si Si8 0.816166 0.626348 0.664403
O O1 0.458744 0.928062 0.689516
O O2 0.559504 0.869386 0.615222
O O3 0.500000 0.000000 0.500000
O O4 0.543253 0.058449 0.697320
O O5 0.406856 0.411624 0.784001
O O6 0.385154 0.456114 0.566007
O O7 0.357625 0.593226 0.732114
O O8 0.081371 0.750000 0.419767
O O9 0.090913 0.567760 0.517218
O O10 0.000953 0.611394 0.403974
O O11 0.810920 0.250000 0.283520
O O12 0.836355 0.102854 0.124795
O O13 0.742302 0.099841 0.215386
O O14 0.822226 0.051434 0.351184
O O15 0.049661 0.250000 0.731421
O O16 0.106375 0.393925 0.624121
O O17 0.173994 0.441449 0.454648
O O18 0.121959 0.750000 0.015525
O O19 0.823092 0.750000 0.634691
#
# Coordination Sequence:
#
# PCOD8251395 Si02
#       8
#     8   8   8   8   8   8   8   8
#     4   9  18  33  52  82 114 145 182 220 271 327
#     4   9  19  34  58  80 112 148 183 222 274 332
#     4   9  18  32  53  84 115 144 179 223 273 327
#     4  10  22  38  58  81 108 142 185 236 280 321
#     4  10  19  33  53  80 115 148 179 222 273 330
#     4  11  20  36  60  79 110 145 187 228 277 334
#     4  10  19  34  56  82 110 142 186 228 273 325
#     4  10  23  40  57  81 110 146 186 231 280 326
#
# _framework density 18.226673999999999
#
# number of rings (size 3 to 8) (size 9 to 14) (size 15 to 20)
#    0.000    2.250    1.250    1.500    1.750    3.500 
#    0.000    1.875    0.000    2.250    0.000    0.000 
#    0.000    0.000    0.000    0.000    0.000    0.000 
#
# Total GULP energy -793422.991305 kJ/mol
# GULP energy per Si atom -12397.234239 kJ/mol
# Density = 1.818519 g / cm^3
# Si number density = 18.226674 Si / 1000 Ang^3
#
#
#
# Elastic Constant Matrix: (Units=GPa)
#
#
# Indices 1 2 3 4 5 6 
#
# 1 120.7721 39.9357 44.2443 0.0000 0.0000 0.0000
# 2 39.9357 66.7887 34.1875 0.0000 0.0000 0.0000
# 3 44.2443 34.1875 81.0656 0.0000 0.0000 0.0000
# 4 0.0000 0.0000 0.0000 23.7353 0.0000 0.0000
# 5 0.0000 0.0000 0.0000 0.0000 27.0925 0.0000
# 6 0.0000 0.0000 0.0000 0.0000 0.0000 28.1720
#
#
#
# Elastic Compliance Matrix: (Units=1/GPa)
#
#
# Indices 1 2 3 4 5 6 
#
# 1 0.011366 -0.004618 -0.004256 0.000000 0.000000 0.000000
# 2 -0.004618 0.020971 -0.006324 0.000000 0.000000 0.000000
# 3 -0.004256 -0.006324 0.017325 0.000000 0.000000 0.000000
# 4 0.000000 0.000000 0.000000 0.042131 0.000000 0.000000
# 5 0.000000 0.000000 0.000000 0.000000 0.036911 0.000000
# 6 0.000000 0.000000 0.000000 0.000000 0.000000 0.035496
#
#
# Mechanical properties :
#
#
# Convention : Reuss Voigt Hill
#
# Bulk Modulus (GPa) = 51.90100 56.15128 54.02614
# Shear Modulus (GPa) = 24.87346 25.81723 25.34534
#
# Velocity S-wave (km/s) = 3.69816 3.76766 3.73307
# Velocity P-wave (km/s) = 6.83903 7.05699 6.94886
#
# Compressibility (1/GPa) = 0.01926745
#
# Stress axis : x y z
#
# Youngs Moduli (GPa) = 87.98010 47.68577 57.71878
#
# Poissons Ratio (x) = 0.22020 0.24566
# Poissons Ratio (y) = 0.40627 0.36499
# Poissons Ratio (z) = 0.37445 0.30154
#
# Static dielectric constant tensor:
#      x y z
#    x 3.629600 0.000000 0.000000 
#    y 0.000000 3.232310 0.000000 
#    z 0.000000 0.000000 3.260040 
# 
# 
# High freq. dielectric constant tensor:
#      x y z
#    x 1.711320 0.000000 0.000000 
#    y 0.000000 1.697720 0.000000 
#    z 0.000000 0.000000 1.706060 
# 
# From -- ./inp_files/15334.got.cif
#   From: 2010.03.12/outbox.cif.g09.slc.cpg/sg62_8_cif.got.tgz:15334.got - 2010.04.10 19:12:36.
