data_PCOD8251972
_publ_section_title
;
Structure prediction by ZEFSAII (Michael W. Deem and Ramdas Pophale) SiO2 
 PCOD8251972
Probable space group: P N M A
;
_chemical_formula_sum "Si O2"
_cell_formula_units_Z 48
_cell_length_a 15.210549
_cell_length_b 8.299242
_cell_length_c 18.901150
_cell_angle_alpha 90.000000
_cell_angle_beta 90.000000
_cell_angle_gamma 90.000000
_cell_volume 2386.006084
_symmetry_space_group_name_H-M "P N M A"
_symmetry_group_IT_number 62
_symmetry_cell_setting 'orthorhombic'
loop_
_space_group_symop_operation_xyz
x,y,z
1/2-x,-y,1/2+z
1/2+x,1/2-y,1/2-z
-x,1/2+y,-z
-x,-y,-z
1/2+x,y,1/2-z
1/2-x,1/2+y,1/2+z
x,1/2-y,z
loop_
_atom_site_type_symbol
_atom_site_label
_atom_site_fract_x
_atom_site_fract_y
_atom_site_fract_z
Si Si1 0.335957 0.938405 0.580674
Si Si2 0.492724 0.563225 0.830567
Si Si3 0.344175 0.440072 0.426940
Si Si4 0.156889 0.562927 0.426491
Si Si5 0.500529 0.058895 0.329128
Si Si6 0.645971 0.435694 0.919971
O O1 0.319295 0.750000 0.591882
O O2 0.411918 0.005023 0.632103
O O3 0.364607 0.970566 0.500291
O O4 0.247069 0.032530 0.599672
O O5 0.465647 0.750000 0.831317
O O6 0.417277 0.460313 0.868012
O O7 0.501237 0.495393 0.751007
O O8 0.585536 0.542337 0.869235
O O9 0.351511 0.250000 0.439525
O O10 0.247169 0.483804 0.398807
O O11 0.414162 0.504823 0.369782
O O12 0.172873 0.750000 0.441738
O O13 0.125913 0.479688 0.498922
O O14 0.499255 0.250000 0.330692
O O15 0.622648 0.250000 0.907927
#
# Coordination Sequence:
#
# PCOD8251972 Si02
#       6
#     8   8   8   8   8   8
#     4  10  19  36  59  85 111 144 185 228 271 322
#     4  11  22  39  58  80 110 149 186 225 272 328
#     4  10  19  36  59  85 111 144 185 228 271 322
#     4  11  22  38  58  84 111 143 183 229 276 326
#     4   9  21  37  57  82 113 149 186 221 270 330
#     4  11  22  38  58  84 111 143 183 229 276 326
#
# _framework density 20.117301000000001
#
# number of rings (size 3 to 8) (size 9 to 14) (size 15 to 20)
#    0.000    1.667    0.000    7.500    0.000    1.333 
#    0.000   15.833    0.000    0.000    0.000    0.000 
#    0.000    0.000    0.000    0.000    0.000    0.000 
#
# Total GULP energy -595429.653058 kJ/mol
# GULP energy per Si atom -12404.784439 kJ/mol
# Density = 2.007151 g / cm^3
# Si number density = 20.117301 Si / 1000 Ang^3
#
#
#
# Elastic Constant Matrix: (Units=GPa)
#
#
# Indices 1 2 3 4 5 6 
#
# 1 126.9262 -0.3531 92.9111 0.0000 0.0000 0.0000
# 2 -0.3531 57.5940 3.7051 0.0000 0.0000 0.0000
# 3 92.9111 3.7051 127.5302 0.0000 0.0000 0.0000
# 4 0.0000 0.0000 0.0000 25.7664 0.0000 0.0000
# 5 0.0000 0.0000 0.0000 0.0000 13.7683 0.0000
# 6 0.0000 0.0000 0.0000 0.0000 0.0000 29.1842
#
#
#
# Elastic Compliance Matrix: (Units=1/GPa)
#
#
# Indices 1 2 3 4 5 6 
#
# 1 0.016928 0.000899 -0.012359 0.000000 0.000000 0.000000
# 2 0.000899 0.017443 -0.001162 0.000000 0.000000 0.000000
# 3 -0.012359 -0.001162 0.016879 0.000000 0.000000 0.000000
# 4 0.000000 0.000000 0.000000 0.038810 0.000000 0.000000
# 5 0.000000 0.000000 0.000000 0.000000 0.072631 0.000000
# 6 0.000000 0.000000 0.000000 0.000000 0.000000 0.034265
#
#
# Mechanical properties :
#
#
# Convention : Reuss Voigt Hill
#
# Bulk Modulus (GPa) = 38.45144 56.06408 47.25776
# Shear Modulus (GPa) = 21.65740 28.12958 24.89349
#
# Velocity S-wave (km/s) = 3.28465 3.74341 3.52151
# Velocity P-wave (km/s) = 5.79140 6.82739 6.33062
#
# Compressibility (1/GPa) = 0.02600683
#
# Stress axis : x y z
#
# Youngs Moduli (GPa) = 59.07441 57.32907 59.24561
#
# Poissons Ratio (x) = -0.05153 0.73220
# Poissons Ratio (y) = -0.05310 0.06882
# Poissons Ratio (z) = 0.73008 0.06659
#
# Static dielectric constant tensor:
#      x y z
#    x 3.780910 0.000000 0.000000 
#    y 0.000000 3.518380 0.000000 
#    z 0.000000 0.000000 3.734550 
# 
# 
# High freq. dielectric constant tensor:
#      x y z
#    x 1.797950 0.000000 0.000000 
#    y 0.000000 1.781400 0.000000 
#    z 0.000000 0.000000 1.777660 
# 
# From -- ./inp_files/26894.got.cif
#   From: 2010.03.12/outbox.cif.g09.slc.cpg/sg62_14_cif.got.tgz:26894.got - 2010.04.10 19:12:36.
