data_PCOD8251867
_publ_section_title
;
Structure prediction by ZEFSAII (Michael W. Deem and Ramdas Pophale) SiO2 
 PCOD8251867
Probable space group: P N M A
;
_chemical_formula_sum "Si O2"
_cell_formula_units_Z 64
_cell_length_a 23.642303
_cell_length_b 8.913990
_cell_length_c 15.367983
_cell_angle_alpha 90.000000
_cell_angle_beta 90.000000
_cell_angle_gamma 90.000000
_cell_volume 3238.760194
_symmetry_space_group_name_H-M "P N M A"
_symmetry_group_IT_number 62
_symmetry_cell_setting 'orthorhombic'
loop_
_space_group_symop_operation_xyz
x,y,z
1/2-x,-y,1/2+z
1/2+x,1/2-y,1/2-z
-x,1/2+y,-z
-x,-y,-z
1/2+x,y,1/2-z
1/2-x,1/2+y,1/2+z
x,1/2-y,z
loop_
_atom_site_type_symbol
_atom_site_label
_atom_site_fract_x
_atom_site_fract_y
_atom_site_fract_z
Si Si1 0.936983 0.576490 0.248552
Si Si2 0.624593 0.572314 0.906605
Si Si3 0.127124 0.427779 0.414544
Si Si4 0.143309 0.576967 0.093563
Si Si5 0.247457 0.572433 0.650883
Si Si6 0.568332 0.923846 0.244869
Si Si7 0.254387 0.572860 0.845426
Si Si8 0.631498 0.923517 0.599518
O O1 0.922999 0.750000 0.265147
O O2 0.916394 0.481303 0.330388
O O3 0.907253 0.524633 0.160086
O O4 0.003036 0.548064 0.235596
O O5 0.620786 0.750000 0.912900
O O6 0.688042 0.515212 0.887254
O O7 0.604033 0.501260 0.997116
O O8 0.124878 0.250000 0.423867
O O9 0.086417 0.476494 0.336575
O O10 0.190830 0.488991 0.396628
O O11 0.158902 0.750000 0.106097
O O12 0.201827 0.487006 0.092015
O O13 0.102053 0.520208 0.169725
O O14 0.112798 0.551928 0.000480
O O15 0.248720 0.750000 0.651978
O O16 0.254440 0.506018 0.747990
O O17 0.580918 0.750000 0.224648
O O18 0.259504 0.750000 0.840004
O O19 0.196827 0.524164 0.892760
O O20 0.625477 0.750000 0.628568
#
# Coordination Sequence:
#
# PCOD8251867 Si02
#       8
#     8   8   8   8   8   8   8   8
#     4  11  24  41  60  83 115 154 200 248 287 339
#     4  11  23  40  62  87 120 155 190 237 294 349
#     4  11  22  38  63  91 118 152 196 239 287 349
#     4  10  21  37  61  89 118 154 193 236 290 349
#     4  10  19  35  59  87 119 153 188 234 290 346
#     4  10  23  42  59  83 119 155 196 246 295 340
#     4   9  17  33  57  86 120 151 183 231 287 344
#     4  10  20  38  61  86 119 155 189 233 291 347
#
# _framework density 19.760649000000001
#
# number of rings (size 3 to 8) (size 9 to 14) (size 15 to 20)
#    0.000    1.750    2.500    1.875    0.000    4.500 
#    0.000    1.250    0.000    0.000    0.000    0.000 
#    0.000    0.000    0.000    0.000    0.000    0.000 
#
# Total GULP energy -793811.630382 kJ/mol
# GULP energy per Si atom -12403.306725 kJ/mol
# Density = 1.971567 g / cm^3
# Si number density = 19.760649 Si / 1000 Ang^3
#
#
#
# Elastic Constant Matrix: (Units=GPa)
#
#
# Indices 1 2 3 4 5 6 
#
# 1 84.7154 27.9374 25.9968 0.0000 0.0000 0.0000
# 2 27.9374 52.3533 29.6539 0.0000 0.0000 0.0000
# 3 25.9968 29.6539 124.3601 0.0000 0.0000 0.0000
# 4 0.0000 0.0000 0.0000 29.3629 0.0000 0.0000
# 5 0.0000 0.0000 0.0000 0.0000 9.8375 0.0000
# 6 0.0000 0.0000 0.0000 0.0000 0.0000 25.5016
#
#
#
# Elastic Compliance Matrix: (Units=1/GPa)
#
#
# Indices 1 2 3 4 5 6 
#
# 1 0.014525 -0.006973 -0.001374 0.000000 0.000000 0.000000
# 2 -0.006973 0.025431 -0.004606 0.000000 0.000000 0.000000
# 3 -0.001374 -0.004606 0.009427 0.000000 0.000000 0.000000
# 4 0.000000 0.000000 0.000000 0.034057 0.000000 0.000000
# 5 0.000000 0.000000 0.000000 0.000000 0.101652 0.000000
# 6 0.000000 0.000000 0.000000 0.000000 0.000000 0.039213
#
#
# Mechanical properties :
#
#
# Convention : Reuss Voigt Hill
#
# Bulk Modulus (GPa) = 42.59515 47.62278 45.10896
# Shear Modulus (GPa) = 19.37705 24.79645 22.08675
#
# Velocity S-wave (km/s) = 3.13483 3.54621 3.34685
# Velocity P-wave (km/s) = 5.89111 6.39685 6.14918
#
# Compressibility (1/GPa) = 0.02347685
#
# Stress axis : x y z
#
# Youngs Moduli (GPa) = 68.84503 39.32174 106.08125
#
# Poissons Ratio (x) = 0.27420 0.14572
# Poissons Ratio (y) = 0.48006 0.48866
# Poissons Ratio (z) = 0.09457 0.18113
#
# Static dielectric constant tensor:
#      x y z
#    x 3.591790 0.000000 0.000000 
#    y 0.000000 3.442510 0.000000 
#    z 0.000000 0.000000 3.713110 
# 
# 
# High freq. dielectric constant tensor:
#      x y z
#    x 1.766200 0.000000 0.000000 
#    y 0.000000 1.754940 0.000000 
#    z 0.000000 0.000000 1.784940 
# 
# From -- ./inp_files/20977.got.cif
#   From: 2010.03.12/outbox.cif.g09.slc.cpg/sg62_11_cif.got.tgz:20977.got - 2010.04.10 19:12:36.
