data_PCOD8251026
_publ_section_title
;
Structure prediction by ZEFSAII (Michael W. Deem and Ramdas Pophale) SiO2 
 PCOD8251026
Probable space group: P N M A
;
_chemical_formula_sum "Si O2"
_cell_formula_units_Z 56
_cell_length_a 20.948562
_cell_length_b 9.038288
_cell_length_c 14.797453
_cell_angle_alpha 90.000000
_cell_angle_beta 90.000000
_cell_angle_gamma 90.000000
_cell_volume 2801.736974
_symmetry_space_group_name_H-M "P N M A"
_symmetry_group_IT_number 62
_symmetry_cell_setting 'orthorhombic'
loop_
_space_group_symop_operation_xyz
x,y,z
1/2-x,-y,1/2+z
1/2+x,1/2-y,1/2-z
-x,1/2+y,-z
-x,-y,-z
1/2+x,y,1/2-z
1/2-x,1/2+y,1/2+z
x,1/2-y,z
loop_
_atom_site_type_symbol
_atom_site_label
_atom_site_fract_x
_atom_site_fract_y
_atom_site_fract_z
Si Si1 0.770214 0.573856 0.311078
Si Si2 0.042014 0.913352 0.068552
Si Si3 0.147042 0.912626 0.932431
Si Si4 0.242407 0.579690 0.501492
Si Si5 0.598451 0.921322 0.757538
Si Si6 0.970256 0.074143 0.730951
Si Si7 0.164565 0.577661 0.332130
O O1 0.777233 0.750000 0.305371
O O2 0.752758 0.527769 0.413157
O O3 0.837921 0.498632 0.292735
O O4 0.716492 0.512892 0.240256
O O5 0.012771 0.750000 0.075143
O O6 0.043290 0.982123 0.167580
O O7 0.113348 0.911771 0.029680
O O8 0.000000 0.000000 0.000000
O O9 0.178552 0.750000 0.915907
O O10 0.096723 0.943000 0.851332
O O11 0.198984 0.042451 0.934130
O O12 0.245211 0.750000 0.532494
O O13 0.181542 0.548398 0.437203
O O14 0.599395 0.750000 0.786593
O O15 0.535599 0.996068 0.802109
O O16 0.978606 0.250000 0.721165
O O17 0.907505 0.014640 0.678162
O O18 0.162496 0.750000 0.309387
#
# Coordination Sequence:
#
# PCOD8251026 Si02
#       7
#     8   8   8   8   8   8   8
#     4  11  22  41  65  89 120 160 201 243 302 362
#     4  10  19  31  50  78 113 150 190 232 289 356
#     4  10  20  35  55  81 118 156 190 236 295 354
#     4  11  22  38  61  90 117 149 200 253 297 347
#     4  11  22  37  58  87 121 154 196 246 292 347
#     4  10  20  36  58  82 114 158 199 239 296 362
#     4   9  20  39  62  86 118 155 197 245 296 357
#
# _framework density 19.9876
#
# number of rings (size 3 to 8) (size 9 to 14) (size 15 to 20)
#    0.000    1.714    2.857    2.143    0.000    3.429 
#    0.000    5.000    0.000    0.000    0.000    0.000 
#    0.000    0.000    0.000    0.000    0.000    0.000 
#
# Total GULP energy -694060.219196 kJ/mol
# GULP energy per Si atom -12393.932486 kJ/mol
# Density = 1.994211 g / cm^3
# Si number density = 19.987600 Si / 1000 Ang^3
#
#
#
# Elastic Constant Matrix: (Units=GPa)
#
#
# Indices 1 2 3 4 5 6 
#
# 1 126.9292 38.3448 14.4969 0.0000 0.0000 0.0000
# 2 38.3448 67.2461 17.2794 0.0000 0.0000 0.0000
# 3 14.4969 17.2794 48.3573 0.0000 0.0000 0.0000
# 4 0.0000 0.0000 0.0000 27.6174 0.0000 0.0000
# 5 0.0000 0.0000 0.0000 0.0000 28.8505 0.0000
# 6 0.0000 0.0000 0.0000 0.0000 0.0000 25.8769
#
#
#
# Elastic Compliance Matrix: (Units=1/GPa)
#
#
# Indices 1 2 3 4 5 6 
#
# 1 0.009563 -0.005193 -0.001011 0.000000 0.000000 0.000000
# 2 -0.005193 0.019194 -0.005302 0.000000 0.000000 0.000000
# 3 -0.001011 -0.005302 0.022877 0.000000 0.000000 0.000000
# 4 0.000000 0.000000 0.000000 0.036209 0.000000 0.000000
# 5 0.000000 0.000000 0.000000 0.000000 0.034661 0.000000
# 6 0.000000 0.000000 0.000000 0.000000 0.000000 0.038644
#
#
# Mechanical properties :
#
#
# Convention : Reuss Voigt Hill
#
# Bulk Modulus (GPa) = 34.93819 42.53053 38.73436
# Shear Modulus (GPa) = 25.81293 27.96308 26.88800
#
# Velocity S-wave (km/s) = 3.59757 3.74441 3.67172
# Velocity P-wave (km/s) = 5.89700 6.32604 6.11528
#
# Compressibility (1/GPa) = 0.02862197
#
# Stress axis : x y z
#
# Youngs Moduli (GPa) = 104.57326 52.09906 43.71198
#
# Poissons Ratio (x) = 0.27055 0.04420
# Poissons Ratio (y) = 0.54305 0.23175
# Poissons Ratio (z) = 0.10574 0.27622
#
# Static dielectric constant tensor:
#      x y z
#    x 3.699890 0.000000 0.000000 
#    y 0.000000 3.477150 0.000000 
#    z 0.000000 0.000000 3.689250 
# 
# 
# High freq. dielectric constant tensor:
#      x y z
#    x 1.781900 0.000000 0.000000 
#    y 0.000000 1.764110 0.000000 
#    z 0.000000 0.000000 1.769390 
# 
# From -- ./inp_files/20255.got.cif
#   From: 2010.03.12/outbox.cif.g09.slc.cpg/sg62_11_cif.got.tgz:20255.got - 2010.04.10 19:12:36.
