data_PCOD8251790
_publ_section_title
;
Structure prediction by ZEFSAII (Michael W. Deem and Ramdas Pophale) SiO2 
 PCOD8251790
Probable space group: P N M A
;
_chemical_formula_sum "Si O2"
_cell_formula_units_Z 56
_cell_length_a 20.013641
_cell_length_b 9.640712
_cell_length_c 15.035621
_cell_angle_alpha 90.000000
_cell_angle_beta 90.000000
_cell_angle_gamma 90.000000
_cell_volume 2901.059155
_symmetry_space_group_name_H-M "P N M A"
_symmetry_group_IT_number 62
_symmetry_cell_setting 'orthorhombic'
loop_
_space_group_symop_operation_xyz
x,y,z
1/2-x,-y,1/2+z
1/2+x,1/2-y,1/2-z
-x,1/2+y,-z
-x,-y,-z
1/2+x,y,1/2-z
1/2-x,1/2+y,1/2+z
x,1/2-y,z
loop_
_atom_site_type_symbol
_atom_site_label
_atom_site_fract_x
_atom_site_fract_y
_atom_site_fract_z
Si Si1 0.782951 0.913570 0.497298
Si Si2 0.367389 0.413160 0.507883
Si Si3 0.131007 0.403870 0.667751
Si Si4 0.077996 0.590181 0.816412
Si Si5 0.379574 0.592795 0.847616
Si Si6 0.074511 0.405439 0.161581
Si Si7 0.511016 0.903066 0.082241
O O1 0.781747 0.750000 0.489199
O O2 0.708078 0.972928 0.496122
O O3 0.824162 0.970890 0.411884
O O4 0.816328 0.953785 0.592534
O O5 0.367818 0.250000 0.527044
O O6 0.404645 0.450425 0.417134
O O7 0.407035 0.485826 0.586672
O O8 0.158027 0.250000 0.694713
O O9 0.128066 0.503848 0.752967
O O10 0.056567 0.386599 0.634685
O O11 0.094778 0.750000 0.797195
O O12 0.999580 0.558903 0.800393
O O13 0.401776 0.750000 0.876458
O O14 0.369504 0.589999 0.740658
O O15 0.435562 0.477663 0.857059
O O16 0.072771 0.250000 0.120665
O O17 0.536613 0.750000 0.053419
O O18 0.500000 0.000000 0.000000
#
# Coordination Sequence:
#
# PCOD8251790 Si02
#       7
#     8   8   8   8   8   8   8
#     4   9  19  37  56  79 112 152 185 215 275 343
#     4  10  22  39  58  77 108 151 192 229 270 333
#     4  10  20  34  56  83 111 147 183 222 277 334
#     4  10  21  37  58  86 111 140 186 237 282 323
#     4  10  19  35  57  80 112 147 180 226 282 337
#     4  10  21  36  58  85 112 141 182 237 287 323
#     4  11  20  31  52  83 114 145 182 226 280 333
#
# _framework density 19.303296
#
# number of rings (size 3 to 8) (size 9 to 14) (size 15 to 20)
#    0.000    2.000    2.857    0.857    0.000    3.429 
#    0.000    2.857    0.000    0.000    0.000    0.000 
#    0.000    0.000    0.000    0.000    0.000    0.000 
#
# Total GULP energy -694018.605123 kJ/mol
# GULP energy per Si atom -12393.189377 kJ/mol
# Density = 1.925936 g / cm^3
# Si number density = 19.303296 Si / 1000 Ang^3
#
#
#
# Elastic Constant Matrix: (Units=GPa)
#
#
# Indices 1 2 3 4 5 6 
#
# 1 62.8844 20.4814 27.4072 0.0000 0.0000 0.0000
# 2 20.4814 80.3200 49.4642 0.0000 0.0000 0.0000
# 3 27.4072 49.4642 119.3923 0.0000 0.0000 0.0000
# 4 0.0000 0.0000 0.0000 28.8194 0.0000 0.0000
# 5 0.0000 0.0000 0.0000 0.0000 15.3337 0.0000
# 6 0.0000 0.0000 0.0000 0.0000 0.0000 15.5614
#
#
#
# Elastic Compliance Matrix: (Units=1/GPa)
#
#
# Indices 1 2 3 4 5 6 
#
# 1 0.018116 -0.002764 -0.003014 0.000000 0.000000 0.000000
# 2 -0.002764 0.017136 -0.006465 0.000000 0.000000 0.000000
# 3 -0.003014 -0.006465 0.011746 0.000000 0.000000 0.000000
# 4 0.000000 0.000000 0.000000 0.034699 0.000000 0.000000
# 5 0.000000 0.000000 0.000000 0.000000 0.065216 0.000000
# 6 0.000000 0.000000 0.000000 0.000000 0.000000 0.064262
#
#
# Mechanical properties :
#
#
# Convention : Reuss Voigt Hill
#
# Bulk Modulus (GPa) = 44.41793 50.81135 47.61464
# Shear Modulus (GPa) = 20.56226 22.95916 21.76071
#
# Velocity S-wave (km/s) = 3.26731 3.45250 3.36118
# Velocity P-wave (km/s) = 6.10690 6.50175 6.30742
#
# Compressibility (1/GPa) = 0.02251343
#
# Stress axis : x y z
#
# Youngs Moduli (GPa) = 55.20061 58.35522 85.13473
#
# Poissons Ratio (x) = 0.16127 0.25656
# Poissons Ratio (y) = 0.15255 0.55042
# Poissons Ratio (z) = 0.16635 0.37728
#
# Static dielectric constant tensor:
#      x y z
#    x 3.744060 0.000000 0.000000 
#    y 0.000000 3.430470 0.000000 
#    z 0.000000 0.000000 3.556930 
# 
# 
# High freq. dielectric constant tensor:
#      x y z
#    x 1.735540 0.000000 0.000000 
#    y 0.000000 1.737730 0.000000 
#    z 0.000000 0.000000 1.755050 
# 
# From -- ./inp_files/20219.got.cif
#   From: 2010.03.12/outbox.cif.g09.slc.cpg/sg62_11_cif.got.tgz:20219.got - 2010.04.10 19:12:36.
