data_PCOD8251731
_publ_section_title
;
Structure prediction by ZEFSAII (Michael W. Deem and Ramdas Pophale) SiO2 
 PCOD8251731
Probable space group: P N M A
;
_chemical_formula_sum "Si O2"
_cell_formula_units_Z 56
_cell_length_a 14.686373
_cell_length_b 13.483789
_cell_length_c 14.886701
_cell_angle_alpha 90.000000
_cell_angle_beta 90.000000
_cell_angle_gamma 90.000000
_cell_volume 2947.982951
_symmetry_space_group_name_H-M "P N M A"
_symmetry_group_IT_number 62
_symmetry_cell_setting 'orthorhombic'
loop_
_space_group_symop_operation_xyz
x,y,z
1/2-x,-y,1/2+z
1/2+x,1/2-y,1/2-z
-x,1/2+y,-z
-x,-y,-z
1/2+x,y,1/2-z
1/2-x,1/2+y,1/2+z
x,1/2-y,z
loop_
_atom_site_type_symbol
_atom_site_label
_atom_site_fract_x
_atom_site_fract_y
_atom_site_fract_z
Si Si1 0.817862 0.863578 0.462106
Si Si2 0.670664 0.138036 0.760557
Si Si3 0.427444 0.365723 0.253964
Si Si4 0.641879 0.509090 0.443313
Si Si5 0.949137 0.958655 0.119698
Si Si6 0.091394 0.365563 0.363698
Si Si7 0.266416 0.558207 0.726227
O O1 0.799372 0.750000 0.486553
O O2 0.862465 0.875703 0.363704
O O3 0.887623 0.908927 0.536470
O O4 0.719448 0.913511 0.469051
O O5 0.707677 0.250000 0.744834
O O6 0.585193 0.117787 0.695536
O O7 0.750373 0.057168 0.743923
O O8 0.442245 0.250000 0.276253
O O9 0.440458 0.427673 0.345701
O O10 0.499847 0.409061 0.181125
O O11 0.328570 0.385151 0.212038
O O12 0.553462 0.566743 0.404150
O O13 0.613259 0.446564 0.531068
O O14 0.679199 0.434083 0.367362
O O15 0.074925 0.250000 0.370921
O O16 0.178789 0.387564 0.303310
#
# Coordination Sequence:
#
# PCOD8251731 Si02
#       7
#     8   8   8   8   8   8   8
#     4   9  18  33  55  78 104 142 187 227 269 329
#     4   9  19  35  54  77 107 145 186 230 273 323
#     4  10  20  35  59  86 113 146 184 231 288 338
#     4  10  20  34  54  80 109 151 186 225 276 330
#     4  10  20  36  55  79 114 144 186 232 275 329
#     4  10  19  34  59  86 111 143 185 231 280 336
#     4  10  19  35  56  80 116 145 183 230 278 325
#
# _framework density 18.996039
#
# number of rings (size 3 to 8) (size 9 to 14) (size 15 to 20)
#    0.000    2.286    1.429    2.143    0.000    2.286 
#    0.000   10.000    0.000    0.000    0.000    0.000 
#    0.000    0.000    0.000    0.000    0.000    0.000 
#
# Total GULP energy -694137.862071 kJ/mol
# GULP energy per Si atom -12395.318966 kJ/mol
# Density = 1.895280 g / cm^3
# Si number density = 18.996039 Si / 1000 Ang^3
#
#
#
# Elastic Constant Matrix: (Units=GPa)
#
#
# Indices 1 2 3 4 5 6 
#
# 1 100.7983 4.5691 50.3899 0.0000 0.0000 0.0000
# 2 4.5691 37.2440 0.8901 0.0000 0.0000 0.0000
# 3 50.3899 0.8901 109.8962 0.0000 0.0000 0.0000
# 4 0.0000 0.0000 0.0000 20.3409 0.0000 0.0000
# 5 0.0000 0.0000 0.0000 0.0000 38.8397 0.0000
# 6 0.0000 0.0000 0.0000 0.0000 0.0000 17.4814
#
#
#
# Elastic Compliance Matrix: (Units=1/GPa)
#
#
# Indices 1 2 3 4 5 6 
#
# 1 0.012949 -0.001447 -0.005926 0.000000 0.000000 0.000000
# 2 -0.001447 0.027017 0.000445 0.000000 0.000000 0.000000
# 3 -0.005926 0.000445 0.011813 0.000000 0.000000 0.000000
# 4 0.000000 0.000000 0.000000 0.049162 0.000000 0.000000
# 5 0.000000 0.000000 0.000000 0.000000 0.025747 0.000000
# 6 0.000000 0.000000 0.000000 0.000000 0.000000 0.057204
#
#
# Mechanical properties :
#
#
# Convention : Reuss Voigt Hill
#
# Bulk Modulus (GPa) = 26.36943 39.95962 33.16452
# Shear Modulus (GPa) = 23.76567 28.13834 25.95201
#
# Velocity S-wave (km/s) = 3.54091 3.85291 3.70020
# Velocity P-wave (km/s) = 5.53435 6.39333 5.97928
#
# Compressibility (1/GPa) = 0.03792270
#
# Stress axis : x y z
#
# Youngs Moduli (GPa) = 77.22842 37.01396 84.65338
#
# Poissons Ratio (x) = 0.05356 0.50161
# Poissons Ratio (y) = 0.11174 -0.03764
# Poissons Ratio (z) = 0.45762 -0.01646
#
# Static dielectric constant tensor:
#      x y z
#    x 3.534280 0.000000 0.000000 
#    y 0.000000 3.332290 0.000000 
#    z 0.000000 0.000000 3.770820 
# 
# 
# High freq. dielectric constant tensor:
#      x y z
#    x 1.735380 0.000000 0.000000 
#    y 0.000000 1.713710 0.000000 
#    z 0.000000 0.000000 1.749750 
# 
# From -- ./inp_files/19111.got.cif
#   From: 2010.03.12/outbox.cif.g09.slc.cpg/sg62_10_cif.got.tgz:19111.got - 2010.04.10 19:12:36.
