data_PCOD8251427
_publ_section_title
;
Structure prediction by ZEFSAII (Michael W. Deem and Ramdas Pophale) SiO2 
 PCOD8251427
Probable space group: P N M A
;
_chemical_formula_sum "Si O2"
_cell_formula_units_Z 64
_cell_length_a 25.604379
_cell_length_b 13.645672
_cell_length_c 9.100213
_cell_angle_alpha 90.000000
_cell_angle_beta 90.000000
_cell_angle_gamma 90.000000
_cell_volume 3179.513934
_symmetry_space_group_name_H-M "P N M A"
_symmetry_group_IT_number 62
_symmetry_cell_setting 'orthorhombic'
loop_
_space_group_symop_operation_xyz
x,y,z
1/2-x,-y,1/2+z
1/2+x,1/2-y,1/2-z
-x,1/2+y,-z
-x,-y,-z
1/2+x,y,1/2-z
1/2-x,1/2+y,1/2+z
x,1/2-y,z
loop_
_atom_site_type_symbol
_atom_site_label
_atom_site_fract_x
_atom_site_fract_y
_atom_site_fract_z
Si Si1 0.461833 0.472495 0.629963
Si Si2 0.693788 0.944867 0.771347
Si Si3 0.839660 0.052471 0.597561
Si Si4 0.900082 0.362130 0.090860
Si Si5 0.750572 0.638965 0.285811
Si Si6 0.498728 0.640702 0.795801
Si Si7 0.284017 0.858838 0.891378
Si Si8 0.545801 0.864249 0.101802
O O1 0.500000 0.500000 0.500000
O O2 0.410421 0.424391 0.558325
O O3 0.453661 0.572157 0.725075
O O4 0.485481 0.393300 0.748278
O O5 0.678719 0.916818 0.936038
O O6 0.648029 0.914134 0.664736
O O7 0.745528 0.881280 0.743144
O O8 0.705448 0.059932 0.736759
O O9 0.805588 0.111498 0.717556
O O10 0.900217 0.076254 0.615952
O O11 0.831935 0.935175 0.612231
O O12 0.886956 0.250000 0.048257
O O13 0.948877 0.365424 0.200248
O O14 0.766351 0.750000 0.238015
O O15 0.748150 0.631474 0.462470
O O16 0.475937 0.750000 0.798639
O O17 0.512362 0.603958 0.960159
O O18 0.307926 0.750000 0.876642
O O19 0.558398 0.750000 0.093003
#
# Coordination Sequence:
#
# PCOD8251427 Si02
#       8
#     8   8   8   8   8   8   8   8
#     4  10  22  38  56  80 113 143 173 224 288 345
#     4  10  19  33  54  80 110 150 191 232 278 325
#     4  10  20  34  54  83 114 145 189 237 277 320
#     4  10  19  33  55  83 110 140 183 232 276 328
#     4   9  19  34  51  75 112 152 189 230 276 328
#     4   9  19  37  59  81 107 138 176 225 285 339
#     4   9  19  34  53  76 113 155 188 224 276 333
#     4  11  21  35  60  88 109 140 185 235 279 331
#
# _framework density 20.128862000000002
#
# number of rings (size 3 to 8) (size 9 to 14) (size 15 to 20)
#    0.000    2.250    1.250    1.500    1.750    2.000 
#    0.000    1.250    0.000    3.000    0.000    0.000 
#    0.000    0.000    0.000    0.000    0.000    0.000 
#
# Total GULP energy -793109.573792 kJ/mol
# GULP energy per Si atom -12392.337091 kJ/mol
# Density = 2.008305 g / cm^3
# Si number density = 20.128862 Si / 1000 Ang^3
#
#
#
# Elastic Constant Matrix: (Units=GPa)
#
#
# Indices 1 2 3 4 5 6 
#
# 1 31.5044 35.6993 27.0219 0.0000 0.0000 0.0000
# 2 35.6993 141.2508 45.5518 0.0000 0.0000 0.0000
# 3 27.0219 45.5518 98.1190 0.0000 0.0000 0.0000
# 4 0.0000 0.0000 0.0000 35.8638 0.0000 0.0000
# 5 0.0000 0.0000 0.0000 0.0000 24.8108 0.0000
# 6 0.0000 0.0000 0.0000 0.0000 0.0000 25.3487
#
#
#
# Elastic Compliance Matrix: (Units=1/GPa)
#
#
# Indices 1 2 3 4 5 6 
#
# 1 0.051024 -0.009837 -0.009485 0.000000 0.000000 0.000000
# 2 -0.009837 0.010223 -0.002037 0.000000 0.000000 0.000000
# 3 -0.009485 -0.002037 0.013749 0.000000 0.000000 0.000000
# 4 0.000000 0.000000 0.000000 0.027883 0.000000 0.000000
# 5 0.000000 0.000000 0.000000 0.000000 0.040305 0.000000
# 6 0.000000 0.000000 0.000000 0.000000 0.000000 0.039450
#
#
# Mechanical properties :
#
#
# Convention : Reuss Voigt Hill
#
# Bulk Modulus (GPa) = 30.98052 54.15780 42.56916
# Shear Modulus (GPa) = 21.17651 28.04474 24.61063
#
# Velocity S-wave (km/s) = 3.24705 3.73669 3.50044
# Velocity P-wave (km/s) = 5.42976 6.75138 6.12631
#
# Compressibility (1/GPa) = 0.03227835
#
# Stress axis : x y z
#
# Youngs Moduli (GPa) = 19.59875 97.82290 72.72993
#
# Poissons Ratio (x) = 0.96226 0.68986
# Poissons Ratio (y) = 0.19279 0.14814
# Poissons Ratio (z) = 0.18590 0.19925
#
# Static dielectric constant tensor:
#      x y z
#    x 3.293890 0.000000 0.000000 
#    y 0.000000 4.036140 0.000000 
#    z 0.000000 0.000000 4.106070 
# 
# 
# High freq. dielectric constant tensor:
#      x y z
#    x 1.745020 0.000000 0.000000 
#    y 0.000000 1.798690 0.000000 
#    z 0.000000 0.000000 1.804040 
# 
# From -- ./inp_files/9523.got.cif
#   From: 2010.03.12/outbox.cif.g09.slc.cpg/sg62_5_cif.got.tgz:9523.got - 2010.04.10 19:12:36.
