data_PCOD8251132
_publ_section_title
;
Structure prediction by ZEFSAII (Michael W. Deem and Ramdas Pophale) SiO2 
 PCOD8251132
Probable space group: P N M A
;
_chemical_formula_sum "Si O2"
_cell_formula_units_Z 64
_cell_length_a 14.343430
_cell_length_b 8.940072
_cell_length_c 30.068694
_cell_angle_alpha 90.000000
_cell_angle_beta 90.000000
_cell_angle_gamma 90.000000
_cell_volume 3855.747629
_symmetry_space_group_name_H-M "P N M A"
_symmetry_group_IT_number 62
_symmetry_cell_setting 'orthorhombic'
loop_
_space_group_symop_operation_xyz
x,y,z
1/2-x,-y,1/2+z
1/2+x,1/2-y,1/2-z
-x,1/2+y,-z
-x,-y,-z
1/2+x,y,1/2-z
1/2-x,1/2+y,1/2+z
x,1/2-y,z
loop_
_atom_site_type_symbol
_atom_site_label
_atom_site_fract_x
_atom_site_fract_y
_atom_site_fract_z
Si Si1 0.218372 0.074938 0.712491
Si Si2 0.598060 0.424167 0.550879
Si Si3 0.996761 0.079299 0.175852
Si Si4 0.304767 0.421766 0.371550
Si Si5 0.011892 0.079466 0.733765
Si Si6 0.185368 0.578104 0.302287
Si Si7 0.661951 0.574095 0.368704
Si Si8 0.900279 0.923398 0.949929
O O1 0.239235 0.250000 0.712260
O O2 0.108861 0.036985 0.709865
O O3 0.266520 0.010619 0.757391
O O4 0.265794 0.007837 0.667885
O O5 0.582118 0.250000 0.560453
O O6 0.678200 0.489049 0.582732
O O7 0.501630 0.508163 0.559559
O O8 0.632096 0.451907 0.500374
O O9 0.030039 0.250000 0.169463
O O10 0.890691 0.057084 0.161702
O O11 0.006569 0.034985 0.226882
O O12 0.058080 0.968271 0.146428
O O13 0.286269 0.250000 0.383697
O O14 0.215697 0.487152 0.345824
O O15 0.016886 0.250000 0.752211
O O16 0.926624 0.062959 0.699561
O O17 0.216348 0.750000 0.308135
O O18 0.672741 0.750000 0.374428
O O19 0.676384 0.498203 0.417145
O O20 0.908485 0.750000 0.938529
#
# Coordination Sequence:
#
# PCOD8251132 Si02
#       8
#     8   8   8   8   8   8   8   8
#     4   9  18  31  49  73  96 124 168 207 237 284
#     4  10  20  33  51  71  97 132 165 198 241 296
#     4  11  21  30  44  69 100 131 164 205 245 286
#     4  11  22  33  47  71 102 132 165 204 246 289
#     4  10  19  34  51  68  96 131 168 210 243 284
#     4  10  19  32  51  71  94 130 170 203 242 290
#     4  11  20  32  50  72  97 134 171 199 241 292
#     4  10  20  33  48  73 102 128 161 202 246 290
#
# _framework density 16.598597000000002
#
# number of rings (size 3 to 8) (size 9 to 14) (size 15 to 20)
#    0.000    1.750    3.750    1.875    0.000    3.000 
#    0.000    1.250    0.000    0.000    0.000    0.875 
#    0.000    0.000    0.000    0.000    0.000    0.000 
#
# Total GULP energy -793608.900808 kJ/mol
# GULP energy per Si atom -12400.139075 kJ/mol
# Density = 1.656082 g / cm^3
# Si number density = 16.598597 Si / 1000 Ang^3
#
#
#
# Elastic Constant Matrix: (Units=GPa)
#
#
# Indices 1 2 3 4 5 6 
#
# 1 70.8756 26.6162 33.7081 0.0000 0.0000 0.0000
# 2 26.6162 68.1559 47.3174 0.0000 0.0000 0.0000
# 3 33.7081 47.3174 114.3130 0.0000 0.0000 0.0000
# 4 0.0000 0.0000 0.0000 29.1130 0.0000 0.0000
# 5 0.0000 0.0000 0.0000 0.0000 26.7131 0.0000
# 6 0.0000 0.0000 0.0000 0.0000 0.0000 15.9912
#
#
#
# Elastic Compliance Matrix: (Units=1/GPa)
#
#
# Indices 1 2 3 4 5 6 
#
# 1 0.017351 -0.004524 -0.003244 0.000000 0.000000 0.000000
# 2 -0.004524 0.021768 -0.007677 0.000000 0.000000 0.000000
# 3 -0.003244 -0.007677 0.012882 0.000000 0.000000 0.000000
# 4 0.000000 0.000000 0.000000 0.034349 0.000000 0.000000
# 5 0.000000 0.000000 0.000000 0.000000 0.037435 0.000000
# 6 0.000000 0.000000 0.000000 0.000000 0.000000 0.062535
#
#
# Mechanical properties :
#
#
# Convention : Reuss Voigt Hill
#
# Bulk Modulus (GPa) = 47.36471 52.06979 49.71725
# Shear Modulus (GPa) = 22.29700 24.07697 23.18698
#
# Velocity S-wave (km/s) = 3.66909 3.81273 3.74160
# Velocity P-wave (km/s) = 6.82253 7.12886 6.97738
#
# Compressibility (1/GPa) = 0.02111276
#
# Stress axis : x y z
#
# Youngs Moduli (GPa) = 57.63424 45.93817 77.62773
#
# Poissons Ratio (x) = 0.20782 0.25181
# Poissons Ratio (y) = 0.26073 0.59592
# Poissons Ratio (z) = 0.18695 0.35265
#
# Static dielectric constant tensor:
#      x y z
#    x 2.955970 0.000000 0.000000 
#    y 0.000000 3.103760 0.000000 
#    z 0.000000 0.000000 3.281640 
# 
# 
# High freq. dielectric constant tensor:
#      x y z
#    x 1.606790 0.000000 0.000000 
#    y 0.000000 1.638960 0.000000 
#    z 0.000000 0.000000 1.635700 
# 
# From -- ./inp_files/32699.got.cif
#   From: 2010.03.12/outbox.cif.g09.slc.cpg/sg62_17_cif.got.tgz:32699.got - 2010.04.10 19:12:36.
