data_PCOD8251082
_publ_section_title
;
Structure prediction by ZEFSAII (Michael W. Deem and Ramdas Pophale) SiO2 
 PCOD8251082
Probable space group: P N M A
;
_chemical_formula_sum "Si O2"
_cell_formula_units_Z 64
_cell_length_a 33.464934
_cell_length_b 8.731370
_cell_length_c 11.722813
_cell_angle_alpha 90.000000
_cell_angle_beta 90.000000
_cell_angle_gamma 90.000000
_cell_volume 3425.344071
_symmetry_space_group_name_H-M "P N M A"
_symmetry_group_IT_number 62
_symmetry_cell_setting 'orthorhombic'
loop_
_space_group_symop_operation_xyz
x,y,z
1/2-x,-y,1/2+z
1/2+x,1/2-y,1/2-z
-x,1/2+y,-z
-x,-y,-z
1/2+x,y,1/2-z
1/2-x,1/2+y,1/2+z
x,1/2-y,z
loop_
_atom_site_type_symbol
_atom_site_label
_atom_site_fract_x
_atom_site_fract_y
_atom_site_fract_z
Si Si1 0.173811 0.928038 0.399159
Si Si2 0.038932 0.573767 0.143525
Si Si3 0.665348 0.425742 0.463712
Si Si4 0.109835 0.074204 0.250565
Si Si5 0.627523 0.928713 0.679229
Si Si6 0.182450 0.072194 0.640434
Si Si7 0.049591 0.072503 0.901816
Si Si8 0.272158 0.426827 0.687593
O O1 0.173780 0.750000 0.431921
O O2 0.208421 0.969411 0.308798
O O3 0.130768 0.972440 0.347342
O O4 0.182814 0.030299 0.508163
O O5 0.050578 0.750000 0.158049
O O6 0.063864 0.477617 0.236586
O O7 0.991906 0.545086 0.165538
O O8 0.050562 0.525627 0.016261
O O9 0.667592 0.250000 0.502664
O O10 0.631129 0.453260 0.370451
O O11 0.655502 0.526728 0.573351
O O12 0.708096 0.473931 0.413105
O O13 0.111855 0.250000 0.288783
O O14 0.618397 0.750000 0.676725
O O15 0.649482 0.971307 0.796145
O O16 0.585674 0.019452 0.678283
O O17 0.171993 0.250000 0.655405
O O18 0.225542 0.034038 0.694471
O O19 0.054704 0.250000 0.935597
O O20 0.279974 0.250000 0.657985
#
# Coordination Sequence:
#
# PCOD8251082 Si02
#       8
#     8   8   8   8   8   8   8   8
#     4  10  21  39  59  82 112 146 191 238 280 332
#     4  10  19  31  53  84 116 151 187 230 281 335
#     4  10  20  34  55  82 113 147 185 230 279 332
#     4  10  19  33  56  83 113 150 187 228 280 334
#     4  12  24  37  56  82 114 154 193 231 283 339
#     4  11  24  41  59  82 112 149 191 234 287 339
#     4  10  20  34  52  80 118 153 188 231 282 337
#     4   9  21  39  59  83 111 145 184 233 283 333
#
# _framework density 18.684255
#
# number of rings (size 3 to 8) (size 9 to 14) (size 15 to 20)
#    0.000    1.750    1.250    3.375    1.750    4.000 
#    0.000    0.000    0.000    0.750    0.000    0.000 
#    0.000    0.000    0.000    0.000    0.000    0.000 
#
# Total GULP energy -793924.310953 kJ/mol
# GULP energy per Si atom -12405.067359 kJ/mol
# Density = 1.864173 g / cm^3
# Si number density = 18.684255 Si / 1000 Ang^3
#
#
#
# Elastic Constant Matrix: (Units=GPa)
#
#
# Indices 1 2 3 4 5 6 
#
# 1 111.2605 29.2854 36.1501 0.0000 0.0000 0.0000
# 2 29.2854 57.8635 17.5517 0.0000 0.0000 0.0000
# 3 36.1501 17.5517 68.9103 0.0000 0.0000 0.0000
# 4 0.0000 0.0000 0.0000 31.1291 0.0000 0.0000
# 5 0.0000 0.0000 0.0000 0.0000 23.1996 0.0000
# 6 0.0000 0.0000 0.0000 0.0000 0.0000 31.1030
#
#
#
# Elastic Compliance Matrix: (Units=1/GPa)
#
#
# Indices 1 2 3 4 5 6 
#
# 1 0.011800 -0.004437 -0.005060 0.000000 0.000000 0.000000
# 2 -0.004437 0.020398 -0.002868 0.000000 0.000000 0.000000
# 3 -0.005060 -0.002868 0.017896 0.000000 0.000000 0.000000
# 4 0.000000 0.000000 0.000000 0.032124 0.000000 0.000000
# 5 0.000000 0.000000 0.000000 0.000000 0.043104 0.000000
# 6 0.000000 0.000000 0.000000 0.000000 0.000000 0.032151
#
#
# Mechanical properties :
#
#
# Convention : Reuss Voigt Hill
#
# Bulk Modulus (GPa) = 39.42547 44.88986 42.15766
# Shear Modulus (GPa) = 26.22495 27.42282 26.82389
#
# Velocity S-wave (km/s) = 3.75051 3.83521 3.79310
# Velocity P-wave (km/s) = 6.31679 6.60980 6.46495
#
# Compressibility (1/GPa) = 0.02536432
#
# Stress axis : x y z
#
# Youngs Moduli (GPa) = 84.74630 49.02539 55.87691
#
# Poissons Ratio (x) = 0.21754 0.28274
# Poissons Ratio (y) = 0.37604 0.16023
# Poissons Ratio (z) = 0.42882 0.14059
#
# Static dielectric constant tensor:
#      x y z
#    x 3.585940 0.000000 0.000000 
#    y 0.000000 3.489750 0.000000 
#    z 0.000000 0.000000 3.148620 
# 
# 
# High freq. dielectric constant tensor:
#      x y z
#    x 1.730060 0.000000 0.000000 
#    y 0.000000 1.738910 0.000000 
#    z 0.000000 0.000000 1.695340 
# 
# From -- ./inp_files/15748.got.cif
#   From: 2010.03.12/outbox.cif.g09.slc.cpg/sg62_8_cif.got.tgz:15748.got - 2010.04.10 19:12:36.
