data_PCOD8251154
_publ_section_title
;
Structure prediction by ZEFSAII (Michael W. Deem and Ramdas Pophale) SiO2 
 PCOD8251154
Probable space group: P N M A
;
_chemical_formula_sum "Si O2"
_cell_formula_units_Z 64
_cell_length_a 19.921570
_cell_length_b 10.179500
_cell_length_c 17.714461
_cell_angle_alpha 90.000000
_cell_angle_beta 90.000000
_cell_angle_gamma 90.000000
_cell_volume 3592.344276
_symmetry_space_group_name_H-M "P N M A"
_symmetry_group_IT_number 62
_symmetry_cell_setting 'orthorhombic'
loop_
_space_group_symop_operation_xyz
x,y,z
1/2-x,-y,1/2+z
1/2+x,1/2-y,1/2-z
-x,1/2+y,-z
-x,-y,-z
1/2+x,y,1/2-z
1/2-x,1/2+y,1/2+z
x,1/2-y,z
loop_
_atom_site_type_symbol
_atom_site_label
_atom_site_fract_x
_atom_site_fract_y
_atom_site_fract_z
Si Si1 0.907443 0.397442 0.516267
Si Si2 0.018676 0.498319 0.624544
Si Si3 0.404947 0.891357 0.779189
Si Si4 0.839929 0.403304 0.130108
Si Si5 0.557947 0.896110 0.498724
Si Si6 0.436421 0.394495 0.669782
Si Si7 0.308868 0.898248 0.914020
Si Si8 0.418654 0.899577 0.272501
O O1 0.878262 0.250000 0.521145
O O2 0.968599 0.406220 0.576105
O O3 0.847800 0.501104 0.531407
O O4 0.933960 0.421274 0.431778
O O5 0.973305 0.597505 0.672896
O O6 0.064257 0.416612 0.683520
O O7 0.407562 0.750000 0.738191
O O8 0.340950 0.900088 0.831922
O O9 0.393801 0.002566 0.717230
O O10 0.842699 0.250000 0.155496
O O11 0.886589 0.433244 0.059051
O O12 0.767037 0.443499 0.099585
O O13 0.862114 0.496396 0.200024
O O14 0.528872 0.750000 0.514541
O O15 0.590098 0.900706 0.415431
O O16 0.500000 0.000000 0.500000
O O17 0.423727 0.250000 0.704624
O O18 0.515620 0.427199 0.676232
O O19 0.312814 0.750000 0.948646
O O20 0.392995 0.750000 0.284485
#
# Coordination Sequence:
#
# PCOD8251154 Si02
#       8
#     8   8   8   8   8   8   8   8
#     4  10  19  33  56  81 105 138 178 216 256 311
#     4   9  19  32  51  81 113 132 162 216 269 306
#     4   9  17  31  52  74  99 133 171 206 249 306
#     4  10  21  36  54  73 101 141 177 213 259 313
#     4  10  19  33  52  76 102 131 167 213 264 308
#     4   9  18  31  48  74 105 127 156 208 261 303
#     4   9  20  37  52  71 103 142 177 212 258 310
#     4  10  19  32  51  76 105 133 164 210 261 306
#
# _framework density 17.815664999999999
#
# number of rings (size 3 to 8) (size 9 to 14) (size 15 to 20)
#    0.000    2.500    1.250    0.750    0.000   10.000 
#    0.000    1.250    0.000    3.000    0.000    0.000 
#    0.000    0.000    0.000    0.000    0.000    0.000 
#
# Total GULP energy -793321.424593 kJ/mol
# GULP energy per Si atom -12395.647259 kJ/mol
# Density = 1.777512 g / cm^3
# Si number density = 17.815665 Si / 1000 Ang^3
#
#
#
# Elastic Constant Matrix: (Units=GPa)
#
#
# Indices 1 2 3 4 5 6 
#
# 1 87.0384 54.9016 34.7756 0.0000 0.0000 0.0000
# 2 54.9016 123.1370 45.4642 0.0000 0.0000 0.0000
# 3 34.7756 45.4642 87.3520 0.0000 0.0000 0.0000
# 4 0.0000 0.0000 0.0000 25.6023 0.0000 0.0000
# 5 0.0000 0.0000 0.0000 0.0000 16.6616 0.0000
# 6 0.0000 0.0000 0.0000 0.0000 0.0000 20.0892
#
#
#
# Elastic Compliance Matrix: (Units=1/GPa)
#
#
# Indices 1 2 3 4 5 6 
#
# 1 0.016785 -0.006210 -0.003450 0.000000 0.000000 0.000000
# 2 -0.006210 0.012350 -0.003956 0.000000 0.000000 0.000000
# 3 -0.003450 -0.003956 0.014880 0.000000 0.000000 0.000000
# 4 0.000000 0.000000 0.000000 0.039059 0.000000 0.000000
# 5 0.000000 0.000000 0.000000 0.000000 0.060018 0.000000
# 6 0.000000 0.000000 0.000000 0.000000 0.000000 0.049778
#
#
# Mechanical properties :
#
#
# Convention : Reuss Voigt Hill
#
# Bulk Modulus (GPa) = 59.58090 63.09002 61.33546
# Shear Modulus (GPa) = 22.15369 23.29637 22.72503
#
# Velocity S-wave (km/s) = 3.53015 3.62005 3.57538
# Velocity P-wave (km/s) = 7.08036 7.27753 7.17962
#
# Compressibility (1/GPa) = 0.01678390
#
# Stress axis : x y z
#
# Youngs Moduli (GPa) = 59.57863 80.97021 67.20278
#
# Poissons Ratio (x) = 0.50280 0.23186
# Poissons Ratio (y) = 0.36996 0.26584
# Poissons Ratio (z) = 0.20555 0.32030
#
# Static dielectric constant tensor:
#      x y z
#    x 3.096700 0.000000 0.000000 
#    y 0.000000 3.452000 0.000000 
#    z 0.000000 0.000000 3.428200 
# 
# 
# High freq. dielectric constant tensor:
#      x y z
#    x 1.656690 0.000000 0.000000 
#    y 0.000000 1.700020 0.000000 
#    z 0.000000 0.000000 1.685280 
# 
# From -- ./inp_files/24812.got.cif
#   From: 2010.03.12/outbox.cif.g09.slc.cpg/sg62_13_cif.got.tgz:24812.got - 2010.04.10 19:12:36.
