data_PCOD8251116
_publ_section_title
;
Structure prediction by ZEFSAII (Michael W. Deem and Ramdas Pophale) SiO2 
 PCOD8251116
Probable space group: P N M A
;
_chemical_formula_sum "Si O2"
_cell_formula_units_Z 64
_cell_length_a 9.885916
_cell_length_b 12.585294
_cell_length_c 24.663197
_cell_angle_alpha 90.000000
_cell_angle_beta 90.000000
_cell_angle_gamma 90.000000
_cell_volume 3068.524910
_symmetry_space_group_name_H-M "P N M A"
_symmetry_group_IT_number 62
_symmetry_cell_setting 'orthorhombic'
loop_
_space_group_symop_operation_xyz
x,y,z
1/2-x,-y,1/2+z
1/2+x,1/2-y,1/2-z
-x,1/2+y,-z
-x,-y,-z
1/2+x,y,1/2-z
1/2-x,1/2+y,1/2+z
x,1/2-y,z
loop_
_atom_site_type_symbol
_atom_site_label
_atom_site_fract_x
_atom_site_fract_y
_atom_site_fract_z
Si Si1 0.179690 0.130060 0.733522
Si Si2 0.438573 0.504899 0.729826
Si Si3 0.406836 0.571889 0.844479
Si Si4 0.414484 0.622427 0.616932
Si Si5 0.976701 0.867685 0.374679
Si Si6 0.632682 0.871401 0.925201
Si Si7 0.913335 0.877684 0.493686
Si Si8 0.692283 0.870237 0.574088
O O1 0.171966 0.250000 0.756914
O O2 0.332600 0.090783 0.736073
O O3 0.085599 0.050867 0.768493
O O4 0.138383 0.129231 0.670507
O O5 0.417444 0.587276 0.779894
O O6 0.418787 0.572350 0.676293
O O7 0.401043 0.445007 0.857946
O O8 0.542470 0.619898 0.871022
O O9 0.273488 0.625796 0.868765
O O10 0.416369 0.750000 0.623518
O O11 0.280930 0.579421 0.585955
O O12 0.544083 0.578591 0.582919
O O13 0.037542 0.750000 0.382980
O O14 0.907487 0.909984 0.430481
O O15 0.656971 0.750000 0.939768
O O16 0.551636 0.923113 0.976968
O O17 0.914248 0.750000 0.500851
O O18 0.781754 0.923773 0.526032
O O19 0.666207 0.750000 0.557613
#
# Coordination Sequence:
#
# PCOD8251116 Si02
#       8
#     8   8   8   8   8   8   8   8
#     4  10  21  37  57  77 100 131 171 218 264 306
#     4  11  21  35  53  76 103 136 173 210 254 303
#     4  10  19  32  50  72  98 129 167 212 249 290
#     4  10  20  33  49  74 109 143 169 200 247 305
#     4   9  18  32  53  79  99 123 168 219 261 302
#     4   9  18  32  51  75 102 134 171 205 242 295
#     4   8  15  31  54  75  97 128 168 212 253 299
#     4   9  18  31  48  72 102 133 164 199 245 301
#
# _framework density 20.856928
#
# number of rings (size 3 to 8) (size 9 to 14) (size 15 to 20)
#    0.000    2.500    0.000    3.750    0.000    3.500 
#    0.000    3.125    0.000    9.750    0.000   17.500 
#    0.000    0.000    0.000    0.000    0.000    0.000 
#
# Total GULP energy -793291.293492 kJ/mol
# GULP energy per Si atom -12395.176461 kJ/mol
# Density = 2.080946 g / cm^3
# Si number density = 20.856928 Si / 1000 Ang^3
#
#
#
# Elastic Constant Matrix: (Units=GPa)
#
#
# Indices 1 2 3 4 5 6 
#
# 1 142.9850 11.0340 42.4431 0.0000 0.0000 0.0000
# 2 11.0340 37.2768 9.0133 0.0000 0.0000 0.0000
# 3 42.4431 9.0133 108.9364 0.0000 0.0000 0.0000
# 4 0.0000 0.0000 0.0000 25.6370 0.0000 0.0000
# 5 0.0000 0.0000 0.0000 0.0000 18.2469 0.0000
# 6 0.0000 0.0000 0.0000 0.0000 0.0000 29.5951
#
#
#
# Elastic Compliance Matrix: (Units=1/GPa)
#
#
# Indices 1 2 3 4 5 6 
#
# 1 0.008006 -0.001649 -0.002983 0.000000 0.000000 0.000000
# 2 -0.001649 0.027713 -0.001651 0.000000 0.000000 0.000000
# 3 -0.002983 -0.001651 0.010478 0.000000 0.000000 0.000000
# 4 0.000000 0.000000 0.000000 0.039006 0.000000 0.000000
# 5 0.000000 0.000000 0.000000 0.000000 0.054804 0.000000
# 6 0.000000 0.000000 0.000000 0.000000 0.000000 0.033789
#
#
# Mechanical properties :
#
#
# Convention : Reuss Voigt Hill
#
# Bulk Modulus (GPa) = 29.73205 46.01989 37.87597
# Shear Modulus (GPa) = 25.30703 29.80965 27.55834
#
# Velocity S-wave (km/s) = 3.48712 3.78464 3.63892
# Velocity P-wave (km/s) = 5.52263 6.41953 5.98790
#
# Compressibility (1/GPa) = 0.03363374
#
# Stress axis : x y z
#
# Youngs Moduli (GPa) = 124.89963 36.08355 95.43386
#
# Poissons Ratio (x) = 0.05949 0.28468
# Poissons Ratio (y) = 0.20591 0.15753
# Poissons Ratio (z) = 0.37258 0.05956
#
# Static dielectric constant tensor:
#      x y z
#    x 3.894420 0.000000 0.000000 
#    y 0.000000 3.916610 0.000000 
#    z 0.000000 0.000000 3.868580 
# 
# 
# High freq. dielectric constant tensor:
#      x y z
#    x 1.805250 0.000000 0.000000 
#    y 0.000000 1.819270 0.000000 
#    z 0.000000 0.000000 1.811970 
# 
# From -- ./inp_files/28993.got.cif
#   From: 2010.03.12/outbox.cif.g09.slc.cpg/sg62_15_cif.got.tgz:28993.got - 2010.04.10 19:12:36.
