data_PCOD8251709
_publ_section_title
;
Structure prediction by ZEFSAII (Michael W. Deem and Ramdas Pophale) SiO2 
 PCOD8251709
Probable space group: P N M A
;
_chemical_formula_sum "Si O2"
_cell_formula_units_Z 56
_cell_length_a 13.158065
_cell_length_b 20.717458
_cell_length_c 11.081850
_cell_angle_alpha 90.000000
_cell_angle_beta 90.000000
_cell_angle_gamma 90.000000
_cell_volume 3020.930695
_symmetry_space_group_name_H-M "P N M A"
_symmetry_group_IT_number 62
_symmetry_cell_setting 'orthorhombic'
loop_
_space_group_symop_operation_xyz
x,y,z
1/2-x,-y,1/2+z
1/2+x,1/2-y,1/2-z
-x,1/2+y,-z
-x,-y,-z
1/2+x,y,1/2-z
1/2-x,1/2+y,1/2+z
x,1/2-y,z
loop_
_atom_site_type_symbol
_atom_site_label
_atom_site_fract_x
_atom_site_fract_y
_atom_site_fract_z
Si Si1 0.391911 0.920366 0.330072
Si Si2 0.741684 0.402033 0.887658
Si Si3 0.798322 0.605799 0.812785
Si Si4 0.905583 0.473812 0.747117
Si Si5 0.313770 0.324197 0.401169
Si Si6 0.711036 0.969588 0.019913
Si Si7 0.957577 0.824488 0.965314
O O1 0.335095 0.883930 0.220357
O O2 0.475597 0.968602 0.274896
O O3 0.315027 0.967140 0.401570
O O4 0.440365 0.866500 0.415215
O O5 0.849685 0.423591 0.834462
O O6 0.694961 0.459692 0.966667
O O7 0.759140 0.339956 0.971672
O O8 0.866927 0.545810 0.771878
O O9 0.733812 0.632448 0.702911
O O10 0.717192 0.583769 0.914624
O O11 0.872579 0.660482 0.865032
O O12 0.884004 0.454674 0.607620
O O13 0.293865 0.250000 0.370548
O O14 0.432928 0.340247 0.408798
O O15 0.949759 0.750000 0.003229
#
# Coordination Sequence:
#
# PCOD8251709 Si02
#       7
#     8   8   8   8   8   8   8
#     4  10  21  35  59  83 110 151 186 236 284 334
#     4  10  20  35  54  86 112 140 188 230 281 334
#     4  10  21  35  59  84 114 150 182 233 279 345
#     4  10  19  34  58  84 114 143 182 231 286 342
#     4  11  22  39  59  80 113 152 190 235 278 336
#     4   9  20  35  54  85 117 142 180 235 286 336
#     4  10  22  39  60  80 108 152 197 229 275 342
#
# _framework density 18.537333
#
# number of rings (size 3 to 8) (size 9 to 14) (size 15 to 20)
#    0.000    2.000    2.857    0.429    2.000    2.857 
#    2.571    0.000    0.000    0.857    0.000    0.000 
#    0.000    0.000    0.000    0.000    0.000    0.000 
#
# Total GULP energy -694453.358751 kJ/mol
# GULP energy per Si atom -12400.952835 kJ/mol
# Density = 1.849514 g / cm^3
# Si number density = 18.537333 Si / 1000 Ang^3
#
#
#
# Elastic Constant Matrix: (Units=GPa)
#
#
# Indices 1 2 3 4 5 6 
#
# 1 71.3785 33.8217 33.7109 0.0000 0.0000 0.0000
# 2 33.8217 63.5885 27.3961 0.0000 0.0000 0.0000
# 3 33.7109 27.3961 95.5684 0.0000 0.0000 0.0000
# 4 0.0000 0.0000 0.0000 21.8264 0.0000 0.0000
# 5 0.0000 0.0000 0.0000 0.0000 24.6307 0.0000
# 6 0.0000 0.0000 0.0000 0.0000 0.0000 23.6807
#
#
#
# Elastic Compliance Matrix: (Units=1/GPa)
#
#
# Indices 1 2 3 4 5 6 
#
# 1 0.020401 -0.008843 -0.004661 0.000000 0.000000 0.000000
# 2 -0.008843 0.021775 -0.003123 0.000000 0.000000 0.000000
# 3 -0.004661 -0.003123 0.013003 0.000000 0.000000 0.000000
# 4 0.000000 0.000000 0.000000 0.045816 0.000000 0.000000
# 5 0.000000 0.000000 0.000000 0.000000 0.040600 0.000000
# 6 0.000000 0.000000 0.000000 0.000000 0.000000 0.042229
#
#
# Mechanical properties :
#
#
# Convention : Reuss Voigt Hill
#
# Bulk Modulus (GPa) = 45.60970 46.71030 46.16000
# Shear Modulus (GPa) = 22.28295 23.06800 22.67548
#
# Velocity S-wave (km/s) = 3.47083 3.53144 3.50127
# Velocity P-wave (km/s) = 6.38121 6.47154 6.42653
#
# Compressibility (1/GPa) = 0.02192516
#
# Stress axis : x y z
#
# Youngs Moduli (GPa) = 49.01613 45.92434 76.90403
#
# Poissons Ratio (x) = 0.40610 0.35849
# Poissons Ratio (y) = 0.43344 0.24016
# Poissons Ratio (z) = 0.22849 0.14341
#
# Static dielectric constant tensor:
#      x y z
#    x 3.352430 0.000000 0.000000 
#    y 0.000000 3.188020 0.000000 
#    z 0.000000 0.000000 3.654850 
# 
# 
# High freq. dielectric constant tensor:
#      x y z
#    x 1.713640 0.000000 0.000000 
#    y 0.000000 1.700550 0.000000 
#    z 0.000000 0.000000 1.735180 
# 
# From -- ./inp_files/12424.got.cif
#   From: 2010.03.12/outbox.cif.g09.slc.cpg/sg62_7_cif.got.tgz:12424.got - 2010.04.10 19:12:36.
