data_PCOD8251898
_publ_section_title
;
Structure prediction by ZEFSAII (Michael W. Deem and Ramdas Pophale) SiO2 
 PCOD8251898
Probable space group: P N M A
;
_chemical_formula_sum "Si O2"
_cell_formula_units_Z 64
_cell_length_a 15.544275
_cell_length_b 10.920931
_cell_length_c 19.029448
_cell_angle_alpha 90.000000
_cell_angle_beta 90.000000
_cell_angle_gamma 90.000000
_cell_volume 3230.400172
_symmetry_space_group_name_H-M "P N M A"
_symmetry_group_IT_number 62
_symmetry_cell_setting 'orthorhombic'
loop_
_space_group_symop_operation_xyz
x,y,z
1/2-x,-y,1/2+z
1/2+x,1/2-y,1/2-z
-x,1/2+y,-z
-x,-y,-z
1/2+x,y,1/2-z
1/2-x,1/2+y,1/2+z
x,1/2-y,z
loop_
_atom_site_type_symbol
_atom_site_label
_atom_site_fract_x
_atom_site_fract_y
_atom_site_fract_z
Si Si1 0.571293 0.605521 0.609290
Si Si2 0.988321 0.476465 0.614068
Si Si3 0.185084 0.615545 0.336128
Si Si4 0.612176 0.387824 0.999105
Si Si5 0.280820 0.530727 0.465820
Si Si6 0.115946 0.388425 0.094955
Si Si7 0.411750 0.110728 0.232778
Si Si8 0.283605 0.606552 0.729398
O O1 0.575292 0.750000 0.607566
O O2 0.647301 0.564254 0.558773
O O3 0.478681 0.552332 0.582822
O O4 0.585533 0.556960 0.688438
O O5 0.911807 0.384611 0.634292
O O6 0.952801 0.581494 0.562446
O O7 0.064406 0.403971 0.575231
O O8 0.023973 0.534122 0.685234
O O9 0.198306 0.750000 0.298652
O O10 0.251904 0.614843 0.400977
O O11 0.199669 0.492025 0.291035
O O12 0.642325 0.250000 0.008102
O O13 0.698214 0.466711 0.000656
O O14 0.323868 0.609492 0.527106
O O15 0.098972 0.250000 0.116099
O O16 0.161415 0.444434 0.163914
O O17 0.444630 0.250000 0.231590
O O18 0.314840 0.100547 0.204538
O O19 0.304024 0.750000 0.752194
#
# Coordination Sequence:
#
# PCOD8251898 Si02
#       8
#     8   8   8   8   8   8   8   8
#     4  10  20  35  57  85 115 148 194 253 299 344
#     4  10  21  36  58  84 116 155 193 241 298 360
#     4  11  23  39  60  86 123 162 195 240 302 365
#     4  10  21  36  56  85 116 150 196 245 298 354
#     4  11  21  37  60  82 117 156 197 241 297 359
#     4  10  21  37  59  85 113 150 200 251 295 344
#     4  10  19  35  60  88 115 148 199 251 296 348
#     4  10  21  39  64  90 117 155 202 250 295 351
#
# _framework density 19.811786999999999
#
# number of rings (size 3 to 8) (size 9 to 14) (size 15 to 20)
#    0.000    1.750    1.250    3.375    0.000    3.500 
#    0.000    7.500    0.000    2.250    0.000    0.000 
#    0.000    0.000    0.000    0.000    0.000    0.000 
#
# Total GULP energy -793262.943252 kJ/mol
# GULP energy per Si atom -12394.733488 kJ/mol
# Density = 1.976669 g / cm^3
# Si number density = 19.811787 Si / 1000 Ang^3
#
#
#
# Elastic Constant Matrix: (Units=GPa)
#
#
# Indices 1 2 3 4 5 6 
#
# 1 121.2313 22.2549 35.6971 0.0000 0.0000 0.0000
# 2 22.2549 80.5101 27.7741 0.0000 0.0000 0.0000
# 3 35.6971 27.7741 86.6620 0.0000 0.0000 0.0000
# 4 0.0000 0.0000 0.0000 24.1599 0.0000 0.0000
# 5 0.0000 0.0000 0.0000 0.0000 42.1348 0.0000
# 6 0.0000 0.0000 0.0000 0.0000 0.0000 15.4102
#
#
#
# Elastic Compliance Matrix: (Units=1/GPa)
#
#
# Indices 1 2 3 4 5 6 
#
# 1 0.009533 -0.001440 -0.003466 0.000000 0.000000 0.000000
# 2 -0.001440 0.014182 -0.003952 0.000000 0.000000 0.000000
# 3 -0.003466 -0.003952 0.014233 0.000000 0.000000 0.000000
# 4 0.000000 0.000000 0.000000 0.041391 0.000000 0.000000
# 5 0.000000 0.000000 0.000000 0.000000 0.023733 0.000000
# 6 0.000000 0.000000 0.000000 0.000000 0.000000 0.064892
#
#
# Mechanical properties :
#
#
# Convention : Reuss Voigt Hill
#
# Bulk Modulus (GPa) = 49.42187 51.09506 50.25847
# Shear Modulus (GPa) = 25.98420 29.85280 27.91850
#
# Velocity S-wave (km/s) = 3.62546 3.88599 3.75799
# Velocity P-wave (km/s) = 6.52113 6.78091 6.65229
#
# Compressibility (1/GPa) = 0.02023396
#
# Stress axis : x y z
#
# Youngs Moduli (GPa) = 104.89406 70.51097 70.25837
#
# Poissons Ratio (x) = 0.10152 0.24348
# Poissons Ratio (y) = 0.15102 0.27767
# Poissons Ratio (z) = 0.36351 0.27867
#
# Static dielectric constant tensor:
#      x y z
#    x 3.916490 0.000000 0.000000 
#    y 0.000000 3.308050 0.000000 
#    z 0.000000 0.000000 3.570050 
# 
# 
# High freq. dielectric constant tensor:
#      x y z
#    x 1.794100 0.000000 0.000000 
#    y 0.000000 1.746430 0.000000 
#    z 0.000000 0.000000 1.768350 
# 
# From -- ./inp_files/24008.got.cif
#   From: 2010.03.12/outbox.cif.g09.slc.cpg/sg62_13_cif.got.tgz:24008.got - 2010.04.10 19:12:36.
