data_PCOD8251505
_publ_section_title
;
Structure prediction by ZEFSAII (Michael W. Deem and Ramdas Pophale) SiO2 
 PCOD8251505
Probable space group: P N M A
;
_chemical_formula_sum "Si O2"
_cell_formula_units_Z 64
_cell_length_a 19.255660
_cell_length_b 9.041563
_cell_length_c 19.886741
_cell_angle_alpha 90.000000
_cell_angle_beta 90.000000
_cell_angle_gamma 90.000000
_cell_volume 3462.306725
_symmetry_space_group_name_H-M "P N M A"
_symmetry_group_IT_number 62
_symmetry_cell_setting 'orthorhombic'
loop_
_space_group_symop_operation_xyz
x,y,z
1/2-x,-y,1/2+z
1/2+x,1/2-y,1/2-z
-x,1/2+y,-z
-x,-y,-z
1/2+x,y,1/2-z
1/2-x,1/2+y,1/2+z
x,1/2-y,z
loop_
_atom_site_type_symbol
_atom_site_label
_atom_site_fract_x
_atom_site_fract_y
_atom_site_fract_z
Si Si1 0.673393 0.581976 0.911930
Si Si2 0.606485 0.577909 0.319895
Si Si3 0.565482 0.576549 0.466891
Si Si4 0.571766 0.923446 0.174966
Si Si5 0.243771 0.081057 0.216925
Si Si6 0.295777 0.923250 0.488020
Si Si7 0.467504 0.574525 0.064574
Si Si8 0.273819 0.075468 0.849130
O O1 0.651505 0.750000 0.930429
O O2 0.691247 0.567907 0.833306
O O3 0.612077 0.470753 0.928779
O O4 0.739992 0.535299 0.955452
O O5 0.627064 0.750000 0.316792
O O6 0.563524 0.540989 0.387057
O O7 0.561171 0.534471 0.253741
O O8 0.677421 0.487322 0.320378
O O9 0.500000 0.500000 0.500000
O O10 0.561487 0.750000 0.480635
O O11 0.635066 0.515490 0.500247
O O12 0.570827 0.750000 0.164893
O O13 0.509810 0.988354 0.129428
O O14 0.646557 0.982831 0.149218
O O15 0.226487 0.250000 0.233858
O O16 0.264456 0.997283 0.285302
O O17 0.314022 0.750000 0.489543
O O18 0.265051 0.973029 0.416404
O O19 0.472522 0.750000 0.057561
O O20 0.500000 0.500000 0.000000
O O21 0.271782 0.250000 0.838996
#
# Coordination Sequence:
#
# PCOD8251505 Si02
#       8
#     8   8   8   8   8   8   8   8
#     4  10  21  37  57  80 112 149 185 228 278 334
#     4   9  18  36  60  80 105 143 189 230 271 332
#     4  11  23  38  59  84 113 145 185 238 288 343
#     4   8  16  34  57  80 107 145 190 228 266 322
#     4  10  19  33  56  82 111 142 178 230 282 328
#     4  10  20  38  61  83 111 150 190 228 279 337
#     4  11  22  36  56  81 113 149 189 234 280 334
#     4   9  18  34  58  82 109 146 187 228 271 332
#
# _framework density 18.484786
#
# number of rings (size 3 to 8) (size 9 to 14) (size 15 to 20)
#    0.000    2.250    1.250    2.625    0.000    4.500 
#    2.250    7.500    0.000    0.000    0.000    0.000 
#    0.000    0.000    0.000    0.000    0.000    0.000 
#
# Total GULP energy -793571.274268 kJ/mol
# GULP energy per Si atom -12399.551160 kJ/mol
# Density = 1.844271 g / cm^3
# Si number density = 18.484786 Si / 1000 Ang^3
#
#
#
# Elastic Constant Matrix: (Units=GPa)
#
#
# Indices 1 2 3 4 5 6 
#
# 1 110.4832 46.6325 70.1412 0.0000 0.0000 0.0000
# 2 46.6325 67.7078 50.8082 0.0000 0.0000 0.0000
# 3 70.1412 50.8082 147.9416 0.0000 0.0000 0.0000
# 4 0.0000 0.0000 0.0000 30.8253 0.0000 0.0000
# 5 0.0000 0.0000 0.0000 0.0000 30.2635 0.0000
# 6 0.0000 0.0000 0.0000 0.0000 0.0000 32.3681
#
#
#
# Elastic Compliance Matrix: (Units=1/GPa)
#
#
# Indices 1 2 3 4 5 6 
#
# 1 0.014900 -0.006683 -0.004769 0.000000 0.000000 0.000000
# 2 -0.006683 0.022895 -0.004694 0.000000 0.000000 0.000000
# 3 -0.004769 -0.004694 0.010633 0.000000 0.000000 0.000000
# 4 0.000000 0.000000 0.000000 0.032441 0.000000 0.000000
# 5 0.000000 0.000000 0.000000 0.000000 0.033043 0.000000
# 6 0.000000 0.000000 0.000000 0.000000 0.000000 0.030895
#
#
# Mechanical properties :
#
#
# Convention : Reuss Voigt Hill
#
# Bulk Modulus (GPa) = 61.97965 73.47737 67.72851
# Shear Modulus (GPa) = 27.40081 29.26142 28.33112
#
# Velocity S-wave (km/s) = 3.85430 3.98301 3.91918
# Velocity P-wave (km/s) = 7.30824 7.80954 7.56305
#
# Compressibility (1/GPa) = 0.01613433
#
# Stress axis : x y z
#
# Youngs Moduli (GPa) = 67.11624 43.67788 94.05065
#
# Poissons Ratio (x) = 0.29191 0.44851
# Poissons Ratio (y) = 0.44855 0.44150
# Poissons Ratio (z) = 0.32007 0.20504
#
# Static dielectric constant tensor:
#      x y z
#    x 3.333180 0.000000 0.000000 
#    y 0.000000 3.346100 0.000000 
#    z 0.000000 0.000000 3.699690 
# 
# 
# High freq. dielectric constant tensor:
#      x y z
#    x 1.701040 0.000000 0.000000 
#    y 0.000000 1.707230 0.000000 
#    z 0.000000 0.000000 1.734690 
# 
# From -- ./inp_files/27759.got.cif
#   From: 2010.03.12/outbox.cif.g09.slc.cpg/sg62_14_cif.got.tgz:27759.got - 2010.04.10 19:12:36.
