data_PCOD8251922
_publ_section_title
;
Structure prediction by ZEFSAII (Michael W. Deem and Ramdas Pophale) SiO2 
 PCOD8251922
Probable space group: P N M A
;
_chemical_formula_sum "Si O2"
_cell_formula_units_Z 24
_cell_length_a 27.054555
_cell_length_b 5.316958
_cell_length_c 7.054667
_cell_angle_alpha 90.000000
_cell_angle_beta 90.000000
_cell_angle_gamma 90.000000
_cell_volume 1014.799263
_symmetry_space_group_name_H-M "P N M A"
_symmetry_group_IT_number 62
_symmetry_cell_setting 'orthorhombic'
loop_
_space_group_symop_operation_xyz
x,y,z
1/2-x,-y,1/2+z
1/2+x,1/2-y,1/2-z
-x,1/2+y,-z
-x,-y,-z
1/2+x,y,1/2-z
1/2-x,1/2+y,1/2+z
x,1/2-y,z
loop_
_atom_site_type_symbol
_atom_site_label
_atom_site_fract_x
_atom_site_fract_y
_atom_site_fract_z
Si Si1 0.053966 0.250000 0.758221
Si Si2 0.558412 0.750000 0.144515
Si Si3 0.198459 0.750000 0.923983
Si Si4 0.910569 0.250000 0.208877
Si Si5 0.206218 0.250000 0.171815
Si Si6 0.105302 0.250000 0.362581
O O1 0.065223 0.498750 0.884992
O O2 0.094259 0.250000 0.587068
O O3 0.000027 0.250000 0.669495
O O4 0.582145 0.499510 0.236950
O O5 0.570554 0.750000 0.923742
O O6 0.147993 0.750000 0.805616
O O7 0.241096 0.750000 0.769713
O O8 0.201430 0.499869 0.047973
O O9 0.164057 0.250000 0.332693
#
# Coordination Sequence:
#
# PCOD8251922 Si02
#       6
#     4   4   4   4   4   4
#     4  10  19  35  67  99 128 174 227 265 314 404
#     4  10  19  35  67  99 128 174 227 265 314 404
#     4  12  28  46  70  97 137 179 229 280 344 402
#     4  10  20  35  62  91 133 161 220 271 330 369
#     4  12  28  46  70  97 137 179 229 280 344 402
#     4  10  20  35  62  91 133 161 220 271 330 369
#
# _framework density 23.649996999999999
#
# number of rings (size 3 to 8) (size 9 to 14) (size 15 to 20)
#    0.000    1.333    0.000    8.000    9.333    0.000 
#    0.000    0.000    0.000   34.000    0.000    0.000 
#    0.000    0.000    0.000    0.000    0.000    0.000 
#
# Total GULP energy -297499.652143 kJ/mol
# GULP energy per Si atom -12395.818839 kJ/mol
# Density = 2.359617 g / cm^3
# Si number density = 23.649997 Si / 1000 Ang^3
#
#
#
# Elastic Constant Matrix: (Units=GPa)
#
#
# Indices 1 2 3 4 5 6 
#
# 1 74.9934 15.4555 -3.7906 0.0000 0.0000 0.0000
# 2 15.4555 256.7826 -5.8586 0.0000 0.0000 0.0000
# 3 -3.7906 -5.8586 24.2772 0.0000 0.0000 0.0000
# 4 0.0000 0.0000 0.0000 5.3945 0.0000 0.0000
# 5 0.0000 0.0000 0.0000 0.0000 36.1163 0.0000
# 6 0.0000 0.0000 0.0000 0.0000 0.0000 43.5858
#
#
#
# Elastic Compliance Matrix: (Units=1/GPa)
#
#
# Indices 1 2 3 4 5 6 
#
# 1 0.013592 -0.000774 0.001935 0.000000 0.000000 0.000000
# 2 -0.000774 0.003960 0.000835 0.000000 0.000000 0.000000
# 3 0.001935 0.000835 0.041695 0.000000 0.000000 0.000000
# 4 0.000000 0.000000 0.000000 0.185375 0.000000 0.000000
# 5 0.000000 0.000000 0.000000 0.000000 0.027688 0.000000
# 6 0.000000 0.000000 0.000000 0.000000 0.000000 0.022943
#
#
# Mechanical properties :
#
#
# Convention : Reuss Voigt Hill
#
# Bulk Modulus (GPa) = 15.81303 40.85176 28.33239
# Shear Modulus (GPa) = 16.00818 40.36911 28.18865
#
# Velocity S-wave (km/s) = 2.60451 4.13599 3.45615
# Velocity P-wave (km/s) = 3.96805 6.33400 5.28512
#
# Compressibility (1/GPa) = 0.06323899
#
# Stress axis : x y z
#
# Youngs Moduli (GPa) = 73.57357 252.52695 23.98392
#
# Poissons Ratio (x) = 0.19544 -0.04642
# Poissons Ratio (y) = 0.05694 -0.02002
# Poissons Ratio (z) = -0.14240 -0.21081
#
# Static dielectric constant tensor:
#      x y z
#    x 4.334800 0.000000 0.000000 
#    y 0.000000 7.800520 0.000000 
#    z 0.000000 0.000000 3.772220 
# 
# 
# High freq. dielectric constant tensor:
#      x y z
#    x 1.943670 0.000000 0.000000 
#    y 0.000000 1.985640 0.000000 
#    z 0.000000 0.000000 1.907910 
# 
# From -- ./inp_files/9004.got.cif
#   From: 2010.03.12/outbox.cif.g09.slc.cpg/sg62_5_cif.got.tgz:9004.got - 2010.04.10 19:12:36.
