data_PCOD8251415
_publ_section_title
;
Structure prediction by ZEFSAII (Michael W. Deem and Ramdas Pophale) SiO2 
 PCOD8251415
Probable space group: P N M A
;
_chemical_formula_sum "Si O2"
_cell_formula_units_Z 40
_cell_length_a 4.922903
_cell_length_b 21.960894
_cell_length_c 20.177598
_cell_angle_alpha 90.000000
_cell_angle_beta 90.000000
_cell_angle_gamma 90.000000
_cell_volume 2181.427379
_symmetry_space_group_name_H-M "P N M A"
_symmetry_group_IT_number 62
_symmetry_cell_setting 'orthorhombic'
loop_
_space_group_symop_operation_xyz
x,y,z
1/2-x,-y,1/2+z
1/2+x,1/2-y,1/2-z
-x,1/2+y,-z
-x,-y,-z
1/2+x,y,1/2-z
1/2-x,1/2+y,1/2+z
x,1/2-y,z
loop_
_atom_site_type_symbol
_atom_site_label
_atom_site_fract_x
_atom_site_fract_y
_atom_site_fract_z
Si Si1 0.624821 0.078298 0.294606
Si Si2 0.489734 0.817803 0.606210
Si Si3 0.767808 0.007478 0.911678
Si Si4 0.734436 0.570442 0.041927
Si Si5 0.482538 0.682351 0.981983
O O1 0.432375 0.074507 0.230999
O O2 0.525606 0.139796 0.329993
O O3 0.614742 0.021668 0.344903
O O4 0.587873 0.750000 0.627711
O O5 0.187848 0.814695 0.578797
O O6 0.697791 0.842373 0.549022
O O7 0.461636 0.032471 0.908744
O O8 0.964181 0.064973 0.928045
O O9 0.758779 0.955358 0.967570
O O10 0.609136 0.638325 0.038175
O O11 0.442542 0.750000 0.013263
#
# Coordination Sequence:
#
# PCOD8251415 Si02
#       5
#     8   8   8   8   8
#     4  12  24  36  52  71 105 142 184 222 247 298
#     4  10  21  35  50  71 103 140 183 218 247 291
#     4  10  21  33  51  78 100 133 176 210 268 307
#     4  10  19  33  56  75 103 130 166 220 260 330
#     4  10  19  33  54  78 105 133 167 214 265 309
#
# _framework density 18.336615999999999
#
# number of rings (size 3 to 8) (size 9 to 14) (size 15 to 20)
#    0.000    1.600    2.000    3.600    5.600    0.800 
#    0.000    0.000    0.000    0.000    0.000    0.000 
#    0.000   16.000    0.000    0.000    0.000    0.000 
#
# Total GULP energy -495729.336851 kJ/mol
# GULP energy per Si atom -12393.233421 kJ/mol
# Density = 1.829488 g / cm^3
# Si number density = 18.336616 Si / 1000 Ang^3
#
#
#
# Elastic Constant Matrix: (Units=GPa)
#
#
# Indices 1 2 3 4 5 6 
#
# 1 63.8745 4.9101 4.6180 0.0000 0.0000 0.0000
# 2 4.9101 74.8894 34.9454 0.0000 0.0000 0.0000
# 3 4.6180 34.9454 43.8388 0.0000 0.0000 0.0000
# 4 0.0000 0.0000 0.0000 27.1322 0.0000 0.0000
# 5 0.0000 0.0000 0.0000 0.0000 30.0562 0.0000
# 6 0.0000 0.0000 0.0000 0.0000 0.0000 24.0656
#
#
#
# Elastic Compliance Matrix: (Units=1/GPa)
#
#
# Indices 1 2 3 4 5 6 
#
# 1 0.015784 -0.000412 -0.001334 0.000000 0.000000 0.000000
# 2 -0.000412 0.021272 -0.016913 0.000000 0.000000 0.000000
# 3 -0.001334 -0.016913 0.036434 0.000000 0.000000 0.000000
# 4 0.000000 0.000000 0.000000 0.036857 0.000000 0.000000
# 5 0.000000 0.000000 0.000000 0.000000 0.033271 0.000000
# 6 0.000000 0.000000 0.000000 0.000000 0.000000 0.041553
#
#
# Mechanical properties :
#
#
# Convention : Reuss Voigt Hill
#
# Bulk Modulus (GPa) = 27.64705 30.17219 28.90962
# Shear Modulus (GPa) = 21.31772 25.45941 23.38857
#
# Velocity S-wave (km/s) = 3.41336 3.73023 3.57531
# Velocity P-wave (km/s) = 5.53578 5.91972 5.73097
#
# Compressibility (1/GPa) = 0.03617023
#
# Stress axis : x y z
#
# Youngs Moduli (GPa) = 63.35590 47.00943 27.44720
#
# Poissons Ratio (x) = 0.01939 0.03661
# Poissons Ratio (y) = 0.02613 0.46423
# Poissons Ratio (z) = 0.08451 0.79509
#
# Static dielectric constant tensor:
#      x y z
#    x 3.590540 0.000000 0.000000 
#    y 0.000000 3.491310 0.000000 
#    z 0.000000 0.000000 2.909960 
# 
# 
# High freq. dielectric constant tensor:
#      x y z
#    x 1.739760 0.000000 0.000000 
#    y 0.000000 1.703510 0.000000 
#    z 0.000000 0.000000 1.655140 
# 
# From -- ./inp_files/21547.got.cif
#   From: 2010.03.12/outbox.cif.g09.slc.cpg/sg62_11_cif.got.tgz:21547.got - 2010.04.10 19:12:36.
