data_PCOD8251066
_publ_section_title
;
Structure prediction by ZEFSAII (Michael W. Deem and Ramdas Pophale) SiO2 
 PCOD8251066
Probable space group: P N M A
;
_chemical_formula_sum "Si O2"
_cell_formula_units_Z 64
_cell_length_a 14.751634
_cell_length_b 20.475031
_cell_length_c 11.468010
_cell_angle_alpha 90.000000
_cell_angle_beta 90.000000
_cell_angle_gamma 90.000000
_cell_volume 3463.799615
_symmetry_space_group_name_H-M "P N M A"
_symmetry_group_IT_number 62
_symmetry_cell_setting 'orthorhombic'
loop_
_space_group_symop_operation_xyz
x,y,z
1/2-x,-y,1/2+z
1/2+x,1/2-y,1/2-z
-x,1/2+y,-z
-x,-y,-z
1/2+x,y,1/2-z
1/2-x,1/2+y,1/2+z
x,1/2-y,z
loop_
_atom_site_type_symbol
_atom_site_label
_atom_site_fract_x
_atom_site_fract_y
_atom_site_fract_z
Si Si1 0.864172 0.824357 0.502565
Si Si2 0.466552 0.906976 0.604259
Si Si3 0.964457 0.442569 0.862575
Si Si4 0.353913 0.107253 0.287415
Si Si5 0.627704 0.527275 0.940035
Si Si6 0.277310 0.067226 0.521092
Si Si7 0.825133 0.675959 0.765560
Si Si8 0.502354 0.590741 0.105032
O O1 0.838086 0.750000 0.473703
O O2 0.784689 0.869916 0.451711
O O3 0.873667 0.834875 0.641474
O O4 0.960444 0.841226 0.442131
O O5 0.469839 0.913917 0.463730
O O6 0.552275 0.865011 0.655454
O O7 0.372957 0.872197 0.641383
O O8 0.475478 0.979934 0.656441
O O9 0.861286 0.426277 0.892666
O O10 0.989963 0.405883 0.743926
O O11 0.383178 0.062368 0.181831
O O12 0.306110 0.063570 0.386180
O O13 0.283089 0.162383 0.244681
O O14 0.730102 0.502575 0.957077
O O15 0.565435 0.463844 0.942396
O O16 0.599780 0.576257 0.045249
O O17 0.836428 0.750000 0.809489
#
# Coordination Sequence:
#
# PCOD8251066 Si02
#       8
#     8   8   8   8   8   8   8   8
#     4   9  19  37  55  76 107 145 191 233 275 327
#     4  10  20  35  56  80 117 145 181 235 280 337
#     4  10  20  35  54  84 113 143 182 226 289 336
#     4  10  19  34  51  80 110 139 182 227 277 329
#     4  10  19  31  52  80 106 137 178 227 275 329
#     4   9  20  31  52  79 107 146 176 227 282 334
#     4  10  21  36  58  81 109 149 187 228 280 332
#     4  10  20  33  55  79 105 143 185 225 275 336
#
# _framework density 18.47682
#
# number of rings (size 3 to 8) (size 9 to 14) (size 15 to 20)
#    0.000    2.250    1.250    1.500    7.000    0.500 
#    0.000    3.750    0.000    0.000    0.000    0.000 
#    0.000    0.000    0.000    0.000    0.000    0.000 
#
# Total GULP energy -793422.778631 kJ/mol
# GULP energy per Si atom -12397.230916 kJ/mol
# Density = 1.843477 g / cm^3
# Si number density = 18.476820 Si / 1000 Ang^3
#
#
#
# Elastic Constant Matrix: (Units=GPa)
#
#
# Indices 1 2 3 4 5 6 
#
# 1 66.9872 33.4503 21.1797 0.0000 0.0000 0.0000
# 2 33.4503 70.2541 34.3306 0.0000 0.0000 0.0000
# 3 21.1797 34.3306 77.0063 0.0000 0.0000 0.0000
# 4 0.0000 0.0000 0.0000 20.3204 0.0000 0.0000
# 5 0.0000 0.0000 0.0000 0.0000 28.7396 0.0000
# 6 0.0000 0.0000 0.0000 0.0000 0.0000 18.4479
#
#
#
# Elastic Compliance Matrix: (Units=1/GPa)
#
#
# Indices 1 2 3 4 5 6 
#
# 1 0.019735 -0.008622 -0.001584 0.000000 0.000000 0.000000
# 2 -0.008622 0.021966 -0.007421 0.000000 0.000000 0.000000
# 3 -0.001584 -0.007421 0.016730 0.000000 0.000000 0.000000
# 4 0.000000 0.000000 0.000000 0.049212 0.000000 0.000000
# 5 0.000000 0.000000 0.000000 0.000000 0.034795 0.000000
# 6 0.000000 0.000000 0.000000 0.000000 0.000000 0.054207
#
#
# Mechanical properties :
#
#
# Convention : Reuss Voigt Hill
#
# Bulk Modulus (GPa) = 43.14855 43.57432 43.36143
# Shear Modulus (GPa) = 20.86600 21.85405 21.36002
#
# Velocity S-wave (km/s) = 3.36416 3.44289 3.40375
# Velocity P-wave (km/s) = 6.20432 6.28006 6.24230
#
# Compressibility (1/GPa) = 0.02317575
#
# Stress axis : x y z
#
# Youngs Moduli (GPa) = 50.67246 45.52503 59.77258
#
# Poissons Ratio (x) = 0.39253 0.09467
# Poissons Ratio (y) = 0.43692 0.44359
# Poissons Ratio (z) = 0.08025 0.33785
#
# Static dielectric constant tensor:
#      x y z
#    x 3.610550 0.000000 0.000000 
#    y 0.000000 3.222900 0.000000 
#    z 0.000000 0.000000 3.296010 
# 
# 
# High freq. dielectric constant tensor:
#      x y z
#    x 1.721600 0.000000 0.000000 
#    y 0.000000 1.684720 0.000000 
#    z 0.000000 0.000000 1.712600 
# 
# From -- ./inp_files/13607.got.cif
#   From: 2010.03.12/outbox.cif.g09.slc.cpg/sg62_7_cif.got.tgz:13607.got - 2010.04.10 19:12:36.
