data_PCOD8251280
_publ_section_title
;
Structure prediction by ZEFSAII (Michael W. Deem and Ramdas Pophale) SiO2 
 PCOD8251280
Probable space group: P N M A
;
_chemical_formula_sum "Si O2"
_cell_formula_units_Z 64
_cell_length_a 21.932905
_cell_length_b 8.885548
_cell_length_c 16.600240
_cell_angle_alpha 90.000000
_cell_angle_beta 90.000000
_cell_angle_gamma 90.000000
_cell_volume 3235.152383
_symmetry_space_group_name_H-M "P N M A"
_symmetry_group_IT_number 62
_symmetry_cell_setting 'orthorhombic'
loop_
_space_group_symop_operation_xyz
x,y,z
1/2-x,-y,1/2+z
1/2+x,1/2-y,1/2-z
-x,1/2+y,-z
-x,-y,-z
1/2+x,y,1/2-z
1/2-x,1/2+y,1/2+z
x,1/2-y,z
loop_
_atom_site_type_symbol
_atom_site_label
_atom_site_fract_x
_atom_site_fract_y
_atom_site_fract_z
Si Si1 0.875969 0.577684 0.182085
Si Si2 0.688512 0.927244 0.542078
Si Si3 0.815766 0.422892 0.590078
Si Si4 0.128157 0.920153 0.574182
Si Si5 0.780748 0.919858 0.316877
Si Si6 0.395418 0.923506 0.780780
Si Si7 0.330974 0.921275 0.623742
Si Si8 0.030862 0.575838 0.699685
O O1 0.891373 0.750000 0.162136
O O2 0.864968 0.487427 0.099989
O O3 0.813039 0.562990 0.231107
O O4 0.932059 0.510628 0.231635
O O5 0.693399 0.750000 0.550476
O O6 0.754273 0.996137 0.561834
O O7 0.666664 0.968987 0.452295
O O8 0.798397 0.250000 0.604589
O O9 0.868617 0.441489 0.522010
O O10 0.842914 0.486261 0.672585
O O11 0.149368 0.750000 0.597139
O O12 0.060703 0.948201 0.610992
O O13 0.172528 0.042974 0.611986
O O14 0.757098 0.750000 0.330506
O O15 0.726480 0.038720 0.320017
O O16 0.388788 0.750000 0.806274
O O17 0.388251 0.942608 0.683897
O O18 0.462104 0.987175 0.803826
O O19 0.325606 0.750000 0.592828
O O20 0.030243 0.750000 0.724834
#
# Coordination Sequence:
#
# PCOD8251280 Si02
#       8
#     8   8   8   8   8   8   8   8
#     4  10  21  37  59  87 116 148 190 239 288 342
#     4  12  24  38  59  87 116 149 189 237 292 350
#     4  11  22  36  57  88 123 154 189 235 289 348
#     4   9  18  33  56  83 115 154 188 231 284 334
#     4  10  19  32  54  83 112 145 184 228 281 342
#     4  10  23  40  59  83 115 157 199 242 288 340
#     4  11  22  37  56  80 113 150 188 236 294 343
#     4   9  19  39  61  83 114 155 204 243 281 338
#
# _framework density 19.782685000000001
#
# number of rings (size 3 to 8) (size 9 to 14) (size 15 to 20)
#    0.000    1.750    1.250    3.375    0.000    6.000 
#    0.000    0.625    0.000    0.000    0.000    0.000 
#    0.000    0.000    0.000    0.000    0.000    0.000 
#
# Total GULP energy -793583.574779 kJ/mol
# GULP energy per Si atom -12399.743356 kJ/mol
# Density = 1.973766 g / cm^3
# Si number density = 19.782685 Si / 1000 Ang^3
#
#
#
# Elastic Constant Matrix: (Units=GPa)
#
#
# Indices 1 2 3 4 5 6 
#
# 1 43.1197 19.5927 24.5492 0.0000 0.0000 0.0000
# 2 19.5927 100.4070 39.3202 0.0000 0.0000 0.0000
# 3 24.5492 39.3202 100.2258 0.0000 0.0000 0.0000
# 4 0.0000 0.0000 0.0000 31.9664 0.0000 0.0000
# 5 0.0000 0.0000 0.0000 0.0000 22.1350 0.0000
# 6 0.0000 0.0000 0.0000 0.0000 0.0000 22.5495
#
#
#
# Elastic Compliance Matrix: (Units=1/GPa)
#
#
# Indices 1 2 3 4 5 6 
#
# 1 0.027825 -0.003262 -0.005536 0.000000 0.000000 0.000000
# 2 -0.003262 0.012150 -0.003968 0.000000 0.000000 0.000000
# 3 -0.005536 -0.003968 0.012890 0.000000 0.000000 0.000000
# 4 0.000000 0.000000 0.000000 0.031283 0.000000 0.000000
# 5 0.000000 0.000000 0.000000 0.000000 0.045177 0.000000
# 6 0.000000 0.000000 0.000000 0.000000 0.000000 0.044347
#
#
# Mechanical properties :
#
#
# Convention : Reuss Voigt Hill
#
# Bulk Modulus (GPa) = 36.58392 45.63074 41.10733
# Shear Modulus (GPa) = 24.00230 26.01620 25.00925
#
# Velocity S-wave (km/s) = 3.48702 3.63036 3.55941
# Velocity P-wave (km/s) = 5.89453 6.37878 6.14143
#
# Compressibility (1/GPa) = 0.02733442
#
# Stress axis : x y z
#
# Youngs Moduli (GPa) = 35.93889 82.30671 77.57972
#
# Poissons Ratio (x) = 0.26846 0.42947
# Poissons Ratio (y) = 0.11722 0.30781
# Poissons Ratio (z) = 0.19895 0.32656
#
# Static dielectric constant tensor:
#      x y z
#    x 3.497650 0.000000 0.000000 
#    y 0.000000 3.638740 0.000000 
#    z 0.000000 0.000000 3.636810 
# 
# 
# High freq. dielectric constant tensor:
#      x y z
#    x 1.750180 0.000000 0.000000 
#    y 0.000000 1.776760 0.000000 
#    z 0.000000 0.000000 1.774010 
# 
# From -- ./inp_files/20957.got.cif
#   From: 2010.03.12/outbox.cif.g09.slc.cpg/sg62_11_cif.got.tgz:20957.got - 2010.04.10 19:12:36.
