data_PCOD8251413
_publ_section_title
;
Structure prediction by ZEFSAII (Michael W. Deem and Ramdas Pophale) SiO2 
 PCOD8251413
Probable space group: P N M A
;
_chemical_formula_sum "Si O2"
_cell_formula_units_Z 64
_cell_length_a 9.304871
_cell_length_b 13.354300
_cell_length_c 27.856216
_cell_angle_alpha 90.000000
_cell_angle_beta 90.000000
_cell_angle_gamma 90.000000
_cell_volume 3461.414481
_symmetry_space_group_name_H-M "P N M A"
_symmetry_group_IT_number 62
_symmetry_cell_setting 'orthorhombic'
loop_
_space_group_symop_operation_xyz
x,y,z
1/2-x,-y,1/2+z
1/2+x,1/2-y,1/2-z
-x,1/2+y,-z
-x,-y,-z
1/2+x,y,1/2-z
1/2-x,1/2+y,1/2+z
x,1/2-y,z
loop_
_atom_site_type_symbol
_atom_site_label
_atom_site_fract_x
_atom_site_fract_y
_atom_site_fract_z
Si Si1 0.378409 0.024436 0.887904
Si Si2 0.911248 0.984608 0.064121
Si Si3 0.132314 0.133848 0.029156
Si Si4 0.246199 0.864278 0.200839
Si Si5 0.317525 0.369084 0.596181
Si Si6 0.948784 0.867563 0.464352
Si Si7 0.923998 0.134359 0.709654
Si Si8 0.943204 0.135576 0.433579
O O1 0.215093 0.991739 0.898650
O O2 0.428166 0.108666 0.925679
O O3 0.375624 0.068224 0.834917
O O4 0.487886 0.929928 0.890899
O O5 0.023463 0.904058 0.084395
O O6 0.840703 0.935057 0.017153
O O7 0.990481 0.090689 0.055206
O O8 0.105895 0.250000 0.015217
O O9 0.270699 0.124514 0.063849
O O10 0.197335 0.750000 0.195531
O O11 0.225697 0.914126 0.148370
O O12 0.407922 0.874641 0.218090
O O13 0.148491 0.912484 0.242565
O O14 0.309436 0.250000 0.596274
O O15 0.203979 0.409535 0.555956
O O16 0.945637 0.750000 0.470164
O O17 0.985675 0.909773 0.517372
O O18 0.877413 0.250000 0.700817
O O19 0.986680 0.250000 0.424613
#
# Coordination Sequence:
#
# PCOD8251413 Si02
#       8
#     8   8   8   8   8   8   8   8
#     4  12  22  34  55  80 110 142 186 230 265 324
#     4  11  24  33  52  81 108 144 184 222 271 319
#     4  10  22  39  52  72 110 148 184 225 268 316
#     4   9  19  35  53  77 110 144 177 215 267 328
#     4  10  20  34  53  78 111 148 182 220 268 326
#     4  10  19  33  54  77 108 148 188 223 264 317
#     4  10  21  36  56  82 112 145 177 220 273 328
#     4  10  22  38  56  76 105 149 192 232 270 312
#
# _framework density 18.489550999999999
#
# number of rings (size 3 to 8) (size 9 to 14) (size 15 to 20)
#    0.000    1.750    2.500    1.875    5.250    2.000 
#    0.000    0.000    0.000    0.000    0.000    1.750 
#    0.000    0.000    0.000    0.000    0.000    0.000 
#
# Total GULP energy -793459.049197 kJ/mol
# GULP energy per Si atom -12397.797644 kJ/mol
# Density = 1.844747 g / cm^3
# Si number density = 18.489551 Si / 1000 Ang^3
#
#
#
# Elastic Constant Matrix: (Units=GPa)
#
#
# Indices 1 2 3 4 5 6 
#
# 1 97.9030 16.7312 22.5086 0.0000 0.0000 0.0000
# 2 16.7312 49.0281 9.2747 0.0000 0.0000 0.0000
# 3 22.5086 9.2747 63.0144 0.0000 0.0000 0.0000
# 4 0.0000 0.0000 0.0000 21.2656 0.0000 0.0000
# 5 0.0000 0.0000 0.0000 0.0000 29.5841 0.0000
# 6 0.0000 0.0000 0.0000 0.0000 0.0000 23.3679
#
#
#
# Elastic Compliance Matrix: (Units=1/GPa)
#
#
# Indices 1 2 3 4 5 6 
#
# 1 0.011616 -0.003270 -0.003668 0.000000 0.000000 0.000000
# 2 -0.003270 0.021901 -0.002055 0.000000 0.000000 0.000000
# 3 -0.003668 -0.002055 0.017482 0.000000 0.000000 0.000000
# 4 0.000000 0.000000 0.000000 0.047024 0.000000 0.000000
# 5 0.000000 0.000000 0.000000 0.000000 0.033802 0.000000
# 6 0.000000 0.000000 0.000000 0.000000 0.000000 0.042794
#
#
# Mechanical properties :
#
#
# Convention : Reuss Voigt Hill
#
# Bulk Modulus (GPa) = 30.29161 34.10826 32.19994
# Shear Modulus (GPa) = 24.55662 25.60561 25.08111
#
# Velocity S-wave (km/s) = 3.64831 3.72542 3.68707
# Velocity P-wave (km/s) = 5.84513 6.08214 5.96481
#
# Compressibility (1/GPa) = 0.03301244
#
# Stress axis : x y z
#
# Youngs Moduli (GPa) = 86.08544 45.65936 57.20133
#
# Poissons Ratio (x) = 0.14932 0.20981
# Poissons Ratio (y) = 0.28152 0.11757
# Poissons Ratio (z) = 0.31576 0.09385
#
# Static dielectric constant tensor:
#      x y z
#    x 3.497450 0.000000 0.000000 
#    y 0.000000 3.255700 0.000000 
#    z 0.000000 0.000000 3.414820 
# 
# 
# High freq. dielectric constant tensor:
#      x y z
#    x 1.730560 0.000000 0.000000 
#    y 0.000000 1.697560 0.000000 
#    z 0.000000 0.000000 1.693160 
# 
# From -- ./inp_files/32329.got.cif
#   From: 2010.03.12/outbox.cif.g09.slc.cpg/sg62_17_cif.got.tgz:32329.got - 2010.04.10 19:12:36.
