data_PCOD8251519
_publ_section_title
;
Structure prediction by ZEFSAII (Michael W. Deem and Ramdas Pophale) SiO2 
 PCOD8251519
Probable space group: P N M A
;
_chemical_formula_sum "Si O2"
_cell_formula_units_Z 40
_cell_length_a 20.833895
_cell_length_b 9.234341
_cell_length_c 10.219234
_cell_angle_alpha 90.000000
_cell_angle_beta 90.000000
_cell_angle_gamma 90.000000
_cell_volume 1966.050743
_symmetry_space_group_name_H-M "P N M A"
_symmetry_group_IT_number 62
_symmetry_cell_setting 'orthorhombic'
loop_
_space_group_symop_operation_xyz
x,y,z
1/2-x,-y,1/2+z
1/2+x,1/2-y,1/2-z
-x,1/2+y,-z
-x,-y,-z
1/2+x,y,1/2-z
1/2-x,1/2+y,1/2+z
x,1/2-y,z
loop_
_atom_site_type_symbol
_atom_site_label
_atom_site_fract_x
_atom_site_fract_y
_atom_site_fract_z
Si Si1 0.282783 0.920036 0.646005
Si Si2 0.097277 0.092370 0.979821
Si Si3 0.454702 0.420487 0.899226
Si Si4 0.307070 0.419418 0.908172
Si Si5 0.985943 0.091699 0.173733
O O1 0.281955 0.750000 0.676316
O O2 0.350118 0.968298 0.580753
O O3 0.227260 0.964933 0.543560
O O4 0.274341 0.001234 0.784169
O O5 0.120771 0.250000 0.924871
O O6 0.028709 0.117762 0.046528
O O7 0.083878 0.976803 0.863569
O O8 0.465681 0.250000 0.907005
O O9 0.381121 0.463598 0.925316
O O10 0.474595 0.478485 0.758868
O O11 0.500000 0.500000 0.000000
O O12 0.299028 0.250000 0.881278
O O13 0.973781 0.250000 0.241255
#
# Coordination Sequence:
#
# PCOD8251519 Si02
#       5
#     8   8   8   8   8
#     4  10  21  40  63  88 122 159 201 248 299 360
#     4   9  18  33  56  84 113 148 188 235 287 344
#     4  11  23  39  59  84 118 155 196 243 295 353
#     4  10  23  41  62  90 121 156 201 249 297 355
#     4  10  19  33  56  85 114 148 190 235 287 343
#
# _framework density 20.345352999999999
#
# number of rings (size 3 to 8) (size 9 to 14) (size 15 to 20)
#    0.000    2.000    2.000    1.200    0.000    4.800 
#    0.000    4.000    0.000    0.000    0.000    0.000 
#    0.000    0.000    0.000    0.000    0.000    0.000 
#
# Total GULP energy -495806.516675 kJ/mol
# GULP energy per Si atom -12395.162917 kJ/mol
# Density = 2.029905 g / cm^3
# Si number density = 20.345353 Si / 1000 Ang^3
#
#
#
# Elastic Constant Matrix: (Units=GPa)
#
#
# Indices 1 2 3 4 5 6 
#
# 1 70.6123 37.7662 62.2334 0.0000 0.0000 0.0000
# 2 37.7662 89.1571 58.7821 0.0000 0.0000 0.0000
# 3 62.2334 58.7821 102.1447 0.0000 0.0000 0.0000
# 4 0.0000 0.0000 0.0000 37.9562 0.0000 0.0000
# 5 0.0000 0.0000 0.0000 0.0000 34.7948 0.0000
# 6 0.0000 0.0000 0.0000 0.0000 0.0000 22.5734
#
#
#
# Elastic Compliance Matrix: (Units=1/GPa)
#
#
# Indices 1 2 3 4 5 6 
#
# 1 0.030650 -0.001081 -0.018052 0.000000 0.000000 0.000000
# 2 -0.001081 0.018112 -0.009764 0.000000 0.000000 0.000000
# 3 -0.018052 -0.009764 0.026407 0.000000 0.000000 0.000000
# 4 0.000000 0.000000 0.000000 0.026346 0.000000 0.000000
# 5 0.000000 0.000000 0.000000 0.000000 0.028740 0.000000
# 6 0.000000 0.000000 0.000000 0.000000 0.000000 0.044300
#
#
# Mechanical properties :
#
#
# Convention : Reuss Voigt Hill
#
# Bulk Modulus (GPa) = 57.55489 64.38638 60.97063
# Shear Modulus (GPa) = 20.99603 25.94038 23.46820
#
# Velocity S-wave (km/s) = 3.21593 3.57459 3.39999
# Velocity P-wave (km/s) = 6.49153 6.98229 6.74138
#
# Compressibility (1/GPa) = 0.01737472
#
# Stress axis : x y z
#
# Youngs Moduli (GPa) = 32.62674 55.21267 37.86843
#
# Poissons Ratio (x) = 0.05971 0.68358
# Poissons Ratio (y) = 0.03528 0.36975
# Poissons Ratio (z) = 0.58896 0.53910
#
# Static dielectric constant tensor:
#      x y z
#    x 3.696520 0.000000 0.000000 
#    y 0.000000 4.337940 0.000000 
#    z 0.000000 0.000000 3.123730 
# 
# 
# High freq. dielectric constant tensor:
#      x y z
#    x 1.791500 0.000000 0.000000 
#    y 0.000000 1.799640 0.000000 
#    z 0.000000 0.000000 1.781560 
# 
# From -- ./inp_files/14611.got.cif
#   From: 2010.03.12/outbox.cif.g09.slc.cpg/sg62_8_cif.got.tgz:14611.got - 2010.04.10 19:12:36.
