data_PCOD8251017
_publ_section_title
;
Structure prediction by ZEFSAII (Michael W. Deem and Ramdas Pophale) SiO2 
 PCOD8251017
Probable space group: P N M A
;
_chemical_formula_sum "Si O2"
_cell_formula_units_Z 64
_cell_length_a 24.041082
_cell_length_b 9.330939
_cell_length_c 15.181064
_cell_angle_alpha 90.000000
_cell_angle_beta 90.000000
_cell_angle_gamma 90.000000
_cell_volume 3405.505384
_symmetry_space_group_name_H-M "P N M A"
_symmetry_group_IT_number 62
_symmetry_cell_setting 'orthorhombic'
loop_
_space_group_symop_operation_xyz
x,y,z
1/2-x,-y,1/2+z
1/2+x,1/2-y,1/2-z
-x,1/2+y,-z
-x,-y,-z
1/2+x,y,1/2-z
1/2-x,1/2+y,1/2+z
x,1/2-y,z
loop_
_atom_site_type_symbol
_atom_site_label
_atom_site_fract_x
_atom_site_fract_y
_atom_site_fract_z
Si Si1 0.569915 0.911278 0.644648
Si Si2 0.036027 0.584530 0.194113
Si Si3 0.081637 0.416939 0.549124
Si Si4 0.958731 0.086603 0.607821
Si Si5 0.193881 0.915921 0.809493
Si Si6 0.184681 0.584490 0.613503
Si Si7 0.280224 0.918833 0.476345
Si Si8 0.614614 0.585375 0.458206
O O1 0.555634 0.750000 0.673175
O O2 0.629085 0.958346 0.684396
O O3 0.571808 0.926015 0.539149
O O4 0.523013 0.010607 0.684241
O O5 0.025148 0.750000 0.173857
O O6 0.059424 0.559761 0.291947
O O7 0.082476 0.525017 0.127232
O O8 0.094161 0.250000 0.539882
O O9 0.079266 0.484470 0.451575
O O10 0.130131 0.488279 0.605557
O O11 0.023979 0.449473 0.598675
O O12 0.947550 0.250000 0.578672
O O13 0.202125 0.750000 0.836514
O O14 0.213241 0.946076 0.709051
O O15 0.228407 0.011629 0.879361
O O16 0.166410 0.750000 0.609090
O O17 0.226692 0.545753 0.535335
O O18 0.289551 0.750000 0.465668
O O19 0.332435 0.986074 0.526525
O O20 0.634546 0.750000 0.445989
#
# Coordination Sequence:
#
# PCOD8251017 Si02
#       8
#     8   8   8   8   8   8   8   8
#     4   9  17  29  49  76 104 135 174 216 262 318
#     4  10  19  31  50  76 105 141 178 214 263 320
#     4  10  20  34  55  81 106 139 180 220 263 315
#     4   9  19  35  52  75 111 144 173 217 268 316
#     4   9  19  37  58  79 107 143 177 218 273 324
#     4  10  21  38  59  81 108 142 178 222 276 323
#     4  10  21  37  56  80 107 138 179 227 271 313
#     4   9  19  35  51  71 104 143 177 213 268 323
#
# _framework density 18.793098000000001
#
# number of rings (size 3 to 8) (size 9 to 14) (size 15 to 20)
#    0.000    2.500    0.000    2.625    0.000    5.000 
#    2.250    0.000    0.000    0.000    0.000    0.000 
#    0.000    0.000    0.000    0.000    0.000    0.000 
#
# Total GULP energy -793667.326706 kJ/mol
# GULP energy per Si atom -12401.051980 kJ/mol
# Density = 1.875032 g / cm^3
# Si number density = 18.793098 Si / 1000 Ang^3
#
#
#
# Elastic Constant Matrix: (Units=GPa)
#
#
# Indices 1 2 3 4 5 6 
#
# 1 41.7880 32.6283 35.2014 0.0000 0.0000 0.0000
# 2 32.6283 72.9511 45.7192 0.0000 0.0000 0.0000
# 3 35.2014 45.7192 116.4432 0.0000 0.0000 0.0000
# 4 0.0000 0.0000 0.0000 28.7794 0.0000 0.0000
# 5 0.0000 0.0000 0.0000 0.0000 23.3968 0.0000
# 6 0.0000 0.0000 0.0000 0.0000 0.0000 26.5912
#
#
#
# Elastic Compliance Matrix: (Units=1/GPa)
#
#
# Indices 1 2 3 4 5 6 
#
# 1 0.040460 -0.013835 -0.006799 0.000000 0.000000 0.000000
# 2 -0.013835 0.022913 -0.004814 0.000000 0.000000 0.000000
# 3 -0.006799 -0.004814 0.012533 0.000000 0.000000 0.000000
# 4 0.000000 0.000000 0.000000 0.034747 0.000000 0.000000
# 5 0.000000 0.000000 0.000000 0.000000 0.042741 0.000000
# 6 0.000000 0.000000 0.000000 0.000000 0.000000 0.037606
#
#
# Mechanical properties :
#
#
# Convention : Reuss Voigt Hill
#
# Bulk Modulus (GPa) = 39.98411 50.92000 45.45206
# Shear Modulus (GPa) = 19.98129 23.59570 21.78850
#
# Velocity S-wave (km/s) = 3.26425 3.54722 3.40867
# Velocity P-wave (km/s) = 5.96064 6.62804 6.30318
#
# Compressibility (1/GPa) = 0.02500993
#
# Stress axis : x y z
#
# Youngs Moduli (GPa) = 24.71548 43.64406 79.78720
#
# Poissons Ratio (x) = 0.60383 0.54249
# Poissons Ratio (y) = 0.34195 0.38407
# Poissons Ratio (z) = 0.16805 0.21009
#
# Static dielectric constant tensor:
#      x y z
#    x 3.138670 0.000000 0.000000 
#    y 0.000000 3.427380 0.000000 
#    z 0.000000 0.000000 3.655090 
# 
# 
# High freq. dielectric constant tensor:
#      x y z
#    x 1.704070 0.000000 0.000000 
#    y 0.000000 1.728150 0.000000 
#    z 0.000000 0.000000 1.742400 
# 
# From -- ./inp_files/20884.got.cif
#   From: 2010.03.12/outbox.cif.g09.slc.cpg/sg62_11_cif.got.tgz:20884.got - 2010.04.10 19:12:36.
