data_PCOD8251106
_publ_section_title
;
Structure prediction by ZEFSAII (Michael W. Deem and Ramdas Pophale) SiO2 
 PCOD8251106
Probable space group: P N M A
;
_chemical_formula_sum "Si O2"
_cell_formula_units_Z 64
_cell_length_a 23.151535
_cell_length_b 9.110330
_cell_length_c 19.087751
_cell_angle_alpha 90.000000
_cell_angle_beta 90.000000
_cell_angle_gamma 90.000000
_cell_volume 4025.952630
_symmetry_space_group_name_H-M "P N M A"
_symmetry_group_IT_number 62
_symmetry_cell_setting 'orthorhombic'
loop_
_space_group_symop_operation_xyz
x,y,z
1/2-x,-y,1/2+z
1/2+x,1/2-y,1/2-z
-x,1/2+y,-z
-x,-y,-z
1/2+x,y,1/2-z
1/2-x,1/2+y,1/2+z
x,1/2-y,z
loop_
_atom_site_type_symbol
_atom_site_label
_atom_site_fract_x
_atom_site_fract_y
_atom_site_fract_z
Si Si1 0.777047 0.079543 0.133108
Si Si2 0.125146 0.080126 0.505147
Si Si3 0.254099 0.075990 0.998838
Si Si4 0.442385 0.920745 0.864574
Si Si5 0.346195 0.079037 0.232480
Si Si6 0.937358 0.923087 0.352571
Si Si7 0.333352 0.924252 0.781396
Si Si8 0.733632 0.076068 0.347323
O O1 0.772012 0.250000 0.113637
O O2 0.830255 0.052263 0.186067
O O3 0.717793 0.021053 0.167818
O O4 0.786917 0.988249 0.061941
O O5 0.143946 0.250000 0.508331
O O6 0.080009 0.052995 0.442977
O O7 0.094564 0.027857 0.576300
O O8 0.181305 0.983660 0.491335
O O9 0.255946 0.250000 0.993799
O O10 0.226462 0.022997 0.072855
O O11 0.456287 0.750000 0.851798
O O12 0.394852 0.981261 0.808970
O O13 0.498576 0.015371 0.851828
O O14 0.357829 0.250000 0.218172
O O15 0.294295 0.018334 0.183706
O O16 0.403397 0.988371 0.213983
O O17 0.940481 0.750000 0.345531
O O18 0.333095 0.750000 0.784425
O O19 0.319442 0.980039 0.701940
O O20 0.735704 0.250000 0.342455
#
# Coordination Sequence:
#
# PCOD8251106 Si02
#       8
#     8   8   8   8   8   8   8   8
#     4   9  17  31  50  68  92 123 157 193 230 278
#     4  10  20  33  45  63  94 131 165 192 223 269
#     4  11  19  27  46  73  99 124 150 191 235 279
#     4  10  19  32  50  65  86 126 169 197 221 271
#     4   9  17  32  51  67  88 124 163 194 225 276
#     4  11  22  32  45  67  98 127 155 200 241 272
#     4   8  14  28  48  66  86 118 157 194 226 266
#     4   8  15  27  45  69  92 116 151 191 232 273
#
# _framework density 15.896858999999999
#
# number of rings (size 3 to 8) (size 9 to 14) (size 15 to 20)
#    0.000    2.500    2.500    2.625    0.000    1.500 
#    0.000    0.000    0.000    1.500    0.000    0.875 
#    0.000    0.000    0.000    0.000    0.000    0.000 
#
# Total GULP energy -793377.461358 kJ/mol
# GULP energy per Si atom -12396.522834 kJ/mol
# Density = 1.586068 g / cm^3
# Si number density = 15.896859 Si / 1000 Ang^3
#
#
#
# Elastic Constant Matrix: (Units=GPa)
#
#
# Indices 1 2 3 4 5 6 
#
# 1 64.4980 26.8379 43.4666 0.0000 0.0000 0.0000
# 2 26.8379 43.8566 34.1199 0.0000 0.0000 0.0000
# 3 43.4666 34.1199 110.8560 0.0000 0.0000 0.0000
# 4 0.0000 0.0000 0.0000 23.0552 0.0000 0.0000
# 5 0.0000 0.0000 0.0000 0.0000 22.8082 0.0000
# 6 0.0000 0.0000 0.0000 0.0000 0.0000 21.5328
#
#
#
# Elastic Compliance Matrix: (Units=1/GPa)
#
#
# Indices 1 2 3 4 5 6 
#
# 1 0.023796 -0.009602 -0.006375 0.000000 0.000000 0.000000
# 2 -0.009602 0.033855 -0.006655 0.000000 0.000000 0.000000
# 3 -0.006375 -0.006655 0.013569 0.000000 0.000000 0.000000
# 4 0.000000 0.000000 0.000000 0.043374 0.000000 0.000000
# 5 0.000000 0.000000 0.000000 0.000000 0.043844 0.000000
# 6 0.000000 0.000000 0.000000 0.000000 0.000000 0.046441
#
#
# Mechanical properties :
#
#
# Convention : Reuss Voigt Hill
#
# Bulk Modulus (GPa) = 38.52780 47.56217 43.04499
# Shear Modulus (GPa) = 19.32027 21.13166 20.22596
#
# Velocity S-wave (km/s) = 3.48997 3.64991 3.57084
# Velocity P-wave (km/s) = 6.36621 6.90989 6.64361
#
# Compressibility (1/GPa) = 0.02595528
#
# Stress axis : x y z
#
# Youngs Moduli (GPa) = 42.02358 29.53748 73.69896
#
# Poissons Ratio (x) = 0.28363 0.46983
# Poissons Ratio (y) = 0.40352 0.49048
# Poissons Ratio (z) = 0.26790 0.19658
#
# Static dielectric constant tensor:
#      x y z
#    x 2.908670 0.000000 0.000000 
#    y 0.000000 2.800790 0.000000 
#    z 0.000000 0.000000 3.368620 
# 
# 
# High freq. dielectric constant tensor:
#      x y z
#    x 1.583690 0.000000 0.000000 
#    y 0.000000 1.591650 0.000000 
#    z 0.000000 0.000000 1.613040 
# 
# From -- ./inp_files/24969.got.cif
#   From: 2010.03.12/outbox.cif.g09.slc.cpg/sg62_13_cif.got.tgz:24969.got - 2010.04.10 19:12:36.
