data_PCOD8251868
_publ_section_title
;
Structure prediction by ZEFSAII (Michael W. Deem and Ramdas Pophale) SiO2 
 PCOD8251868
Probable space group: P N M A
;
_chemical_formula_sum "Si O2"
_cell_formula_units_Z 64
_cell_length_a 12.352627
_cell_length_b 13.674431
_cell_length_c 20.055043
_cell_angle_alpha 90.000000
_cell_angle_beta 90.000000
_cell_angle_gamma 90.000000
_cell_volume 3387.600508
_symmetry_space_group_name_H-M "P N M A"
_symmetry_group_IT_number 62
_symmetry_cell_setting 'orthorhombic'
loop_
_space_group_symop_operation_xyz
x,y,z
1/2-x,-y,1/2+z
1/2+x,1/2-y,1/2-z
-x,1/2+y,-z
-x,-y,-z
1/2+x,y,1/2-z
1/2-x,1/2+y,1/2+z
x,1/2-y,z
loop_
_atom_site_type_symbol
_atom_site_label
_atom_site_fract_x
_atom_site_fract_y
_atom_site_fract_z
Si Si1 0.098488 0.857097 0.859474
Si Si2 0.392754 0.435543 0.500683
Si Si3 0.032939 0.494242 0.229628
Si Si4 0.499492 0.858884 0.052232
Si Si5 0.840924 0.978669 0.528092
Si Si6 0.093552 0.357656 0.688022
Si Si7 0.156188 0.364770 0.337327
Si Si8 0.667088 0.860967 0.355298
O O1 0.057346 0.750000 0.838534
O O2 0.215415 0.875434 0.825863
O O3 0.014511 0.936129 0.832991
O O4 0.102052 0.858513 0.940047
O O5 0.500000 0.500000 0.500000
O O6 0.285560 0.499609 0.484935
O O7 0.379313 0.382599 0.571259
O O8 0.089711 0.417634 0.278918
O O9 0.118618 0.570752 0.201824
O O10 0.933641 0.554957 0.261608
O O11 0.502441 0.750000 0.021807
O O12 0.500452 0.855734 0.132383
O O13 0.605967 0.914529 0.027420
O O14 0.389606 0.913104 0.030710
O O15 0.872683 0.920191 0.594778
O O16 0.097613 0.250000 0.723446
O O17 0.205043 0.377705 0.649180
O O18 0.122972 0.250000 0.341134
O O19 0.635234 0.750000 0.338011
#
# Coordination Sequence:
#
# PCOD8251868 Si02
#       8
#     8   8   8   8   8   8   8   8
#     4  10  22  38  59  82 111 149 193 238 285 341
#     4  11  21  40  62  84 113 153 202 249 291 345
#     4  12  21  38  58  84 121 152 187 235 291 348
#     4  10  19  35  59  88 119 150 191 245 297 345
#     4  10  20  36  62  86 115 152 195 246 293 344
#     4  10  21  37  59  88 117 154 195 235 291 358
#     4  10  21  36  56  85 114 148 192 232 281 342
#     4  11  23  39  61  86 115 153 198 242 291 354
#
# _framework density 18.892429
#
# number of rings (size 3 to 8) (size 9 to 14) (size 15 to 20)
#    0.000    1.500    3.750    2.250    0.000    1.000 
#    0.000    1.250    0.000    0.000    0.000    0.000 
#    0.000    0.000    0.000    0.000    0.000    0.000 
#
# Total GULP energy -793406.753377 kJ/mol
# GULP energy per Si atom -12396.980522 kJ/mol
# Density = 1.884943 g / cm^3
# Si number density = 18.892429 Si / 1000 Ang^3
#
#
#
# Elastic Constant Matrix: (Units=GPa)
#
#
# Indices 1 2 3 4 5 6 
#
# 1 94.7793 56.0573 22.8910 0.0000 0.0000 0.0000
# 2 56.0573 126.0976 31.2612 0.0000 0.0000 0.0000
# 3 22.8910 31.2612 72.4124 0.0000 0.0000 0.0000
# 4 0.0000 0.0000 0.0000 25.8287 0.0000 0.0000
# 5 0.0000 0.0000 0.0000 0.0000 29.3068 0.0000
# 6 0.0000 0.0000 0.0000 0.0000 0.0000 21.7646
#
#
#
# Elastic Compliance Matrix: (Units=1/GPa)
#
#
# Indices 1 2 3 4 5 6 
#
# 1 0.014576 -0.005977 -0.002027 0.000000 0.000000 0.000000
# 2 -0.005977 0.011332 -0.003003 0.000000 0.000000 0.000000
# 3 -0.002027 -0.003003 0.015747 0.000000 0.000000 0.000000
# 4 0.000000 0.000000 0.000000 0.038717 0.000000 0.000000
# 5 0.000000 0.000000 0.000000 0.000000 0.034122 0.000000
# 6 0.000000 0.000000 0.000000 0.000000 0.000000 0.045946
#
#
# Mechanical properties :
#
#
# Convention : Reuss Voigt Hill
#
# Bulk Modulus (GPa) = 50.91528 57.07869 53.99698
# Shear Modulus (GPa) = 26.45506 27.58533 27.02019
#
# Velocity S-wave (km/s) = 3.74612 3.82531 3.78592
# Velocity P-wave (km/s) = 6.76164 7.05611 6.91044
#
# Compressibility (1/GPa) = 0.01964047
#
# Stress axis : x y z
#
# Youngs Moduli (GPa) = 68.60786 88.24661 63.50448
#
# Poissons Ratio (x) = 0.52746 0.12874
# Poissons Ratio (y) = 0.41007 0.19068
# Poissons Ratio (z) = 0.13909 0.26497
#
# Static dielectric constant tensor:
#      x y z
#    x 3.382970 0.000000 0.000000 
#    y 0.000000 3.504390 0.000000 
#    z 0.000000 0.000000 3.397740 
# 
# 
# High freq. dielectric constant tensor:
#      x y z
#    x 1.728720 0.000000 0.000000 
#    y 0.000000 1.737770 0.000000 
#    z 0.000000 0.000000 1.734260 
# 
# From -- ./inp_files/23222.got.cif
#   From: 2010.03.12/outbox.cif.g09.slc.cpg/sg62_12_cif.got.tgz:23222.got - 2010.04.10 19:12:36.
