data_PCOD8251823
_publ_section_title
;
Structure prediction by ZEFSAII (Michael W. Deem and Ramdas Pophale) SiO2 
 PCOD8251823
Probable space group: P N M A
;
_chemical_formula_sum "Si O2"
_cell_formula_units_Z 64
_cell_length_a 20.621481
_cell_length_b 9.025925
_cell_length_c 19.047773
_cell_angle_alpha 90.000000
_cell_angle_beta 90.000000
_cell_angle_gamma 90.000000
_cell_volume 3545.322767
_symmetry_space_group_name_H-M "P N M A"
_symmetry_group_IT_number 62
_symmetry_cell_setting 'orthorhombic'
loop_
_space_group_symop_operation_xyz
x,y,z
1/2-x,-y,1/2+z
1/2+x,1/2-y,1/2-z
-x,1/2+y,-z
-x,-y,-z
1/2+x,y,1/2-z
1/2-x,1/2+y,1/2+z
x,1/2-y,z
loop_
_atom_site_type_symbol
_atom_site_label
_atom_site_fract_x
_atom_site_fract_y
_atom_site_fract_z
Si Si1 0.439134 0.923854 0.535448
Si Si2 0.689254 0.422397 0.548968
Si Si3 0.112161 0.920313 0.166976
Si Si4 0.879025 0.422197 0.675742
Si Si5 0.939140 0.078263 0.533315
Si Si6 0.762089 0.576803 0.321566
Si Si7 0.243610 0.574455 0.821847
Si Si8 0.689412 0.576924 0.952952
O O1 0.450912 0.750000 0.537925
O O2 0.376381 0.966884 0.490373
O O3 0.500000 0.000000 0.500000
O O4 0.430263 0.979541 0.615249
O O5 0.690692 0.250000 0.569450
O O6 0.693596 0.520091 0.618938
O O7 0.748692 0.464570 0.499127
O O8 0.098318 0.750000 0.148363
O O9 0.091244 0.956129 0.247443
O O10 0.187863 0.958559 0.158198
O O11 0.857270 0.250000 0.671186
O O12 0.932428 0.459325 0.616346
O O13 0.815540 0.517983 0.660346
O O14 0.950203 0.250000 0.521695
O O15 0.874104 0.025900 0.494596
O O16 0.000000 0.000000 0.500000
O O17 0.773059 0.750000 0.309491
O O18 0.781554 0.491550 0.251183
O O19 0.809056 0.517691 0.382013
O O20 0.243766 0.750000 0.817798
O O21 0.688838 0.750000 0.934095
#
# Coordination Sequence:
#
# PCOD8251823 Si02
#       8
#     8   8   8   8   8   8   8   8
#     4  11  23  38  58  82 113 149 185 229 280 336
#     4  10  20  37  58  80 111 148 185 226 281 333
#     4   9  18  33  56  82 109 142 186 229 273 331
#     4   9  18  36  57  80 111 149 185 227 282 334
#     4  10  21  37  57  81 115 152 187 231 278 330
#     4  10  20  34  55  83 116 149 184 231 284 337
#     4  11  21  32  54  86 115 144 186 237 281 330
#     4  10  19  35  58  82 111 145 188 234 276 325
#
# _framework density 18.051953000000001
#
# number of rings (size 3 to 8) (size 9 to 14) (size 15 to 20)
#    0.000    2.000    2.500    2.625    0.000    4.500 
#    0.000    1.250    0.000    4.500    0.000    0.000 
#    0.000    0.000    0.000    0.000    0.000    0.000 
#
# Total GULP energy -793753.840357 kJ/mol
# GULP energy per Si atom -12402.403756 kJ/mol
# Density = 1.801087 g / cm^3
# Si number density = 18.051953 Si / 1000 Ang^3
#
#
#
# Elastic Constant Matrix: (Units=GPa)
#
#
# Indices 1 2 3 4 5 6 
#
# 1 109.7028 50.3111 72.1615 0.0000 0.0000 0.0000
# 2 50.3111 87.9302 73.0914 0.0000 0.0000 0.0000
# 3 72.1615 73.0914 160.2799 0.0000 0.0000 0.0000
# 4 0.0000 0.0000 0.0000 35.9772 0.0000 0.0000
# 5 0.0000 0.0000 0.0000 0.0000 26.6178 0.0000
# 6 0.0000 0.0000 0.0000 0.0000 0.0000 28.6549
#
#
#
# Elastic Compliance Matrix: (Units=1/GPa)
#
#
# Indices 1 2 3 4 5 6 
#
# 1 0.013954 -0.004448 -0.004254 0.000000 0.000000 0.000000
# 2 -0.004448 0.019733 -0.006996 0.000000 0.000000 0.000000
# 3 -0.004254 -0.006996 0.011345 0.000000 0.000000 0.000000
# 4 0.000000 0.000000 0.000000 0.027795 0.000000 0.000000
# 5 0.000000 0.000000 0.000000 0.000000 0.037569 0.000000
# 6 0.000000 0.000000 0.000000 0.000000 0.000000 0.034898
#
#
# Mechanical properties :
#
#
# Convention : Reuss Voigt Hill
#
# Bulk Modulus (GPa) = 73.33795 83.22677 78.28236
# Shear Modulus (GPa) = 27.58851 29.07324 28.33088
#
# Velocity S-wave (km/s) = 3.91357 4.01750 3.96587
# Velocity P-wave (km/s) = 7.81893 8.22949 8.02683
#
# Compressibility (1/GPa) = 0.01363551
#
# Stress axis : x y z
#
# Youngs Moduli (GPa) = 71.66654 50.67608 88.14651
#
# Poissons Ratio (x) = 0.22540 0.37496
# Poissons Ratio (y) = 0.31876 0.61670
# Poissons Ratio (z) = 0.30486 0.35455
#
# Static dielectric constant tensor:
#      x y z
#    x 3.124330 0.000000 0.000000 
#    y 0.000000 3.263010 0.000000 
#    z 0.000000 0.000000 3.571000 
# 
# 
# High freq. dielectric constant tensor:
#      x y z
#    x 1.669760 0.000000 0.000000 
#    y 0.000000 1.698780 0.000000 
#    z 0.000000 0.000000 1.715520 
# 
# From -- ./inp_files/24768.got.cif
#   From: 2010.03.12/outbox.cif.g09.slc.cpg/sg62_13_cif.got.tgz:24768.got - 2010.04.10 19:12:36.
