data_PCOD8251504
_publ_section_title
;
Structure prediction by ZEFSAII (Michael W. Deem and Ramdas Pophale) SiO2 
 PCOD8251504
Probable space group: P N M A
;
_chemical_formula_sum "Si O2"
_cell_formula_units_Z 56
_cell_length_a 16.496885
_cell_length_b 9.284521
_cell_length_c 19.700473
_cell_angle_alpha 90.000000
_cell_angle_beta 90.000000
_cell_angle_gamma 90.000000
_cell_volume 3017.436249
_symmetry_space_group_name_H-M "P N M A"
_symmetry_group_IT_number 62
_symmetry_cell_setting 'orthorhombic'
loop_
_space_group_symop_operation_xyz
x,y,z
1/2-x,-y,1/2+z
1/2+x,1/2-y,1/2-z
-x,1/2+y,-z
-x,-y,-z
1/2+x,y,1/2-z
1/2-x,1/2+y,1/2+z
x,1/2-y,z
loop_
_atom_site_type_symbol
_atom_site_label
_atom_site_fract_x
_atom_site_fract_y
_atom_site_fract_z
Si Si1 0.810738 0.583485 0.122073
Si Si2 0.765575 0.080986 0.478045
Si Si3 0.086901 0.414843 0.694978
Si Si4 0.931778 0.581459 0.458377
Si Si5 0.488013 0.584766 0.333486
Si Si6 0.144149 0.085564 0.137841
Si Si7 0.233299 0.584145 0.751574
O O1 0.798725 0.750000 0.140603
O O2 0.758175 0.493681 0.176132
O O3 0.905004 0.540461 0.128726
O O4 0.780725 0.547078 0.047490
O O5 0.787620 0.250000 0.470680
O O6 0.707341 0.026911 0.417869
O O7 0.845903 0.986456 0.477045
O O8 0.116771 0.250000 0.703210
O O9 0.048266 0.441293 0.621258
O O10 0.164122 0.516488 0.704115
O O11 0.020358 0.449308 0.752965
O O12 0.931425 0.750000 0.477455
O O13 0.000000 0.500000 0.500000
O O14 0.508964 0.750000 0.346005
O O15 0.559894 0.496554 0.367226
O O16 0.124779 0.250000 0.120798
O O17 0.181634 0.066791 0.212728
O O18 0.210986 0.750000 0.763277
#
# Coordination Sequence:
#
# PCOD8251504 Si02
#       7
#     8   8   8   8   8   8   8
#     4   9  20  38  58  80 112 153 192 232 281 341
#     4  10  21  40  60  80 114 155 192 234 289 344
#     4   9  19  37  57  78 107 144 187 229 279 340
#     4  11  23  38  59  86 116 150 192 238 287 345
#     4   9  19  35  55  81 109 144 190 233 275 331
#     4  10  21  35  54  83 114 147 187 232 288 339
#     4  10  19  33  56  82 109 142 185 237 286 336
#
# _framework density 18.558802
#
# number of rings (size 3 to 8) (size 9 to 14) (size 15 to 20)
#    0.000    2.286    1.429    1.714    0.000    6.857 
#    0.000    4.286    0.000    0.000    0.000    0.000 
#    0.000    0.000    0.000    0.000    0.000    0.000 
#
# Total GULP energy -694477.035236 kJ/mol
# GULP energy per Si atom -12401.375629 kJ/mol
# Density = 1.851656 g / cm^3
# Si number density = 18.558802 Si / 1000 Ang^3
#
#
#
# Elastic Constant Matrix: (Units=GPa)
#
#
# Indices 1 2 3 4 5 6 
#
# 1 116.3865 59.9763 66.1913 0.0000 0.0000 0.0000
# 2 59.9763 86.0957 52.5461 0.0000 0.0000 0.0000
# 3 66.1913 52.5461 112.8075 0.0000 0.0000 0.0000
# 4 0.0000 0.0000 0.0000 29.0333 0.0000 0.0000
# 5 0.0000 0.0000 0.0000 0.0000 27.1184 0.0000
# 6 0.0000 0.0000 0.0000 0.0000 0.0000 33.5359
#
#
#
# Elastic Compliance Matrix: (Units=1/GPa)
#
#
# Indices 1 2 3 4 5 6 
#
# 1 0.015683 -0.007418 -0.005747 0.000000 0.000000 0.000000
# 2 -0.007418 0.019737 -0.004841 0.000000 0.000000 0.000000
# 3 -0.005747 -0.004841 0.014492 0.000000 0.000000 0.000000
# 4 0.000000 0.000000 0.000000 0.034443 0.000000 0.000000
# 5 0.000000 0.000000 0.000000 0.000000 0.036875 0.000000
# 6 0.000000 0.000000 0.000000 0.000000 0.000000 0.029819
#
#
# Mechanical properties :
#
#
# Convention : Reuss Voigt Hill
#
# Bulk Modulus (GPa) = 71.94169 74.74635 73.34402
# Shear Modulus (GPa) = 26.08325 27.04258 26.56292
#
# Velocity S-wave (km/s) = 3.75298 3.82138 3.78734
# Velocity P-wave (km/s) = 7.59132 7.73521 7.66360
#
# Compressibility (1/GPa) = 0.01390015
#
# Stress axis : x y z
#
# Youngs Moduli (GPa) = 63.76357 50.66652 69.00432
#
# Poissons Ratio (x) = 0.37582 0.39657
# Poissons Ratio (y) = 0.47297 0.33406
# Poissons Ratio (z) = 0.36645 0.24528
#
# Static dielectric constant tensor:
#      x y z
#    x 3.246100 0.000000 0.000000 
#    y 0.000000 3.418600 0.000000 
#    z 0.000000 0.000000 3.606560 
# 
# 
# High freq. dielectric constant tensor:
#      x y z
#    x 1.708790 0.000000 0.000000 
#    y 0.000000 1.721000 0.000000 
#    z 0.000000 0.000000 1.728350 
# 
# From -- ./inp_files/27122.got.cif
#   From: 2010.03.12/outbox.cif.g09.slc.cpg/sg62_14_cif.got.tgz:27122.got - 2010.04.10 19:12:36.
