data_PCOD8251645
_publ_section_title
;
Structure prediction by ZEFSAII (Michael W. Deem and Ramdas Pophale) SiO2 
 PCOD8251645
Probable space group: P N M A
;
_chemical_formula_sum "Si O2"
_cell_formula_units_Z 64
_cell_length_a 18.809366
_cell_length_b 9.635530
_cell_length_c 18.465584
_cell_angle_alpha 90.000000
_cell_angle_beta 90.000000
_cell_angle_gamma 90.000000
_cell_volume 3346.669398
_symmetry_space_group_name_H-M "P N M A"
_symmetry_group_IT_number 62
_symmetry_cell_setting 'orthorhombic'
loop_
_space_group_symop_operation_xyz
x,y,z
1/2-x,-y,1/2+z
1/2+x,1/2-y,1/2-z
-x,1/2+y,-z
-x,-y,-z
1/2+x,y,1/2-z
1/2-x,1/2+y,1/2+z
x,1/2-y,z
loop_
_atom_site_type_symbol
_atom_site_label
_atom_site_fract_x
_atom_site_fract_y
_atom_site_fract_z
Si Si1 0.533557 0.591580 0.854001
Si Si2 0.586499 0.589564 0.089923
Si Si3 0.603870 0.591473 0.352633
Si Si4 0.196371 0.588643 0.283889
Si Si5 0.834182 0.091888 0.445959
Si Si6 0.315313 0.413455 0.357858
Si Si7 0.973019 0.087818 0.188297
Si Si8 0.791683 0.408066 0.977339
O O1 0.509228 0.750000 0.865176
O O2 0.485490 0.497016 0.904887
O O3 0.615631 0.573644 0.876382
O O4 0.525771 0.544083 0.771808
O O5 0.565143 0.750000 0.086285
O O6 0.636362 0.555298 0.157419
O O7 0.625276 0.540805 0.017480
O O8 0.581547 0.750000 0.335810
O O9 0.663477 0.545505 0.293757
O O10 0.534231 0.496840 0.352019
O O11 0.634834 0.576719 0.433549
O O12 0.219001 0.750000 0.285568
O O13 0.265421 0.496406 0.301888
O O14 0.808958 0.250000 0.455400
O O15 0.765535 0.998423 0.434300
O O16 0.302347 0.250000 0.345677
O O17 0.396822 0.453359 0.343693
O O18 0.300043 0.459937 0.440281
O O19 0.988380 0.250000 0.177433
O O20 0.765368 0.250000 0.976405
#
# Coordination Sequence:
#
# PCOD8251645 Si02
#       8
#     8   8   8   8   8   8   8   8
#     4  10  21  35  53  80 113 147 183 225 275 332
#     4  10  19  34  56  81 112 148 183 224 273 329
#     4  10  22  40  59  82 113 148 187 231 278 328
#     4  10  20  36  58  84 113 145 184 228 275 330
#     4  10  21  36  54  81 116 148 182 226 275 332
#     4  10  22  39  59  84 114 146 185 231 279 329
#     4  10  22  39  57  82 112 144 185 232 279 329
#     4  10  22  39  58  82 112 147 187 232 278 328
#
# _framework density 19.12349
#
# number of rings (size 3 to 8) (size 9 to 14) (size 15 to 20)
#    0.000    2.000    2.500    0.375    1.750    3.500 
#    0.000    0.000    0.000    0.000    0.000    0.000 
#    0.000    0.000    0.000    0.000    0.000    0.000 
#
# Total GULP energy -793825.239230 kJ/mol
# GULP energy per Si atom -12403.519363 kJ/mol
# Density = 1.907996 g / cm^3
# Si number density = 19.123490 Si / 1000 Ang^3
#
#
#
# Elastic Constant Matrix: (Units=GPa)
#
#
# Indices 1 2 3 4 5 6 
#
# 1 109.5291 57.6763 20.9238 0.0000 0.0000 0.0000
# 2 57.6763 62.9176 18.3881 0.0000 0.0000 0.0000
# 3 20.9238 18.3881 32.2610 0.0000 0.0000 0.0000
# 4 0.0000 0.0000 0.0000 22.5173 0.0000 0.0000
# 5 0.0000 0.0000 0.0000 0.0000 26.3074 0.0000
# 6 0.0000 0.0000 0.0000 0.0000 0.0000 42.3400
#
#
#
# Elastic Compliance Matrix: (Units=1/GPa)
#
#
# Indices 1 2 3 4 5 6 
#
# 1 0.017844 -0.015568 -0.002699 0.000000 0.000000 0.000000
# 2 -0.015568 0.032654 -0.008515 0.000000 0.000000 0.000000
# 3 -0.002699 -0.008515 0.037601 0.000000 0.000000 0.000000
# 4 0.000000 0.000000 0.000000 0.044410 0.000000 0.000000
# 5 0.000000 0.000000 0.000000 0.000000 0.038012 0.000000
# 6 0.000000 0.000000 0.000000 0.000000 0.000000 0.023618
#
#
# Mechanical properties :
#
#
# Convention : Reuss Voigt Hill
#
# Bulk Modulus (GPa) = 28.95718 44.29824 36.62771
# Shear Modulus (GPa) = 19.28900 25.41425 22.35162
#
# Velocity S-wave (km/s) = 3.17938 3.64944 3.42249
# Velocity P-wave (km/s) = 5.35285 6.40097 5.90023
#
# Compressibility (1/GPa) = 0.03453375
#
# Stress axis : x y z
#
# Youngs Moduli (GPa) = 56.04214 30.62445 26.59497
#
# Poissons Ratio (x) = 0.47677 0.07179
# Poissons Ratio (y) = 0.87248 0.22644
# Poissons Ratio (z) = 0.15128 0.26075
#
# Static dielectric constant tensor:
#      x y z
#    x 3.341910 0.000000 0.000000 
#    y 0.000000 2.754450 0.000000 
#    z 0.000000 0.000000 3.573050 
# 
# 
# High freq. dielectric constant tensor:
#      x y z
#    x 1.739030 0.000000 0.000000 
#    y 0.000000 1.737240 0.000000 
#    z 0.000000 0.000000 1.750700 
# 
# From -- ./inp_files/24761.got.cif
#   From: 2010.03.12/outbox.cif.g09.slc.cpg/sg62_13_cif.got.tgz:24761.got - 2010.04.10 19:12:36.
