data_PCOD8251608
_publ_section_title
;
Structure prediction by ZEFSAII (Michael W. Deem and Ramdas Pophale) SiO2 
 PCOD8251608
Probable space group: P N M A
;
_chemical_formula_sum "Si O2"
_cell_formula_units_Z 64
_cell_length_a 14.699485
_cell_length_b 9.264120
_cell_length_c 25.057643
_cell_angle_alpha 90.000000
_cell_angle_beta 90.000000
_cell_angle_gamma 90.000000
_cell_volume 3412.294521
_symmetry_space_group_name_H-M "P N M A"
_symmetry_group_IT_number 62
_symmetry_cell_setting 'orthorhombic'
loop_
_space_group_symop_operation_xyz
x,y,z
1/2-x,-y,1/2+z
1/2+x,1/2-y,1/2-z
-x,1/2+y,-z
-x,-y,-z
1/2+x,y,1/2-z
1/2-x,1/2+y,1/2+z
x,1/2-y,z
loop_
_atom_site_type_symbol
_atom_site_label
_atom_site_fract_x
_atom_site_fract_y
_atom_site_fract_z
Si Si1 0.298092 0.582763 0.442185
Si Si2 0.175957 0.417381 0.363412
Si Si3 0.714977 0.919698 0.838944
Si Si4 0.493257 0.579182 0.399324
Si Si5 0.471739 0.912877 0.280669
Si Si6 0.836821 0.916216 0.937791
Si Si7 0.012053 0.585777 0.679181
Si Si8 0.741449 0.415556 0.734706
O O1 0.283851 0.750000 0.426697
O O2 0.217961 0.490303 0.415682
O O3 0.395525 0.527890 0.421054
O O4 0.290385 0.556969 0.505233
O O5 0.204986 0.250000 0.361117
O O6 0.207068 0.496890 0.310291
O O7 0.066006 0.434193 0.365550
O O8 0.725307 0.750000 0.827126
O O9 0.764187 0.965260 0.893479
O O10 0.608857 0.965921 0.844566
O O11 0.761673 0.009415 0.791413
O O12 0.501630 0.750000 0.405047
O O13 0.504960 0.528157 0.338008
O O14 0.571057 0.507114 0.434648
O O15 0.504866 0.750000 0.272970
O O16 0.363765 0.924178 0.279567
O O17 0.516522 0.002030 0.232926
O O18 0.864294 0.750000 0.930711
O O19 0.020105 0.750000 0.697601
O O20 0.775261 0.250000 0.736746
#
# Coordination Sequence:
#
# PCOD8251608 Si02
#       8
#     8   8   8   8   8   8   8   8
#     4  10  21  40  58  78 111 148 185 227 276 328
#     4  11  22  35  55  83 109 142 185 227 273 322
#     4   9  19  38  57  79 111 145 183 227 273 324
#     4  10  20  35  54  79 113 146 180 224 273 328
#     4   9  18  33  52  78 109 143 177 214 266 325
#     4  10  22  37  58  82 107 145 190 231 274 327
#     4   9  20  36  54  77 111 146 178 224 272 322
#     4  10  19  34  55  79 110 145 178 221 272 325
#
# _framework density 18.755707000000001
#
# number of rings (size 3 to 8) (size 9 to 14) (size 15 to 20)
#    0.000    2.250    1.250    1.125    1.750    3.500 
#    0.000    0.625    0.000    0.000    0.000    0.000 
#    0.000    0.000    0.000    0.000    0.000    0.000 
#
# Total GULP energy -793678.072059 kJ/mol
# GULP energy per Si atom -12401.219876 kJ/mol
# Density = 1.871302 g / cm^3
# Si number density = 18.755707 Si / 1000 Ang^3
#
#
#
# Elastic Constant Matrix: (Units=GPa)
#
#
# Indices 1 2 3 4 5 6 
#
# 1 31.7303 21.3349 34.7316 0.0000 0.0000 0.0000
# 2 21.3349 65.8025 40.7647 0.0000 0.0000 0.0000
# 3 34.7316 40.7647 105.3652 0.0000 0.0000 0.0000
# 4 0.0000 0.0000 0.0000 30.4325 0.0000 0.0000
# 5 0.0000 0.0000 0.0000 0.0000 28.4521 0.0000
# 6 0.0000 0.0000 0.0000 0.0000 0.0000 22.7482
#
#
#
# Elastic Compliance Matrix: (Units=1/GPa)
#
#
# Indices 1 2 3 4 5 6 
#
# 1 0.052535 -0.008293 -0.014109 0.000000 0.000000 0.000000
# 2 -0.008293 0.021297 -0.005506 0.000000 0.000000 0.000000
# 3 -0.014109 -0.005506 0.016272 0.000000 0.000000 0.000000
# 4 0.000000 0.000000 0.000000 0.032860 0.000000 0.000000
# 5 0.000000 0.000000 0.000000 0.000000 0.035147 0.000000
# 6 0.000000 0.000000 0.000000 0.000000 0.000000 0.043960
#
#
# Mechanical properties :
#
#
# Convention : Reuss Voigt Hill
#
# Bulk Modulus (GPa) = 29.16448 44.06225 36.61337
# Shear Modulus (GPa) = 18.56577 23.39769 20.98173
#
# Velocity S-wave (km/s) = 3.14964 3.53582 3.34830
# Velocity P-wave (km/s) = 5.36753 6.34138 5.87467
#
# Compressibility (1/GPa) = 0.03428828
#
# Stress axis : x y z
#
# Youngs Moduli (GPa) = 19.03504 46.95582 61.45677
#
# Poissons Ratio (x) = 0.38940 0.86707
# Poissons Ratio (y) = 0.15785 0.33837
# Poissons Ratio (z) = 0.26856 0.25853
#
# Static dielectric constant tensor:
#      x y z
#    x 3.497760 0.000000 0.000000 
#    y 0.000000 3.460060 0.000000 
#    z 0.000000 0.000000 3.445630 
# 
# 
# High freq. dielectric constant tensor:
#      x y z
#    x 1.728060 0.000000 0.000000 
#    y 0.000000 1.725490 0.000000 
#    z 0.000000 0.000000 1.721970 
# 
# From -- ./inp_files/29738.got.cif
#   From: 2010.03.12/outbox.cif.g09.slc.cpg/sg62_15_cif.got.tgz:29738.got - 2010.04.10 19:12:36.
