data_PCOD8251517
_publ_section_title
;
Structure prediction by ZEFSAII (Michael W. Deem and Ramdas Pophale) SiO2 
 PCOD8251517
Probable space group: P N M A
;
_chemical_formula_sum "Si O2"
_cell_formula_units_Z 64
_cell_length_a 14.136129
_cell_length_b 9.146262
_cell_length_c 24.682774
_cell_angle_alpha 90.000000
_cell_angle_beta 90.000000
_cell_angle_gamma 90.000000
_cell_volume 3191.303469
_symmetry_space_group_name_H-M "P N M A"
_symmetry_group_IT_number 62
_symmetry_cell_setting 'orthorhombic'
loop_
_space_group_symop_operation_xyz
x,y,z
1/2-x,-y,1/2+z
1/2+x,1/2-y,1/2-z
-x,1/2+y,-z
-x,-y,-z
1/2+x,y,1/2-z
1/2-x,1/2+y,1/2+z
x,1/2-y,z
loop_
_atom_site_type_symbol
_atom_site_label
_atom_site_fract_x
_atom_site_fract_y
_atom_site_fract_z
Si Si1 0.161882 0.918521 0.604963
Si Si2 0.275927 0.909465 0.505483
Si Si3 0.473134 0.920715 0.944699
Si Si4 0.028727 0.089582 0.051665
Si Si5 0.973945 0.921719 0.829005
Si Si6 0.231160 0.421734 0.407264
Si Si7 0.219918 0.575644 0.195436
Si Si8 0.318225 0.078750 0.294475
O O1 0.185504 0.750000 0.620569
O O2 0.186456 0.953562 0.542032
O O3 0.049076 0.947173 0.604016
O O4 0.217715 0.026254 0.644321
O O5 0.261358 0.750000 0.478819
O O6 0.358292 0.904410 0.550019
O O7 0.297113 0.020106 0.456265
O O8 0.465244 0.750000 0.958555
O O9 0.374616 0.979820 0.919464
O O10 0.500000 0.000000 0.000000
O O11 0.982487 0.250000 0.046836
O O12 0.002090 0.021689 0.109963
O O13 0.000000 0.000000 0.000000
O O14 0.946964 0.750000 0.830915
O O15 0.068501 0.947984 0.793996
O O16 0.886264 0.011032 0.804681
O O17 0.237793 0.250000 0.407831
O O18 0.270879 0.478003 0.350147
O O19 0.213243 0.750000 0.195833
O O20 0.273145 0.519118 0.248262
O O21 0.296429 0.250000 0.284431
#
# Coordination Sequence:
#
# PCOD8251517 Si02
#       8
#     8   8   8   8   8   8   8   8
#     4  10  20  38  60  84 119 164 209 244 292 368
#     4  10  19  33  56  84 119 158 194 240 297 356
#     4  10  20  34  57  88 123 161 201 246 297 359
#     4  10  20  34  55  86 120 155 196 244 295 354
#     4  10  21  42  67  88 118 162 207 248 299 373
#     4  10  21  37  59  90 123 156 202 252 301 361
#     4  12  26  42  64  93 124 157 202 265 316 358
#     4  10  23  43  66  89 120 164 208 253 305 369
#
# _framework density 20.054501999999999
#
# number of rings (size 3 to 8) (size 9 to 14) (size 15 to 20)
#    0.000    1.750    2.500    1.875    0.000    5.000 
#    0.000    2.500    0.000    0.000    0.000    0.000 
#    0.000    0.000    0.000    0.000    0.000    0.000 
#
# Total GULP energy -793338.158651 kJ/mol
# GULP energy per Si atom -12395.908729 kJ/mol
# Density = 2.000886 g / cm^3
# Si number density = 20.054502 Si / 1000 Ang^3
#
#
#
# Elastic Constant Matrix: (Units=GPa)
#
#
# Indices 1 2 3 4 5 6 
#
# 1 94.6789 46.3605 49.6302 0.0000 0.0000 0.0000
# 2 46.3605 79.1611 53.2097 0.0000 0.0000 0.0000
# 3 49.6302 53.2097 107.9081 0.0000 0.0000 0.0000
# 4 0.0000 0.0000 0.0000 36.0656 0.0000 0.0000
# 5 0.0000 0.0000 0.0000 0.0000 32.3268 0.0000
# 6 0.0000 0.0000 0.0000 0.0000 0.0000 25.1977
#
#
#
# Elastic Compliance Matrix: (Units=1/GPa)
#
#
# Indices 1 2 3 4 5 6 
#
# 1 0.015924 -0.006586 -0.004076 0.000000 0.000000 0.000000
# 2 -0.006586 0.021619 -0.007631 0.000000 0.000000 0.000000
# 3 -0.004076 -0.007631 0.014905 0.000000 0.000000 0.000000
# 4 0.000000 0.000000 0.000000 0.027727 0.000000 0.000000
# 5 0.000000 0.000000 0.000000 0.000000 0.030934 0.000000
# 6 0.000000 0.000000 0.000000 0.000000 0.000000 0.039686
#
#
# Mechanical properties :
#
#
# Convention : Reuss Voigt Hill
#
# Bulk Modulus (GPa) = 63.04860 64.46102 63.75481
# Shear Modulus (GPa) = 25.95132 27.55456 26.75294
#
# Velocity S-wave (km/s) = 3.60118 3.71075 3.65637
# Velocity P-wave (km/s) = 6.98557 7.11142 7.04877
#
# Compressibility (1/GPa) = 0.01586078
#
# Stress axis : x y z
#
# Youngs Moduli (GPa) = 62.80025 46.25585 67.09139
#
# Poissons Ratio (x) = 0.30462 0.27349
# Poissons Ratio (y) = 0.41357 0.51200
# Poissons Ratio (z) = 0.25600 0.35300
#
# Static dielectric constant tensor:
#      x y z
#    x 4.136660 0.000000 0.000000 
#    y 0.000000 3.474040 0.000000 
#    z 0.000000 0.000000 3.536130 
# 
# 
# High freq. dielectric constant tensor:
#      x y z
#    x 1.801900 0.000000 0.000000 
#    y 0.000000 1.762790 0.000000 
#    z 0.000000 0.000000 1.774810 
# 
# From -- ./inp_files/29768.got.cif
#   From: 2010.03.12/outbox.cif.g09.slc.cpg/sg62_15_cif.got.tgz:29768.got - 2010.04.10 19:12:36.
