data_PCOD8251111
_publ_section_title
;
Structure prediction by ZEFSAII (Michael W. Deem and Ramdas Pophale) SiO2 
 PCOD8251111
Probable space group: P N M A
;
_chemical_formula_sum "Si O2"
_cell_formula_units_Z 64
_cell_length_a 28.009046
_cell_length_b 15.019183
_cell_length_c 8.534237
_cell_angle_alpha 90.000000
_cell_angle_beta 90.000000
_cell_angle_gamma 90.000000
_cell_volume 3590.122975
_symmetry_space_group_name_H-M "P N M A"
_symmetry_group_IT_number 62
_symmetry_cell_setting 'orthorhombic'
loop_
_space_group_symop_operation_xyz
x,y,z
1/2-x,-y,1/2+z
1/2+x,1/2-y,1/2-z
-x,1/2+y,-z
-x,-y,-z
1/2+x,y,1/2-z
1/2-x,1/2+y,1/2+z
x,1/2-y,z
loop_
_atom_site_type_symbol
_atom_site_label
_atom_site_fract_x
_atom_site_fract_y
_atom_site_fract_z
Si Si1 0.931171 0.850660 0.421460
Si Si2 0.680954 0.149663 0.591863
Si Si3 0.845215 0.923868 0.608868
Si Si4 0.904360 0.922449 0.901985
Si Si5 0.741176 0.350644 0.292354
Si Si6 0.824473 0.014885 0.310634
Si Si7 0.426427 0.485942 0.301669
Si Si8 0.991082 0.649655 0.720323
O O1 0.933885 0.750000 0.355933
O O2 0.880134 0.862019 0.506163
O O3 0.937411 0.918876 0.278859
O O4 0.973744 0.868837 0.543765
O O5 0.684087 0.250000 0.658618
O O6 0.629864 0.138889 0.507694
O O7 0.722847 0.131520 0.467732
O O8 0.686999 0.081090 0.733929
O O9 0.874380 0.964505 0.756892
O O10 0.800934 0.865714 0.667826
O O11 0.825804 0.003864 0.499321
O O12 0.947469 0.862747 0.839826
O O13 0.925340 0.001669 0.010014
O O14 0.759414 0.250000 0.273610
O O15 0.784964 0.415446 0.256540
O O16 0.875457 0.051978 0.253845
O O17 0.466118 0.415733 0.257584
O O18 0.009923 0.750000 0.738164
#
# Coordination Sequence:
#
# PCOD8251111 Si02
#       8
#     8   8   8   8   8   8   8   8
#     4   9  18  32  51  75  99 123 156 200 247 286
#     4   9  18  32  50  72  95 119 154 200 245 283
#     4   9  18  32  51  73  96 122 156 200 246 283
#     4   9  18  32  50  71  94 123 159 202 247 282
#     4  10  19  32  50  71  97 127 157 191 233 285
#     4  10  20  32  49  71  97 128 158 192 234 284
#     4  10  20  32  49  72  99 130 161 196 236 284
#     4  10  19  32  50  71  98 130 162 197 236 283
#
# _framework density 17.826688000000001
#
# number of rings (size 3 to 8) (size 9 to 14) (size 15 to 20)
#    0.000    2.500    0.000    2.250    0.000    9.000 
#    0.000    0.000    0.000    0.750    0.000    0.000 
#    0.000    0.000    0.000    0.000    0.000    0.000 
#
# Total GULP energy -793485.066195 kJ/mol
# GULP energy per Si atom -12398.204159 kJ/mol
# Density = 1.778611 g / cm^3
# Si number density = 17.826688 Si / 1000 Ang^3
#
#
#
# Elastic Constant Matrix: (Units=GPa)
#
#
# Indices 1 2 3 4 5 6 
#
# 1 80.0751 63.6117 27.1812 0.0000 0.0000 0.0000
# 2 63.6117 101.0315 44.5202 0.0000 0.0000 0.0000
# 3 27.1812 44.5202 89.2606 0.0000 0.0000 0.0000
# 4 0.0000 0.0000 0.0000 17.0019 0.0000 0.0000
# 5 0.0000 0.0000 0.0000 0.0000 16.7446 0.0000
# 6 0.0000 0.0000 0.0000 0.0000 0.0000 23.2411
#
#
#
# Elastic Compliance Matrix: (Units=1/GPa)
#
#
# Indices 1 2 3 4 5 6 
#
# 1 0.024992 -0.015870 0.000305 0.000000 0.000000 0.000000
# 2 -0.015870 0.022763 -0.006521 0.000000 0.000000 0.000000
# 3 0.000305 -0.006521 0.014363 0.000000 0.000000 0.000000
# 4 0.000000 0.000000 0.000000 0.058817 0.000000 0.000000
# 5 0.000000 0.000000 0.000000 0.000000 0.059721 0.000000
# 6 0.000000 0.000000 0.000000 0.000000 0.000000 0.043027
#
#
# Mechanical properties :
#
#
# Convention : Reuss Voigt Hill
#
# Bulk Modulus (GPa) = 55.72212 60.11039 57.91625
# Shear Modulus (GPa) = 18.25909 20.40112 19.33010
#
# Velocity S-wave (km/s) = 3.20387 3.38659 3.29650
# Velocity P-wave (km/s) = 6.70909 7.00603 6.85917
#
# Compressibility (1/GPa) = 0.01794620
#
# Stress axis : x y z
#
# Youngs Moduli (GPa) = 40.01340 43.93032 69.62438
#
# Poissons Ratio (x) = 0.69716 -0.02123
# Poissons Ratio (y) = 0.63500 0.45402
# Poissons Ratio (z) = -0.01220 0.28647
#
# Static dielectric constant tensor:
#      x y z
#    x 3.287090 0.000000 0.000000 
#    y 0.000000 3.052200 0.000000 
#    z 0.000000 0.000000 3.502690 
# 
# 
# High freq. dielectric constant tensor:
#      x y z
#    x 1.687410 0.000000 0.000000 
#    y 0.000000 1.663920 0.000000 
#    z 0.000000 0.000000 1.697660 
# 
# From -- ./inp_files/10525.got.cif
#   From: 2010.03.12/outbox.cif.g09.slc.cpg/sg62_6_cif.got.tgz:10525.got - 2010.04.10 19:12:36.
