data_PCOD8251340
_publ_section_title
;
Structure prediction by ZEFSAII (Michael W. Deem and Ramdas Pophale) SiO2 
 PCOD8251340
Probable space group: P N M A
;
_chemical_formula_sum "Si O2"
_cell_formula_units_Z 56
_cell_length_a 18.512471
_cell_length_b 8.476340
_cell_length_c 18.955897
_cell_angle_alpha 90.000000
_cell_angle_beta 90.000000
_cell_angle_gamma 90.000000
_cell_volume 2974.521416
_symmetry_space_group_name_H-M "P N M A"
_symmetry_group_IT_number 62
_symmetry_cell_setting 'orthorhombic'
loop_
_space_group_symop_operation_xyz
x,y,z
1/2-x,-y,1/2+z
1/2+x,1/2-y,1/2-z
-x,1/2+y,-z
-x,-y,-z
1/2+x,y,1/2-z
1/2-x,1/2+y,1/2+z
x,1/2-y,z
loop_
_atom_site_type_symbol
_atom_site_label
_atom_site_fract_x
_atom_site_fract_y
_atom_site_fract_z
Si Si1 0.695939 0.562992 0.894187
Si Si2 0.956340 0.931410 0.435518
Si Si3 0.453587 0.565258 0.653687
Si Si4 0.510051 0.070142 0.783000
Si Si5 0.609714 0.561914 0.602259
Si Si6 0.661017 0.564884 0.451692
Si Si7 0.156574 0.569520 0.754080
O O1 0.708901 0.750000 0.896895
O O2 0.618112 0.525758 0.926904
O O3 0.755233 0.472899 0.939993
O O4 0.700866 0.496512 0.812364
O O5 0.936954 0.750000 0.449553
O O6 0.007599 0.949452 0.366047
O O7 0.000000 0.000000 0.500000
O O8 0.453972 0.750000 0.666902
O O9 0.444966 0.478005 0.730088
O O10 0.526926 0.506368 0.614486
O O11 0.384925 0.521624 0.607526
O O12 0.534803 0.250000 0.768275
O O13 0.572493 0.946200 0.764673
O O14 0.612549 0.750000 0.603096
O O15 0.638190 0.495516 0.528084
O O16 0.662619 0.497253 0.666209
O O17 0.646434 0.750000 0.447963
O O18 0.179059 0.750000 0.757361
#
# Coordination Sequence:
#
# PCOD8251340 Si02
#       7
#     8   8   8   8   8   8   8
#     4  10  20  35  54  75 102 137 175 215 262 317
#     4  10  20  35  57  82 106 134 171 217 265 313
#     4  10  19  33  52  74 102 137 177 214 254 310
#     4   9  17  30  50  77 103 126 160 206 253 299
#     4   8  16  31  52  76  99 129 171 216 258 303
#     4  11  21  33  50  74 107 140 171 215 267 315
#     4   8  15  31  53  72  92 123 165 207 248 301
#
# _framework density 18.826557999999999
#
# number of rings (size 3 to 8) (size 9 to 14) (size 15 to 20)
#    0.000    2.571    0.000    3.429    0.000    2.286 
#    0.000    7.857    0.000    5.143    0.000    0.000 
#    0.000    0.000    0.000    0.000    0.000    0.000 
#
# Total GULP energy -693748.458354 kJ/mol
# GULP energy per Si atom -12388.365328 kJ/mol
# Density = 1.878371 g / cm^3
# Si number density = 18.826558 Si / 1000 Ang^3
#
#
#
# Elastic Constant Matrix: (Units=GPa)
#
#
# Indices 1 2 3 4 5 6 
#
# 1 66.2454 12.2538 55.0035 0.0000 0.0000 0.0000
# 2 12.2538 46.7022 29.9903 0.0000 0.0000 0.0000
# 3 55.0035 29.9903 153.2233 0.0000 0.0000 0.0000
# 4 0.0000 0.0000 0.0000 23.9736 0.0000 0.0000
# 5 0.0000 0.0000 0.0000 0.0000 21.7285 0.0000
# 6 0.0000 0.0000 0.0000 0.0000 0.0000 26.3038
#
#
#
# Elastic Compliance Matrix: (Units=1/GPa)
#
#
# Indices 1 2 3 4 5 6 
#
# 1 0.021530 -0.000785 -0.007575 0.000000 0.000000 0.000000
# 2 -0.000785 0.024519 -0.004517 0.000000 0.000000 0.000000
# 3 -0.007575 -0.004517 0.010130 0.000000 0.000000 0.000000
# 4 0.000000 0.000000 0.000000 0.041713 0.000000 0.000000
# 5 0.000000 0.000000 0.000000 0.000000 0.046023 0.000000
# 6 0.000000 0.000000 0.000000 0.000000 0.000000 0.038017
#
#
# Mechanical properties :
#
#
# Convention : Reuss Voigt Hill
#
# Bulk Modulus (GPa) = 32.86811 51.18512 42.02662
# Shear Modulus (GPa) = 22.95389 25.66272 24.30830
#
# Velocity S-wave (km/s) = 3.49553 3.69604 3.59718
# Velocity P-wave (km/s) = 5.81274 6.74248 6.29480
#
# Compressibility (1/GPa) = 0.03042462
#
# Stress axis : x y z
#
# Youngs Moduli (GPa) = 46.44620 40.78458 98.71700
#
# Poissons Ratio (x) = 0.03200 0.74781
# Poissons Ratio (y) = 0.03644 0.44595
# Poissons Ratio (z) = 0.35184 0.18424
#
# Static dielectric constant tensor:
#      x y z
#    x 2.905150 0.000000 0.000000 
#    y 0.000000 3.332070 0.000000 
#    z 0.000000 0.000000 3.440480 
# 
# 
# High freq. dielectric constant tensor:
#      x y z
#    x 1.687210 0.000000 0.000000 
#    y 0.000000 1.723190 0.000000 
#    z 0.000000 0.000000 1.751990 
# 
# From -- ./inp_files/27528.got.cif
#   From: 2010.03.12/outbox.cif.g09.slc.cpg/sg62_14_cif.got.tgz:27528.got - 2010.04.10 19:12:36.
