data_PCOD8251003
_publ_section_title
;
Structure prediction by ZEFSAII (Michael W. Deem and Ramdas Pophale) SiO2 
 PCOD8251003
Probable space group: P N M A
;
_chemical_formula_sum "Si O2"
_cell_formula_units_Z 64
_cell_length_a 19.658978
_cell_length_b 9.145970
_cell_length_c 19.048488
_cell_angle_alpha 90.000000
_cell_angle_beta 90.000000
_cell_angle_gamma 90.000000
_cell_volume 3424.926200
_symmetry_space_group_name_H-M "P N M A"
_symmetry_group_IT_number 62
_symmetry_cell_setting 'orthorhombic'
loop_
_space_group_symop_operation_xyz
x,y,z
1/2-x,-y,1/2+z
1/2+x,1/2-y,1/2-z
-x,1/2+y,-z
-x,-y,-z
1/2+x,y,1/2-z
1/2-x,1/2+y,1/2+z
x,1/2-y,z
loop_
_atom_site_type_symbol
_atom_site_label
_atom_site_fract_x
_atom_site_fract_y
_atom_site_fract_z
Si Si1 0.351558 0.080971 0.547476
Si Si2 0.996551 0.581232 0.731102
Si Si3 0.025575 0.416210 0.112654
Si Si4 0.787401 0.919701 0.385842
Si Si5 0.362726 0.579013 0.254901
Si Si6 0.969085 0.081661 0.602809
Si Si7 0.596545 0.919117 0.960604
Si Si8 0.370971 0.420725 0.392598
O O1 0.367360 0.250000 0.555641
O O2 0.290330 0.033235 0.598759
O O3 0.332680 0.046139 0.465937
O O4 0.421284 0.004598 0.567341
O O5 0.009284 0.750000 0.712617
O O6 0.069236 0.501312 0.729907
O O7 0.958342 0.563893 0.804880
O O8 0.947856 0.505719 0.673045
O O9 0.032710 0.250000 0.088748
O O10 0.949201 0.471939 0.098278
O O11 0.799105 0.750000 0.405669
O O12 0.804984 0.948271 0.304234
O O13 0.830987 0.019954 0.437815
O O14 0.377638 0.750000 0.264587
O O15 0.336735 0.511927 0.329005
O O16 0.982244 0.250000 0.621310
O O17 0.910296 0.063424 0.544802
O O18 0.039647 0.014687 0.576724
O O19 0.588321 0.750000 0.938643
O O20 0.368510 0.250000 0.371696
#
# Coordination Sequence:
#
# PCOD8251003 Si02
#       8
#     8   8   8   8   8   8   8   8
#     4  10  21  37  56  78 106 143 178 217 273 328
#     4  10  19  32  52  79 109 139 175 218 267 318
#     4   9  19  34  53  80 108 133 172 227 273 319
#     4  10  21  36  53  76 108 142 181 221 262 319
#     4  10  19  32  53  79 104 135 174 218 265 311
#     4  10  19  31  49  77 108 138 178 223 266 312
#     4  10  20  32  50  75 104 141 180 220 267 313
#     4   9  19  36  57  80 106 135 175 222 269 323
#
# _framework density 18.686534000000002
#
# number of rings (size 3 to 8) (size 9 to 14) (size 15 to 20)
#    0.000    2.250    1.250    2.625    0.000    5.500 
#    0.000    1.250    0.000    6.000    0.000    0.000 
#    0.000    0.000    0.000    0.000    0.000    0.000 
#
# Total GULP energy -793513.956028 kJ/mol
# GULP energy per Si atom -12398.655563 kJ/mol
# Density = 1.864400 g / cm^3
# Si number density = 18.686534 Si / 1000 Ang^3
#
#
#
# Elastic Constant Matrix: (Units=GPa)
#
#
# Indices 1 2 3 4 5 6 
#
# 1 53.5234 28.9416 38.4415 0.0000 0.0000 0.0000
# 2 28.9416 93.7375 53.4696 0.0000 0.0000 0.0000
# 3 38.4415 53.4696 109.1221 0.0000 0.0000 0.0000
# 4 0.0000 0.0000 0.0000 36.5658 0.0000 0.0000
# 5 0.0000 0.0000 0.0000 0.0000 27.8797 0.0000
# 6 0.0000 0.0000 0.0000 0.0000 0.0000 19.6266
#
#
#
# Elastic Compliance Matrix: (Units=1/GPa)
#
#
# Indices 1 2 3 4 5 6 
#
# 1 0.025995 -0.003889 -0.007252 0.000000 0.000000 0.000000
# 2 -0.003889 0.015389 -0.006170 0.000000 0.000000 0.000000
# 3 -0.007252 -0.006170 0.014742 0.000000 0.000000 0.000000
# 4 0.000000 0.000000 0.000000 0.027348 0.000000 0.000000
# 5 0.000000 0.000000 0.000000 0.000000 0.035868 0.000000
# 6 0.000000 0.000000 0.000000 0.000000 0.000000 0.050951
#
#
# Mechanical properties :
#
#
# Convention : Reuss Voigt Hill
#
# Bulk Modulus (GPa) = 46.50546 55.34313 50.92429
# Shear Modulus (GPa) = 23.57564 25.84975 24.71270
#
# Velocity S-wave (km/s) = 3.55581 3.72336 3.64055
# Velocity P-wave (km/s) = 6.46526 6.94013 6.70690
#
# Compressibility (1/GPa) = 0.02150285
#
# Stress axis : x y z
#
# Youngs Moduli (GPa) = 38.46922 64.98334 67.83334
#
# Poissons Ratio (x) = 0.25275 0.49190
# Poissons Ratio (y) = 0.14963 0.41854
# Poissons Ratio (z) = 0.27896 0.40096
#
# Static dielectric constant tensor:
#      x y z
#    x 3.063940 0.000000 0.000000 
#    y 0.000000 3.524140 0.000000 
#    z 0.000000 0.000000 3.798400 
# 
# 
# High freq. dielectric constant tensor:
#      x y z
#    x 1.681720 0.000000 0.000000 
#    y 0.000000 1.732290 0.000000 
#    z 0.000000 0.000000 1.741310 
# 
# From -- ./inp_files/27725.got.cif
#   From: 2010.03.12/outbox.cif.g09.slc.cpg/sg62_14_cif.got.tgz:27725.got - 2010.04.10 19:12:36.
