data_PCOD8251023
_publ_section_title
;
Structure prediction by ZEFSAII (Michael W. Deem and Ramdas Pophale) SiO2 
 PCOD8251023
Probable space group: P N M A
;
_chemical_formula_sum "Si O2"
_cell_formula_units_Z 64
_cell_length_a 22.259938
_cell_length_b 9.079381
_cell_length_c 17.121449
_cell_angle_alpha 90.000000
_cell_angle_beta 90.000000
_cell_angle_gamma 90.000000
_cell_volume 3460.355416
_symmetry_space_group_name_H-M "P N M A"
_symmetry_group_IT_number 62
_symmetry_cell_setting 'orthorhombic'
loop_
_space_group_symop_operation_xyz
x,y,z
1/2-x,-y,1/2+z
1/2+x,1/2-y,1/2-z
-x,1/2+y,-z
-x,-y,-z
1/2+x,y,1/2-z
1/2-x,1/2+y,1/2+z
x,1/2-y,z
loop_
_atom_site_type_symbol
_atom_site_label
_atom_site_fract_x
_atom_site_fract_y
_atom_site_fract_z
Si Si1 0.895398 0.077431 0.269582
Si Si2 0.361224 0.919830 0.459834
Si Si3 0.342813 0.575750 0.787642
Si Si4 0.902716 0.577094 0.871209
Si Si5 0.285499 0.422538 0.339270
Si Si6 0.564187 0.419195 0.911154
Si Si7 0.559777 0.420028 0.087709
Si Si8 0.027763 0.076433 0.853446
O O1 0.908158 0.250000 0.271321
O O2 0.833316 0.038210 0.227557
O O3 0.890907 0.013542 0.357127
O O4 0.951291 0.998758 0.227047
O O5 0.347992 0.750000 0.444054
O O6 0.363534 0.955920 0.551702
O O7 0.424798 0.964579 0.421190
O O8 0.306172 0.008278 0.421434
O O9 0.337597 0.750000 0.785613
O O10 0.364334 0.519488 0.702773
O O11 0.277825 0.509563 0.810501
O O12 0.389760 0.523746 0.852921
O O13 0.918090 0.750000 0.864237
O O14 0.964229 0.488519 0.878459
O O15 0.280249 0.250000 0.353683
O O16 0.566164 0.250000 0.885229
O O17 0.497049 0.477482 0.899329
O O18 0.585484 0.439028 0.000294
O O19 0.541621 0.250000 0.103298
O O20 0.022063 0.250000 0.840603
#
# Coordination Sequence:
#
# PCOD8251023 Si02
#       8
#     8   8   8   8   8   8   8   8
#     4  10  19  32  51  74 100 134 174 212 253 302
#     4   9  19  34  51  76 107 138 167 205 257 306
#     4   9  18  35  55  73  97 133 174 213 252 300
#     4  10  19  32  53  79 106 135 168 206 255 313
#     4   9  19  36  55  71  94 133 178 215 248 296
#     4  10  19  31  50  78 107 132 166 212 258 307
#     4   9  18  33  53  75 103 137 169 207 258 312
#     4  10  19  31  50  77 110 138 166 207 255 305
#
# _framework density 18.495211000000001
#
# number of rings (size 3 to 8) (size 9 to 14) (size 15 to 20)
#    0.000    2.500    0.000    2.250    0.000    3.000 
#    2.250    1.250    0.000    0.000    0.000    0.000 
#    0.000    0.000    0.000    0.000    0.000    0.000 
#
# Total GULP energy -793692.481296 kJ/mol
# GULP energy per Si atom -12401.445020 kJ/mol
# Density = 1.845312 g / cm^3
# Si number density = 18.495211 Si / 1000 Ang^3
#
#
#
# Elastic Constant Matrix: (Units=GPa)
#
#
# Indices 1 2 3 4 5 6 
#
# 1 95.8624 29.7470 60.5359 0.0000 0.0000 0.0000
# 2 29.7470 57.1201 41.0097 0.0000 0.0000 0.0000
# 3 60.5359 41.0097 142.9951 0.0000 0.0000 0.0000
# 4 0.0000 0.0000 0.0000 29.3875 0.0000 0.0000
# 5 0.0000 0.0000 0.0000 0.0000 17.3137 0.0000
# 6 0.0000 0.0000 0.0000 0.0000 0.0000 19.4614
#
#
#
# Elastic Compliance Matrix: (Units=1/GPa)
#
#
# Indices 1 2 3 4 5 6 
#
# 1 0.014958 -0.004085 -0.005161 0.000000 0.000000 0.000000
# 2 -0.004085 0.023162 -0.004913 0.000000 0.000000 0.000000
# 3 -0.005161 -0.004913 0.010587 0.000000 0.000000 0.000000
# 4 0.000000 0.000000 0.000000 0.034028 0.000000 0.000000
# 5 0.000000 0.000000 0.000000 0.000000 0.057758 0.000000
# 6 0.000000 0.000000 0.000000 0.000000 0.000000 0.051384
#
#
# Mechanical properties :
#
#
# Convention : Reuss Voigt Hill
#
# Bulk Modulus (GPa) = 49.04551 62.06253 55.55402
# Shear Modulus (GPa) = 22.02730 24.21154 23.11942
#
# Velocity S-wave (km/s) = 3.45479 3.62203 3.53940
# Velocity P-wave (km/s) = 6.51841 7.14990 6.84144
#
# Compressibility (1/GPa) = 0.02038923
#
# Stress axis : x y z
#
# Youngs Moduli (GPa) = 66.85286 43.17469 94.45319
#
# Poissons Ratio (x) = 0.17635 0.48748
# Poissons Ratio (y) = 0.27306 0.46409
# Poissons Ratio (z) = 0.34503 0.21213
#
# Static dielectric constant tensor:
#      x y z
#    x 3.322510 0.000000 0.000000 
#    y 0.000000 3.283700 0.000000 
#    z 0.000000 0.000000 3.638630 
# 
# 
# High freq. dielectric constant tensor:
#      x y z
#    x 1.700230 0.000000 0.000000 
#    y 0.000000 1.705670 0.000000 
#    z 0.000000 0.000000 1.729330 
# 
# From -- ./inp_files/24841.got.cif
#   From: 2010.03.12/outbox.cif.g09.slc.cpg/sg62_13_cif.got.tgz:24841.got - 2010.04.10 19:12:36.
