data_PCOD8251931
_publ_section_title
;
Structure prediction by ZEFSAII (Michael W. Deem and Ramdas Pophale) SiO2 
 PCOD8251931
Probable space group: P N M A
;
_chemical_formula_sum "Si O2"
_cell_formula_units_Z 64
_cell_length_a 14.180134
_cell_length_b 13.472043
_cell_length_c 19.100032
_cell_angle_alpha 90.000000
_cell_angle_beta 90.000000
_cell_angle_gamma 90.000000
_cell_volume 3648.781776
_symmetry_space_group_name_H-M "P N M A"
_symmetry_group_IT_number 62
_symmetry_cell_setting 'orthorhombic'
loop_
_space_group_symop_operation_xyz
x,y,z
1/2-x,-y,1/2+z
1/2+x,1/2-y,1/2-z
-x,1/2+y,-z
-x,-y,-z
1/2+x,y,1/2-z
1/2-x,1/2+y,1/2+z
x,1/2-y,z
loop_
_atom_site_type_symbol
_atom_site_label
_atom_site_fract_x
_atom_site_fract_y
_atom_site_fract_z
Si Si1 0.954869 0.359458 0.680904
Si Si2 0.692319 0.364475 0.321965
Si Si3 0.195924 0.507301 0.785983
Si Si4 0.506305 0.366342 0.117741
Si Si5 0.165748 0.988494 0.411514
Si Si6 0.174286 0.139281 0.666466
Si Si7 0.813317 0.039302 0.430357
Si Si8 0.514556 0.456162 0.267223
O O1 0.920659 0.250000 0.704635
O O2 0.896650 0.394965 0.613172
O O3 0.062619 0.356788 0.658373
O O4 0.940687 0.438003 0.743634
O O5 0.681315 0.250000 0.306850
O O6 0.757302 0.406434 0.259870
O O7 0.740789 0.381898 0.397039
O O8 0.587853 0.411813 0.322611
O O9 0.245840 0.499814 0.860223
O O10 0.202819 0.404195 0.742577
O O11 0.087093 0.532353 0.802610
O O12 0.501049 0.250000 0.100184
O O13 0.602923 0.411316 0.086492
O O14 0.419735 0.424961 0.083117
O O15 0.504271 0.383548 0.200776
O O16 0.207177 0.967129 0.487728
O O17 0.217563 0.250000 0.658599
O O18 0.210100 0.067112 0.605029
#
# Coordination Sequence:
#
# PCOD8251931 Si02
#       8
#     8   8   8   8   8   8   8   8
#     4   9  17  31  53  79 107 137 173 222 277 323
#     4  11  21  36  58  81 109 146 187 232 281 334
#     4  10  20  36  56  82 111 142 188 231 274 333
#     4  11  20  33  56  84 116 148 180 229 292 340
#     4  11  22  36  51  83 117 150 183 228 275 343
#     4   9  18  35  54  75 107 146 182 225 274 325
#     4  11  22  37  52  80 119 149 185 227 279 344
#     4  10  19  36  55  84 111 138 187 236 277 328
#
# _framework density 17.540101
#
# number of rings (size 3 to 8) (size 9 to 14) (size 15 to 20)
#    0.000    1.750    7.500    1.125    0.000    2.500 
#    0.000    0.625    0.000    0.000    0.000    0.000 
#    0.000    0.000    0.000    0.000    0.000    0.000 
#
# Total GULP energy -793529.512111 kJ/mol
# GULP energy per Si atom -12398.898627 kJ/mol
# Density = 1.750018 g / cm^3
# Si number density = 17.540101 Si / 1000 Ang^3
#
#
#
# Elastic Constant Matrix: (Units=GPa)
#
#
# Indices 1 2 3 4 5 6 
#
# 1 82.5878 34.5196 52.9875 0.0000 0.0000 0.0000
# 2 34.5196 133.9957 26.5398 0.0000 0.0000 0.0000
# 3 52.9875 26.5398 112.4770 0.0000 0.0000 0.0000
# 4 0.0000 0.0000 0.0000 10.2369 0.0000 0.0000
# 5 0.0000 0.0000 0.0000 0.0000 22.2342 0.0000
# 6 0.0000 0.0000 0.0000 0.0000 0.0000 17.5675
#
#
#
# Elastic Compliance Matrix: (Units=1/GPa)
#
#
# Indices 1 2 3 4 5 6 
#
# 1 0.018577 -0.003202 -0.007996 0.000000 0.000000 0.000000
# 2 -0.003202 0.008381 -0.000469 0.000000 0.000000 0.000000
# 3 -0.007996 -0.000469 0.012768 0.000000 0.000000 0.000000
# 4 0.000000 0.000000 0.000000 0.097686 0.000000 0.000000
# 5 0.000000 0.000000 0.000000 0.000000 0.044976 0.000000
# 6 0.000000 0.000000 0.000000 0.000000 0.000000 0.056923
#
#
# Mechanical properties :
#
#
# Convention : Reuss Voigt Hill
#
# Bulk Modulus (GPa) = 61.00606 61.90602 61.45604
# Shear Modulus (GPa) = 18.64916 24.34197 21.49557
#
# Velocity S-wave (km/s) = 3.26426 3.72935 3.50453
# Velocity P-wave (km/s) = 7.00454 7.34266 7.17559
#
# Compressibility (1/GPa) = 0.01639182
#
# Stress axis : x y z
#
# Youngs Moduli (GPa) = 53.83073 119.32160 78.31946
#
# Poissons Ratio (x) = 0.38207 0.62623
# Poissons Ratio (y) = 0.17236 0.03674
# Poissons Ratio (z) = 0.43043 0.05597
#
# Static dielectric constant tensor:
#      x y z
#    x 3.296350 0.000000 0.000000 
#    y 0.000000 3.584360 0.000000 
#    z 0.000000 0.000000 2.988430 
# 
# 
# High freq. dielectric constant tensor:
#      x y z
#    x 1.672540 0.000000 0.000000 
#    y 0.000000 1.685550 0.000000 
#    z 0.000000 0.000000 1.643320 
# 
# From -- ./inp_files/24106.got.cif
#   From: 2010.03.12/outbox.cif.g09.slc.cpg/sg62_13_cif.got.tgz:24106.got - 2010.04.10 19:12:36.
