data_PCOD8251336
_publ_section_title
;
Structure prediction by ZEFSAII (Michael W. Deem and Ramdas Pophale) SiO2 
 PCOD8251336
Probable space group: P N M A
;
_chemical_formula_sum "Si O2"
_cell_formula_units_Z 64
_cell_length_a 14.134873
_cell_length_b 8.708983
_cell_length_c 29.994909
_cell_angle_alpha 90.000000
_cell_angle_beta 90.000000
_cell_angle_gamma 90.000000
_cell_volume 3692.384356
_symmetry_space_group_name_H-M "P N M A"
_symmetry_group_IT_number 62
_symmetry_cell_setting 'orthorhombic'
loop_
_space_group_symop_operation_xyz
x,y,z
1/2-x,-y,1/2+z
1/2+x,1/2-y,1/2-z
-x,1/2+y,-z
-x,-y,-z
1/2+x,y,1/2-z
1/2-x,1/2+y,1/2+z
x,1/2-y,z
loop_
_atom_site_type_symbol
_atom_site_label
_atom_site_fract_x
_atom_site_fract_y
_atom_site_fract_z
Si Si1 0.703561 0.428999 0.869184
Si Si2 0.475676 0.570742 0.271055
Si Si3 0.240842 0.427674 0.780027
Si Si4 0.160693 0.421056 0.360538
Si Si5 0.386892 0.429885 0.046276
Si Si6 0.603412 0.069722 0.044968
Si Si7 0.654855 0.069413 0.304309
Si Si8 0.537663 0.921564 0.819986
O O1 0.726322 0.250000 0.869518
O O2 0.681029 0.485647 0.918757
O O3 0.793347 0.518814 0.849533
O O4 0.616035 0.459761 0.836317
O O5 0.489186 0.750000 0.262455
O O6 0.369387 0.530577 0.285804
O O7 0.552132 0.511952 0.306800
O O8 0.502995 0.478544 0.226712
O O9 0.255770 0.250000 0.768377
O O10 0.287772 0.461761 0.827784
O O11 0.286002 0.523247 0.739821
O O12 0.202076 0.250000 0.352332
O O13 0.170102 0.469913 0.412462
O O14 0.048206 0.418400 0.354136
O O15 0.374916 0.250000 0.053923
O O16 0.495159 0.483575 0.053476
O O17 0.353527 0.477264 0.996753
O O18 0.604968 0.250000 0.034184
O O19 0.640324 0.250000 0.303648
O O20 0.581826 0.750000 0.816055
#
# Coordination Sequence:
#
# PCOD8251336 Si02
#       8
#     8   8   8   8   8   8   8   8
#     4  12  23  35  52  76 106 143 181 219 265 316
#     4  11  23  38  53  74 106 141 178 223 266 309
#     4  11  23  36  53  77 106 139 178 219 263 316
#     4  10  20  34  52  75 106 142 179 217 259 309
#     4  10  19  33  51  75 106 138 175 217 263 316
#     4   9  18  33  50  74 106 139 175 215 261 311
#     4  12  24  37  55  76 103 139 181 224 264 314
#     4  11  20  32  51  76 106 142 180 219 259 307
#
# _framework density 17.332972999999999
#
# number of rings (size 3 to 8) (size 9 to 14) (size 15 to 20)
#    0.000    1.250    3.750    3.750    0.000    3.000 
#    0.000    0.000    0.000    0.000    0.000    0.875 
#    0.000    0.000    0.000    0.000    0.000    0.000 
#
# Total GULP energy -793712.131379 kJ/mol
# GULP energy per Si atom -12401.752053 kJ/mol
# Density = 1.729352 g / cm^3
# Si number density = 17.332973 Si / 1000 Ang^3
#
#
#
# Elastic Constant Matrix: (Units=GPa)
#
#
# Indices 1 2 3 4 5 6 
#
# 1 61.6088 24.1110 16.1768 0.0000 0.0000 0.0000
# 2 24.1110 80.1783 24.6385 0.0000 0.0000 0.0000
# 3 16.1768 24.6385 81.7443 0.0000 0.0000 0.0000
# 4 0.0000 0.0000 0.0000 29.4070 0.0000 0.0000
# 5 0.0000 0.0000 0.0000 0.0000 22.0489 0.0000
# 6 0.0000 0.0000 0.0000 0.0000 0.0000 22.8830
#
#
#
# Elastic Compliance Matrix: (Units=1/GPa)
#
#
# Indices 1 2 3 4 5 6 
#
# 1 0.018754 -0.004958 -0.002217 0.000000 0.000000 0.000000
# 2 -0.004958 0.015056 -0.003557 0.000000 0.000000 0.000000
# 3 -0.002217 -0.003557 0.013744 0.000000 0.000000 0.000000
# 4 0.000000 0.000000 0.000000 0.034005 0.000000 0.000000
# 5 0.000000 0.000000 0.000000 0.000000 0.045354 0.000000
# 6 0.000000 0.000000 0.000000 0.000000 0.000000 0.043701
#
#
# Mechanical properties :
#
#
# Convention : Reuss Voigt Hill
#
# Bulk Modulus (GPa) = 38.32866 39.26490 38.79678
# Shear Modulus (GPa) = 24.90350 25.44147 25.17248
#
# Velocity S-wave (km/s) = 3.79459 3.83535 3.81503
# Velocity P-wave (km/s) = 6.43115 6.50505 6.46821
#
# Compressibility (1/GPa) = 0.02609014
#
# Stress axis : x y z
#
# Youngs Moduli (GPa) = 53.32186 66.41735 72.75880
#
# Poissons Ratio (x) = 0.32933 0.16129
# Poissons Ratio (y) = 0.26439 0.25879
# Poissons Ratio (z) = 0.11820 0.23624
#
# Static dielectric constant tensor:
#      x y z
#    x 3.085340 0.000000 0.000000 
#    y 0.000000 3.279230 0.000000 
#    z 0.000000 0.000000 3.236010 
# 
# 
# High freq. dielectric constant tensor:
#      x y z
#    x 1.639200 0.000000 0.000000 
#    y 0.000000 1.681920 0.000000 
#    z 0.000000 0.000000 1.661860 
# 
# From -- ./inp_files/32713.got.cif
#   From: 2010.03.12/outbox.cif.g09.slc.cpg/sg62_17_cif.got.tgz:32713.got - 2010.04.10 19:12:36.
