data_PCOD8251235
_publ_section_title
;
Structure prediction by ZEFSAII (Michael W. Deem and Ramdas Pophale) SiO2 
 PCOD8251235
Probable space group: P N M A
;
_chemical_formula_sum "Si O2"
_cell_formula_units_Z 64
_cell_length_a 15.406177
_cell_length_b 13.012514
_cell_length_c 17.501407
_cell_angle_alpha 90.000000
_cell_angle_beta 90.000000
_cell_angle_gamma 90.000000
_cell_volume 3508.561209
_symmetry_space_group_name_H-M "P N M A"
_symmetry_group_IT_number 62
_symmetry_cell_setting 'orthorhombic'
loop_
_space_group_symop_operation_xyz
x,y,z
1/2-x,-y,1/2+z
1/2+x,1/2-y,1/2-z
-x,1/2+y,-z
-x,-y,-z
1/2+x,y,1/2-z
1/2-x,1/2+y,1/2+z
x,1/2-y,z
loop_
_atom_site_type_symbol
_atom_site_label
_atom_site_fract_x
_atom_site_fract_y
_atom_site_fract_z
Si Si1 0.935726 0.368855 0.222722
Si Si2 0.764063 0.632480 0.737456
Si Si3 0.823108 0.943775 0.582104
Si Si4 0.661593 0.633919 0.986365
Si Si5 0.507343 0.630149 0.883068
Si Si6 0.828975 0.577976 0.898420
Si Si7 0.676079 0.638563 0.473384
Si Si8 0.986300 0.411567 0.061177
O O1 0.956972 0.250000 0.200701
O O2 0.837630 0.378482 0.252767
O O3 0.992131 0.410159 0.295008
O O4 0.954401 0.439891 0.148020
O O5 0.789879 0.750000 0.718362
O O6 0.788918 0.559914 0.667672
O O7 0.819931 0.593385 0.808517
O O8 0.758375 0.882769 0.527063
O O9 0.917690 0.893542 0.575196
O O10 0.828361 0.063876 0.561066
O O11 0.640242 0.750000 0.012709
O O12 0.585774 0.584345 0.933874
O O13 0.750790 0.634368 0.939909
O O14 0.525852 0.750000 0.877895
O O15 0.917021 0.635059 0.927478
O O16 0.833516 0.454635 0.913624
O O17 0.691023 0.750000 0.432584
O O18 0.589820 0.656964 0.525193
O O19 0.000000 0.500000 0.000000
#
# Coordination Sequence:
#
# PCOD8251235 Si02
#       8
#     8   8   8   8   8   8   8   8
#     4  10  19  32  53  79 107 135 170 222 274 315
#     4  11  20  34  56  81 108 138 175 227 278 316
#     4  11  21  33  55  82 106 139 178 217 266 320
#     4  10  21  37  53  77 112 142 176 218 264 319
#     4  10  19  33  54  81 109 138 171 216 271 321
#     4  10  21  35  55  82 107 144 182 218 271 328
#     4  10  20  35  53  79 112 143 179 223 264 316
#     4  10  20  33  51  78 111 143 179 220 269 322
#
# _framework density 18.241095000000001
#
# number of rings (size 3 to 8) (size 9 to 14) (size 15 to 20)
#    0.000    1.750    2.500    3.000    0.000    3.000 
#    0.000    0.625    0.000    0.000    0.000    0.000 
#    0.000    0.000    0.000    0.000    0.000    0.000 
#
# Total GULP energy -793061.663977 kJ/mol
# GULP energy per Si atom -12391.588500 kJ/mol
# Density = 1.819958 g / cm^3
# Si number density = 18.241095 Si / 1000 Ang^3
#
#
#
# Elastic Constant Matrix: (Units=GPa)
#
#
# Indices 1 2 3 4 5 6 
#
# 1 112.7109 17.4630 24.9534 0.0000 0.0000 0.0000
# 2 17.4630 79.3956 45.5545 0.0000 0.0000 0.0000
# 3 24.9534 45.5545 101.0877 0.0000 0.0000 0.0000
# 4 0.0000 0.0000 0.0000 204.0719 0.0000 0.0000
# 5 0.0000 0.0000 0.0000 0.0000 31.3884 0.0000
# 6 0.0000 0.0000 0.0000 0.0000 0.0000 -13.3087
#
#
#
# Elastic Compliance Matrix: (Units=1/GPa)
#
#
# Indices 1 2 3 4 5 6 
#
# 1 0.009443 -0.000997 -0.001882 0.000000 0.000000 0.000000
# 2 -0.000997 0.017093 -0.007457 0.000000 0.000000 0.000000
# 3 -0.001882 -0.007457 0.013717 0.000000 0.000000 0.000000
# 4 0.000000 0.000000 0.000000 0.004900 0.000000 0.000000
# 5 0.000000 0.000000 0.000000 0.000000 0.031859 0.000000
# 6 0.000000 0.000000 0.000000 0.000000 0.000000 -0.075139
#
#
# Mechanical properties :
#
#
# Convention : Reuss Voigt Hill
#
# Bulk Modulus (GPa) = 51.06697 52.12621 51.59659
# Shear Modulus (GPa) = 171.98529 58.11186 115.04858
#
# Velocity S-wave (km/s) = 9.72056 5.65038 7.95035
# Velocity P-wave (km/s) = 12.41136 8.43845 10.61248
#
# Compressibility (1/GPa) = 0.01958213
#
# Stress axis : x y z
#
# Youngs Moduli (GPa) = 105.89439 58.50392 72.90167
#
# Poissons Ratio (x) = 0.05836 0.13717
# Poissons Ratio (y) = 0.10563 0.54360
# Poissons Ratio (z) = 0.19925 0.43624
#
# Static dielectric constant tensor:
#      x y z
#    x 3.761630 0.000000 0.000000 
#    y 0.000000 3.111830 0.000000 
#    z 0.000000 0.000000 3.393070 
# 
# 
# High freq. dielectric constant tensor:
#      x y z
#    x 1.735510 0.000000 0.000000 
#    y 0.000000 1.671300 0.000000 
#    z 0.000000 0.000000 1.699250 
# 
# From -- ./inp_files/24025.got.cif
#   From: 2010.03.12/outbox.cif.g09.slc.cpg/sg62_13_cif.got.tgz:24025.got - 2010.04.10 19:12:36.
