data_PCOD8251474
_publ_section_title
;
Structure prediction by ZEFSAII (Michael W. Deem and Ramdas Pophale) SiO2 
 PCOD8251474
Probable space group: P N M A
;
_chemical_formula_sum "Si O2"
_cell_formula_units_Z 56
_cell_length_a 16.634043
_cell_length_b 8.871493
_cell_length_c 19.570168
_cell_angle_alpha 90.000000
_cell_angle_beta 90.000000
_cell_angle_gamma 90.000000
_cell_volume 2887.946130
_symmetry_space_group_name_H-M "P N M A"
_symmetry_group_IT_number 62
_symmetry_cell_setting 'orthorhombic'
loop_
_space_group_symop_operation_xyz
x,y,z
1/2-x,-y,1/2+z
1/2+x,1/2-y,1/2-z
-x,1/2+y,-z
-x,-y,-z
1/2+x,y,1/2-z
1/2-x,1/2+y,1/2+z
x,1/2-y,z
loop_
_atom_site_type_symbol
_atom_site_label
_atom_site_fract_x
_atom_site_fract_y
_atom_site_fract_z
Si Si1 0.924965 0.427306 0.191786
Si Si2 0.728664 0.926543 0.520582
Si Si3 0.233111 0.425562 0.764619
Si Si4 0.651068 0.075654 0.141889
Si Si5 0.060016 0.428436 0.946150
Si Si6 0.815268 0.574760 0.385600
Si Si7 0.528411 0.574640 0.841250
O O1 0.930456 0.250000 0.178112
O O2 0.831732 0.475043 0.194638
O O3 0.966611 0.513913 0.128905
O O4 0.967873 0.478062 0.261963
O O5 0.705876 0.750000 0.519510
O O6 0.799238 0.961114 0.574129
O O7 0.760908 0.985439 0.447558
O O8 0.650708 0.022012 0.538564
O O9 0.215652 0.250000 0.777685
O O10 0.318961 0.474370 0.794629
O O11 0.231211 0.464226 0.684355
O O12 0.657770 0.250000 0.163400
O O13 0.558328 0.032392 0.128185
O O14 0.052835 0.250000 0.949280
O O15 0.000000 0.500000 0.000000
O O16 0.829396 0.750000 0.395411
O O17 0.903945 0.503999 0.386906
O O18 0.547065 0.750000 0.844522
#
# Coordination Sequence:
#
# PCOD8251474 Si02
#       7
#     8   8   8   8   8   8   8
#     4  10  19  36  58  80 111 147 187 236 290 342
#     4  10  21  39  60  83 117 157 194 235 293 348
#     4  10  19  33  55  81 109 145 193 239 285 342
#     4  10  20  35  57  83 114 152 195 239 289 344
#     4  12  25  40  60  86 116 150 194 240 293 353
#     4   9  20  37  56  82 117 155 192 239 291 341
#     4   9  20  36  56  85 116 152 196 241 288 341
#
# _framework density 19.390944000000001
#
# number of rings (size 3 to 8) (size 9 to 14) (size 15 to 20)
#    0.000    2.000    1.429    2.143    0.000    4.000 
#    0.000    2.857    0.000    0.000    0.000    0.000 
#    0.000    0.000    0.000    0.000    0.000    0.000 
#
# Total GULP energy -694544.193303 kJ/mol
# GULP energy per Si atom -12402.574880 kJ/mol
# Density = 1.934681 g / cm^3
# Si number density = 19.390944 Si / 1000 Ang^3
#
#
#
# Elastic Constant Matrix: (Units=GPa)
#
#
# Indices 1 2 3 4 5 6 
#
# 1 66.4630 30.9474 32.7544 0.0000 0.0000 0.0000
# 2 30.9474 75.8112 35.7459 0.0000 0.0000 0.0000
# 3 32.7544 35.7459 95.3036 0.0000 0.0000 0.0000
# 4 0.0000 0.0000 0.0000 24.9336 0.0000 0.0000
# 5 0.0000 0.0000 0.0000 0.0000 32.7260 0.0000
# 6 0.0000 0.0000 0.0000 0.0000 0.0000 32.3006
#
#
#
# Elastic Compliance Matrix: (Units=1/GPa)
#
#
# Indices 1 2 3 4 5 6 
#
# 1 0.020151 -0.006026 -0.004665 0.000000 0.000000 0.000000
# 2 -0.006026 0.017827 -0.004615 0.000000 0.000000 0.000000
# 3 -0.004665 -0.004615 0.013827 0.000000 0.000000 0.000000
# 4 0.000000 0.000000 0.000000 0.040107 0.000000 0.000000
# 5 0.000000 0.000000 0.000000 0.000000 0.030557 0.000000
# 6 0.000000 0.000000 0.000000 0.000000 0.000000 0.030959
#
#
# Mechanical properties :
#
#
# Convention : Reuss Voigt Hill
#
# Bulk Modulus (GPa) = 47.18869 48.49703 47.84286
# Shear Modulus (GPa) = 26.16358 27.20070 26.68214
#
# Velocity S-wave (km/s) = 3.67722 3.74940 3.71349
# Velocity P-wave (km/s) = 6.51288 6.61879 6.56605
#
# Compressibility (1/GPa) = 0.02119152
#
# Stress axis : x y z
#
# Youngs Moduli (GPa) = 49.62488 56.09524 72.32090
#
# Poissons Ratio (x) = 0.33804 0.33740
# Poissons Ratio (y) = 0.29905 0.33378
# Poissons Ratio (z) = 0.23152 0.25889
#
# Static dielectric constant tensor:
#      x y z
#    x 3.508420 0.000000 0.000000 
#    y 0.000000 3.472320 0.000000 
#    z 0.000000 0.000000 3.819810 
# 
# 
# High freq. dielectric constant tensor:
#      x y z
#    x 1.747770 0.000000 0.000000 
#    y 0.000000 1.751000 0.000000 
#    z 0.000000 0.000000 1.762180 
# 
# From -- ./inp_files/27551.got.cif
#   From: 2010.03.12/outbox.cif.g09.slc.cpg/sg62_14_cif.got.tgz:27551.got - 2010.04.10 19:12:36.
