data_PCOD8251667
_publ_section_title
;
Structure prediction by ZEFSAII (Michael W. Deem and Ramdas Pophale) SiO2 
 PCOD8251667
Probable space group: P N M A
;
_chemical_formula_sum "Si O2"
_cell_formula_units_Z 48
_cell_length_a 15.089053
_cell_length_b 8.769817
_cell_length_c 19.068174
_cell_angle_alpha 90.000000
_cell_angle_beta 90.000000
_cell_angle_gamma 90.000000
_cell_volume 2523.257782
_symmetry_space_group_name_H-M "P N M A"
_symmetry_group_IT_number 62
_symmetry_cell_setting 'orthorhombic'
loop_
_space_group_symop_operation_xyz
x,y,z
1/2-x,-y,1/2+z
1/2+x,1/2-y,1/2-z
-x,1/2+y,-z
-x,-y,-z
1/2+x,y,1/2-z
1/2-x,1/2+y,1/2+z
x,1/2-y,z
loop_
_atom_site_type_symbol
_atom_site_label
_atom_site_fract_x
_atom_site_fract_y
_atom_site_fract_z
Si Si1 0.785410 0.429711 0.923882
Si Si2 0.116470 0.427648 0.829871
Si Si3 0.528034 0.429531 0.426387
Si Si4 0.125068 0.430948 0.671810
Si Si5 0.527506 0.928353 0.072650
Si Si6 0.227653 0.574482 0.433928
O O1 0.799945 0.250000 0.917423
O O2 0.875681 0.513281 0.903289
O O3 0.710592 0.490993 0.870522
O O4 0.757068 0.466993 0.002918
O O5 0.089568 0.250000 0.831404
O O6 0.126904 0.491662 0.751174
O O7 0.209766 0.455480 0.867801
O O8 0.040090 0.523963 0.866404
O O9 0.500000 0.500000 0.500000
O O10 0.529414 0.250000 0.435957
O O11 0.126832 0.250000 0.672082
O O12 0.035808 0.492479 0.634205
O O13 0.512557 0.750000 0.064984
O O14 0.628830 0.968757 0.090979
O O15 0.500000 0.000000 0.000000
O O16 0.233374 0.750000 0.459132
#
# Coordination Sequence:
#
# PCOD8251667 Si02
#       6
#     8   8   8   8   8   8
#     4  11  21  36  61  89 117 153 196 241 288 346
#     4  10  21  39  60  86 119 154 194 243 296 349
#     4  12  24  39  60  88 118 154 199 245 296 351
#     4   9  20  37  59  88 120 153 195 240 289 351
#     4  10  19  34  56  85 115 151 195 241 289 345
#     4  10  20  33  56  85 114 150 193 242 294 344
#
# _framework density 19.023026000000002
#
# number of rings (size 3 to 8) (size 9 to 14) (size 15 to 20)
#    0.000    1.667    3.333    2.000    0.000    1.333 
#    0.000    7.500    0.000    2.000    0.000    0.000 
#    0.000    0.000    0.000    0.000    0.000    0.000 
#
# Total GULP energy -595335.621260 kJ/mol
# GULP energy per Si atom -12402.825443 kJ/mol
# Density = 1.897973 g / cm^3
# Si number density = 19.023026 Si / 1000 Ang^3
#
#
#
# Elastic Constant Matrix: (Units=GPa)
#
#
# Indices 1 2 3 4 5 6 
#
# 1 180.9919 47.9617 76.8996 0.0000 0.0000 0.0000
# 2 47.9617 70.3553 33.0965 0.0000 0.0000 0.0000
# 3 76.8996 33.0965 148.5339 0.0000 0.0000 0.0000
# 4 0.0000 0.0000 0.0000 25.8571 0.0000 0.0000
# 5 0.0000 0.0000 0.0000 0.0000 35.4334 0.0000
# 6 0.0000 0.0000 0.0000 0.0000 0.0000 27.5712
#
#
#
# Elastic Compliance Matrix: (Units=1/GPa)
#
#
# Indices 1 2 3 4 5 6 
#
# 1 0.007931 -0.003882 -0.003241 0.000000 0.000000 0.000000
# 2 -0.003882 0.017778 -0.001952 0.000000 0.000000 0.000000
# 3 -0.003241 -0.001952 0.008845 0.000000 0.000000 0.000000
# 4 0.000000 0.000000 0.000000 0.038674 0.000000 0.000000
# 5 0.000000 0.000000 0.000000 0.000000 0.028222 0.000000
# 6 0.000000 0.000000 0.000000 0.000000 0.000000 0.036270
#
#
# Mechanical properties :
#
#
# Convention : Reuss Voigt Hill
#
# Bulk Modulus (GPa) = 60.95653 79.53298 70.24476
# Shear Modulus (GPa) = 30.99101 33.90055 32.44578
#
# Velocity S-wave (km/s) = 4.04063 4.22605 4.13438
# Velocity P-wave (km/s) = 7.34044 8.10631 7.73286
#
# Compressibility (1/GPa) = 0.01640513
#
# Stress axis : x y z
#
# Youngs Moduli (GPa) = 126.09037 56.24951 113.05475
#
# Poissons Ratio (x) = 0.21835 0.36641
# Poissons Ratio (y) = 0.48947 0.22063
# Poissons Ratio (z) = 0.40866 0.10977
#
# Static dielectric constant tensor:
#      x y z
#    x 3.920480 0.000000 0.000000 
#    y 0.000000 3.334830 0.000000 
#    z 0.000000 0.000000 3.565470 
# 
# 
# High freq. dielectric constant tensor:
#      x y z
#    x 1.760080 0.000000 0.000000 
#    y 0.000000 1.720590 0.000000 
#    z 0.000000 0.000000 1.736060 
# 
# From -- ./inp_files/23752.got.cif
#   From: 2010.03.12/outbox.cif.g09.slc.cpg/sg62_12_cif.got.tgz:23752.got - 2010.04.10 19:12:36.
