data_PCOD8251845
_publ_section_title
;
Structure prediction by ZEFSAII (Michael W. Deem and Ramdas Pophale) SiO2 
 PCOD8251845
Probable space group: P N M A
;
_chemical_formula_sum "Si O2"
_cell_formula_units_Z 44
_cell_length_a 17.886397
_cell_length_b 13.488141
_cell_length_c 8.736733
_cell_angle_alpha 90.000000
_cell_angle_beta 90.000000
_cell_angle_gamma 90.000000
_cell_volume 2107.773921
_symmetry_space_group_name_H-M "P N M A"
_symmetry_group_IT_number 62
_symmetry_cell_setting 'orthorhombic'
loop_
_space_group_symop_operation_xyz
x,y,z
1/2-x,-y,1/2+z
1/2+x,1/2-y,1/2-z
-x,1/2+y,-z
-x,-y,-z
1/2+x,y,1/2-z
1/2-x,1/2+y,1/2+z
x,1/2-y,z
loop_
_atom_site_type_symbol
_atom_site_label
_atom_site_fract_x
_atom_site_fract_y
_atom_site_fract_z
Si Si1 0.365773 0.750000 0.819122
Si Si2 0.927355 0.750000 0.343204
Si Si3 0.964222 0.417560 0.609802
Si Si4 0.773276 0.421124 0.013415
Si Si5 0.644066 0.750000 0.020135
Si Si6 0.266211 0.750000 0.213278
Si Si7 0.807932 0.250000 0.184507
Si Si8 0.651453 0.457552 0.269953
O O1 0.279210 0.750000 0.868186
O O2 0.382967 0.847080 0.717782
O O3 0.412950 0.750000 0.974282
O O4 0.853528 0.750000 0.236663
O O5 0.973447 0.850133 0.307171
O O6 0.907887 0.346708 0.516932
O O7 0.917133 0.468539 0.744007
O O8 0.000000 0.500000 0.500000
O O9 0.742310 0.352534 0.877652
O O10 0.810733 0.516098 0.932467
O O11 0.835425 0.353775 0.107753
O O12 0.709046 0.462400 0.126236
O O13 0.689117 0.750000 0.863850
O O14 0.706084 0.750000 0.151487
#
# Coordination Sequence:
#
# PCOD8251845 Si02
#       8
#     4   4   8   8   4   4   4   8
#     4  10  19  35  59  82 136 162 207 272 328 369
#     4  11  20  38  60  94 135 181 211 281 323 395
#     4  11  22  37  64  98 134 177 228 260 334 420
#     4  10  21  35  64  94 133 163 218 285 329 385
#     4  11  24  37  70 107 126 178 235 268 326 414
#     4  11  18  41  62 100 127 168 217 282 326 382
#     4   9  21  41  59  97 134 161 214 295 331 364
#     4  11  21  37  61 101 128 174 223 272 339 394
#
# _framework density 20.875104
#
# number of rings (size 3 to 8) (size 9 to 14) (size 15 to 20)
#    0.000    1.455    7.273    0.000    5.091    0.000 
#    0.000    0.909    0.000    5.455    0.000    0.000 
#    0.000    0.000    0.000    0.000    0.000    0.000 
#
# Total GULP energy -545197.787330 kJ/mol
# GULP energy per Si atom -12390.858803 kJ/mol
# Density = 2.082759 g / cm^3
# Si number density = 20.875104 Si / 1000 Ang^3
#
#
#
# Elastic Constant Matrix: (Units=GPa)
#
#
# Indices 1 2 3 4 5 6 
#
# 1 92.6483 38.4100 36.7728 0.0000 0.0000 0.0000
# 2 38.4100 129.6619 29.0764 0.0000 0.0000 0.0000
# 3 36.7728 29.0764 86.3479 0.0000 0.0000 0.0000
# 4 0.0000 0.0000 0.0000 20.2346 0.0000 0.0000
# 5 0.0000 0.0000 0.0000 0.0000 18.9549 0.0000
# 6 0.0000 0.0000 0.0000 0.0000 0.0000 30.9128
#
#
#
# Elastic Compliance Matrix: (Units=1/GPa)
#
#
# Indices 1 2 3 4 5 6 
#
# 1 0.014018 -0.003044 -0.004945 0.000000 0.000000 0.000000
# 2 -0.003044 0.009003 -0.001735 0.000000 0.000000 0.000000
# 3 -0.004945 -0.001735 0.014271 0.000000 0.000000 0.000000
# 4 0.000000 0.000000 0.000000 0.049420 0.000000 0.000000
# 5 0.000000 0.000000 0.000000 0.000000 0.052757 0.000000
# 6 0.000000 0.000000 0.000000 0.000000 0.000000 0.032349
#
#
# Mechanical properties :
#
#
# Convention : Reuss Voigt Hill
#
# Bulk Modulus (GPa) = 56.04008 57.46406 56.75207
# Shear Modulus (GPa) = 25.35307 27.64708 26.50007
#
# Velocity S-wave (km/s) = 3.48877 3.64318 3.56681
# Velocity P-wave (km/s) = 6.56752 6.72937 6.64894
#
# Compressibility (1/GPa) = 0.01784437
#
# Stress axis : x y z
#
# Youngs Moduli (GPa) = 71.33671 111.07186 70.07058
#
# Poissons Ratio (x) = 0.33807 0.34649
# Poissons Ratio (y) = 0.21713 0.12161
# Poissons Ratio (z) = 0.35275 0.19276
#
# Static dielectric constant tensor:
#      x y z
#    x 3.741750 0.000000 0.000000 
#    y 0.000000 4.592620 0.000000 
#    z 0.000000 0.000000 3.417140 
# 
# 
# High freq. dielectric constant tensor:
#      x y z
#    x 1.793760 0.000000 0.000000 
#    y 0.000000 1.847140 0.000000 
#    z 0.000000 0.000000 1.783750 
# 
# From -- ./inp_files/7586.got.cif
#   From: 2010.03.12/outbox.cif.g09.slc.cpg/sg62_4_cif.got.tgz:7586.got - 2010.04.10 19:12:36.
