data_PCOD8251061
_publ_section_title
;
Structure prediction by ZEFSAII (Michael W. Deem and Ramdas Pophale) SiO2 
 PCOD8251061
Probable space group: P N M A
;
_chemical_formula_sum "Si O2"
_cell_formula_units_Z 64
_cell_length_a 21.879786
_cell_length_b 8.888387
_cell_length_c 17.147218
_cell_angle_alpha 90.000000
_cell_angle_beta 90.000000
_cell_angle_gamma 90.000000
_cell_volume 3334.722461
_symmetry_space_group_name_H-M "P N M A"
_symmetry_group_IT_number 62
_symmetry_cell_setting 'orthorhombic'
loop_
_space_group_symop_operation_xyz
x,y,z
1/2-x,-y,1/2+z
1/2+x,1/2-y,1/2-z
-x,1/2+y,-z
-x,-y,-z
1/2+x,y,1/2-z
1/2-x,1/2+y,1/2+z
x,1/2-y,z
loop_
_atom_site_type_symbol
_atom_site_label
_atom_site_fract_x
_atom_site_fract_y
_atom_site_fract_z
Si Si1 0.279278 0.926501 0.665442
Si Si2 0.386302 0.571655 0.775869
Si Si3 0.964954 0.426281 0.850795
Si Si4 0.076598 0.575522 0.428470
Si Si5 0.628492 0.425637 0.461951
Si Si6 0.934010 0.575227 0.413788
Si Si7 0.106348 0.424426 0.863109
Si Si8 0.352268 0.428220 0.211156
O O1 0.272977 0.750000 0.673691
O O2 0.324723 0.984171 0.733079
O O3 0.308037 0.970617 0.581353
O O4 0.211722 0.994247 0.677242
O O5 0.391928 0.750000 0.779324
O O6 0.444184 0.508423 0.728309
O O7 0.383752 0.505538 0.862489
O O8 0.954498 0.250000 0.839623
O O9 0.927598 0.482234 0.925833
O O10 0.035217 0.466599 0.865219
O O11 0.093109 0.750000 0.429829
O O12 0.095495 0.506078 0.511448
O O13 0.005899 0.545076 0.410768
O O14 0.613858 0.250000 0.447946
O O15 0.635463 0.462853 0.552863
O O16 0.918426 0.750000 0.418654
O O17 0.907004 0.505866 0.335363
O O18 0.115514 0.250000 0.841462
O O19 0.142210 0.526460 0.801416
O O20 0.357394 0.250000 0.202303
#
# Coordination Sequence:
#
# PCOD8251061 Si02
#       8
#     8   8   8   8   8   8   8   8
#     4   8  18  37  56  74 103 141 181 224 266 312
#     4  10  19  34  56  79 108 146 182 219 268 321
#     4  10  19  31  51  82 116 141 171 219 269 320
#     4  10  20  35  56  84 112 138 178 225 271 324
#     4   9  18  36  58  77 104 143 181 218 269 325
#     4  10  21  37  56  79 111 145 176 220 275 329
#     4  10  21  35  53  80 111 141 175 219 270 329
#     4  11  22  37  56  77 107 144 184 229 270 315
#
# _framework density 19.192001000000001
#
# number of rings (size 3 to 8) (size 9 to 14) (size 15 to 20)
#    0.000    2.250    0.000    3.750    0.000    6.000 
#    2.250    6.250    0.000    0.000    0.000    0.000 
#    0.000    0.000    0.000    0.000    0.000    0.000 
#
# Total GULP energy -793737.312488 kJ/mol
# GULP energy per Si atom -12402.145508 kJ/mol
# Density = 1.914832 g / cm^3
# Si number density = 19.192001 Si / 1000 Ang^3
#
#
#
# Elastic Constant Matrix: (Units=GPa)
#
#
# Indices 1 2 3 4 5 6 
#
# 1 70.6987 28.6322 30.2078 0.0000 0.0000 0.0000
# 2 28.6322 69.6826 33.4627 0.0000 0.0000 0.0000
# 3 30.2078 33.4627 117.8290 0.0000 0.0000 0.0000
# 4 0.0000 0.0000 0.0000 37.1039 0.0000 0.0000
# 5 0.0000 0.0000 0.0000 0.0000 17.2836 0.0000
# 6 0.0000 0.0000 0.0000 0.0000 0.0000 20.0327
#
#
#
# Elastic Compliance Matrix: (Units=1/GPa)
#
#
# Indices 1 2 3 4 5 6 
#
# 1 0.017771 -0.005922 -0.002874 0.000000 0.000000 0.000000
# 2 -0.005922 0.018590 -0.003761 0.000000 0.000000 0.000000
# 3 -0.002874 -0.003761 0.010292 0.000000 0.000000 0.000000
# 4 0.000000 0.000000 0.000000 0.026951 0.000000 0.000000
# 5 0.000000 0.000000 0.000000 0.000000 0.057858 0.000000
# 6 0.000000 0.000000 0.000000 0.000000 0.000000 0.049918
#
#
# Mechanical properties :
#
#
# Convention : Reuss Voigt Hill
#
# Bulk Modulus (GPa) = 46.42847 49.20174 47.81511
# Shear Modulus (GPa) = 23.40001 25.94455 24.67228
#
# Velocity S-wave (km/s) = 3.49558 3.68073 3.58935
# Velocity P-wave (km/s) = 6.36680 6.61483 6.49200
#
# Compressibility (1/GPa) = 0.02153851
#
# Stress axis : x y z
#
# Youngs Moduli (GPa) = 56.27201 53.79166 97.16350
#
# Poissons Ratio (x) = 0.31854 0.27926
# Poissons Ratio (y) = 0.33323 0.36547
# Poissons Ratio (z) = 0.16174 0.20233
#
# Static dielectric constant tensor:
#      x y z
#    x 3.528660 0.000000 0.000000 
#    y 0.000000 3.427930 0.000000 
#    z 0.000000 0.000000 3.623710 
# 
# 
# High freq. dielectric constant tensor:
#      x y z
#    x 1.730560 0.000000 0.000000 
#    y 0.000000 1.741710 0.000000 
#    z 0.000000 0.000000 1.757070 
# 
# From -- ./inp_files/24690.got.cif
#   From: 2010.03.12/outbox.cif.g09.slc.cpg/sg62_13_cif.got.tgz:24690.got - 2010.04.10 19:12:36.
