data_PCOD8251834
_publ_section_title
;
Structure prediction by ZEFSAII (Michael W. Deem and Ramdas Pophale) SiO2 
 PCOD8251834
Probable space group: P N M A
;
_chemical_formula_sum "Si O2"
_cell_formula_units_Z 40
_cell_length_a 8.933026
_cell_length_b 8.444369
_cell_length_c 25.707717
_cell_angle_alpha 90.000000
_cell_angle_beta 90.000000
_cell_angle_gamma 90.000000
_cell_volume 1939.229956
_symmetry_space_group_name_H-M "P N M A"
_symmetry_group_IT_number 62
_symmetry_cell_setting 'orthorhombic'
loop_
_space_group_symop_operation_xyz
x,y,z
1/2-x,-y,1/2+z
1/2+x,1/2-y,1/2-z
-x,1/2+y,-z
-x,-y,-z
1/2+x,y,1/2-z
1/2-x,1/2+y,1/2+z
x,1/2-y,z
loop_
_atom_site_type_symbol
_atom_site_label
_atom_site_fract_x
_atom_site_fract_y
_atom_site_fract_z
Si Si1 0.605133 0.432762 0.306824
Si Si2 0.288674 0.564716 0.283974
Si Si3 0.386780 0.063290 0.883515
Si Si4 0.224030 0.435801 0.599600
Si Si5 0.165652 0.936195 0.495253
O O1 0.560518 0.250000 0.303509
O O2 0.463891 0.539178 0.291912
O O3 0.739270 0.472215 0.267410
O O4 0.657401 0.473575 0.364881
O O5 0.257592 0.750000 0.276349
O O6 0.197373 0.493470 0.333284
O O7 0.398303 0.250000 0.878272
O O8 0.557017 0.998732 0.887221
O O9 0.288654 0.022248 0.935473
O O10 0.238809 0.250000 0.609518
O O11 0.264708 0.475704 0.539201
O O12 0.171798 0.750000 0.505699
O O13 0.000000 0.000000 0.500000
#
# Coordination Sequence:
#
# PCOD8251834 Si02
#       5
#     8   8   8   8   8
#     4  12  25  40  57  84 116 147 185 237 290 338
#     4  11  22  40  62  83 109 149 192 232 280 343
#     4   8  17  33  57  84 111 143 186 231 275 328
#     4  10  19  35  58  85 113 149 192 234 281 339
#     4   9  16  30  52  82 115 148 186 232 279 332
#
# _framework density 20.626743999999999
#
# number of rings (size 3 to 8) (size 9 to 14) (size 15 to 20)
#    0.000    2.000    0.000    6.000    0.000    1.600 
#    0.000   12.000    0.000    0.000    0.000    0.000 
#    0.000    0.000    0.000    0.000    0.000    0.000 
#
# Total GULP energy -495896.323502 kJ/mol
# GULP energy per Si atom -12397.408088 kJ/mol
# Density = 2.057980 g / cm^3
# Si number density = 20.626744 Si / 1000 Ang^3
#
#
#
# Elastic Constant Matrix: (Units=GPa)
#
#
# Indices 1 2 3 4 5 6 
#
# 1 45.5300 4.5260 -2.0576 0.0000 0.0000 0.0000
# 2 4.5260 61.8495 22.4166 0.0000 0.0000 0.0000
# 3 -2.0576 22.4166 79.7417 0.0000 0.0000 0.0000
# 4 0.0000 0.0000 0.0000 34.2111 0.0000 0.0000
# 5 0.0000 0.0000 0.0000 0.0000 33.2254 0.0000
# 6 0.0000 0.0000 0.0000 0.0000 0.0000 21.6073
#
#
#
# Elastic Compliance Matrix: (Units=1/GPa)
#
#
# Indices 1 2 3 4 5 6 
#
# 1 0.022218 -0.002042 0.001147 0.000000 0.000000 0.000000
# 2 -0.002042 0.018190 -0.005166 0.000000 0.000000 0.000000
# 3 0.001147 -0.005166 0.014022 0.000000 0.000000 0.000000
# 4 0.000000 0.000000 0.000000 0.029230 0.000000 0.000000
# 5 0.000000 0.000000 0.000000 0.000000 0.030097 0.000000
# 6 0.000000 0.000000 0.000000 0.000000 0.000000 0.046281
#
#
# Mechanical properties :
#
#
# Convention : Reuss Voigt Hill
#
# Bulk Modulus (GPa) = 23.63531 26.32124 24.97828
# Shear Modulus (GPa) = 26.84366 28.62450 27.73408
#
# Velocity S-wave (km/s) = 3.61141 3.72928 3.67081
# Velocity P-wave (km/s) = 5.37337 5.59748 5.48657
#
# Compressibility (1/GPa) = 0.04230957
#
# Stress axis : x y z
#
# Youngs Moduli (GPa) = 45.00787 54.97496 71.31457
#
# Poissons Ratio (x) = 0.11224 -0.08182
# Poissons Ratio (y) = 0.09189 0.36842
# Poissons Ratio (z) = -0.05164 0.28401
#
# Static dielectric constant tensor:
#      x y z
#    x 3.447860 0.000000 0.000000 
#    y 0.000000 3.577380 0.000000 
#    z 0.000000 0.000000 4.476320 
# 
# 
# High freq. dielectric constant tensor:
#      x y z
#    x 1.772460 0.000000 0.000000 
#    y 0.000000 1.793860 0.000000 
#    z 0.000000 0.000000 1.830990 
# 
# From -- ./inp_files/28586.got.cif
#   From: 2010.03.12/outbox.cif.g09.slc.cpg/sg62_15_cif.got.tgz:28586.got - 2010.04.10 19:12:36.
