data_PCOD8251813
_publ_section_title
;
Structure prediction by ZEFSAII (Michael W. Deem and Ramdas Pophale) SiO2 
 PCOD8251813
Probable space group: P N M A
;
_chemical_formula_sum "Si O2"
_cell_formula_units_Z 48
_cell_length_a 20.106828
_cell_length_b 8.729981
_cell_length_c 14.816672
_cell_angle_alpha 90.000000
_cell_angle_beta 90.000000
_cell_angle_gamma 90.000000
_cell_volume 2600.803424
_symmetry_space_group_name_H-M "P N M A"
_symmetry_group_IT_number 62
_symmetry_cell_setting 'orthorhombic'
loop_
_space_group_symop_operation_xyz
x,y,z
1/2-x,-y,1/2+z
1/2+x,1/2-y,1/2-z
-x,1/2+y,-z
-x,-y,-z
1/2+x,y,1/2-z
1/2-x,1/2+y,1/2+z
x,1/2-y,z
loop_
_atom_site_type_symbol
_atom_site_label
_atom_site_fract_x
_atom_site_fract_y
_atom_site_fract_z
Si Si1 0.057479 0.074093 0.941236
Si Si2 0.686270 0.430968 0.116201
Si Si3 0.524332 0.926014 0.270195
Si Si4 0.193165 0.568227 0.002456
Si Si5 0.838883 0.931209 0.814616
Si Si6 0.462084 0.568370 0.915836
O O1 0.066177 0.250000 0.971001
O O2 0.039175 0.060977 0.835611
O O3 0.125800 0.985903 0.955885
O O4 0.000000 0.000000 0.000000
O O5 0.688871 0.250000 0.111495
O O6 0.694806 0.483460 0.220365
O O7 0.614693 0.486550 0.079429
O O8 0.745332 0.499877 0.055589
O O9 0.544518 0.750000 0.254051
O O10 0.585309 0.011892 0.318491
O O11 0.504926 0.004409 0.175697
O O12 0.193899 0.750000 0.005198
O O13 0.201924 0.505598 0.103684
O O14 0.839002 0.750000 0.825314
O O15 0.468317 0.750000 0.915536
O O16 0.500000 0.500000 0.000000
#
# Coordination Sequence:
#
# PCOD8251813 Si02
#       6
#     8   8   8   8   8   8
#     4  11  22  35  55  84 116 147 185 230 280 334
#     4   8  19  38  57  78 110 148 184 227 278 334
#     4  10  20  35  56  82 111 144 186 230 277 333
#     4  11  21  36  57  81 112 149 186 229 281 335
#     4  10  19  35  58  80 107 145 187 228 278 333
#     4  10  20  38  62  85 112 147 189 234 282 333
#
# _framework density 18.455833999999999
#
# number of rings (size 3 to 8) (size 9 to 14) (size 15 to 20)
#    0.000    2.000    1.667    3.500    0.000    2.000 
#    3.000   10.000    0.000    0.000    0.000    0.000 
#    0.000    0.000    0.000    0.000    0.000    0.000 
#
# Total GULP energy -595226.139807 kJ/mol
# GULP energy per Si atom -12400.544579 kJ/mol
# Density = 1.841383 g / cm^3
# Si number density = 18.455834 Si / 1000 Ang^3
#
#
#
# Elastic Constant Matrix: (Units=GPa)
#
#
# Indices 1 2 3 4 5 6 
#
# 1 109.4067 38.5128 85.1739 0.0000 0.0000 0.0000
# 2 38.5128 94.7834 52.4190 0.0000 0.0000 0.0000
# 3 85.1739 52.4190 160.0406 0.0000 0.0000 0.0000
# 4 0.0000 0.0000 0.0000 35.1899 0.0000 0.0000
# 5 0.0000 0.0000 0.0000 0.0000 38.0608 0.0000
# 6 0.0000 0.0000 0.0000 0.0000 0.0000 21.9675
#
#
#
# Elastic Compliance Matrix: (Units=1/GPa)
#
#
# Indices 1 2 3 4 5 6 
#
# 1 0.015968 -0.002184 -0.007783 0.000000 0.000000 0.000000
# 2 -0.002184 0.013183 -0.003156 0.000000 0.000000 0.000000
# 3 -0.007783 -0.003156 0.011424 0.000000 0.000000 0.000000
# 4 0.000000 0.000000 0.000000 0.028417 0.000000 0.000000
# 5 0.000000 0.000000 0.000000 0.000000 0.026274 0.000000
# 6 0.000000 0.000000 0.000000 0.000000 0.000000 0.045522
#
#
# Mechanical properties :
#
#
# Convention : Reuss Voigt Hill
#
# Bulk Modulus (GPa) = 69.78287 79.60467 74.69377
# Shear Modulus (GPa) = 29.10203 31.58530 30.34367
#
# Velocity S-wave (km/s) = 3.97526 4.14139 4.05918
# Velocity P-wave (km/s) = 7.67874 8.12984 7.90751
#
# Compressibility (1/GPa) = 0.01433017
#
# Stress axis : x y z
#
# Youngs Moduli (GPa) = 62.62511 75.85575 87.53464
#
# Poissons Ratio (x) = 0.16567 0.68127
# Poissons Ratio (y) = 0.13677 0.27622
# Poissons Ratio (z) = 0.48740 0.23937
#
# Static dielectric constant tensor:
#      x y z
#    x 3.078910 0.000000 0.000000 
#    y 0.000000 3.417780 0.000000 
#    z 0.000000 0.000000 3.735570 
# 
# 
# High freq. dielectric constant tensor:
#      x y z
#    x 1.696880 0.000000 0.000000 
#    y 0.000000 1.719910 0.000000 
#    z 0.000000 0.000000 1.729510 
# 
# From -- ./inp_files/15144.got.cif
#   From: 2010.03.12/outbox.cif.g09.slc.cpg/sg62_8_cif.got.tgz:15144.got - 2010.04.10 19:12:36.
