data_PCOD8251456
_publ_section_title
;
Structure prediction by ZEFSAII (Michael W. Deem and Ramdas Pophale) SiO2 
 PCOD8251456
Probable space group: P N M A
;
_chemical_formula_sum "Si O2"
_cell_formula_units_Z 48
_cell_length_a 19.047293
_cell_length_b 8.805829
_cell_length_c 15.331744
_cell_angle_alpha 90.000000
_cell_angle_beta 90.000000
_cell_angle_gamma 90.000000
_cell_volume 2571.550570
_symmetry_space_group_name_H-M "P N M A"
_symmetry_group_IT_number 62
_symmetry_cell_setting 'orthorhombic'
loop_
_space_group_symop_operation_xyz
x,y,z
1/2-x,-y,1/2+z
1/2+x,1/2-y,1/2-z
-x,1/2+y,-z
-x,-y,-z
1/2+x,y,1/2-z
1/2-x,1/2+y,1/2+z
x,1/2-y,z
loop_
_atom_site_type_symbol
_atom_site_label
_atom_site_fract_x
_atom_site_fract_y
_atom_site_fract_z
Si Si1 0.675367 0.429685 0.093676
Si Si2 0.675165 0.429650 0.600693
Si Si3 0.829097 0.071040 0.411587
Si Si4 0.580624 0.570274 0.746611
Si Si5 0.171548 0.428898 0.094679
Si Si6 0.421689 0.930426 0.749483
O O1 0.683463 0.250000 0.092423
O O2 0.749603 0.498987 0.122597
O O3 0.617789 0.484677 0.163516
O O4 0.648623 0.487559 0.000200
O O5 0.682500 0.250000 0.608037
O O6 0.616649 0.489899 0.665438
O O7 0.651389 0.479391 0.503271
O O8 0.831449 0.250000 0.429697
O O9 0.881945 0.020625 0.335983
O O10 0.750952 0.018600 0.383834
O O11 0.585632 0.750000 0.733117
O O12 0.501184 0.509457 0.751133
O O13 0.167282 0.250000 0.103695
O O14 0.117982 0.501076 0.164846
O O15 0.421977 0.750000 0.744823
#
# Coordination Sequence:
#
# PCOD8251456 Si02
#       6
#     8   8   8   8   8   8
#     4  10  19  33  55  79 101 132 176 219 257 305
#     4  10  20  34  53  77 104 135 172 216 263 306
#     4   9  18  33  52  74 102 136 171 212 263 308
#     4  10  20  34  53  76 104 139 174 209 256 314
#     4   8  15  30  50  70  97 132 166 204 252 302
#     4   9  18  32  51  76 104 136 173 210 255 314
#
# _framework density 18.665782
#
# number of rings (size 3 to 8) (size 9 to 14) (size 15 to 20)
#    0.000    2.667    0.000    3.000    0.000    4.667 
#    0.000    1.667    0.000    7.000    0.000    0.000 
#    0.000    0.000    0.000    0.000    0.000    0.000 
#
# Total GULP energy -595156.078993 kJ/mol
# GULP energy per Si atom -12399.084979 kJ/mol
# Density = 1.862330 g / cm^3
# Si number density = 18.665782 Si / 1000 Ang^3
#
#
#
# Elastic Constant Matrix: (Units=GPa)
#
#
# Indices 1 2 3 4 5 6 
#
# 1 168.8501 35.8305 123.3074 0.0000 0.0000 0.0000
# 2 35.8305 37.9983 39.5096 0.0000 0.0000 0.0000
# 3 123.3074 39.5096 168.2932 0.0000 0.0000 0.0000
# 4 0.0000 0.0000 0.0000 29.3920 0.0000 0.0000
# 5 0.0000 0.0000 0.0000 0.0000 16.0676 0.0000
# 6 0.0000 0.0000 0.0000 0.0000 0.0000 19.9394
#
#
#
# Elastic Compliance Matrix: (Units=1/GPa)
#
#
# Indices 1 2 3 4 5 6 
#
# 1 0.013012 -0.003118 -0.008802 0.000000 0.000000 0.000000
# 2 -0.003118 0.035563 -0.006065 0.000000 0.000000 0.000000
# 3 -0.008802 -0.006065 0.013815 0.000000 0.000000 0.000000
# 4 0.000000 0.000000 0.000000 0.034023 0.000000 0.000000
# 5 0.000000 0.000000 0.000000 0.000000 0.062237 0.000000
# 6 0.000000 0.000000 0.000000 0.000000 0.000000 0.050152
#
#
# Mechanical properties :
#
#
# Convention : Reuss Voigt Hill
#
# Bulk Modulus (GPa) = 37.84850 85.82629 61.83740
# Shear Modulus (GPa) = 19.71798 24.84607 22.28203
#
# Velocity S-wave (km/s) = 3.25371 3.65239 3.45880
# Velocity P-wave (km/s) = 5.86826 7.99168 7.01083
#
# Compressibility (1/GPa) = 0.02642113
#
# Stress axis : x y z
#
# Youngs Moduli (GPa) = 76.85449 28.11943 72.38670
#
# Poissons Ratio (x) = 0.08766 0.63712
# Poissons Ratio (y) = 0.23960 0.43900
# Poissons Ratio (z) = 0.67644 0.17054
#
# Static dielectric constant tensor:
#      x y z
#    x 3.665060 0.000000 0.000000 
#    y 0.000000 3.102900 0.000000 
#    z 0.000000 0.000000 3.656290 
# 
# 
# High freq. dielectric constant tensor:
#      x y z
#    x 1.723880 0.000000 0.000000 
#    y 0.000000 1.692850 0.000000 
#    z 0.000000 0.000000 1.739320 
# 
# From -- ./inp_files/19558.got.cif
#   From: 2010.03.12/outbox.cif.g09.slc.cpg/sg62_10_cif.got.tgz:19558.got - 2010.04.10 19:12:36.
