data_PCOD8251330
_publ_section_title
;
Structure prediction by ZEFSAII (Michael W. Deem and Ramdas Pophale) SiO2 
 PCOD8251330
Probable space group: P N M A
;
_chemical_formula_sum "Si O2"
_cell_formula_units_Z 64
_cell_length_a 9.929071
_cell_length_b 13.138902
_cell_length_c 30.519652
_cell_angle_alpha 90.000000
_cell_angle_beta 90.000000
_cell_angle_gamma 90.000000
_cell_volume 3981.505013
_symmetry_space_group_name_H-M "P N M A"
_symmetry_group_IT_number 62
_symmetry_cell_setting 'orthorhombic'
loop_
_space_group_symop_operation_xyz
x,y,z
1/2-x,-y,1/2+z
1/2+x,1/2-y,1/2-z
-x,1/2+y,-z
-x,-y,-z
1/2+x,y,1/2-z
1/2-x,1/2+y,1/2+z
x,1/2-y,z
loop_
_atom_site_type_symbol
_atom_site_label
_atom_site_fract_x
_atom_site_fract_y
_atom_site_fract_z
Si Si1 0.276014 0.058748 0.576660
Si Si2 0.252361 0.936914 0.441511
Si Si3 0.182150 0.636041 0.982163
Si Si4 0.621517 0.129342 0.719801
Si Si5 0.920457 0.128896 0.707233
Si Si6 0.869937 0.864635 0.969396
Si Si7 0.470199 0.868958 0.375126
Si Si8 0.998868 0.869015 0.389481
O O1 0.280643 0.126650 0.533044
O O2 0.378010 0.104727 0.612093
O O3 0.129283 0.064210 0.597698
O O4 0.309178 0.940994 0.566506
O O5 0.294084 0.874992 0.484555
O O6 0.366986 0.930316 0.405044
O O7 0.114069 0.889716 0.424863
O O8 0.232442 0.056379 0.453292
O O9 0.215727 0.750000 0.966125
O O10 0.025569 0.608534 0.977095
O O11 0.625540 0.250000 0.723446
O O12 0.773875 0.086035 0.721460
O O13 0.533832 0.084308 0.759964
O O14 0.550257 0.096248 0.674782
O O15 0.917679 0.250000 0.709271
O O16 0.952122 0.093155 0.658034
O O17 0.851734 0.750000 0.951770
O O18 0.439409 0.750000 0.381174
O O19 0.961510 0.750000 0.389181
#
# Coordination Sequence:
#
# PCOD8251330 Si02
#       8
#     8   8   8   8   8   8   8   8
#     4  11  21  33  47  74  96 129 170 204 240 284
#     4  11  19  33  50  71  94 132 169 198 238 291
#     4  10  19  33  51  72  98 125 164 215 249 279
#     4   9  18  29  44  66  94 128 160 192 235 288
#     4   9  18  31  44  65  96 129 159 191 237 286
#     4  10  19  33  52  71  96 127 165 211 251 283
#     4  11  18  29  49  69  94 129 168 197 231 288
#     4  11  22  33  47  70 105 134 161 202 240 284
#
# _framework density 16.074323
#
# number of rings (size 3 to 8) (size 9 to 14) (size 15 to 20)
#    0.000    1.750    3.750    3.000    1.750    2.000 
#    0.000    1.875    0.000    0.000    0.000    0.000 
#    0.000    6.000    0.000    0.000    0.000    0.000 
#
# Total GULP energy -793682.620973 kJ/mol
# GULP energy per Si atom -12401.290953 kJ/mol
# Density = 1.603774 g / cm^3
# Si number density = 16.074323 Si / 1000 Ang^3
#
#
#
# Elastic Constant Matrix: (Units=GPa)
#
#
# Indices 1 2 3 4 5 6 
#
# 1 91.8631 1.3723 44.9402 0.0000 0.0000 0.0000
# 2 1.3723 56.2206 21.3810 0.0000 0.0000 0.0000
# 3 44.9402 21.3810 83.2605 0.0000 0.0000 0.0000
# 4 0.0000 0.0000 0.0000 15.5189 0.0000 0.0000
# 5 0.0000 0.0000 0.0000 0.0000 25.0279 0.0000
# 6 0.0000 0.0000 0.0000 0.0000 0.0000 14.7788
#
#
#
# Elastic Compliance Matrix: (Units=1/GPa)
#
#
# Indices 1 2 3 4 5 6 
#
# 1 0.015251 0.003057 -0.009017 0.000000 0.000000 0.000000
# 2 0.003057 0.020325 -0.006869 0.000000 0.000000 0.000000
# 3 -0.009017 -0.006869 0.018641 0.000000 0.000000 0.000000
# 4 0.000000 0.000000 0.000000 0.064438 0.000000 0.000000
# 5 0.000000 0.000000 0.000000 0.000000 0.039955 0.000000
# 6 0.000000 0.000000 0.000000 0.000000 0.000000 0.067664
#
#
# Mechanical properties :
#
#
# Convention : Reuss Voigt Hill
#
# Bulk Modulus (GPa) = 35.01540 40.74793 37.88167
# Shear Modulus (GPa) = 19.12385 21.97515 20.54950
#
# Velocity S-wave (km/s) = 3.45297 3.70144 3.57936
# Velocity P-wave (km/s) = 6.14231 6.60850 6.37967
#
# Compressibility (1/GPa) = 0.02855886
#
# Stress axis : x y z
#
# Youngs Moduli (GPa) = 65.56828 49.20071 53.64382
#
# Poissons Ratio (x) = -0.15040 0.48370
# Poissons Ratio (y) = -0.20044 0.36850
# Poissons Ratio (z) = 0.59123 0.33798
#
# Static dielectric constant tensor:
#      x y z
#    x 3.167450 0.000000 0.000000 
#    y 0.000000 2.810030 0.000000 
#    z 0.000000 0.000000 3.139580 
# 
# 
# High freq. dielectric constant tensor:
#      x y z
#    x 1.625210 0.000000 0.000000 
#    y 0.000000 1.578430 0.000000 
#    z 0.000000 0.000000 1.612560 
# 
# From -- ./inp_files/32318.got.cif
#   From: 2010.03.12/outbox.cif.g09.slc.cpg/sg62_17_cif.got.tgz:32318.got - 2010.04.10 19:12:36.
