data_PCOD8251879
_publ_section_title
;
Structure prediction by ZEFSAII (Michael W. Deem and Ramdas Pophale) SiO2 
 PCOD8251879
Probable space group: P N M A
;
_chemical_formula_sum "Si O2"
_cell_formula_units_Z 64
_cell_length_a 28.872470
_cell_length_b 8.927097
_cell_length_c 12.839477
_cell_angle_alpha 90.000000
_cell_angle_beta 90.000000
_cell_angle_gamma 90.000000
_cell_volume 3309.341048
_symmetry_space_group_name_H-M "P N M A"
_symmetry_group_IT_number 62
_symmetry_cell_setting 'orthorhombic'
loop_
_space_group_symop_operation_xyz
x,y,z
1/2-x,-y,1/2+z
1/2+x,1/2-y,1/2-z
-x,1/2+y,-z
-x,-y,-z
1/2+x,y,1/2-z
1/2-x,1/2+y,1/2+z
x,1/2-y,z
loop_
_atom_site_type_symbol
_atom_site_label
_atom_site_fract_x
_atom_site_fract_y
_atom_site_fract_z
Si Si1 0.459575 0.922786 0.279304
Si Si2 0.104080 0.427618 0.378364
Si Si3 0.199305 0.927473 0.871835
Si Si4 0.934949 0.077558 0.824161
Si Si5 0.572128 0.919837 0.919439
Si Si6 0.296023 0.926251 0.948051
Si Si7 0.896989 0.073081 0.046453
Si Si8 0.177016 0.580842 0.645603
O O1 0.445975 0.750000 0.265532
O O2 0.510200 0.943028 0.327641
O O3 0.460392 0.997939 0.164618
O O4 0.423958 0.997202 0.358778
O O5 0.100854 0.250000 0.389486
O O6 0.087354 0.477250 0.265514
O O7 0.071551 0.498865 0.468218
O O8 0.157314 0.485143 0.391211
O O9 0.203191 0.750000 0.870720
O O10 0.248972 0.998496 0.901998
O O11 0.157307 0.974065 0.948733
O O12 0.187260 0.987576 0.757929
O O13 0.920951 0.250000 0.804553
O O14 0.915874 0.019122 0.934900
O O15 0.554502 0.750000 0.935471
O O16 0.622631 0.924363 0.870776
O O17 0.294036 0.750000 0.939065
O O18 0.296259 0.973009 0.067723
O O19 0.903587 0.250000 0.061164
O O20 0.195669 0.750000 0.632520
#
# Coordination Sequence:
#
# PCOD8251879 Si02
#       8
#     8   8   8   8   8   8   8   8
#     4  11  22  36  56  85 115 143 182 237 290 330
#     4  10  21  37  56  81 114 150 185 231 286 332
#     4   9  17  33  56  80 106 141 182 223 271 327
#     4  10  23  39  56  80 114 153 189 228 278 341
#     4  10  19  35  60  83 106 144 189 229 274 335
#     4   9  19  34  53  79 110 142 176 223 279 326
#     4  10  20  38  60  81 109 149 193 229 272 335
#     4   9  17  32  53  76 103 138 179 222 266 320
#
# _framework density 19.339196999999999
#
# number of rings (size 3 to 8) (size 9 to 14) (size 15 to 20)
#    0.000    2.250    1.250    1.500    0.000    4.000 
#    0.000    1.250    0.000    0.000    0.000    0.000 
#    0.000    0.000    0.000    0.000    0.000    0.000 
#
# Total GULP energy -793528.824619 kJ/mol
# GULP energy per Si atom -12398.887885 kJ/mol
# Density = 1.929518 g / cm^3
# Si number density = 19.339197 Si / 1000 Ang^3
#
#
#
# Elastic Constant Matrix: (Units=GPa)
#
#
# Indices 1 2 3 4 5 6 
#
# 1 56.5731 22.3908 34.8368 0.0000 0.0000 0.0000
# 2 22.3908 55.6643 31.2213 0.0000 0.0000 0.0000
# 3 34.8368 31.2213 110.3565 0.0000 0.0000 0.0000
# 4 0.0000 0.0000 0.0000 33.1870 0.0000 0.0000
# 5 0.0000 0.0000 0.0000 0.0000 26.4932 0.0000
# 6 0.0000 0.0000 0.0000 0.0000 0.0000 17.4168
#
#
#
# Elastic Compliance Matrix: (Units=1/GPa)
#
#
# Indices 1 2 3 4 5 6 
#
# 1 0.023685 -0.006340 -0.005683 0.000000 0.000000 0.000000
# 2 -0.006340 0.023050 -0.004520 0.000000 0.000000 0.000000
# 3 -0.005683 -0.004520 0.012134 0.000000 0.000000 0.000000
# 4 0.000000 0.000000 0.000000 0.030132 0.000000 0.000000
# 5 0.000000 0.000000 0.000000 0.000000 0.037746 0.000000
# 6 0.000000 0.000000 0.000000 0.000000 0.000000 0.057416
#
#
# Mechanical properties :
#
#
# Convention : Reuss Voigt Hill
#
# Bulk Modulus (GPa) = 38.78378 44.38796 41.58587
# Shear Modulus (GPa) = 22.13926 24.36240 23.25083
#
# Velocity S-wave (km/s) = 3.38714 3.55314 3.47113
# Velocity P-wave (km/s) = 5.94937 6.31151 6.13311
#
# Compressibility (1/GPa) = 0.02578398
#
# Stress axis : x y z
#
# Youngs Moduli (GPa) = 42.22085 43.38385 82.41084
#
# Poissons Ratio (x) = 0.27504 0.46836
# Poissons Ratio (y) = 0.26766 0.37249
# Poissons Ratio (z) = 0.23995 0.19609
#
# Static dielectric constant tensor:
#      x y z
#    x 3.749740 0.000000 0.000000 
#    y 0.000000 3.407700 0.000000 
#    z 0.000000 0.000000 3.622730 
# 
# 
# High freq. dielectric constant tensor:
#      x y z
#    x 1.754180 0.000000 0.000000 
#    y 0.000000 1.736450 0.000000 
#    z 0.000000 0.000000 1.758580 
# 
# From -- ./inp_files/15843.got.cif
#   From: 2010.03.12/outbox.cif.g09.slc.cpg/sg62_8_cif.got.tgz:15843.got - 2010.04.10 19:12:36.
