data_PCOD8251481
_publ_section_title
;
Structure prediction by ZEFSAII (Michael W. Deem and Ramdas Pophale) SiO2 
 PCOD8251481
Probable space group: P N M A
;
_chemical_formula_sum "Si O2"
_cell_formula_units_Z 64
_cell_length_a 14.928108
_cell_length_b 8.938338
_cell_length_c 24.999325
_cell_angle_alpha 90.000000
_cell_angle_beta 90.000000
_cell_angle_gamma 90.000000
_cell_volume 3335.721808
_symmetry_space_group_name_H-M "P N M A"
_symmetry_group_IT_number 62
_symmetry_cell_setting 'orthorhombic'
loop_
_space_group_symop_operation_xyz
x,y,z
1/2-x,-y,1/2+z
1/2+x,1/2-y,1/2-z
-x,1/2+y,-z
-x,-y,-z
1/2+x,y,1/2-z
1/2-x,1/2+y,1/2+z
x,1/2-y,z
loop_
_atom_site_type_symbol
_atom_site_label
_atom_site_fract_x
_atom_site_fract_y
_atom_site_fract_z
Si Si1 0.670137 0.421129 0.641162
Si Si2 0.835105 0.571714 0.442740
Si Si3 0.510931 0.072231 0.100013
Si Si4 0.285240 0.073091 0.655767
Si Si5 0.811999 0.073256 0.553235
Si Si6 0.035433 0.422569 0.280507
Si Si7 0.239324 0.423635 0.263116
Si Si8 0.482085 0.421803 0.675065
O O1 0.690869 0.250000 0.657217
O O2 0.723003 0.463208 0.587510
O O3 0.695755 0.526108 0.690083
O O4 0.562920 0.445670 0.632620
O O5 0.844723 0.750000 0.445869
O O6 0.767961 0.517955 0.396293
O O7 0.794502 0.506997 0.497105
O O8 0.932382 0.499290 0.434781
O O9 0.516410 0.250000 0.090301
O O10 0.493210 0.033331 0.162304
O O11 0.603415 0.998281 0.082510
O O12 0.281666 0.250000 0.659219
O O13 0.388236 0.011424 0.652547
O O14 0.236781 0.007119 0.707998
O O15 0.827045 0.250000 0.545708
O O16 0.020507 0.250000 0.268577
O O17 0.139826 0.464412 0.282170
O O18 0.988245 0.508852 0.232042
O O19 0.253183 0.250000 0.252321
O O20 0.464971 0.250000 0.687073
#
# Coordination Sequence:
#
# PCOD8251481 Si02
#       8
#     8   8   8   8   8   8   8   8
#     4  10  21  36  57  85 114 148 189 231 280 336
#     4  11  24  40  59  82 111 150 196 239 285 339
#     4  11  22  38  58  83 117 151 188 232 283 342
#     4   9  20  39  59  81 112 150 190 232 281 336
#     4  11  23  40  60  83 114 150 192 237 284 338
#     4   9  19  34  52  81 116 148 181 222 275 333
#     4  10  19  33  55  82 114 148 182 228 279 331
#     4   9  19  36  58  82 113 150 187 230 275 332
#
# _framework density 19.186252
#
# number of rings (size 3 to 8) (size 9 to 14) (size 15 to 20)
#    0.000    2.000    1.250    1.875    1.750    3.500 
#    0.000    0.625    0.000    0.000    0.000    0.000 
#    0.000    0.000    0.000    0.000    0.000    0.000 
#
# Total GULP energy -793608.998331 kJ/mol
# GULP energy per Si atom -12400.140599 kJ/mol
# Density = 1.914258 g / cm^3
# Si number density = 19.186252 Si / 1000 Ang^3
#
#
#
# Elastic Constant Matrix: (Units=GPa)
#
#
# Indices 1 2 3 4 5 6 
#
# 1 47.0231 17.9635 28.4534 0.0000 0.0000 0.0000
# 2 17.9635 48.7555 28.2488 0.0000 0.0000 0.0000
# 3 28.4534 28.2488 95.8220 0.0000 0.0000 0.0000
# 4 0.0000 0.0000 0.0000 33.4288 0.0000 0.0000
# 5 0.0000 0.0000 0.0000 0.0000 31.3527 0.0000
# 6 0.0000 0.0000 0.0000 0.0000 0.0000 18.4051
#
#
#
# Elastic Compliance Matrix: (Units=1/GPa)
#
#
# Indices 1 2 3 4 5 6 
#
# 1 0.027543 -0.006524 -0.006256 0.000000 0.000000 0.000000
# 2 -0.006524 0.026281 -0.005811 0.000000 0.000000 0.000000
# 3 -0.006256 -0.005811 0.014007 0.000000 0.000000 0.000000
# 4 0.000000 0.000000 0.000000 0.029914 0.000000 0.000000
# 5 0.000000 0.000000 0.000000 0.000000 0.031895 0.000000
# 6 0.000000 0.000000 0.000000 0.000000 0.000000 0.054333
#
#
# Mechanical properties :
#
#
# Convention : Reuss Voigt Hill
#
# Bulk Modulus (GPa) = 32.62520 37.88134 35.25327
# Shear Modulus (GPa) = 21.61047 24.43299 23.02173
#
# Velocity S-wave (km/s) = 3.35976 3.57243 3.46773
# Velocity P-wave (km/s) = 5.66498 6.06657 5.86921
#
# Compressibility (1/GPa) = 0.03065116
#
# Stress axis : x y z
#
# Youngs Moduli (GPa) = 36.30628 38.05076 71.39533
#
# Poissons Ratio (x) = 0.24823 0.44662
# Poissons Ratio (y) = 0.23685 0.41485
# Poissons Ratio (z) = 0.22712 0.22110
#
# Static dielectric constant tensor:
#      x y z
#    x 3.635880 0.000000 0.000000 
#    y 0.000000 3.493910 0.000000 
#    z 0.000000 0.000000 3.618390 
# 
# 
# High freq. dielectric constant tensor:
#      x y z
#    x 1.748100 0.000000 0.000000 
#    y 0.000000 1.747990 0.000000 
#    z 0.000000 0.000000 1.739060 
# 
# From -- ./inp_files/29745.got.cif
#   From: 2010.03.12/outbox.cif.g09.slc.cpg/sg62_15_cif.got.tgz:29745.got - 2010.04.10 19:12:36.
