data_PCOD8251718
_publ_section_title
;
Structure prediction by ZEFSAII (Michael W. Deem and Ramdas Pophale) SiO2 
 PCOD8251718
Probable space group: P N M A
;
_chemical_formula_sum "Si O2"
_cell_formula_units_Z 56
_cell_length_a 14.739930
_cell_length_b 8.743852
_cell_length_c 20.912875
_cell_angle_alpha 90.000000
_cell_angle_beta 90.000000
_cell_angle_gamma 90.000000
_cell_volume 2695.330096
_symmetry_space_group_name_H-M "P N M A"
_symmetry_group_IT_number 62
_symmetry_cell_setting 'orthorhombic'
loop_
_space_group_symop_operation_xyz
x,y,z
1/2-x,-y,1/2+z
1/2+x,1/2-y,1/2-z
-x,1/2+y,-z
-x,-y,-z
1/2+x,y,1/2-z
1/2-x,1/2+y,1/2+z
x,1/2-y,z
loop_
_atom_site_type_symbol
_atom_site_label
_atom_site_fract_x
_atom_site_fract_y
_atom_site_fract_z
Si Si1 0.233912 0.070439 0.967982
Si Si2 0.514561 0.077286 0.728977
Si Si3 0.193175 0.569137 0.236711
Si Si4 0.670736 0.929135 0.659531
Si Si5 0.926622 0.572481 0.546446
Si Si6 0.950228 0.919999 0.368626
Si Si7 0.750434 0.573811 0.402275
O O1 0.220577 0.250000 0.963856
O O2 0.175800 0.992898 0.912265
O O3 0.336823 0.025089 0.956076
O O4 0.202860 0.014378 0.038771
O O5 0.513430 0.250000 0.701318
O O6 0.412364 0.022825 0.744101
O O7 0.573461 0.069799 0.793944
O O8 0.567930 0.967858 0.680629
O O9 0.208224 0.750000 0.241438
O O10 0.252529 0.496878 0.293435
O O11 0.221327 0.506504 0.166523
O O12 0.686202 0.750000 0.657964
O O13 0.906450 0.750000 0.533177
O O14 0.000000 0.500000 0.500000
O O15 0.973173 0.546407 0.615676
O O16 0.988430 0.750000 0.384161
O O17 0.858969 0.946799 0.409773
O O18 0.721261 0.750000 0.406839
#
# Coordination Sequence:
#
# PCOD8251718 Si02
#       7
#     8   8   8   8   8   8   8
#     4  12  25  41  61  85 120 166 212 259 315 376
#     4  10  21  40  66  93 122 161 208 253 307 371
#     4  10  21  41  69  96 126 167 212 257 308 374
#     4  12  25  41  64  94 130 165 205 262 317 373
#     4  12  23  35  54  84 121 157 199 248 307 374
#     4  10  19  34  58  86 122 162 200 250 303 366
#     4  10  20  37  61  90 124 160 204 255 308 364
#
# _framework density 20.776675000000001
#
# number of rings (size 3 to 8) (size 9 to 14) (size 15 to 20)
#    0.000    1.143    2.857    4.714    0.000    2.857 
#    0.000    0.714    0.000    0.000    0.000    0.000 
#    0.000    0.000    0.000    0.000    0.000    0.000 
#
# Total GULP energy -694292.240083 kJ/mol
# GULP energy per Si atom -12398.075716 kJ/mol
# Density = 2.072939 g / cm^3
# Si number density = 20.776675 Si / 1000 Ang^3
#
#
#
# Elastic Constant Matrix: (Units=GPa)
#
#
# Indices 1 2 3 4 5 6 
#
# 1 49.4834 22.8478 10.8966 0.0000 0.0000 0.0000
# 2 22.8478 96.1381 40.9839 0.0000 0.0000 0.0000
# 3 10.8966 40.9839 113.1235 0.0000 0.0000 0.0000
# 4 0.0000 0.0000 0.0000 33.7572 0.0000 0.0000
# 5 0.0000 0.0000 0.0000 0.0000 31.8453 0.0000
# 6 0.0000 0.0000 0.0000 0.0000 0.0000 26.3365
#
#
#
# Elastic Compliance Matrix: (Units=1/GPa)
#
#
# Indices 1 2 3 4 5 6 
#
# 1 0.022707 -0.005279 -0.000275 0.000000 0.000000 0.000000
# 2 -0.005279 0.013529 -0.004393 0.000000 0.000000 0.000000
# 3 -0.000275 -0.004393 0.010458 0.000000 0.000000 0.000000
# 4 0.000000 0.000000 0.000000 0.029623 0.000000 0.000000
# 5 0.000000 0.000000 0.000000 0.000000 0.031402 0.000000
# 6 0.000000 0.000000 0.000000 0.000000 0.000000 0.037970
#
#
# Mechanical properties :
#
#
# Convention : Reuss Voigt Hill
#
# Bulk Modulus (GPa) = 37.31330 45.35570 41.33450
# Shear Modulus (GPa) = 28.65062 30.65558 29.65310
#
# Velocity S-wave (km/s) = 3.71749 3.84537 3.78197
# Velocity P-wave (km/s) = 6.03527 6.44929 6.24571
#
# Compressibility (1/GPa) = 0.02680010
#
# Stress axis : x y z
#
# Youngs Moduli (GPa) = 44.03948 73.91473 95.62161
#
# Poissons Ratio (x) = 0.39022 0.02625
# Poissons Ratio (y) = 0.23250 0.42006
# Poissons Ratio (z) = 0.01209 0.32470
#
# Static dielectric constant tensor:
#      x y z
#    x 3.731710 0.000000 0.000000 
#    y 0.000000 3.803770 0.000000 
#    z 0.000000 0.000000 3.916440 
# 
# 
# High freq. dielectric constant tensor:
#      x y z
#    x 1.796540 0.000000 0.000000 
#    y 0.000000 1.798330 0.000000 
#    z 0.000000 0.000000 1.829000 
# 
# From -- ./inp_files/27137.got.cif
#   From: 2010.03.12/outbox.cif.g09.slc.cpg/sg62_14_cif.got.tgz:27137.got - 2010.04.10 19:12:36.
