data_PCOD8251849
_publ_section_title
;
Structure prediction by ZEFSAII (Michael W. Deem and Ramdas Pophale) SiO2 
 PCOD8251849
Probable space group: P N M A
;
_chemical_formula_sum "Si O2"
_cell_formula_units_Z 64
_cell_length_a 12.663608
_cell_length_b 8.912313
_cell_length_c 29.140993
_cell_angle_alpha 90.000000
_cell_angle_beta 90.000000
_cell_angle_gamma 90.000000
_cell_volume 3288.911865
_symmetry_space_group_name_H-M "P N M A"
_symmetry_group_IT_number 62
_symmetry_cell_setting 'orthorhombic'
loop_
_space_group_symop_operation_xyz
x,y,z
1/2-x,-y,1/2+z
1/2+x,1/2-y,1/2-z
-x,1/2+y,-z
-x,-y,-z
1/2+x,y,1/2-z
1/2-x,1/2+y,1/2+z
x,1/2-y,z
loop_
_atom_site_type_symbol
_atom_site_label
_atom_site_fract_x
_atom_site_fract_y
_atom_site_fract_z
Si Si1 0.103779 0.925006 0.419188
Si Si2 0.380449 0.418507 0.296162
Si Si3 0.323649 0.573004 0.563539
Si Si4 0.786099 0.071979 0.032483
Si Si5 0.544099 0.572513 0.606406
Si Si6 0.457472 0.923493 0.208773
Si Si7 0.372289 0.923281 0.109534
Si Si8 0.147127 0.417184 0.328028
O O1 0.121861 0.750000 0.426659
O O2 0.978976 0.964031 0.418782
O O3 0.166733 0.012808 0.458952
O O4 0.154312 0.971909 0.370934
O O5 0.423053 0.250000 0.285485
O O6 0.435623 0.486284 0.341928
O O7 0.396101 0.531239 0.254286
O O8 0.256323 0.411883 0.302173
O O9 0.323331 0.750000 0.555067
O O10 0.327567 0.489247 0.515430
O O11 0.427977 0.520989 0.590937
O O12 0.221147 0.528624 0.592510
O O13 0.782784 0.250000 0.030564
O O14 0.866284 0.011048 0.071577
O O15 0.555572 0.750000 0.606950
O O16 0.489117 0.750000 0.210305
O O17 0.388185 0.956358 0.163425
O O18 0.562789 0.022380 0.208324
O O19 0.342313 0.750000 0.101109
O O20 0.115996 0.250000 0.345209
#
# Coordination Sequence:
#
# PCOD8251849 Si02
#       8
#     8   8   8   8   8   8   8   8
#     4  10  20  36  60  87 115 147 193 246 290 341
#     4  10  20  37  60  86 114 150 197 240 290 353
#     4  11  23  38  59  86 118 154 196 243 290 346
#     4  11  21  38  62  86 117 155 194 239 296 355
#     4   9  20  39  59  84 118 152 193 243 290 347
#     4  10  22  38  57  85 119 152 193 244 295 349
#     4   9  21  41  58  78 116 157 191 237 294 351
#     4  10  19  35  59  83 112 151 191 237 293 350
#
# _framework density 19.459323999999999
#
# number of rings (size 3 to 8) (size 9 to 14) (size 15 to 20)
#    0.000    2.000    1.250    3.000    0.000    5.500 
#    0.000    6.875    0.000    0.000    0.000    0.000 
#    0.000    0.000    0.000    0.000    0.000    0.000 
#
# Total GULP energy -793643.304874 kJ/mol
# GULP energy per Si atom -12400.676639 kJ/mol
# Density = 1.941503 g / cm^3
# Si number density = 19.459324 Si / 1000 Ang^3
#
#
#
# Elastic Constant Matrix: (Units=GPa)
#
#
# Indices 1 2 3 4 5 6 
#
# 1 109.4471 44.7003 40.4911 0.0000 0.0000 0.0000
# 2 44.7003 72.8139 28.4469 0.0000 0.0000 0.0000
# 3 40.4911 28.4469 70.5348 0.0000 0.0000 0.0000
# 4 0.0000 0.0000 0.0000 34.8874 0.0000 0.0000
# 5 0.0000 0.0000 0.0000 0.0000 21.0755 0.0000
# 6 0.0000 0.0000 0.0000 0.0000 0.0000 24.5957
#
#
#
# Elastic Compliance Matrix: (Units=1/GPa)
#
#
# Indices 1 2 3 4 5 6 
#
# 1 0.013683 -0.006328 -0.005303 0.000000 0.000000 0.000000
# 2 -0.006328 0.019229 -0.004122 0.000000 0.000000 0.000000
# 3 -0.005303 -0.004122 0.018884 0.000000 0.000000 0.000000
# 4 0.000000 0.000000 0.000000 0.028664 0.000000 0.000000
# 5 0.000000 0.000000 0.000000 0.000000 0.047448 0.000000
# 6 0.000000 0.000000 0.000000 0.000000 0.000000 0.040657
#
#
# Mechanical properties :
#
#
# Convention : Reuss Voigt Hill
#
# Bulk Modulus (GPa) = 49.28652 53.34140 51.31396
# Shear Modulus (GPa) = 24.17372 25.38888 24.78130
#
# Velocity S-wave (km/s) = 3.52841 3.61600 3.57247
# Velocity P-wave (km/s) = 6.47939 6.70114 6.59120
#
# Compressibility (1/GPa) = 0.02028952
#
# Stress axis : x y z
#
# Youngs Moduli (GPa) = 73.08170 52.00434 52.95485
#
# Poissons Ratio (x) = 0.32911 0.28081
# Poissons Ratio (y) = 0.46250 0.21829
# Poissons Ratio (z) = 0.38753 0.21438
#
# Static dielectric constant tensor:
#      x y z
#    x 3.652480 0.000000 0.000000 
#    y 0.000000 3.530640 0.000000 
#    z 0.000000 0.000000 3.563710 
# 
# 
# High freq. dielectric constant tensor:
#      x y z
#    x 1.761400 0.000000 0.000000 
#    y 0.000000 1.753430 0.000000 
#    z 0.000000 0.000000 1.756040 
# 
# From -- ./inp_files/32437.got.cif
#   From: 2010.03.12/outbox.cif.g09.slc.cpg/sg62_17_cif.got.tgz:32437.got - 2010.04.10 19:12:36.
