data_PCOD8251024
_publ_section_title
;
Structure prediction by ZEFSAII (Michael W. Deem and Ramdas Pophale) SiO2 
 PCOD8251024
Probable space group: P N M A
;
_chemical_formula_sum "Si O2"
_cell_formula_units_Z 64
_cell_length_a 24.917959
_cell_length_b 9.101051
_cell_length_c 15.243867
_cell_angle_alpha 90.000000
_cell_angle_beta 90.000000
_cell_angle_gamma 90.000000
_cell_volume 3456.998300
_symmetry_space_group_name_H-M "P N M A"
_symmetry_group_IT_number 62
_symmetry_cell_setting 'orthorhombic'
loop_
_space_group_symop_operation_xyz
x,y,z
1/2-x,-y,1/2+z
1/2+x,1/2-y,1/2-z
-x,1/2+y,-z
-x,-y,-z
1/2+x,y,1/2-z
1/2-x,1/2+y,1/2+z
x,1/2-y,z
loop_
_atom_site_type_symbol
_atom_site_label
_atom_site_fract_x
_atom_site_fract_y
_atom_site_fract_z
Si Si1 0.442074 0.075126 0.171859
Si Si2 0.236584 0.081687 0.283406
Si Si3 0.774179 0.081222 0.541849
Si Si4 0.606199 0.580888 0.009030
Si Si5 0.436633 0.576079 0.820374
Si Si6 0.139030 0.419387 0.164109
Si Si7 0.168826 0.924423 0.997820
Si Si8 0.355847 0.078691 0.304989
O O1 0.437259 0.250000 0.172368
O O2 0.502290 0.022178 0.191731
O O3 0.402954 0.005848 0.246559
O O4 0.424274 0.017687 0.076238
O O5 0.231799 0.250000 0.317464
O O6 0.199706 0.057585 0.198685
O O7 0.298351 0.045941 0.259387
O O8 0.216155 0.975046 0.359530
O O9 0.755260 0.250000 0.544098
O O10 0.830307 0.064328 0.490890
O O11 0.729085 0.986564 0.492426
O O12 0.591119 0.750000 0.026823
O O13 0.588276 0.488652 0.092178
O O14 0.432662 0.750000 0.829066
O O15 0.403244 0.521870 0.735922
O O16 0.127816 0.250000 0.141742
O O17 0.131794 0.513624 0.075818
O O18 0.171144 0.750000 0.002908
O O19 0.144313 0.980887 0.905085
O O20 0.367130 0.250000 0.309268
#
# Coordination Sequence:
#
# PCOD8251024 Si02
#       8
#     8   8   8   8   8   8   8   8
#     4   9  18  33  54  77 100 135 181 219 258 315
#     4   9  17  31  52  74 103 140 174 210 258 315
#     4  10  19  31  50  78 110 139 170 211 259 312
#     4  10  20  32  52  80 109 141 175 211 258 318
#     4  10  20  35  55  77 105 138 175 220 263 310
#     4  10  20  33  52  78 106 139 177 217 266 316
#     4  10  21  35  53  77 106 141 178 221 269 316
#     4   8  16  32  53  74  99 133 176 218 256 308
#
# _framework density 18.513169999999999
#
# number of rings (size 3 to 8) (size 9 to 14) (size 15 to 20)
#    0.000    2.500    1.250    1.875    1.750    1.500 
#    0.000    0.625    0.000    5.250    0.000    0.000 
#    0.000    0.000    0.000    0.000    0.000    0.000 
#
# Total GULP energy -793485.713286 kJ/mol
# GULP energy per Si atom -12398.214270 kJ/mol
# Density = 1.847103 g / cm^3
# Si number density = 18.513170 Si / 1000 Ang^3
#
#
#
# Elastic Constant Matrix: (Units=GPa)
#
#
# Indices 1 2 3 4 5 6 
#
# 1 115.4533 26.3271 66.3654 0.0000 0.0000 0.0000
# 2 26.3271 45.0171 30.4590 0.0000 0.0000 0.0000
# 3 66.3654 30.4590 111.3939 0.0000 0.0000 0.0000
# 4 0.0000 0.0000 0.0000 27.0821 0.0000 0.0000
# 5 0.0000 0.0000 0.0000 0.0000 28.5961 0.0000
# 6 0.0000 0.0000 0.0000 0.0000 0.0000 17.2760
#
#
#
# Elastic Compliance Matrix: (Units=1/GPa)
#
#
# Indices 1 2 3 4 5 6 
#
# 1 0.013497 -0.003009 -0.007218 0.000000 0.000000 0.000000
# 2 -0.003009 0.027927 -0.005843 0.000000 0.000000 0.000000
# 3 -0.007218 -0.005843 0.014875 0.000000 0.000000 0.000000
# 4 0.000000 0.000000 0.000000 0.036925 0.000000 0.000000
# 5 0.000000 0.000000 0.000000 0.000000 0.034970 0.000000
# 6 0.000000 0.000000 0.000000 0.000000 0.000000 0.057884
#
#
# Mechanical properties :
#
#
# Convention : Reuss Voigt Hill
#
# Bulk Modulus (GPa) = 41.39475 57.57414 49.48445
# Shear Modulus (GPa) = 22.09721 24.50502 23.30112
#
# Velocity S-wave (km/s) = 3.45859 3.64215 3.55156
# Velocity P-wave (km/s) = 6.19333 6.98953 6.60344
#
# Compressibility (1/GPa) = 0.02415765
#
# Stress axis : x y z
#
# Youngs Moduli (GPa) = 74.09060 35.80704 67.22519
#
# Poissons Ratio (x) = 0.10776 0.48525
# Poissons Ratio (y) = 0.22297 0.39282
# Poissons Ratio (z) = 0.53480 0.20924
#
# Static dielectric constant tensor:
#      x y z
#    x 3.595390 0.000000 0.000000 
#    y 0.000000 3.153650 0.000000 
#    z 0.000000 0.000000 3.457130 
# 
# 
# High freq. dielectric constant tensor:
#      x y z
#    x 1.715380 0.000000 0.000000 
#    y 0.000000 1.689090 0.000000 
#    z 0.000000 0.000000 1.717470 
# 
# From -- ./inp_files/20764.got.cif
#   From: 2010.03.12/outbox.cif.g09.slc.cpg/sg62_11_cif.got.tgz:20764.got - 2010.04.10 19:12:36.
