data_PCOD8251272
_publ_section_title
;
Structure prediction by ZEFSAII (Michael W. Deem and Ramdas Pophale) SiO2 
 PCOD8251272
Probable space group: P N M A
;
_chemical_formula_sum "Si O2"
_cell_formula_units_Z 64
_cell_length_a 22.145646
_cell_length_b 9.114825
_cell_length_c 16.836207
_cell_angle_alpha 90.000000
_cell_angle_beta 90.000000
_cell_angle_gamma 90.000000
_cell_volume 3398.450472
_symmetry_space_group_name_H-M "P N M A"
_symmetry_group_IT_number 62
_symmetry_cell_setting 'orthorhombic'
loop_
_space_group_symop_operation_xyz
x,y,z
1/2-x,-y,1/2+z
1/2+x,1/2-y,1/2-z
-x,1/2+y,-z
-x,-y,-z
1/2+x,y,1/2-z
1/2-x,1/2+y,1/2+z
x,1/2-y,z
loop_
_atom_site_type_symbol
_atom_site_label
_atom_site_fract_x
_atom_site_fract_y
_atom_site_fract_z
Si Si1 0.060867 0.418348 0.905020
Si Si2 0.936372 0.918344 0.913894
Si Si3 0.846777 0.420881 0.207888
Si Si4 0.530148 0.580151 0.144044
Si Si5 0.891891 0.577335 0.357392
Si Si6 0.210753 0.418644 0.328581
Si Si7 0.377163 0.079381 0.719476
Si Si8 0.120784 0.079907 0.464087
O O1 0.056705 0.250000 0.876918
O O2 0.105759 0.503742 0.849122
O O3 0.995353 0.487250 0.896617
O O4 0.084277 0.431229 0.995038
O O5 0.948564 0.750000 0.890384
O O6 0.883049 0.987464 0.861498
O O7 0.861569 0.250000 0.214326
O O8 0.850169 0.490758 0.295376
O O9 0.781703 0.449142 0.168656
O O10 0.532675 0.750000 0.122185
O O11 0.461396 0.527297 0.153720
O O12 0.564543 0.546241 0.226055
O O13 0.562084 0.498784 0.071258
O O14 0.884545 0.750000 0.342014
O O15 0.869006 0.531290 0.445007
O O16 0.196726 0.250000 0.305957
O O17 0.183069 0.524599 0.262388
O O18 0.181365 0.457245 0.414220
O O19 0.370228 0.250000 0.699400
O O20 0.104838 0.250000 0.460994
#
# Coordination Sequence:
#
# PCOD8251272 Si02
#       8
#     8   8   8   8   8   8   8   8
#     4  10  21  37  57  81 112 145 181 229 280 334
#     4  10  20  35  57  85 115 145 181 226 278 332
#     4  11  23  38  56  77 107 147 188 233 282 327
#     4   9  18  31  50  80 114 142 169 214 268 322
#     4  10  20  34  54  81 112 140 175 222 273 331
#     4   9  20  39  56  73 106 145 187 232 274 324
#     4  10  19  32  54  82 110 145 186 226 272 323
#     4   9  18  34  56  79 105 142 179 219 269 322
#
# _framework density 18.832111000000001
#
# number of rings (size 3 to 8) (size 9 to 14) (size 15 to 20)
#    0.000    2.250    0.000    2.625    0.000    5.000 
#    2.250    0.000    0.000    0.000    0.000    0.000 
#    0.000    0.000    0.000    0.000    0.000    0.000 
#
# Total GULP energy -793785.424830 kJ/mol
# GULP energy per Si atom -12402.897263 kJ/mol
# Density = 1.878925 g / cm^3
# Si number density = 18.832111 Si / 1000 Ang^3
#
#
#
# Elastic Constant Matrix: (Units=GPa)
#
#
# Indices 1 2 3 4 5 6 
#
# 1 54.4813 27.9594 32.1192 0.0000 0.0000 0.0000
# 2 27.9594 76.4403 49.3608 0.0000 0.0000 0.0000
# 3 32.1192 49.3608 100.2795 0.0000 0.0000 0.0000
# 4 0.0000 0.0000 0.0000 31.9159 0.0000 0.0000
# 5 0.0000 0.0000 0.0000 0.0000 19.1166 0.0000
# 6 0.0000 0.0000 0.0000 0.0000 0.0000 27.4892
#
#
#
# Elastic Compliance Matrix: (Units=1/GPa)
#
#
# Indices 1 2 3 4 5 6 
#
# 1 0.024176 -0.005633 -0.004971 0.000000 0.000000 0.000000
# 2 -0.005633 0.020490 -0.008282 0.000000 0.000000 0.000000
# 3 -0.004971 -0.008282 0.015641 0.000000 0.000000 0.000000
# 4 0.000000 0.000000 0.000000 0.031332 0.000000 0.000000
# 5 0.000000 0.000000 0.000000 0.000000 0.052310 0.000000
# 6 0.000000 0.000000 0.000000 0.000000 0.000000 0.036378
#
#
# Mechanical properties :
#
#
# Convention : Reuss Voigt Hill
#
# Bulk Modulus (GPa) = 44.37301 50.00887 47.19094
# Shear Modulus (GPa) = 22.16198 23.82180 22.99189
#
# Velocity S-wave (km/s) = 3.43420 3.56048 3.49791
# Velocity P-wave (km/s) = 6.27205 6.59662 6.43638
#
# Compressibility (1/GPa) = 0.02253622
#
# Stress axis : x y z
#
# Youngs Moduli (GPa) = 41.36283 48.80331 63.93522
#
# Poissons Ratio (x) = 0.27491 0.31781
# Poissons Ratio (y) = 0.23300 0.52950
# Poissons Ratio (z) = 0.20561 0.40418
#
# Static dielectric constant tensor:
#      x y z
#    x 3.309350 0.000000 0.000000 
#    y 0.000000 3.512380 0.000000 
#    z 0.000000 0.000000 3.623600 
# 
# 
# High freq. dielectric constant tensor:
#      x y z
#    x 1.715400 0.000000 0.000000 
#    y 0.000000 1.737380 0.000000 
#    z 0.000000 0.000000 1.738810 
# 
# From -- ./inp_files/20824.got.cif
#   From: 2010.03.12/outbox.cif.g09.slc.cpg/sg62_11_cif.got.tgz:20824.got - 2010.04.10 19:12:36.
