data_PCOD8251819
_publ_section_title
;
Structure prediction by ZEFSAII (Michael W. Deem and Ramdas Pophale) SiO2 
 PCOD8251819
Probable space group: P N M A
;
_chemical_formula_sum "Si O2"
_cell_formula_units_Z 40
_cell_length_a 8.935559
_cell_length_b 8.893319
_cell_length_c 25.835690
_cell_angle_alpha 90.000000
_cell_angle_beta 90.000000
_cell_angle_gamma 90.000000
_cell_volume 2053.079006
_symmetry_space_group_name_H-M "P N M A"
_symmetry_group_IT_number 62
_symmetry_cell_setting 'orthorhombic'
loop_
_space_group_symop_operation_xyz
x,y,z
1/2-x,-y,1/2+z
1/2+x,1/2-y,1/2-z
-x,1/2+y,-z
-x,-y,-z
1/2+x,y,1/2-z
1/2-x,1/2+y,1/2+z
x,1/2-y,z
loop_
_atom_site_type_symbol
_atom_site_label
_atom_site_fract_x
_atom_site_fract_y
_atom_site_fract_z
Si Si1 0.672846 0.929116 0.297706
Si Si2 0.154872 0.927626 0.405212
Si Si3 0.164063 0.927896 0.606426
Si Si4 0.664223 0.072079 0.694914
Si Si5 0.840323 0.926360 0.994703
O O1 0.677800 0.750000 0.301600
O O2 0.739324 0.987221 0.243310
O O3 0.504261 0.992509 0.302595
O O4 0.774724 0.995264 0.342429
O O5 0.121858 0.750000 0.402321
O O6 0.258586 0.981927 0.357827
O O7 0.236387 0.975706 0.457757
O O8 0.003043 0.018950 0.403349
O O9 0.167304 0.750000 0.612869
O O10 0.264251 0.981627 0.558173
O O11 0.655728 0.250000 0.697028
O O12 0.864364 0.750000 0.995219
O O13 0.000000 0.000000 0.000000
#
# Coordination Sequence:
#
# PCOD8251819 Si02
#       5
#     8   8   8   8   8
#     4  10  19  35  58  82 108 142 181 225 271 319
#     4  10  20  37  59  82 107 143 187 227 267 318
#     4  11  23  37  53  81 115 145 178 221 271 326
#     4   9  18  33  58  86 107 134 184 235 269 309
#     4  10  22  38  58  83 111 142 181 224 271 324
#
# _framework density 19.482932000000002
#
# number of rings (size 3 to 8) (size 9 to 14) (size 15 to 20)
#    0.000    2.000    0.000    3.600    0.000    7.200 
#    0.000    5.000    0.000    0.000    0.000    0.000 
#    0.000    0.000    0.000    0.000    0.000    0.000 
#
# Total GULP energy -496141.718116 kJ/mol
# GULP energy per Si atom -12403.542953 kJ/mol
# Density = 1.943859 g / cm^3
# Si number density = 19.482932 Si / 1000 Ang^3
#
#
#
# Elastic Constant Matrix: (Units=GPa)
#
#
# Indices 1 2 3 4 5 6 
#
# 1 98.4497 17.7123 1.1546 0.0000 0.0000 0.0000
# 2 17.7123 22.7913 18.4119 0.0000 0.0000 0.0000
# 3 1.1546 18.4119 90.1640 0.0000 0.0000 0.0000
# 4 0.0000 0.0000 0.0000 19.1275 0.0000 0.0000
# 5 0.0000 0.0000 0.0000 0.0000 42.9563 0.0000
# 6 0.0000 0.0000 0.0000 0.0000 0.0000 30.3508
#
#
#
# Elastic Compliance Matrix: (Units=1/GPa)
#
#
# Indices 1 2 3 4 5 6 
#
# 1 0.012138 -0.011146 0.002121 0.000000 0.000000 0.000000
# 2 -0.011146 0.062780 -0.012677 0.000000 0.000000 0.000000
# 3 0.002121 -0.012677 0.013652 0.000000 0.000000 0.000000
# 4 0.000000 0.000000 0.000000 0.052281 0.000000 0.000000
# 5 0.000000 0.000000 0.000000 0.000000 0.023279 0.000000
# 6 0.000000 0.000000 0.000000 0.000000 0.000000 0.032948
#
#
# Mechanical properties :
#
#
# Convention : Reuss Voigt Hill
#
# Bulk Modulus (GPa) = 22.14109 31.77363 26.95736
# Shear Modulus (GPa) = 19.56646 30.09533 24.83089
#
# Velocity S-wave (km/s) = 3.17249 3.93453 3.57388
# Velocity P-wave (km/s) = 4.98082 6.08150 5.55847
#
# Compressibility (1/GPa) = 0.04516490
#
# Stress axis : x y z
#
# Youngs Moduli (GPa) = 82.38623 15.92863 73.24671
#
# Poissons Ratio (x) = 0.17754 -0.15533
# Poissons Ratio (y) = 0.91830 0.92857
# Poissons Ratio (z) = -0.17471 0.20193
#
# Static dielectric constant tensor:
#      x y z
#    x 3.724180 0.000000 0.000000 
#    y 0.000000 3.232690 0.000000 
#    z 0.000000 0.000000 3.952920 
# 
# 
# High freq. dielectric constant tensor:
#      x y z
#    x 1.778070 0.000000 0.000000 
#    y 0.000000 1.726960 0.000000 
#    z 0.000000 0.000000 1.780400 
# 
# From -- ./inp_files/28559.got.cif
#   From: 2010.03.12/outbox.cif.g09.slc.cpg/sg62_15_cif.got.tgz:28559.got - 2010.04.10 19:12:36.
