data_PCOD8251658
_publ_section_title
;
Structure prediction by ZEFSAII (Michael W. Deem and Ramdas Pophale) SiO2 
 PCOD8251658
Probable space group: P N M A
;
_chemical_formula_sum "Si O2"
_cell_formula_units_Z 48
_cell_length_a 15.120093
_cell_length_b 12.118721
_cell_length_c 14.146685
_cell_angle_alpha 90.000000
_cell_angle_beta 90.000000
_cell_angle_gamma 90.000000
_cell_volume 2592.184640
_symmetry_space_group_name_H-M "P N M A"
_symmetry_group_IT_number 62
_symmetry_cell_setting 'orthorhombic'
loop_
_space_group_symop_operation_xyz
x,y,z
1/2-x,-y,1/2+z
1/2+x,1/2-y,1/2-z
-x,1/2+y,-z
-x,-y,-z
1/2+x,y,1/2-z
1/2-x,1/2+y,1/2+z
x,1/2-y,z
loop_
_atom_site_type_symbol
_atom_site_label
_atom_site_fract_x
_atom_site_fract_y
_atom_site_fract_z
Si Si1 0.216030 0.376714 0.923209
Si Si2 0.416207 0.874331 0.078761
Si Si3 0.640172 0.502581 0.747160
Si Si4 0.101273 0.965430 0.420792
Si Si5 0.037328 0.123813 0.258102
Si Si6 0.294434 0.877374 0.639502
O O1 0.186556 0.250000 0.912239
O O2 0.157006 0.453395 0.856446
O O3 0.317231 0.390211 0.888766
O O4 0.207877 0.417574 0.031237
O O5 0.384294 0.750000 0.057203
O O6 0.393787 0.902907 0.186953
O O7 0.520996 0.882646 0.057041
O O8 0.368057 0.964294 0.012667
O O9 0.562690 0.591704 0.731393
O O10 0.727661 0.556189 0.792796
O O11 0.072178 0.053030 0.344106
O O12 0.037667 0.250000 0.291250
O O13 0.104175 0.104750 0.171199
O O14 0.265541 0.750000 0.646051
#
# Coordination Sequence:
#
# PCOD8251658 Si02
#       6
#     8   8   8   8   8   8
#     4  11  22  37  58  83 115 156 194 232 289 348
#     4  10  20  33  52  82 115 145 184 235 293 341
#     4  11  21  37  59  83 114 152 192 239 284 338
#     4  10  19  34  56  83 113 147 184 241 285 341
#     4  10  21  37  59  85 114 150 193 235 285 342
#     4  10  21  38  59  84 117 152 189 234 286 341
#
# _framework density 18.517199000000002
#
# number of rings (size 3 to 8) (size 9 to 14) (size 15 to 20)
#    0.000    1.667    3.333    2.000    0.000    0.667 
#    0.000    0.000    0.000    0.000    0.000    0.000 
#    0.000    0.000    0.000    0.000    0.000    0.000 
#
# Total GULP energy -595161.707509 kJ/mol
# GULP energy per Si atom -12399.202240 kJ/mol
# Density = 1.847505 g / cm^3
# Si number density = 18.517199 Si / 1000 Ang^3
#
#
#
# Elastic Constant Matrix: (Units=GPa)
#
#
# Indices 1 2 3 4 5 6 
#
# 1 63.5591 15.1300 38.3818 0.0000 0.0000 0.0000
# 2 15.1300 67.0157 36.4926 0.0000 0.0000 0.0000
# 3 38.3818 36.4926 97.5724 0.0000 0.0000 0.0000
# 4 0.0000 0.0000 0.0000 26.7340 0.0000 0.0000
# 5 0.0000 0.0000 0.0000 0.0000 28.6057 0.0000
# 6 0.0000 0.0000 0.0000 0.0000 0.0000 22.4974
#
#
#
# Elastic Compliance Matrix: (Units=1/GPa)
#
#
# Indices 1 2 3 4 5 6 
#
# 1 0.020640 -0.000300 -0.008007 0.000000 0.000000 0.000000
# 2 -0.000300 0.018742 -0.006892 0.000000 0.000000 0.000000
# 3 -0.008007 -0.006892 0.015976 0.000000 0.000000 0.000000
# 4 0.000000 0.000000 0.000000 0.037406 0.000000 0.000000
# 5 0.000000 0.000000 0.000000 0.000000 0.034958 0.000000
# 6 0.000000 0.000000 0.000000 0.000000 0.000000 0.044450
#
#
# Mechanical properties :
#
#
# Convention : Reuss Voigt Hill
#
# Bulk Modulus (GPa) = 40.06202 45.35068 42.70635
# Shear Modulus (GPa) = 23.70912 24.77693 24.24303
#
# Velocity S-wave (km/s) = 3.58213 3.66190 3.62224
# Velocity P-wave (km/s) = 6.22823 6.51335 6.37238
#
# Compressibility (1/GPa) = 0.02496130
#
# Stress axis : x y z
#
# Youngs Moduli (GPa) = 48.44972 53.35483 62.59353
#
# Poissons Ratio (x) = 0.01599 0.50119
# Poissons Ratio (y) = 0.01452 0.43139
# Poissons Ratio (z) = 0.38794 0.36771
#
# Static dielectric constant tensor:
#      x y z
#    x 3.482320 0.000000 0.000000 
#    y 0.000000 3.279080 0.000000 
#    z 0.000000 0.000000 3.407540 
# 
# 
# High freq. dielectric constant tensor:
#      x y z
#    x 1.714520 0.000000 0.000000 
#    y 0.000000 1.716640 0.000000 
#    z 0.000000 0.000000 1.717290 
# 
# From -- ./inp_files/18872.got.cif
#   From: 2010.03.12/outbox.cif.g09.slc.cpg/sg62_10_cif.got.tgz:18872.got - 2010.04.10 19:12:36.
