data_PCOD8251808
_publ_section_title
;
Structure prediction by ZEFSAII (Michael W. Deem and Ramdas Pophale) SiO2 
 PCOD8251808
Probable space group: P N M A
;
_chemical_formula_sum "Si O2"
_cell_formula_units_Z 40
_cell_length_a 13.163147
_cell_length_b 13.822615
_cell_length_c 11.295038
_cell_angle_alpha 90.000000
_cell_angle_beta 90.000000
_cell_angle_gamma 90.000000
_cell_volume 2055.122147
_symmetry_space_group_name_H-M "P N M A"
_symmetry_group_IT_number 62
_symmetry_cell_setting 'orthorhombic'
loop_
_space_group_symop_operation_xyz
x,y,z
1/2-x,-y,1/2+z
1/2+x,1/2-y,1/2-z
-x,1/2+y,-z
-x,-y,-z
1/2+x,y,1/2-z
1/2-x,1/2+y,1/2+z
x,1/2-y,z
loop_
_atom_site_type_symbol
_atom_site_label
_atom_site_fract_x
_atom_site_fract_y
_atom_site_fract_z
Si Si1 0.917393 0.750000 0.519071
Si Si2 0.632700 0.750000 0.324195
Si Si3 0.299562 0.613930 0.129974
Si Si4 0.631121 0.250000 0.407098
Si Si5 0.871091 0.250000 0.561185
Si Si6 0.549410 0.750000 0.750759
Si Si7 0.801149 0.114281 0.364774
Si Si8 0.606861 0.250000 0.682182
O O1 0.852949 0.847195 0.490455
O O2 0.007702 0.750000 0.422627
O O3 0.959278 0.750000 0.651712
O O4 0.683422 0.847094 0.378344
O O5 0.676632 0.750000 0.189943
O O6 0.513754 0.750000 0.338845
O O7 0.300728 0.499800 0.137301
O O8 0.357970 0.655085 0.245728
O O9 0.510930 0.250000 0.374234
O O10 0.686629 0.155760 0.349641
O O11 0.651796 0.250000 0.548615
O O12 0.841479 0.153077 0.490371
O O13 0.621753 0.844364 0.763782
#
# Coordination Sequence:
#
# PCOD8251808 Si02
#       8
#     4   4   8   4   4   4   8   4
#     4   8  17  35  53  79 108 137 181 240 282 315
#     4  10  19  37  56  85 115 154 177 231 292 334
#     4  10  19  35  57  90 110 135 198 239 274 333
#     4  10  21  44  53  79 119 162 178 226 290 345
#     4   9  16  36  58  73 113 153 178 225 287 332
#     4   9  20  38  57  75 113 152 188 227 287 333
#     4   9  20  36  58  85 106 151 195 231 279 327
#     4  10  21  40  61  77 120 154 180 225 294 343
#
# _framework density 19.463564000000002
#
# number of rings (size 3 to 8) (size 9 to 14) (size 15 to 20)
#    0.000    3.200    2.000    2.400    0.000    4.800 
#   14.400    2.000    0.000    0.000    0.000    0.000 
#    0.000    0.000    0.000    0.000    0.000    0.000 
#
# Total GULP energy -495538.449342 kJ/mol
# GULP energy per Si atom -12388.461234 kJ/mol
# Density = 1.941926 g / cm^3
# Si number density = 19.463564 Si / 1000 Ang^3
#
#
#
# Elastic Constant Matrix: (Units=GPa)
#
#
# Indices 1 2 3 4 5 6 
#
# 1 97.9625 45.0070 -0.6542 0.0000 0.0000 0.0000
# 2 45.0070 203.4523 14.8115 0.0000 0.0000 0.0000
# 3 -0.6542 14.8115 49.3223 0.0000 0.0000 0.0000
# 4 0.0000 0.0000 0.0000 4800.0042 0.0000 0.0000
# 5 0.0000 0.0000 0.0000 0.0000 35.5903 0.0000
# 6 0.0000 0.0000 0.0000 0.0000 0.0000 12.8101
#
#
#
# Elastic Compliance Matrix: (Units=1/GPa)
#
#
# Indices 1 2 3 4 5 6 
#
# 1 0.011404 -0.002590 0.000929 0.000000 0.000000 0.000000
# 2 -0.002590 0.005613 -0.001720 0.000000 0.000000 0.000000
# 3 0.000929 -0.001720 0.020804 0.000000 0.000000 0.000000
# 4 0.000000 0.000000 0.000000 0.000208 0.000000 0.000000
# 5 0.000000 0.000000 0.000000 0.000000 0.028098 0.000000
# 6 0.000000 0.000000 0.000000 0.000000 0.000000 0.078063
#
#
# Mechanical properties :
#
#
# Convention : Reuss Voigt Hill
#
# Bulk Modulus (GPa) = 32.19712 52.11843 42.15777
# Shear Modulus (GPa) = 30.99697 989.11912 510.05805
#
# Velocity S-wave (km/s) = 3.99502 22.56753 16.20576
# Velocity P-wave (km/s) = 6.15292 26.56865 19.28408
#
# Compressibility (1/GPa) = 0.03105868
#
# Stress axis : x y z
#
# Youngs Moduli (GPa) = 87.68599 178.14408 48.06849
#
# Poissons Ratio (x) = 0.46148 -0.04466
# Poissons Ratio (y) = 0.22715 0.08268
# Poissons Ratio (z) = -0.08148 0.30642
#
# Static dielectric constant tensor:
#      x y z
#    x 3.778050 0.000000 0.000000 
#    y 0.000000 3.181290 0.000000 
#    z 0.000000 0.000000 3.400880 
# 
# 
# High freq. dielectric constant tensor:
#      x y z
#    x 1.780270 0.000000 0.000000 
#    y 0.000000 1.727120 0.000000 
#    z 0.000000 0.000000 1.743180 
# 
# From -- ./inp_files/13145.got.cif
#   From: 2010.03.12/outbox.cif.g09.slc.cpg/sg62_7_cif.got.tgz:13145.got - 2010.04.10 19:12:36.
