data_PCOD8251783
_publ_section_title
;
Structure prediction by ZEFSAII (Michael W. Deem and Ramdas Pophale) SiO2 
 PCOD8251783
Probable space group: P N M A
;
_chemical_formula_sum "Si O2"
_cell_formula_units_Z 64
_cell_length_a 19.014794
_cell_length_b 9.293554
_cell_length_c 19.779991
_cell_angle_alpha 90.000000
_cell_angle_beta 90.000000
_cell_angle_gamma 90.000000
_cell_volume 3495.421403
_symmetry_space_group_name_H-M "P N M A"
_symmetry_group_IT_number 62
_symmetry_cell_setting 'orthorhombic'
loop_
_space_group_symop_operation_xyz
x,y,z
1/2-x,-y,1/2+z
1/2+x,1/2-y,1/2-z
-x,1/2+y,-z
-x,-y,-z
1/2+x,y,1/2-z
1/2-x,1/2+y,1/2+z
x,1/2-y,z
loop_
_atom_site_type_symbol
_atom_site_label
_atom_site_fract_x
_atom_site_fract_y
_atom_site_fract_z
Si Si1 0.094408 0.583745 0.186587
Si Si2 0.255515 0.917427 0.218145
Si Si3 0.061664 0.917073 0.036528
Si Si4 0.716756 0.583573 0.506556
Si Si5 0.725212 0.416074 0.153031
Si Si6 0.066168 0.083202 0.315643
Si Si7 0.529226 0.583792 0.936755
Si Si8 0.188521 0.582371 0.597525
O O1 0.077200 0.750000 0.197426
O O2 0.177503 0.555763 0.189975
O O3 0.067935 0.528782 0.113871
O O4 0.054074 0.498096 0.245087
O O5 0.275203 0.750000 0.220854
O O6 0.264207 0.984141 0.292552
O O7 0.308620 0.000179 0.168834
O O8 0.042917 0.750000 0.035319
O O9 0.133893 0.947075 0.996803
O O10 0.000000 0.000000 0.000000
O O11 0.733148 0.750000 0.488171
O O12 0.743378 0.543274 0.580748
O O13 0.755246 0.482273 0.453666
O O14 0.739379 0.250000 0.171377
O O15 0.642340 0.450254 0.152505
O O16 0.056381 0.250000 0.299519
O O17 0.008165 0.027087 0.368563
O O18 0.509840 0.750000 0.946868
O O19 0.611857 0.557561 0.933032
O O20 0.500000 0.500000 0.000000
O O21 0.204947 0.750000 0.609080
#
# Coordination Sequence:
#
# PCOD8251783 Si02
#       8
#     8   8   8   8   8   8   8   8
#     4   9  18  35  57  79 106 140 182 226 267 323
#     4  10  19  35  57  79 108 143 181 224 274 329
#     4  10  21  38  57  80 109 142 183 229 280 334
#     4  10  20  38  60  82 112 148 184 224 280 338
#     4   9  18  33  57  84 109 141 182 226 270 323
#     4   9  18  34  55  81 110 144 185 222 266 322
#     4  10  22  38  55  81 115 149 186 229 275 330
#     4  11  22  35  56  84 114 145 186 234 275 325
#
# _framework density 18.309667000000001
#
# number of rings (size 3 to 8) (size 9 to 14) (size 15 to 20)
#    0.000    2.250    1.250    1.500    0.000    4.500 
#    2.250    2.500    0.000    0.000    0.000    0.000 
#    0.000    0.000    0.000    0.000    0.000    0.000 
#
# Total GULP energy -793816.576384 kJ/mol
# GULP energy per Si atom -12403.384006 kJ/mol
# Density = 1.826799 g / cm^3
# Si number density = 18.309667 Si / 1000 Ang^3
#
#
#
# Elastic Constant Matrix: (Units=GPa)
#
#
# Indices 1 2 3 4 5 6 
#
# 1 60.0570 30.8159 37.1649 0.0000 0.0000 0.0000
# 2 30.8159 72.2128 47.6670 0.0000 0.0000 0.0000
# 3 37.1649 47.6670 117.7445 0.0000 0.0000 0.0000
# 4 0.0000 0.0000 0.0000 39.1660 0.0000 0.0000
# 5 0.0000 0.0000 0.0000 0.0000 33.2935 0.0000
# 6 0.0000 0.0000 0.0000 0.0000 0.0000 26.7556
#
#
#
# Elastic Compliance Matrix: (Units=1/GPa)
#
#
# Indices 1 2 3 4 5 6 
#
# 1 0.022922 -0.006831 -0.004470 0.000000 0.000000 0.000000
# 2 -0.006831 0.020934 -0.006319 0.000000 0.000000 0.000000
# 3 -0.004470 -0.006319 0.012462 0.000000 0.000000 0.000000
# 4 0.000000 0.000000 0.000000 0.025532 0.000000 0.000000
# 5 0.000000 0.000000 0.000000 0.000000 0.030036 0.000000
# 6 0.000000 0.000000 0.000000 0.000000 0.000000 0.037375
#
#
# Mechanical properties :
#
#
# Convention : Reuss Voigt Hill
#
# Bulk Modulus (GPa) = 47.44109 53.47888 50.45998
# Shear Modulus (GPa) = 26.10608 28.80080 27.45344
#
# Velocity S-wave (km/s) = 3.78008 3.97039 3.87640
# Velocity P-wave (km/s) = 6.70960 7.09155 6.90321
#
# Compressibility (1/GPa) = 0.02107877
#
# Stress axis : x y z
#
# Youngs Moduli (GPa) = 43.62631 47.76924 80.24601
#
# Poissons Ratio (x) = 0.32633 0.35866
# Poissons Ratio (y) = 0.29803 0.50704
# Poissons Ratio (z) = 0.19499 0.30183
#
# Static dielectric constant tensor:
#      x y z
#    x 3.285390 0.000000 0.000000 
#    y 0.000000 3.374670 0.000000 
#    z 0.000000 0.000000 3.520900 
# 
# 
# High freq. dielectric constant tensor:
#      x y z
#    x 1.697140 0.000000 0.000000 
#    y 0.000000 1.708750 0.000000 
#    z 0.000000 0.000000 1.721470 
# 
# From -- ./inp_files/24709.got.cif
#   From: 2010.03.12/outbox.cif.g09.slc.cpg/sg62_13_cif.got.tgz:24709.got - 2010.04.10 19:12:36.
