data_PCOD8251916
_publ_section_title
;
Structure prediction by ZEFSAII (Michael W. Deem and Ramdas Pophale) SiO2 
 PCOD8251916
Probable space group: P N M A
;
_chemical_formula_sum "Si O2"
_cell_formula_units_Z 64
_cell_length_a 11.167855
_cell_length_b 16.010508
_cell_length_c 18.208792
_cell_angle_alpha 90.000000
_cell_angle_beta 90.000000
_cell_angle_gamma 90.000000
_cell_volume 3255.787215
_symmetry_space_group_name_H-M "P N M A"
_symmetry_group_IT_number 62
_symmetry_cell_setting 'orthorhombic'
loop_
_space_group_symop_operation_xyz
x,y,z
1/2-x,-y,1/2+z
1/2+x,1/2-y,1/2-z
-x,1/2+y,-z
-x,-y,-z
1/2+x,y,1/2-z
1/2-x,1/2+y,1/2+z
x,1/2-y,z
loop_
_atom_site_type_symbol
_atom_site_label
_atom_site_fract_x
_atom_site_fract_y
_atom_site_fract_z
Si Si1 0.308004 0.656003 0.875124
Si Si2 0.930502 0.488052 0.837514
Si Si3 0.469402 0.154923 0.403623
Si Si4 0.561888 0.487599 0.173927
Si Si5 0.932647 0.657858 0.476034
Si Si6 0.943349 0.654932 0.067592
Si Si7 0.174436 0.491361 0.598841
Si Si8 0.181750 0.593399 0.452804
O O1 0.334571 0.750000 0.850552
O O2 0.170557 0.641714 0.892901
O O3 0.358167 0.595781 0.811482
O O4 0.384717 0.627856 0.945637
O O5 0.955400 0.468387 0.752318
O O6 0.789794 0.481894 0.851105
O O7 0.967422 0.583184 0.856392
O O8 0.001486 0.416192 0.880714
O O9 0.507625 0.250000 0.379867
O O10 0.499280 0.140361 0.488301
O O11 0.431697 0.460860 0.141954
O O12 0.639588 0.544401 0.119188
O O13 0.885262 0.750000 0.459363
O O14 0.878393 0.600919 0.412658
O O15 0.076686 0.656218 0.476811
O O16 0.971469 0.750000 0.094832
O O17 0.800486 0.645068 0.064790
O O18 0.207592 0.532263 0.521088
#
# Coordination Sequence:
#
# PCOD8251916 Si02
#       8
#     8   8   8   8   8   8   8   8
#     4  10  19  35  62  92 124 159 199 252 308 373
#     4  12  26  40  65  91 133 172 202 258 328 369
#     4  10  22  40  65  96 127 164 209 254 311 380
#     4  11  24  40  62  92 127 167 209 252 318 386
#     4  10  19  35  62  93 120 154 207 266 312 357
#     4  11  24  42  66  95 123 164 217 263 310 372
#     4  11  22  40  63  95 119 165 212 257 303 375
#     4  11  20  41  66  89 122 161 213 267 306 366
#
# _framework density 19.657305000000001
#
# number of rings (size 3 to 8) (size 9 to 14) (size 15 to 20)
#    0.000    1.250    3.750    3.000    3.500    2.000 
#    0.000    3.750    0.000    0.000    0.000    0.000 
#    0.000    0.000    0.000    0.000    0.000    0.000 
#
# Total GULP energy -793463.769518 kJ/mol
# GULP energy per Si atom -12397.871399 kJ/mol
# Density = 1.961256 g / cm^3
# Si number density = 19.657305 Si / 1000 Ang^3
#
#
#
# Elastic Constant Matrix: (Units=GPa)
#
#
# Indices 1 2 3 4 5 6 
#
# 1 100.4882 33.2096 18.7018 0.0000 0.0000 0.0000
# 2 33.2096 90.9851 26.7840 0.0000 0.0000 0.0000
# 3 18.7018 26.7840 84.3510 0.0000 0.0000 0.0000
# 4 0.0000 0.0000 0.0000 15.0579 0.0000 0.0000
# 5 0.0000 0.0000 0.0000 0.0000 19.2589 0.0000
# 6 0.0000 0.0000 0.0000 0.0000 0.0000 25.9853
#
#
#
# Elastic Compliance Matrix: (Units=1/GPa)
#
#
# Indices 1 2 3 4 5 6 
#
# 1 0.011451 -0.003786 -0.001337 0.000000 0.000000 0.000000
# 2 -0.003786 0.013376 -0.003408 0.000000 0.000000 0.000000
# 3 -0.001337 -0.003408 0.013234 0.000000 0.000000 0.000000
# 4 0.000000 0.000000 0.000000 0.066411 0.000000 0.000000
# 5 0.000000 0.000000 0.000000 0.000000 0.051924 0.000000
# 6 0.000000 0.000000 0.000000 0.000000 0.000000 0.038483
#
#
# Mechanical properties :
#
#
# Convention : Reuss Voigt Hill
#
# Bulk Modulus (GPa) = 47.62007 48.13501 47.87754
# Shear Modulus (GPa) = 22.83725 25.20233 24.01979
#
# Velocity S-wave (km/s) = 3.41217 3.58451 3.49940
# Velocity P-wave (km/s) = 6.30885 6.45537 6.38253
#
# Compressibility (1/GPa) = 0.02099955
#
# Stress axis : x y z
#
# Youngs Moduli (GPa) = 87.32482 74.76074 75.56477
#
# Poissons Ratio (x) = 0.28307 0.10101
# Poissons Ratio (y) = 0.33064 0.25751
# Poissons Ratio (z) = 0.11673 0.25477
#
# Static dielectric constant tensor:
#      x y z
#    x 3.731710 0.000000 0.000000 
#    y 0.000000 3.691320 0.000000 
#    z 0.000000 0.000000 3.388230 
# 
# 
# High freq. dielectric constant tensor:
#      x y z
#    x 1.782320 0.000000 0.000000 
#    y 0.000000 1.770860 0.000000 
#    z 0.000000 0.000000 1.743230 
# 
# From -- ./inp_files/23248.got.cif
#   From: 2010.03.12/outbox.cif.g09.slc.cpg/sg62_12_cif.got.tgz:23248.got - 2010.04.10 19:12:36.
