data_PCOD8251873
_publ_section_title
;
Structure prediction by ZEFSAII (Michael W. Deem and Ramdas Pophale) SiO2 
 PCOD8251873
Probable space group: P N M A
;
_chemical_formula_sum "Si O2"
_cell_formula_units_Z 56
_cell_length_a 13.220456
_cell_length_b 8.841150
_cell_length_c 23.763891
_cell_angle_alpha 90.000000
_cell_angle_beta 90.000000
_cell_angle_gamma 90.000000
_cell_volume 2777.619457
_symmetry_space_group_name_H-M "P N M A"
_symmetry_group_IT_number 62
_symmetry_cell_setting 'orthorhombic'
loop_
_space_group_symop_operation_xyz
x,y,z
1/2-x,-y,1/2+z
1/2+x,1/2-y,1/2-z
-x,1/2+y,-z
-x,-y,-z
1/2+x,y,1/2-z
1/2-x,1/2+y,1/2+z
x,1/2-y,z
loop_
_atom_site_type_symbol
_atom_site_label
_atom_site_fract_x
_atom_site_fract_y
_atom_site_fract_z
Si Si1 0.277980 0.073931 0.940493
Si Si2 0.388985 0.574710 0.631300
Si Si3 0.045909 0.071761 0.944527
Si Si4 0.185505 0.923018 0.567435
Si Si5 0.074020 0.074574 0.664040
Si Si6 0.774855 0.072972 0.770093
Si Si7 0.364959 0.572418 0.833593
O O1 0.288804 0.250000 0.925170
O O2 0.161849 0.022495 0.938132
O O3 0.342464 0.975152 0.897363
O O4 0.324115 0.039646 0.001783
O O5 0.415648 0.750000 0.637761
O O6 0.487935 0.486601 0.610589
O O7 0.300812 0.547177 0.585816
O O8 0.357689 0.510216 0.691656
O O9 0.035213 0.250000 0.950151
O O10 0.000000 0.000000 0.000000
O O11 0.155837 0.750000 0.580659
O O12 0.109568 0.030843 0.601225
O O13 0.044608 0.250000 0.664292
O O14 0.162315 0.036530 0.708334
O O15 0.977897 0.977775 0.682881
O O16 0.797443 0.250000 0.771919
O O17 0.784617 0.010135 0.707063
O O18 0.353789 0.750000 0.826262
#
# Coordination Sequence:
#
# PCOD8251873 Si02
#       7
#     8   8   8   8   8   8   8
#     4  10  22  40  59  84 122 164 201 249 302 353
#     4  10  19  35  59  90 123 159 201 249 299 356
#     4  11  21  35  57  88 125 164 203 248 303 358
#     4   9  18  36  60  87 119 156 199 244 295 354
#     4  10  22  41  66  91 117 154 196 244 299 358
#     4  10  22  42  66  90 116 155 202 248 297 358
#     4  12  26  42  62  90 121 158 199 250 303 352
#
# _framework density 20.161149000000002
#
# number of rings (size 3 to 8) (size 9 to 14) (size 15 to 20)
#    0.000    1.714    1.429    3.000    0.000    5.714 
#    0.000    1.429    0.000    0.000    0.000    0.000 
#    0.000    0.000    0.000    0.000    0.000    0.000 
#
# Total GULP energy -694751.159590 kJ/mol
# GULP energy per Si atom -12406.270707 kJ/mol
# Density = 2.011526 g / cm^3
# Si number density = 20.161149 Si / 1000 Ang^3
#
#
#
# Elastic Constant Matrix: (Units=GPa)
#
#
# Indices 1 2 3 4 5 6 
#
# 1 84.0340 39.3715 30.7195 0.0000 0.0000 0.0000
# 2 39.3715 74.9335 26.6098 0.0000 0.0000 0.0000
# 3 30.7195 26.6098 96.5454 0.0000 0.0000 0.0000
# 4 0.0000 0.0000 0.0000 39.0309 0.0000 0.0000
# 5 0.0000 0.0000 0.0000 0.0000 23.7700 0.0000
# 6 0.0000 0.0000 0.0000 0.0000 0.0000 33.8273
#
#
#
# Elastic Compliance Matrix: (Units=1/GPa)
#
#
# Indices 1 2 3 4 5 6 
#
# 1 0.016630 -0.007603 -0.003196 0.000000 0.000000 0.000000
# 2 -0.007603 0.018269 -0.002616 0.000000 0.000000 0.000000
# 3 -0.003196 -0.002616 0.012096 0.000000 0.000000 0.000000
# 4 0.000000 0.000000 0.000000 0.025621 0.000000 0.000000
# 5 0.000000 0.000000 0.000000 0.000000 0.042070 0.000000
# 6 0.000000 0.000000 0.000000 0.000000 0.000000 0.029562
#
#
# Mechanical properties :
#
#
# Convention : Reuss Voigt Hill
#
# Bulk Modulus (GPa) = 49.59115 49.87939 49.73527
# Shear Modulus (GPa) = 28.12152 29.91308 29.01730
#
# Velocity S-wave (km/s) = 3.73880 3.85606 3.79788
# Velocity P-wave (km/s) = 6.57944 6.67979 6.62981
#
# Compressibility (1/GPa) = 0.02016489
#
# Stress axis : x y z
#
# Youngs Moduli (GPa) = 60.13062 54.73767 82.67320
#
# Poissons Ratio (x) = 0.41617 0.26423
# Poissons Ratio (y) = 0.45717 0.21628
# Poissons Ratio (z) = 0.19218 0.14320
#
# Static dielectric constant tensor:
#      x y z
#    x 3.767240 0.000000 0.000000 
#    y 0.000000 3.661510 0.000000 
#    z 0.000000 0.000000 3.637000 
# 
# 
# High freq. dielectric constant tensor:
#      x y z
#    x 1.783280 0.000000 0.000000 
#    y 0.000000 1.792270 0.000000 
#    z 0.000000 0.000000 1.789620 
# 
# From -- ./inp_files/27227.got.cif
#   From: 2010.03.12/outbox.cif.g09.slc.cpg/sg62_14_cif.got.tgz:27227.got - 2010.04.10 19:12:36.
