data_PCOD8251387
_publ_section_title
;
Structure prediction by ZEFSAII (Michael W. Deem and Ramdas Pophale) SiO2 
 PCOD8251387
Probable space group: P N M A
;
_chemical_formula_sum "Si O2"
_cell_formula_units_Z 48
_cell_length_a 14.568516
_cell_length_b 13.654393
_cell_length_c 11.573442
_cell_angle_alpha 90.000000
_cell_angle_beta 90.000000
_cell_angle_gamma 90.000000
_cell_volume 2302.238187
_symmetry_space_group_name_H-M "P N M A"
_symmetry_group_IT_number 62
_symmetry_cell_setting 'orthorhombic'
loop_
_space_group_symop_operation_xyz
x,y,z
1/2-x,-y,1/2+z
1/2+x,1/2-y,1/2-z
-x,1/2+y,-z
-x,-y,-z
1/2+x,y,1/2-z
1/2-x,1/2+y,1/2+z
x,1/2-y,z
loop_
_atom_site_type_symbol
_atom_site_label
_atom_site_fract_x
_atom_site_fract_y
_atom_site_fract_z
Si Si1 0.853125 0.013346 0.297603
Si Si2 0.342226 0.139029 0.545075
Si Si3 0.517919 0.638461 0.641095
Si Si4 0.773949 0.362236 0.708133
Si Si5 0.326163 0.977325 0.954480
Si Si6 0.171319 0.363091 0.236503
O O1 0.934784 0.066064 0.232210
O O2 0.885670 0.986791 0.428394
O O3 0.761625 0.080006 0.303376
O O4 0.824721 0.911423 0.236471
O O5 0.308335 0.250000 0.519569
O O6 0.442995 0.121714 0.488694
O O7 0.343390 0.122699 0.682955
O O8 0.275044 0.063830 0.482109
O O9 0.537192 0.750000 0.681878
O O10 0.408616 0.619068 0.641252
O O11 0.756548 0.250000 0.677369
O O12 0.819360 0.413704 0.598058
O O13 0.368187 0.903579 0.859175
O O14 0.196740 0.250000 0.249706
#
# Coordination Sequence:
#
# PCOD8251387 Si02
#       6
#     8   8   8   8   8   8
#     4  10  20  35  55  79 110 144 178 224 274 319
#     4   9  16  31  54  76 103 139 177 219 264 315
#     4  10  19  33  58  86 108 137 181 230 273 317
#     4   9  18  31  51  76 102 145 186 213 262 325
#     4  10  19  33  53  79 109 144 174 220 275 323
#     4  10  20  35  58  87 109 139 185 226 271 324
#
# _framework density 20.849276
#
# number of rings (size 3 to 8) (size 9 to 14) (size 15 to 20)
#    0.000    2.333    3.333    1.000    0.000    2.667 
#    0.000    7.500    0.000    4.000    0.000    0.000 
#    0.000    0.000    0.000    0.000    0.000    0.000 
#
# Total GULP energy -594918.127669 kJ/mol
# GULP energy per Si atom -12394.127660 kJ/mol
# Density = 2.080182 g / cm^3
# Si number density = 20.849276 Si / 1000 Ang^3
#
#
#
# Elastic Constant Matrix: (Units=GPa)
#
#
# Indices 1 2 3 4 5 6 
#
# 1 42.8216 10.8993 -10.1062 0.0000 0.0000 0.0000
# 2 10.8993 106.7979 2.8686 0.0000 0.0000 0.0000
# 3 -10.1062 2.8686 48.1813 0.0000 0.0000 0.0000
# 4 0.0000 0.0000 0.0000 29.6490 0.0000 0.0000
# 5 0.0000 0.0000 0.0000 0.0000 18.1122 0.0000
# 6 0.0000 0.0000 0.0000 0.0000 0.0000 19.9373
#
#
#
# Elastic Compliance Matrix: (Units=1/GPa)
#
#
# Indices 1 2 3 4 5 6 
#
# 1 0.025341 -0.002733 0.005478 0.000000 0.000000 0.000000
# 2 -0.002733 0.009673 -0.001149 0.000000 0.000000 0.000000
# 3 0.005478 -0.001149 0.021972 0.000000 0.000000 0.000000
# 4 0.000000 0.000000 0.000000 0.033728 0.000000 0.000000
# 5 0.000000 0.000000 0.000000 0.000000 0.055211 0.000000
# 6 0.000000 0.000000 0.000000 0.000000 0.000000 0.050157
#
#
# Mechanical properties :
#
#
# Convention : Reuss Voigt Hill
#
# Bulk Modulus (GPa) = 16.61733 22.79157 19.70445
# Shear Modulus (GPa) = 23.47947 26.48230 24.98089
#
# Velocity S-wave (km/s) = 3.35946 3.56782 3.46521
# Velocity P-wave (km/s) = 4.79953 5.28468 5.04793
#
# Compressibility (1/GPa) = 0.06017815
#
# Stress axis : x y z
#
# Youngs Moduli (GPa) = 39.46130 103.37731 45.51154
#
# Poissons Ratio (x) = 0.28257 -0.24932
# Poissons Ratio (y) = 0.10786 0.05230
# Poissons Ratio (z) = -0.21618 0.11881
#
# Static dielectric constant tensor:
#      x y z
#    x 3.320310 0.000000 0.000000 
#    y 0.000000 4.011690 0.000000 
#    z 0.000000 0.000000 3.996220 
# 
# 
# High freq. dielectric constant tensor:
#      x y z
#    x 1.770060 0.000000 0.000000 
#    y 0.000000 1.831070 0.000000 
#    z 0.000000 0.000000 1.817860 
# 
# From -- ./inp_files/13269.got.cif
#   From: 2010.03.12/outbox.cif.g09.slc.cpg/sg62_7_cif.got.tgz:13269.got - 2010.04.10 19:12:36.
