data_PCOD8251488
_publ_section_title
;
Structure prediction by ZEFSAII (Michael W. Deem and Ramdas Pophale) SiO2 
 PCOD8251488
Probable space group: P N M A
;
_chemical_formula_sum "Si O2"
_cell_formula_units_Z 64
_cell_length_a 21.173856
_cell_length_b 9.004088
_cell_length_c 16.562486
_cell_angle_alpha 90.000000
_cell_angle_beta 90.000000
_cell_angle_gamma 90.000000
_cell_volume 3157.658870
_symmetry_space_group_name_H-M "P N M A"
_symmetry_group_IT_number 62
_symmetry_cell_setting 'orthorhombic'
loop_
_space_group_symop_operation_xyz
x,y,z
1/2-x,-y,1/2+z
1/2+x,1/2-y,1/2-z
-x,1/2+y,-z
-x,-y,-z
1/2+x,y,1/2-z
1/2-x,1/2+y,1/2+z
x,1/2-y,z
loop_
_atom_site_type_symbol
_atom_site_label
_atom_site_fract_x
_atom_site_fract_y
_atom_site_fract_z
Si Si1 0.218039 0.583407 0.680410
Si Si2 0.890620 0.416340 0.450420
Si Si3 0.840817 0.077619 0.871553
Si Si4 0.869794 0.923663 0.203734
Si Si5 0.099258 0.420281 0.270653
Si Si6 0.476722 0.923880 0.169755
Si Si7 0.184693 0.420285 0.416465
Si Si8 0.672381 0.923227 0.555787
O O1 0.244159 0.750000 0.698021
O O2 0.166033 0.587743 0.612029
O O3 0.271160 0.473881 0.649701
O O4 0.189159 0.515878 0.761553
O O5 0.914587 0.250000 0.469365
O O6 0.947963 0.509643 0.412437
O O7 0.866578 0.489186 0.532580
O O8 0.847666 0.250000 0.851083
O O9 0.852181 0.045591 0.965693
O O10 0.891509 0.988858 0.818184
O O11 0.854456 0.750000 0.207078
O O12 0.933401 0.960566 0.252465
O O13 0.875218 0.981678 0.111895
O O14 0.079221 0.250000 0.260854
O O15 0.164241 0.436428 0.322400
O O16 0.044410 0.504955 0.317169
O O17 0.484259 0.750000 0.156995
O O18 0.181393 0.250000 0.445353
O O19 0.255524 0.480695 0.431256
O O20 0.667811 0.750000 0.577851
#
# Coordination Sequence:
#
# PCOD8251488 Si02
#       8
#     8   8   8   8   8   8   8   8
#     4  10  19  33  55  84 117 150 187 233 286 344
#     4  10  20  34  58  89 117 151 192 236 285 339
#     4  11  22  37  59  85 116 154 191 233 293 353
#     4  10  21  36  59  86 112 149 195 242 292 346
#     4  11  24  40  60  85 115 155 198 245 293 344
#     4  10  22  41  61  82 115 156 200 245 288 345
#     4  10  21  38  58  85 121 154 188 232 291 350
#     4  10  21  37  59  88 121 152 186 236 295 353
#
# _framework density 20.268180999999998
#
# number of rings (size 3 to 8) (size 9 to 14) (size 15 to 20)
#    0.000    1.750    1.250    3.000    0.000    6.500 
#    0.000    0.625    0.000    0.000    0.000    0.000 
#    0.000    0.000    0.000    0.000    0.000    0.000 
#
# Total GULP energy -793812.070328 kJ/mol
# GULP energy per Si atom -12403.313599 kJ/mol
# Density = 2.022205 g / cm^3
# Si number density = 20.268181 Si / 1000 Ang^3
#
#
#
# Elastic Constant Matrix: (Units=GPa)
#
#
# Indices 1 2 3 4 5 6 
#
# 1 38.8416 22.1557 4.8174 0.0000 0.0000 0.0000
# 2 22.1557 94.8063 44.0146 0.0000 0.0000 0.0000
# 3 4.8174 44.0146 87.7451 0.0000 0.0000 0.0000
# 4 0.0000 0.0000 0.0000 35.6706 0.0000 0.0000
# 5 0.0000 0.0000 0.0000 0.0000 14.8202 0.0000
# 6 0.0000 0.0000 0.0000 0.0000 0.0000 32.8569
#
#
#
# Elastic Compliance Matrix: (Units=1/GPa)
#
#
# Indices 1 2 3 4 5 6 
#
# 1 0.030103 -0.008170 0.002446 0.000000 0.000000 0.000000
# 2 -0.008170 0.015967 -0.007561 0.000000 0.000000 0.000000
# 3 0.002446 -0.007561 0.015055 0.000000 0.000000 0.000000
# 4 0.000000 0.000000 0.000000 0.028034 0.000000 0.000000
# 5 0.000000 0.000000 0.000000 0.000000 0.067475 0.000000
# 6 0.000000 0.000000 0.000000 0.000000 0.000000 0.030435
#
#
# Mechanical properties :
#
#
# Convention : Reuss Voigt Hill
#
# Bulk Modulus (GPa) = 28.94018 40.37425 34.65721
# Shear Modulus (GPa) = 22.20653 26.69657 24.45155
#
# Velocity S-wave (km/s) = 3.31363 3.63322 3.47710
# Velocity P-wave (km/s) = 5.38050 6.12892 5.76686
#
# Compressibility (1/GPa) = 0.03455404
#
# Stress axis : x y z
#
# Youngs Moduli (GPa) = 33.21967 62.62753 66.42259
#
# Poissons Ratio (x) = 0.51168 -0.16245
# Poissons Ratio (y) = 0.27141 0.50222
# Poissons Ratio (z) = -0.08124 0.47353
#
# Static dielectric constant tensor:
#      x y z
#    x 3.480480 0.000000 0.000000 
#    y 0.000000 3.785020 0.000000 
#    z 0.000000 0.000000 3.763730 
# 
# 
# High freq. dielectric constant tensor:
#      x y z
#    x 1.771540 0.000000 0.000000 
#    y 0.000000 1.800290 0.000000 
#    z 0.000000 0.000000 1.799330 
# 
# From -- ./inp_files/20907.got.cif
#   From: 2010.03.12/outbox.cif.g09.slc.cpg/sg62_11_cif.got.tgz:20907.got - 2010.04.10 19:12:36.
