data_PCOD8251985
_publ_section_title
;
Structure prediction by ZEFSAII (Michael W. Deem and Ramdas Pophale) SiO2 
 PCOD8251985
Probable space group: P N M A
;
_chemical_formula_sum "Si O2"
_cell_formula_units_Z 64
_cell_length_a 23.623550
_cell_length_b 8.988172
_cell_length_c 15.250675
_cell_angle_alpha 90.000000
_cell_angle_beta 90.000000
_cell_angle_gamma 90.000000
_cell_volume 3238.214417
_symmetry_space_group_name_H-M "P N M A"
_symmetry_group_IT_number 62
_symmetry_cell_setting 'orthorhombic'
loop_
_space_group_symop_operation_xyz
x,y,z
1/2-x,-y,1/2+z
1/2+x,1/2-y,1/2-z
-x,1/2+y,-z
-x,-y,-z
1/2+x,y,1/2-z
1/2-x,1/2+y,1/2+z
x,1/2-y,z
loop_
_atom_site_type_symbol
_atom_site_label
_atom_site_fract_x
_atom_site_fract_y
_atom_site_fract_z
Si Si1 0.243505 0.074813 0.736117
Si Si2 0.669779 0.426348 0.929622
Si Si3 0.144336 0.081318 0.007132
Si Si4 0.039783 0.427530 0.571382
Si Si5 0.368204 0.422081 0.678470
Si Si6 0.530168 0.081450 0.577675
Si Si7 0.983527 0.076871 0.744913
Si Si8 0.755173 0.424491 0.076847
O O1 0.235432 0.250000 0.746648
O O2 0.201869 0.012987 0.658763
O O3 0.307437 0.029718 0.713806
O O4 0.232960 0.004647 0.831203
O O5 0.672760 0.250000 0.923510
O O6 0.604992 0.483048 0.933628
O O7 0.699821 0.477295 0.021023
O O8 0.167445 0.250000 0.017063
O O9 0.115461 0.026380 0.096963
O O10 0.097814 0.074837 0.930623
O O11 0.193501 0.965151 0.986904
O O12 0.036755 0.250000 0.563171
O O13 0.000000 0.500000 0.500000
O O14 0.012921 0.493524 0.660401
O O15 0.368681 0.250000 0.649080
O O16 0.415694 0.451253 0.753183
O O17 0.507647 0.250000 0.575739
O O18 0.512772 0.005441 0.669326
O O19 0.500000 0.000000 0.500000
O O20 0.997888 0.250000 0.742454
O O21 0.753090 0.250000 0.094605
#
# Coordination Sequence:
#
# PCOD8251985 Si02
#       8
#     8   8   8   8   8   8   8   8
#     4  10  21  38  61  88 114 149 197 247 297 353
#     4   9  20  40  63  84 115 157 197 238 294 358
#     4  11  22  35  56  88 120 153 194 241 289 347
#     4  10  22  41  63  84 112 153 200 247 291 344
#     4  10  19  36  60  83 115 155 194 238 297 361
#     4  10  20  34  55  84 117 153 191 232 283 348
#     4   9  19  35  58  83 111 153 195 231 285 352
#     4  11  23  40  60  85 116 157 198 240 300 358
#
# _framework density 19.763978000000002
#
# number of rings (size 3 to 8) (size 9 to 14) (size 15 to 20)
#    0.000    2.000    2.500    0.750    3.500    1.000 
#    0.000    2.500    0.000    0.000    0.000    0.000 
#    0.000    0.000    0.000    0.000    0.000    0.000 
#
# Total GULP energy -793287.909668 kJ/mol
# GULP energy per Si atom -12395.123589 kJ/mol
# Density = 1.971899 g / cm^3
# Si number density = 19.763978 Si / 1000 Ang^3
#
#
#
# Elastic Constant Matrix: (Units=GPa)
#
#
# Indices 1 2 3 4 5 6 
#
# 1 140.8521 23.9495 60.6513 0.0000 0.0000 0.0000
# 2 23.9495 32.7683 26.1599 0.0000 0.0000 0.0000
# 3 60.6513 26.1599 140.2081 0.0000 0.0000 0.0000
# 4 0.0000 0.0000 0.0000 29.5983 0.0000 0.0000
# 5 0.0000 0.0000 0.0000 0.0000 34.0779 0.0000
# 6 0.0000 0.0000 0.0000 0.0000 0.0000 20.3541
#
#
#
# Elastic Compliance Matrix: (Units=1/GPa)
#
#
# Indices 1 2 3 4 5 6 
#
# 1 0.009183 -0.004160 -0.003196 0.000000 0.000000 0.000000
# 2 -0.004160 0.037743 -0.005242 0.000000 0.000000 0.000000
# 3 -0.003196 -0.005242 0.009493 0.000000 0.000000 0.000000
# 4 0.000000 0.000000 0.000000 0.033786 0.000000 0.000000
# 5 0.000000 0.000000 0.000000 0.000000 0.029344 0.000000
# 6 0.000000 0.000000 0.000000 0.000000 0.000000 0.049130
#
#
# Mechanical properties :
#
#
# Convention : Reuss Voigt Hill
#
# Bulk Modulus (GPa) = 32.02913 59.48333 45.75623
# Shear Modulus (GPa) = 24.47560 30.34391 27.40976
#
# Velocity S-wave (km/s) = 3.52290 3.92256 3.72809
# Velocity P-wave (km/s) = 5.72615 7.11881 6.46012
#
# Compressibility (1/GPa) = 0.03122158
#
# Stress axis : x y z
#
# Youngs Moduli (GPa) = 108.89262 26.49494 105.33999
#
# Poissons Ratio (x) = 0.11022 0.33670
# Poissons Ratio (y) = 0.45301 0.55224
# Poissons Ratio (z) = 0.34806 0.13890
#
# Static dielectric constant tensor:
#      x y z
#    x 3.829870 0.000000 0.000000 
#    y 0.000000 3.202320 0.000000 
#    z 0.000000 0.000000 4.018750 
# 
# 
# High freq. dielectric constant tensor:
#      x y z
#    x 1.782530 0.000000 0.000000 
#    y 0.000000 1.735340 0.000000 
#    z 0.000000 0.000000 1.777030 
# 
# From -- ./inp_files/20792.got.cif
#   From: 2010.03.12/outbox.cif.g09.slc.cpg/sg62_11_cif.got.tgz:20792.got - 2010.04.10 19:12:36.
