data_PCOD8251577
_publ_section_title
;
Structure prediction by ZEFSAII (Michael W. Deem and Ramdas Pophale) SiO2 
 PCOD8251577
Probable space group: P N M A
;
_chemical_formula_sum "Si O2"
_cell_formula_units_Z 48
_cell_length_a 5.033703
_cell_length_b 14.745262
_cell_length_c 34.508968
_cell_angle_alpha 90.000000
_cell_angle_beta 90.000000
_cell_angle_gamma 90.000000
_cell_volume 2561.368434
_symmetry_space_group_name_H-M "P N M A"
_symmetry_group_IT_number 62
_symmetry_cell_setting 'orthorhombic'
loop_
_space_group_symop_operation_xyz
x,y,z
1/2-x,-y,1/2+z
1/2+x,1/2-y,1/2-z
-x,1/2+y,-z
-x,-y,-z
1/2+x,y,1/2-z
1/2-x,1/2+y,1/2+z
x,1/2-y,z
loop_
_atom_site_type_symbol
_atom_site_label
_atom_site_fract_x
_atom_site_fract_y
_atom_site_fract_z
Si Si1 0.507622 0.048084 0.041150
Si Si2 0.982167 0.643344 0.925913
Si Si3 0.924890 0.448057 0.774651
Si Si4 0.036206 0.983228 0.855674
Si Si5 0.392080 0.250000 0.691278
Si Si6 0.543427 0.433344 0.887449
Si Si7 0.111734 0.750000 0.358958
O O1 0.283176 0.123674 0.049402
O O2 0.787627 0.094765 0.049775
O O3 0.455260 0.963027 0.068539
O O4 0.500000 0.000000 0.000000
O O5 0.032558 0.750000 0.923222
O O6 0.961600 0.606039 0.881317
O O7 0.630534 0.468932 0.759714
O O8 0.984382 0.519534 0.809560
O O9 0.954886 0.341515 0.785019
O O10 0.840405 0.063395 0.870221
O O11 0.345752 0.004457 0.861827
O O12 0.084936 0.250000 0.678097
O O13 0.585870 0.250000 0.654532
O O14 0.437916 0.332709 0.887238
#
# Coordination Sequence:
#
# PCOD8251577 Si02
#       7
#     8   8   8   8   4   8   4
#     4  10  21  38  61  86 123 146 179 228 291 328
#     4  10  21  39  65  87 110 148 195 233 270 333
#     4  12  22  34  50  75 108 143 181 230 285 332
#     4  10  20  37  55  76 104 143 186 226 275 327
#     4  12  22  33  50  72 110 146 190 230 264 328
#     4  10  19  34  54  75 103 151 182 220 263 324
#     4  12  18  33  52  72 108 144 194 218 256 326
#
# _framework density 18.739985000000001
#
# number of rings (size 3 to 8) (size 9 to 14) (size 15 to 20)
#    0.000    1.333    3.333    3.500    0.000    0.000 
#    3.000    0.000    0.000    1.000    0.000    0.000 
#    0.000    0.000    0.000    0.000    0.000    0.000 
#
# Total GULP energy -594997.978148 kJ/mol
# GULP energy per Si atom -12395.791211 kJ/mol
# Density = 1.869733 g / cm^3
# Si number density = 18.739985 Si / 1000 Ang^3
#
#
#
# Elastic Constant Matrix: (Units=GPa)
#
#
# Indices 1 2 3 4 5 6 
#
# 1 77.7349 -1.5964 15.2540 0.0000 0.0000 0.0000
# 2 -1.5964 64.2095 30.2697 0.0000 0.0000 0.0000
# 3 15.2540 30.2697 104.3633 0.0000 0.0000 0.0000
# 4 0.0000 0.0000 0.0000 17.3460 0.0000 0.0000
# 5 0.0000 0.0000 0.0000 0.0000 27.7532 0.0000
# 6 0.0000 0.0000 0.0000 0.0000 0.0000 18.3959
#
#
#
# Elastic Compliance Matrix: (Units=1/GPa)
#
#
# Indices 1 2 3 4 5 6 
#
# 1 0.013360 0.001451 -0.002374 0.000000 0.000000 0.000000
# 2 0.001451 0.018198 -0.005490 0.000000 0.000000 0.000000
# 3 -0.002374 -0.005490 0.011521 0.000000 0.000000 0.000000
# 4 0.000000 0.000000 0.000000 0.057650 0.000000 0.000000
# 5 0.000000 0.000000 0.000000 0.000000 0.036032 0.000000
# 6 0.000000 0.000000 0.000000 0.000000 0.000000 0.054360
#
#
# Mechanical properties :
#
#
# Convention : Reuss Voigt Hill
#
# Bulk Modulus (GPa) = 33.05376 37.12915 35.09146
# Shear Modulus (GPa) = 23.36104 26.19106 24.77605
#
# Velocity S-wave (km/s) = 3.53454 3.74251 3.64001
# Velocity P-wave (km/s) = 5.85949 6.20733 6.03592
#
# Compressibility (1/GPa) = 0.03025374
#
# Stress axis : x y z
#
# Youngs Moduli (GPa) = 74.85140 54.94992 86.79590
#
# Poissons Ratio (x) = -0.07974 0.20602
# Poissons Ratio (y) = -0.10862 0.47654
# Poissons Ratio (z) = 0.17767 0.30170
#
# Static dielectric constant tensor:
#      x y z
#    x 3.730110 0.000000 0.000000 
#    y 0.000000 3.313350 0.000000 
#    z 0.000000 0.000000 3.445490 
# 
# 
# High freq. dielectric constant tensor:
#      x y z
#    x 1.753670 0.000000 0.000000 
#    y 0.000000 1.696550 0.000000 
#    z 0.000000 0.000000 1.720810 
# 
# From -- ./inp_files/31587.got.cif
#   From: 2010.03.12/outbox.cif.g09.slc.cpg/sg62_16_cif.got.tgz:31587.got - 2010.04.10 19:12:36.
