data_PCOD8251269
_publ_section_title
;
Structure prediction by ZEFSAII (Michael W. Deem and Ramdas Pophale) SiO2 
 PCOD8251269
Probable space group: P N M A
;
_chemical_formula_sum "Si O2"
_cell_formula_units_Z 48
_cell_length_a 17.941177
_cell_length_b 9.122566
_cell_length_c 16.445305
_cell_angle_alpha 90.000000
_cell_angle_beta 90.000000
_cell_angle_gamma 90.000000
_cell_volume 2691.596019
_symmetry_space_group_name_H-M "P N M A"
_symmetry_group_IT_number 62
_symmetry_cell_setting 'orthorhombic'
loop_
_space_group_symop_operation_xyz
x,y,z
1/2-x,-y,1/2+z
1/2+x,1/2-y,1/2-z
-x,1/2+y,-z
-x,-y,-z
1/2+x,y,1/2-z
1/2-x,1/2+y,1/2+z
x,1/2-y,z
loop_
_atom_site_type_symbol
_atom_site_label
_atom_site_fract_x
_atom_site_fract_y
_atom_site_fract_z
Si Si1 0.047100 0.081245 0.745250
Si Si2 0.164811 0.423006 0.338869
Si Si3 0.319439 0.921085 0.353923
Si Si4 0.922399 0.581316 0.999559
Si Si5 0.971463 0.075621 0.580958
Si Si6 0.416841 0.582923 0.679589
O O1 0.027855 0.250000 0.755119
O O2 0.030248 0.032795 0.652493
O O3 0.132387 0.049738 0.771705
O O4 0.993397 0.003853 0.809494
O O5 0.159613 0.250000 0.356739
O O6 0.247640 0.478021 0.353032
O O7 0.109293 0.509188 0.398646
O O8 0.144760 0.463738 0.245717
O O9 0.297280 0.750000 0.360925
O O10 0.366051 0.976010 0.432037
O O11 0.940064 0.750000 0.016860
O O12 0.884406 0.556974 0.910856
O O13 0.000000 0.500000 0.000000
O O14 0.964972 0.250000 0.568929
O O15 0.000000 0.000000 0.500000
O O16 0.439370 0.750000 0.693678
#
# Coordination Sequence:
#
# PCOD8251269 Si02
#       6
#     8   8   8   8   8   8
#     4   9  18  33  55  79 105 138 176 216 263 322
#     4  10  21  37  55  77 109 144 182 224 269 319
#     4  10  20  35  53  78 112 143 175 219 271 322
#     4  10  19  32  54  81 110 139 175 217 263 321
#     4  10  20  37  60  82 107 141 185 230 273 322
#     4   9  18  33  53  77 104 136 175 216 259 314
#
# _framework density 17.833285
#
# number of rings (size 3 to 8) (size 9 to 14) (size 15 to 20)
#    0.000    2.333    1.667    1.000    0.000    2.667 
#    3.000    0.000    0.000    0.000    0.000    0.000 
#    0.000    0.000    0.000    0.000    0.000    0.000 
#
# Total GULP energy -595082.110373 kJ/mol
# GULP energy per Si atom -12397.543966 kJ/mol
# Density = 1.779270 g / cm^3
# Si number density = 17.833285 Si / 1000 Ang^3
#
#
#
# Elastic Constant Matrix: (Units=GPa)
#
#
# Indices 1 2 3 4 5 6 
#
# 1 119.3059 49.7781 62.6908 0.0000 0.0000 0.0000
# 2 49.7781 65.4356 41.9981 0.0000 0.0000 0.0000
# 3 62.6908 41.9981 119.7341 0.0000 0.0000 0.0000
# 4 0.0000 0.0000 0.0000 25.0655 0.0000 0.0000
# 5 0.0000 0.0000 0.0000 0.0000 23.3754 0.0000
# 6 0.0000 0.0000 0.0000 0.0000 0.0000 33.6322
#
#
#
# Elastic Compliance Matrix: (Units=1/GPa)
#
#
# Indices 1 2 3 4 5 6 
#
# 1 0.014035 -0.007692 -0.004650 0.000000 0.000000 0.000000
# 2 -0.007692 0.023938 -0.004369 0.000000 0.000000 0.000000
# 3 -0.004650 -0.004369 0.012319 0.000000 0.000000 0.000000
# 4 0.000000 0.000000 0.000000 0.039895 0.000000 0.000000
# 5 0.000000 0.000000 0.000000 0.000000 0.042780 0.000000
# 6 0.000000 0.000000 0.000000 0.000000 0.000000 0.029733
#
#
# Mechanical properties :
#
#
# Convention : Reuss Voigt Hill
#
# Bulk Modulus (GPa) = 59.28004 68.15662 63.71833
# Shear Modulus (GPa) = 24.78367 26.41519 25.59943
#
# Velocity S-wave (km/s) = 3.73197 3.85285 3.79289
# Velocity P-wave (km/s) = 7.20302 7.62196 7.41545
#
# Compressibility (1/GPa) = 0.01686909
#
# Stress axis : x y z
#
# Youngs Moduli (GPa) = 71.25245 41.77522 81.17397
#
# Poissons Ratio (x) = 0.32132 0.37749
# Poissons Ratio (y) = 0.54805 0.35466
# Poissons Ratio (z) = 0.33135 0.18252
#
# Static dielectric constant tensor:
#      x y z
#    x 3.153550 0.000000 0.000000 
#    y 0.000000 3.335010 0.000000 
#    z 0.000000 0.000000 3.775110 
# 
# 
# High freq. dielectric constant tensor:
#      x y z
#    x 1.671550 0.000000 0.000000 
#    y 0.000000 1.693590 0.000000 
#    z 0.000000 0.000000 1.700820 
# 
# From -- ./inp_files/19635.got.cif
#   From: 2010.03.12/outbox.cif.g09.slc.cpg/sg62_10_cif.got.tgz:19635.got - 2010.04.10 19:12:36.
