data_PCOD8251583
_publ_section_title
;
Structure prediction by ZEFSAII (Michael W. Deem and Ramdas Pophale) SiO2 
 PCOD8251583
Probable space group: P N M A
;
_chemical_formula_sum "Si O2"
_cell_formula_units_Z 48
_cell_length_a 17.980349
_cell_length_b 8.577553
_cell_length_c 15.585652
_cell_angle_alpha 90.000000
_cell_angle_beta 90.000000
_cell_angle_gamma 90.000000
_cell_volume 2403.734531
_symmetry_space_group_name_H-M "P N M A"
_symmetry_group_IT_number 62
_symmetry_cell_setting 'orthorhombic'
loop_
_space_group_symop_operation_xyz
x,y,z
1/2-x,-y,1/2+z
1/2+x,1/2-y,1/2-z
-x,1/2+y,-z
-x,-y,-z
1/2+x,y,1/2-z
1/2-x,1/2+y,1/2+z
x,1/2-y,z
loop_
_atom_site_type_symbol
_atom_site_label
_atom_site_fract_x
_atom_site_fract_y
_atom_site_fract_z
Si Si1 0.958186 0.934837 0.251394
Si Si2 0.460813 0.066227 0.583037
Si Si3 0.289969 0.065245 0.914927
Si Si4 0.457705 0.064515 0.918718
Si Si5 0.202165 0.066372 0.081045
Si Si6 0.288031 0.564970 0.240661
O O1 0.962800 0.750000 0.250248
O O2 0.873162 0.989635 0.254327
O O3 0.997154 0.002806 0.166305
O O4 0.001509 0.000539 0.334036
O O5 0.468336 0.250000 0.581034
O O6 0.500000 0.000000 0.500000
O O7 0.375378 0.020756 0.587949
O O8 0.291810 0.250000 0.917318
O O9 0.373667 0.999100 0.918857
O O10 0.251368 0.008155 0.827712
O O11 0.243908 0.002731 0.996336
O O12 0.458787 0.250000 0.920992
O O13 0.500000 0.000000 0.000000
O O14 0.187982 0.250000 0.075276
O O15 0.251646 0.026403 0.162676
O O16 0.279808 0.750000 0.226802
#
# Coordination Sequence:
#
# PCOD8251583 Si02
#       6
#     8   8   8   8   8   8
#     4   9  19  35  58  82 108 143 184 224 276 339
#     4  11  22  39  61  85 112 148 189 233 281 335
#     4   9  19  35  55  75 107 150 184 215 272 342
#     4  10  19  34  54  78 105 140 181 223 269 325
#     4  11  22  37  56  83 115 149 186 230 280 333
#     4  10  19  36  59  81 105 142 185 225 268 328
#
# _framework density 19.968927000000001
#
# number of rings (size 3 to 8) (size 9 to 14) (size 15 to 20)
#    0.000    2.000    0.000    4.000    0.000    5.333 
#    0.000   10.000    0.000    0.000    0.000    0.000 
#    0.000    0.000    0.000    0.000    0.000    0.000 
#
# Total GULP energy -595340.301495 kJ/mol
# GULP energy per Si atom -12402.922948 kJ/mol
# Density = 1.992348 g / cm^3
# Si number density = 19.968927 Si / 1000 Ang^3
#
#
#
# Elastic Constant Matrix: (Units=GPa)
#
#
# Indices 1 2 3 4 5 6 
#
# 1 159.1375 13.4101 73.7590 0.0000 0.0000 0.0000
# 2 13.4101 29.0083 19.7218 0.0000 0.0000 0.0000
# 3 73.7590 19.7218 182.1584 0.0000 0.0000 0.0000
# 4 0.0000 0.0000 0.0000 29.9091 0.0000 0.0000
# 5 0.0000 0.0000 0.0000 0.0000 49.9056 0.0000
# 6 0.0000 0.0000 0.0000 0.0000 0.0000 26.3972
#
#
#
# Elastic Compliance Matrix: (Units=1/GPa)
#
#
# Indices 1 2 3 4 5 6 
#
# 1 0.007802 -0.001575 -0.002989 0.000000 0.000000 0.000000
# 2 -0.001575 0.037530 -0.003426 0.000000 0.000000 0.000000
# 3 -0.002989 -0.003426 0.007071 0.000000 0.000000 0.000000
# 4 0.000000 0.000000 0.000000 0.033435 0.000000 0.000000
# 5 0.000000 0.000000 0.000000 0.000000 0.020038 0.000000
# 6 0.000000 0.000000 0.000000 0.000000 0.000000 0.037883
#
#
# Mechanical properties :
#
#
# Convention : Reuss Voigt Hill
#
# Bulk Modulus (GPa) = 27.45415 64.89844 46.17629
# Shear Modulus (GPa) = 29.09059 38.80327 33.94693
#
# Velocity S-wave (km/s) = 3.82094 4.41294 4.12756
# Velocity P-wave (km/s) = 5.76579 7.65086 6.77421
#
# Compressibility (1/GPa) = 0.03642437
#
# Stress axis : x y z
#
# Youngs Moduli (GPa) = 128.17638 26.64551 141.42830
#
# Poissons Ratio (x) = 0.04196 0.42267
# Poissons Ratio (y) = 0.20185 0.48447
# Poissons Ratio (z) = 0.38306 0.09128
#
# Static dielectric constant tensor:
#      x y z
#    x 3.908180 0.000000 0.000000 
#    y 0.000000 3.228530 0.000000 
#    z 0.000000 0.000000 4.004590 
# 
# 
# High freq. dielectric constant tensor:
#      x y z
#    x 1.800890 0.000000 0.000000 
#    y 0.000000 1.741970 0.000000 
#    z 0.000000 0.000000 1.800820 
# 
# From -- ./inp_files/19612.got.cif
#   From: 2010.03.12/outbox.cif.g09.slc.cpg/sg62_10_cif.got.tgz:19612.got - 2010.04.10 19:12:36.
