data_PCOD8251624
_publ_section_title
;
Structure prediction by ZEFSAII (Michael W. Deem and Ramdas Pophale) SiO2 
 PCOD8251624
Probable space group: P N M A
;
_chemical_formula_sum "Si O2"
_cell_formula_units_Z 48
_cell_length_a 7.914318
_cell_length_b 12.308512
_cell_length_c 25.308488
_cell_angle_alpha 90.000000
_cell_angle_beta 90.000000
_cell_angle_gamma 90.000000
_cell_volume 2465.387841
_symmetry_space_group_name_H-M "P N M A"
_symmetry_group_IT_number 62
_symmetry_cell_setting 'orthorhombic'
loop_
_space_group_symop_operation_xyz
x,y,z
1/2-x,-y,1/2+z
1/2+x,1/2-y,1/2-z
-x,1/2+y,-z
-x,-y,-z
1/2+x,y,1/2-z
1/2-x,1/2+y,1/2+z
x,1/2-y,z
loop_
_atom_site_type_symbol
_atom_site_label
_atom_site_fract_x
_atom_site_fract_y
_atom_site_fract_z
Si Si1 0.521786 0.126861 0.423011
Si Si2 0.556011 0.627798 0.694810
Si Si3 0.351914 0.621869 0.178016
Si Si4 0.838211 0.987905 0.432593
Si Si5 0.153936 0.376893 0.459479
Si Si6 0.152723 0.508980 0.268948
O O1 0.540158 0.250000 0.443790
O O2 0.544679 0.121292 0.359904
O O3 0.673366 0.058230 0.448635
O O4 0.337166 0.081643 0.439424
O O5 0.623781 0.750000 0.704198
O O6 0.436549 0.595933 0.743455
O O7 0.705413 0.539775 0.692877
O O8 0.350577 0.750000 0.173089
O O9 0.300464 0.572555 0.121891
O O10 0.219228 0.585929 0.222317
O O11 0.536913 0.581528 0.193810
O O12 0.005519 0.062225 0.427367
O O13 0.866249 0.899130 0.478251
O O14 0.132933 0.250000 0.447619
#
# Coordination Sequence:
#
# PCOD8251624 Si02
#       6
#     8   8   8   8   8   8
#     4  10  20  36  57  84 115 149 188 235 296 350
#     4  10  19  34  55  83 114 146 186 233 287 348
#     4  11  22  38  58  80 111 152 195 238 284 338
#     4  11  21  38  60  85 114 149 196 237 288 347
#     4  10  22  38  59  85 116 150 187 240 296 347
#     4  10  21  36  55  81 115 149 190 234 286 337
#
# _framework density 19.469553000000001
#
# number of rings (size 3 to 8) (size 9 to 14) (size 15 to 20)
#    0.000    1.667    1.667    3.500    0.000    0.000 
#    0.000    1.667    0.000    4.000    0.000    0.000 
#    0.000    0.000    0.000    0.000    0.000    0.000 
#
# Total GULP energy -595302.556407 kJ/mol
# GULP energy per Si atom -12402.136592 kJ/mol
# Density = 1.942524 g / cm^3
# Si number density = 19.469553 Si / 1000 Ang^3
#
#
#
# Elastic Constant Matrix: (Units=GPa)
#
#
# Indices 1 2 3 4 5 6 
#
# 1 91.0666 31.0150 2.9481 0.0000 0.0000 0.0000
# 2 31.0150 97.8891 23.9639 0.0000 0.0000 0.0000
# 3 2.9481 23.9639 50.6925 0.0000 0.0000 0.0000
# 4 0.0000 0.0000 0.0000 21.7538 0.0000 0.0000
# 5 0.0000 0.0000 0.0000 0.0000 23.4487 0.0000
# 6 0.0000 0.0000 0.0000 0.0000 0.0000 20.3183
#
#
#
# Elastic Compliance Matrix: (Units=1/GPa)
#
#
# Indices 1 2 3 4 5 6 
#
# 1 0.012383 -0.004237 0.001283 0.000000 0.000000 0.000000
# 2 -0.004237 0.013003 -0.005900 0.000000 0.000000 0.000000
# 3 0.001283 -0.005900 0.022441 0.000000 0.000000 0.000000
# 4 0.000000 0.000000 0.000000 0.045969 0.000000 0.000000
# 5 0.000000 0.000000 0.000000 0.000000 0.042646 0.000000
# 6 0.000000 0.000000 0.000000 0.000000 0.000000 0.049217
#
#
# Mechanical properties :
#
#
# Convention : Reuss Voigt Hill
#
# Bulk Modulus (GPa) = 33.20349 39.50023 36.35186
# Shear Modulus (GPa) = 23.42942 25.21892 24.32417
#
# Velocity S-wave (km/s) = 3.47275 3.60293 3.53844
# Velocity P-wave (km/s) = 5.75943 6.13518 5.95027
#
# Compressibility (1/GPa) = 0.03011731
#
# Stress axis : x y z
#
# Youngs Moduli (GPa) = 80.75864 76.90755 44.56043
#
# Poissons Ratio (x) = 0.32588 -0.05717
# Poissons Ratio (y) = 0.34220 0.26292
# Poissons Ratio (z) = -0.10361 0.45378
#
# Static dielectric constant tensor:
#      x y z
#    x 3.845170 0.000000 0.000000 
#    y 0.000000 3.456070 0.000000 
#    z 0.000000 0.000000 3.393490 
# 
# 
# High freq. dielectric constant tensor:
#      x y z
#    x 1.764320 0.000000 0.000000 
#    y 0.000000 1.756290 0.000000 
#    z 0.000000 0.000000 1.756270 
# 
# From -- ./inp_files/28795.got.cif
#   From: 2010.03.12/outbox.cif.g09.slc.cpg/sg62_15_cif.got.tgz:28795.got - 2010.04.10 19:12:36.
