data_PCOD8251591
_publ_section_title
;
Structure prediction by ZEFSAII (Michael W. Deem and Ramdas Pophale) SiO2 
 PCOD8251591
Probable space group: P N M A
;
_chemical_formula_sum "Si O2"
_cell_formula_units_Z 64
_cell_length_a 15.373176
_cell_length_b 8.788971
_cell_length_c 24.654887
_cell_angle_alpha 90.000000
_cell_angle_beta 90.000000
_cell_angle_gamma 90.000000
_cell_volume 3331.230216
_symmetry_space_group_name_H-M "P N M A"
_symmetry_group_IT_number 62
_symmetry_cell_setting 'orthorhombic'
loop_
_space_group_symop_operation_xyz
x,y,z
1/2-x,-y,1/2+z
1/2+x,1/2-y,1/2-z
-x,1/2+y,-z
-x,-y,-z
1/2+x,y,1/2-z
1/2-x,1/2+y,1/2+z
x,1/2-y,z
loop_
_atom_site_type_symbol
_atom_site_label
_atom_site_fract_x
_atom_site_fract_y
_atom_site_fract_z
Si Si1 0.318675 0.573432 0.441972
Si Si2 0.193849 0.430499 0.358107
Si Si3 0.683118 0.930508 0.851048
Si Si4 0.496604 0.571770 0.385786
Si Si5 0.543757 0.074679 0.279795
Si Si6 0.832457 0.927674 0.933533
Si Si7 0.995594 0.575650 0.658954
Si Si8 0.776911 0.429367 0.754265
O O1 0.300788 0.750000 0.430476
O O2 0.245964 0.476259 0.411371
O O3 0.414825 0.526330 0.422802
O O4 0.309471 0.532716 0.504867
O O5 0.191992 0.250000 0.351187
O O6 0.239564 0.498420 0.304775
O O7 0.094778 0.499367 0.362032
O O8 0.684635 0.750000 0.841093
O O9 0.749732 0.979164 0.897989
O O10 0.585089 0.986008 0.868004
O O11 0.702717 0.013551 0.794679
O O12 0.500540 0.750000 0.374814
O O13 0.484101 0.486389 0.328538
O O14 0.583619 0.521359 0.416128
O O15 0.568515 0.250000 0.289985
O O16 0.493561 0.052369 0.223590
O O17 0.632239 0.979586 0.280413
O O18 0.853272 0.750000 0.925944
O O19 0.986789 0.750000 0.643483
O O20 0.773074 0.250000 0.748277
#
# Coordination Sequence:
#
# PCOD8251591 Si02
#       8
#     8   8   8   8   8   8   8   8
#     4  10  23  40  56  82 115 153 195 241 296 346
#     4  10  21  39  60  82 110 151 195 240 287 340
#     4  10  19  35  59  85 112 150 193 236 283 342
#     4  11  22  35  54  81 117 151 189 241 289 340
#     4  10  19  34  54  80 113 150 188 225 277 346
#     4  10  21  38  60  82 114 154 195 238 288 350
#     4   8  18  35  56  82 112 144 188 237 278 333
#     4  11  21  34  54  83 117 149 181 233 289 339
#
# _framework density 19.212122000000001
#
# number of rings (size 3 to 8) (size 9 to 14) (size 15 to 20)
#    0.000    2.000    1.250    3.375    1.750    1.500 
#    0.000    3.750    0.000    0.000    0.000    0.000 
#    0.000    0.000    0.000    0.000    0.000    0.000 
#
# Total GULP energy -793537.564009 kJ/mol
# GULP energy per Si atom -12399.024438 kJ/mol
# Density = 1.916839 g / cm^3
# Si number density = 19.212122 Si / 1000 Ang^3
#
#
#
# Elastic Constant Matrix: (Units=GPa)
#
#
# Indices 1 2 3 4 5 6 
#
# 1 138.5599 39.1759 59.1986 0.0000 0.0000 0.0000
# 2 39.1759 62.2608 23.9146 0.0000 0.0000 0.0000
# 3 59.1986 23.9146 86.0931 0.0000 0.0000 0.0000
# 4 0.0000 0.0000 0.0000 28.2648 0.0000 0.0000
# 5 0.0000 0.0000 0.0000 0.0000 22.4981 0.0000
# 6 0.0000 0.0000 0.0000 0.0000 0.0000 20.4201
#
#
#
# Elastic Compliance Matrix: (Units=1/GPa)
#
#
# Indices 1 2 3 4 5 6 
#
# 1 0.011291 -0.004615 -0.006482 0.000000 0.000000 0.000000
# 2 -0.004615 0.019866 -0.002345 0.000000 0.000000 0.000000
# 3 -0.006482 -0.002345 0.016724 0.000000 0.000000 0.000000
# 4 0.000000 0.000000 0.000000 0.035380 0.000000 0.000000
# 5 0.000000 0.000000 0.000000 0.000000 0.044448 0.000000
# 6 0.000000 0.000000 0.000000 0.000000 0.000000 0.048971
#
#
# Mechanical properties :
#
#
# Convention : Reuss Voigt Hill
#
# Bulk Modulus (GPa) = 47.62566 59.05466 53.34016
# Shear Modulus (GPa) = 23.74577 25.21158 24.47867
#
# Velocity S-wave (km/s) = 3.51946 3.62646 3.57336
# Velocity P-wave (km/s) = 6.43107 6.95269 6.69696
#
# Compressibility (1/GPa) = 0.02099709
#
# Stress axis : x y z
#
# Youngs Moduli (GPa) = 88.56330 50.33719 59.79464
#
# Poissons Ratio (x) = 0.23230 0.38760
# Poissons Ratio (y) = 0.40872 0.14022
# Poissons Ratio (z) = 0.57408 0.11804
#
# Static dielectric constant tensor:
#      x y z
#    x 3.747660 0.000000 0.000000 
#    y 0.000000 3.369850 0.000000 
#    z 0.000000 0.000000 3.500490 
# 
# 
# High freq. dielectric constant tensor:
#      x y z
#    x 1.753760 0.000000 0.000000 
#    y 0.000000 1.734640 0.000000 
#    z 0.000000 0.000000 1.738870 
# 
# From -- ./inp_files/29736.got.cif
#   From: 2010.03.12/outbox.cif.g09.slc.cpg/sg62_15_cif.got.tgz:29736.got - 2010.04.10 19:12:36.
