data_PCOD8251692
_publ_section_title
;
Structure prediction by ZEFSAII (Michael W. Deem and Ramdas Pophale) SiO2 
 PCOD8251692
Probable space group: P N M A
;
_chemical_formula_sum "Si O2"
_cell_formula_units_Z 64
_cell_length_a 16.568428
_cell_length_b 9.064047
_cell_length_c 21.251158
_cell_angle_alpha 90.000000
_cell_angle_beta 90.000000
_cell_angle_gamma 90.000000
_cell_volume 3191.435370
_symmetry_space_group_name_H-M "P N M A"
_symmetry_group_IT_number 62
_symmetry_cell_setting 'orthorhombic'
loop_
_space_group_symop_operation_xyz
x,y,z
1/2-x,-y,1/2+z
1/2+x,1/2-y,1/2-z
-x,1/2+y,-z
-x,-y,-z
1/2+x,y,1/2-z
1/2-x,1/2+y,1/2+z
x,1/2-y,z
loop_
_atom_site_type_symbol
_atom_site_label
_atom_site_fract_x
_atom_site_fract_y
_atom_site_fract_z
Si Si1 0.707333 0.418444 0.126650
Si Si2 0.962053 0.579685 0.674612
Si Si3 0.228110 0.078784 0.100849
Si Si4 0.829395 0.425405 0.021343
Si Si5 0.051615 0.417756 0.891300
Si Si6 0.418748 0.579554 0.683890
Si Si7 0.876132 0.574707 0.346565
Si Si8 0.185274 0.085207 0.785695
O O1 0.730741 0.250000 0.136353
O O2 0.611270 0.442668 0.125077
O O3 0.751712 0.475090 0.063570
O O4 0.738559 0.496592 0.189438
O O5 0.988623 0.750000 0.677388
O O6 0.935118 0.526036 0.744537
O O7 0.033179 0.483154 0.644677
O O8 0.243063 0.250000 0.086002
O O9 0.175578 0.058258 0.164970
O O10 0.314517 0.997362 0.104037
O O11 0.178064 0.004984 0.044904
O O12 0.834133 0.250000 0.012613
O O13 0.912343 0.483552 0.052334
O O14 0.037118 0.250000 0.914755
O O15 0.112579 0.421397 0.833864
O O16 0.968451 0.484892 0.866573
O O17 0.444030 0.750000 0.676767
O O18 0.875855 0.750000 0.354594
O O19 0.847227 0.517025 0.278756
O O20 0.215771 0.250000 0.773594
#
# Coordination Sequence:
#
# PCOD8251692 Si02
#       8
#     8   8   8   8   8   8   8   8
#     4   9  19  35  58  84 110 145 190 235 281 335
#     4  10  20  36  58  86 116 145 181 230 284 340
#     4  11  24  41  59  82 112 152 196 239 286 339
#     4  10  21  39  60  83 113 151 197 242 285 336
#     4  10  19  34  57  85 117 152 187 229 279 336
#     4  10  21  36  57  86 118 148 186 232 284 342
#     4  11  22  37  56  83 116 149 185 230 285 341
#     4   9  18  32  52  81 114 145 179 221 278 336
#
# _framework density 20.053671999999999
#
# number of rings (size 3 to 8) (size 9 to 14) (size 15 to 20)
#    0.000    2.000    1.250    2.250    0.000    5.000 
#    0.000    0.625    0.000    0.000    0.000    0.000 
#    0.000    0.000    0.000    0.000    0.000    0.000 
#
# Total GULP energy -793591.513306 kJ/mol
# GULP energy per Si atom -12399.867395 kJ/mol
# Density = 2.000803 g / cm^3
# Si number density = 20.053672 Si / 1000 Ang^3
#
#
#
# Elastic Constant Matrix: (Units=GPa)
#
#
# Indices 1 2 3 4 5 6 
#
# 1 93.1579 39.1032 9.8709 0.0000 0.0000 0.0000
# 2 39.1032 83.5893 14.4051 0.0000 0.0000 0.0000
# 3 9.8709 14.4051 40.9617 0.0000 0.0000 0.0000
# 4 0.0000 0.0000 0.0000 28.5278 0.0000 0.0000
# 5 0.0000 0.0000 0.0000 0.0000 23.1098 0.0000
# 6 0.0000 0.0000 0.0000 0.0000 0.0000 29.6053
#
#
#
# Elastic Compliance Matrix: (Units=1/GPa)
#
#
# Indices 1 2 3 4 5 6 
#
# 1 0.013403 -0.006082 -0.001091 0.000000 0.000000 0.000000
# 2 -0.006082 0.015495 -0.003984 0.000000 0.000000 0.000000
# 3 -0.001091 -0.003984 0.026077 0.000000 0.000000 0.000000
# 4 0.000000 0.000000 0.000000 0.035054 0.000000 0.000000
# 5 0.000000 0.000000 0.000000 0.000000 0.043272 0.000000
# 6 0.000000 0.000000 0.000000 0.000000 0.000000 0.033778
#
#
# Mechanical properties :
#
#
# Convention : Reuss Voigt Hill
#
# Bulk Modulus (GPa) = 30.61677 38.27417 34.44547
# Shear Modulus (GPa) = 24.96534 26.53722 25.75128
#
# Velocity S-wave (km/s) = 3.53218 3.64168 3.58735
# Velocity P-wave (km/s) = 5.65116 6.06710 5.86282
#
# Compressibility (1/GPa) = 0.03266184
#
# Stress axis : x y z
#
# Youngs Moduli (GPa) = 74.61038 64.53753 38.34819
#
# Poissons Ratio (x) = 0.39251 0.04184
# Poissons Ratio (y) = 0.45377 0.15276
# Poissons Ratio (z) = 0.08140 0.25709
#
# Static dielectric constant tensor:
#      x y z
#    x 3.605440 0.000000 0.000000 
#    y 0.000000 3.662110 0.000000 
#    z 0.000000 0.000000 3.511740 
# 
# 
# High freq. dielectric constant tensor:
#      x y z
#    x 1.783940 0.000000 0.000000 
#    y 0.000000 1.783480 0.000000 
#    z 0.000000 0.000000 1.766360 
# 
# From -- ./inp_files/29812.got.cif
#   From: 2010.03.12/outbox.cif.g09.slc.cpg/sg62_15_cif.got.tgz:29812.got - 2010.04.10 19:12:36.
