data_PCOD8251976
_publ_section_title
;
Structure prediction by ZEFSAII (Michael W. Deem and Ramdas Pophale) SiO2 
 PCOD8251976
Probable space group: P N M A
;
_chemical_formula_sum "Si O2"
_cell_formula_units_Z 48
_cell_length_a 18.379750
_cell_length_b 14.769512
_cell_length_c 8.484414
_cell_angle_alpha 90.000000
_cell_angle_beta 90.000000
_cell_angle_gamma 90.000000
_cell_volume 2303.178500
_symmetry_space_group_name_H-M "P N M A"
_symmetry_group_IT_number 62
_symmetry_cell_setting 'orthorhombic'
loop_
_space_group_symop_operation_xyz
x,y,z
1/2-x,-y,1/2+z
1/2+x,1/2-y,1/2-z
-x,1/2+y,-z
-x,-y,-z
1/2+x,y,1/2-z
1/2-x,1/2+y,1/2+z
x,1/2-y,z
loop_
_atom_site_type_symbol
_atom_site_label
_atom_site_fract_x
_atom_site_fract_y
_atom_site_fract_z
Si Si1 0.037648 0.908608 0.438279
Si Si2 0.575330 0.645382 0.406105
Si Si3 0.401533 0.651368 0.924563
Si Si4 0.674008 0.983105 0.925989
Si Si5 0.072215 0.353396 0.069493
Si Si6 0.329085 0.001057 0.439213
O O1 0.042654 0.899868 0.250735
O O2 0.982737 0.832835 0.503633
O O3 0.119202 0.905648 0.508962
O O4 0.000000 0.000000 0.500000
O O5 0.597679 0.750000 0.376110
O O6 0.513988 0.637175 0.540827
O O7 0.645460 0.589114 0.462375
O O8 0.363514 0.750000 0.926668
O O9 0.409328 0.614702 0.746388
O O10 0.352467 0.583237 0.024798
O O11 0.678941 0.971175 0.740553
O O12 0.752803 0.964693 0.996803
O O13 0.096830 0.250000 0.039000
O O14 0.114201 0.418738 0.950255
#
# Coordination Sequence:
#
# PCOD8251976 Si02
#       6
#     8   8   8   8   8   8
#     4  10  19  36  59  86 116 150 193 241 291 344
#     4  11  23  39  62  91 122 159 203 247 296 357
#     4  10  20  37  61  88 119 152 193 245 297 355
#     4  11  24  39  60  85 116 157 201 244 301 362
#     4  10  21  38  62  91 119 153 198 245 296 355
#     4  12  23  41  61  83 120 159 196 248 301 357
#
# _framework density 20.840765000000001
#
# number of rings (size 3 to 8) (size 9 to 14) (size 15 to 20)
#    0.000    1.333    0.000    8.000    0.000    2.667 
#    0.000    5.000    0.000    0.000    0.000    0.000 
#    0.000    0.000    0.000    0.000    0.000    0.000 
#
# Total GULP energy -595180.612381 kJ/mol
# GULP energy per Si atom -12399.596091 kJ/mol
# Density = 2.079333 g / cm^3
# Si number density = 20.840765 Si / 1000 Ang^3
#
#
#
# Elastic Constant Matrix: (Units=GPa)
#
#
# Indices 1 2 3 4 5 6 
#
# 1 88.8987 10.0244 6.2446 0.0000 0.0000 0.0000
# 2 10.0244 76.0113 10.6517 0.0000 0.0000 0.0000
# 3 6.2446 10.6517 107.9145 0.0000 0.0000 0.0000
# 4 0.0000 0.0000 0.0000 22.8877 0.0000 0.0000
# 5 0.0000 0.0000 0.0000 0.0000 36.6889 0.0000
# 6 0.0000 0.0000 0.0000 0.0000 0.0000 18.7783
#
#
#
# Elastic Compliance Matrix: (Units=1/GPa)
#
#
# Indices 1 2 3 4 5 6 
#
# 1 0.011447 -0.001437 -0.000521 0.000000 0.000000 0.000000
# 2 -0.001437 0.013521 -0.001251 0.000000 0.000000 0.000000
# 3 -0.000521 -0.001251 0.009420 0.000000 0.000000 0.000000
# 4 0.000000 0.000000 0.000000 0.043692 0.000000 0.000000
# 5 0.000000 0.000000 0.000000 0.000000 0.027256 0.000000
# 6 0.000000 0.000000 0.000000 0.000000 0.000000 0.053253
#
#
# Mechanical properties :
#
#
# Convention : Reuss Voigt Hill
#
# Bulk Modulus (GPa) = 35.75151 36.29620 36.02386
# Shear Modulus (GPa) = 28.68122 32.06458 30.37290
#
# Velocity S-wave (km/s) = 3.71375 3.92669 3.82171
# Velocity P-wave (km/s) = 5.96499 6.16541 6.06603
#
# Compressibility (1/GPa) = 0.02797085
#
# Stress axis : x y z
#
# Youngs Moduli (GPa) = 87.35661 73.96021 106.15438
#
# Poissons Ratio (x) = 0.10626 0.05526
# Poissons Ratio (y) = 0.12551 0.13284
# Poissons Ratio (z) = 0.04548 0.09256
#
# Static dielectric constant tensor:
#      x y z
#    x 3.908960 0.000000 0.000000 
#    y 0.000000 3.817730 0.000000 
#    z 0.000000 0.000000 3.792200 
# 
# 
# High freq. dielectric constant tensor:
#      x y z
#    x 1.808300 0.000000 0.000000 
#    y 0.000000 1.812840 0.000000 
#    z 0.000000 0.000000 1.828110 
# 
# From -- ./inp_files/7792.got.cif
#   From: 2010.03.12/outbox.cif.g09.slc.cpg/sg62_4_cif.got.tgz:7792.got - 2010.04.10 19:12:36.
