data_PCOD8251842
_publ_section_title
;
Structure prediction by ZEFSAII (Michael W. Deem and Ramdas Pophale) SiO2 
 PCOD8251842
Probable space group: P N M A
;
_chemical_formula_sum "Si O2"
_cell_formula_units_Z 64
_cell_length_a 12.507437
_cell_length_b 9.154850
_cell_length_c 26.686475
_cell_angle_alpha 90.000000
_cell_angle_beta 90.000000
_cell_angle_gamma 90.000000
_cell_volume 3055.700384
_symmetry_space_group_name_H-M "P N M A"
_symmetry_group_IT_number 62
_symmetry_cell_setting 'orthorhombic'
loop_
_space_group_symop_operation_xyz
x,y,z
1/2-x,-y,1/2+z
1/2+x,1/2-y,1/2-z
-x,1/2+y,-z
-x,-y,-z
1/2+x,y,1/2-z
1/2-x,1/2+y,1/2+z
x,1/2-y,z
loop_
_atom_site_type_symbol
_atom_site_label
_atom_site_fract_x
_atom_site_fract_y
_atom_site_fract_z
Si Si1 0.322179 0.074780 0.605327
Si Si2 0.459289 0.907777 0.824847
Si Si3 0.301781 0.909276 0.398293
Si Si4 0.514716 0.575420 0.553390
Si Si5 0.869569 0.592675 0.460145
Si Si6 0.799517 0.077153 0.308452
Si Si7 0.404608 0.530124 0.931623
Si Si8 0.231694 0.581283 0.288145
O O1 0.339378 0.250000 0.606407
O O2 0.236721 0.020460 0.563266
O O3 0.431523 0.992833 0.592528
O O4 0.284443 0.015389 0.658984
O O5 0.452850 0.750000 0.797189
O O6 0.581482 0.961572 0.827438
O O7 0.413568 0.877834 0.880789
O O8 0.390478 0.027157 0.795141
O O9 0.353194 0.750000 0.408836
O O10 0.298989 0.938910 0.338931
O O11 0.368185 0.036671 0.425282
O O12 0.180340 0.901673 0.420036
O O13 0.500000 0.500000 0.500000
O O14 0.502700 0.750000 0.548758
O O15 0.878455 0.750000 0.434473
O O16 0.857674 0.612911 0.520022
O O17 0.975567 0.510354 0.445448
O O18 0.775620 0.250000 0.312026
O O19 0.790018 0.021142 0.251833
O O20 0.228292 0.750000 0.271018
#
# Coordination Sequence:
#
# PCOD8251842 Si02
#       8
#     8   8   8   8   8   8   8   8
#     4  11  23  41  64  92 128 167 213 263 316 379
#     4  10  21  38  61  89 124 163 202 254 311 374
#     4  10  22  41  64  90 123 163 213 266 319 381
#     4  12  26  44  66  92 128 173 221 271 323 384
#     4  10  20  33  55  89 125 162 199 243 300 366
#     4  11  23  41  63  92 126 163 209 259 318 380
#     4  10  19  35  58  90 125 162 202 247 301 371
#     4  10  23  41  64  92 121 161 209 263 322 382
#
# _framework density 20.944462000000001
#
# number of rings (size 3 to 8) (size 9 to 14) (size 15 to 20)
#    0.000    1.500    1.250    3.750    0.000    6.500 
#    0.000    3.750    0.000    0.000    0.000    0.000 
#    0.000    0.000    0.000    0.000    0.000    0.000 
#
# Total GULP energy -793189.062164 kJ/mol
# GULP energy per Si atom -12393.579096 kJ/mol
# Density = 2.089679 g / cm^3
# Si number density = 20.944462 Si / 1000 Ang^3
#
#
#
# Elastic Constant Matrix: (Units=GPa)
#
#
# Indices 1 2 3 4 5 6 
#
# 1 84.3383 43.5403 24.1432 0.0000 0.0000 0.0000
# 2 43.5403 131.3235 41.1230 0.0000 0.0000 0.0000
# 3 24.1432 41.1230 83.2158 0.0000 0.0000 0.0000
# 4 0.0000 0.0000 0.0000 26.0193 0.0000 0.0000
# 5 0.0000 0.0000 0.0000 0.0000 31.1871 0.0000
# 6 0.0000 0.0000 0.0000 0.0000 0.0000 28.3331
#
#
#
# Elastic Compliance Matrix: (Units=1/GPa)
#
#
# Indices 1 2 3 4 5 6 
#
# 1 0.014634 -0.004167 -0.002186 0.000000 0.000000 0.000000
# 2 -0.004167 0.010196 -0.003829 0.000000 0.000000 0.000000
# 3 -0.002186 -0.003829 0.014544 0.000000 0.000000 0.000000
# 4 0.000000 0.000000 0.000000 0.038433 0.000000 0.000000
# 5 0.000000 0.000000 0.000000 0.000000 0.032065 0.000000
# 6 0.000000 0.000000 0.000000 0.000000 0.000000 0.035294
#
#
# Mechanical properties :
#
#
# Convention : Reuss Voigt Hill
#
# Bulk Modulus (GPa) = 52.61118 57.38784 54.99951
# Shear Modulus (GPa) = 29.09217 29.77930 29.43573
#
# Velocity S-wave (km/s) = 3.73099 3.77480 3.75296
# Velocity P-wave (km/s) = 6.61319 6.81603 6.71538
#
# Compressibility (1/GPa) = 0.01900737
#
# Stress axis : x y z
#
# Youngs Moduli (GPa) = 68.33243 98.08158 68.75860
#
# Poissons Ratio (x) = 0.40874 0.15034
# Poissons Ratio (y) = 0.28477 0.26330
# Poissons Ratio (z) = 0.14940 0.37559
#
# Static dielectric constant tensor:
#      x y z
#    x 3.815440 0.000000 0.000000 
#    y 0.000000 3.711640 0.000000 
#    z 0.000000 0.000000 3.880150 
# 
# 
# High freq. dielectric constant tensor:
#      x y z
#    x 1.822580 0.000000 0.000000 
#    y 0.000000 1.818690 0.000000 
#    z 0.000000 0.000000 1.822160 
# 
# From -- ./inp_files/32547.got.cif
#   From: 2010.03.12/outbox.cif.g09.slc.cpg/sg62_17_cif.got.tgz:32547.got - 2010.04.10 19:12:36.
