data_PCOD8251483
_publ_section_title
;
Structure prediction by ZEFSAII (Michael W. Deem and Ramdas Pophale) SiO2 
 PCOD8251483
Probable space group: P N M A
;
_chemical_formula_sum "Si O2"
_cell_formula_units_Z 56
_cell_length_a 17.506451
_cell_length_b 8.916392
_cell_length_c 19.400206
_cell_angle_alpha 90.000000
_cell_angle_beta 90.000000
_cell_angle_gamma 90.000000
_cell_volume 3028.263121
_symmetry_space_group_name_H-M "P N M A"
_symmetry_group_IT_number 62
_symmetry_cell_setting 'orthorhombic'
loop_
_space_group_symop_operation_xyz
x,y,z
1/2-x,-y,1/2+z
1/2+x,1/2-y,1/2-z
-x,1/2+y,-z
-x,-y,-z
1/2+x,y,1/2-z
1/2-x,1/2+y,1/2+z
x,1/2-y,z
loop_
_atom_site_type_symbol
_atom_site_label
_atom_site_fract_x
_atom_site_fract_y
_atom_site_fract_z
Si Si1 0.932207 0.927902 0.688608
Si Si2 0.305553 0.923240 0.041027
Si Si3 0.149658 0.074010 0.053579
Si Si4 0.960658 0.428211 0.434036
Si Si5 0.125499 0.074928 0.896615
Si Si6 0.477036 0.572176 0.661535
Si Si7 0.719903 0.423265 0.118493
O O1 0.932005 0.750000 0.688888
O O2 0.847502 0.983118 0.667817
O O3 0.994358 0.984600 0.633587
O O4 0.952621 0.991335 0.763884
O O5 0.313824 0.750000 0.061265
O O6 0.226777 0.986017 0.071975
O O7 0.374204 0.016140 0.074737
O O8 0.308654 0.946730 0.959232
O O9 0.166363 0.250000 0.060453
O O10 0.085019 0.017614 0.105963
O O11 0.121075 0.032208 0.977177
O O12 0.963086 0.250000 0.441972
O O13 0.000000 0.500000 0.500000
O O14 0.116547 0.250000 0.884473
O O15 0.059104 0.991731 0.856527
O O16 0.205821 0.021466 0.865095
O O17 0.482881 0.750000 0.661764
O O18 0.740166 0.250000 0.132112
#
# Coordination Sequence:
#
# PCOD8251483 Si02
#       7
#     8   8   8   8   8   8   8
#     4   9  19  36  56  78 105 141 186 224 260 315
#     4  10  19  33  55  83 110 138 177 221 270 321
#     4   9  19  35  56  82 109 139 179 227 273 316
#     4  11  20  34  56  81 109 140 180 226 268 316
#     4  10  20  34  54  82 112 139 174 223 275 324
#     4  10  20  37  58  79 105 143 187 225 266 319
#     4   9  17  34  56  77 103 138 180 220 260 315
#
# _framework density 18.492449000000001
#
# number of rings (size 3 to 8) (size 9 to 14) (size 15 to 20)
#    0.000    2.286    1.429    1.714    0.000    1.714 
#    2.571    2.143    0.000    0.000    0.000    0.000 
#    0.000    0.000    0.000    0.000    0.000    0.000 
#
# Total GULP energy -694547.759371 kJ/mol
# GULP energy per Si atom -12402.638560 kJ/mol
# Density = 1.845036 g / cm^3
# Si number density = 18.492449 Si / 1000 Ang^3
#
#
#
# Elastic Constant Matrix: (Units=GPa)
#
#
# Indices 1 2 3 4 5 6 
#
# 1 154.7291 35.5848 81.7738 0.0000 0.0000 0.0000
# 2 35.5848 42.5058 29.6594 0.0000 0.0000 0.0000
# 3 81.7738 29.6594 110.5174 0.0000 0.0000 0.0000
# 4 0.0000 0.0000 0.0000 19.6832 0.0000 0.0000
# 5 0.0000 0.0000 0.0000 0.0000 23.1403 0.0000
# 6 0.0000 0.0000 0.0000 0.0000 0.0000 34.8225
#
#
#
# Elastic Compliance Matrix: (Units=1/GPa)
#
#
# Indices 1 2 3 4 5 6 
#
# 1 0.011256 -0.004444 -0.007136 0.000000 0.000000 0.000000
# 2 -0.004444 0.030701 -0.004951 0.000000 0.000000 0.000000
# 3 -0.007136 -0.004951 0.015657 0.000000 0.000000 0.000000
# 4 0.000000 0.000000 0.000000 0.050805 0.000000 0.000000
# 5 0.000000 0.000000 0.000000 0.000000 0.043215 0.000000
# 6 0.000000 0.000000 0.000000 0.000000 0.000000 0.028717
#
#
# Mechanical properties :
#
#
# Convention : Reuss Voigt Hill
#
# Bulk Modulus (GPa) = 40.72918 66.86535 53.79727
# Shear Modulus (GPa) = 22.56336 26.24482 24.40409
#
# Velocity S-wave (km/s) = 3.49684 3.77134 3.63668
# Velocity P-wave (km/s) = 6.19487 7.42972 6.84022
#
# Compressibility (1/GPa) = 0.02455242
#
# Stress axis : x y z
#
# Youngs Moduli (GPa) = 88.83821 32.57184 63.86837
#
# Poissons Ratio (x) = 0.14475 0.45577
# Poissons Ratio (y) = 0.39481 0.31621
# Poissons Ratio (z) = 0.63396 0.16126
#
# Static dielectric constant tensor:
#      x y z
#    x 3.563090 0.000000 0.000000 
#    y 0.000000 3.260290 0.000000 
#    z 0.000000 0.000000 3.446240 
# 
# 
# High freq. dielectric constant tensor:
#      x y z
#    x 1.733170 0.000000 0.000000 
#    y 0.000000 1.704640 0.000000 
#    z 0.000000 0.000000 1.701190 
# 
# From -- ./inp_files/27097.got.cif
#   From: 2010.03.12/outbox.cif.g09.slc.cpg/sg62_14_cif.got.tgz:27097.got - 2010.04.10 19:12:36.
