data_PCOD8251240
_publ_section_title
;
Structure prediction by ZEFSAII (Michael W. Deem and Ramdas Pophale) SiO2 
 PCOD8251240
Probable space group: P N M A
;
_chemical_formula_sum "Si O2"
_cell_formula_units_Z 64
_cell_length_a 17.190342
_cell_length_b 9.049662
_cell_length_c 22.291646
_cell_angle_alpha 90.000000
_cell_angle_beta 90.000000
_cell_angle_gamma 90.000000
_cell_volume 3467.839695
_symmetry_space_group_name_H-M "P N M A"
_symmetry_group_IT_number 62
_symmetry_cell_setting 'orthorhombic'
loop_
_space_group_symop_operation_xyz
x,y,z
1/2-x,-y,1/2+z
1/2+x,1/2-y,1/2-z
-x,1/2+y,-z
-x,-y,-z
1/2+x,y,1/2-z
1/2-x,1/2+y,1/2+z
x,1/2-y,z
loop_
_atom_site_type_symbol
_atom_site_label
_atom_site_fract_x
_atom_site_fract_y
_atom_site_fract_z
Si Si1 0.156785 0.922401 0.214960
Si Si2 0.918885 0.581043 0.441752
Si Si3 0.642218 0.075909 0.474340
Si Si4 0.962280 0.579180 0.863454
Si Si5 0.134618 0.576297 0.898138
Si Si6 0.741105 0.080888 0.895614
Si Si7 0.282889 0.073667 0.843002
Si Si8 0.090286 0.923573 0.436398
O O1 0.139803 0.750000 0.219278
O O2 0.225459 0.962858 0.168864
O O3 0.186030 0.982490 0.278792
O O4 0.076412 0.995508 0.192831
O O5 0.924848 0.750000 0.463112
O O6 0.852214 0.559177 0.391760
O O7 0.892315 0.487831 0.498721
O O8 0.002607 0.530377 0.415765
O O9 0.644492 0.250000 0.486895
O O10 0.575011 0.029116 0.427145
O O11 0.627729 0.993129 0.536246
O O12 0.724584 0.024308 0.447222
O O13 0.944065 0.750000 0.853895
O O14 0.053740 0.545175 0.863896
O O15 0.150803 0.750000 0.904649
O O16 0.201115 0.501339 0.858258
O O17 0.762662 0.250000 0.911809
O O18 0.272042 0.250000 0.844477
O O19 0.346961 0.014331 0.889868
O O20 0.099824 0.750000 0.439892
#
# Coordination Sequence:
#
# PCOD8251240 Si02
#       8
#     8   8   8   8   8   8   8   8
#     4   9  19  36  55  76 102 135 175 216 259 308
#     4   9  17  30  49  73  98 128 166 205 251 303
#     4  10  19  32  53  80 109 139 169 211 265 314
#     4   9  20  37  55  77 106 140 176 214 261 315
#     4  11  22  35  53  79 108 139 175 216 262 316
#     4   9  17  31  51  75 103 134 170 211 253 307
#     4  10  21  37  53  76 106 138 177 218 264 312
#     4   9  18  32  49  70 101 132 161 206 256 303
#
# _framework density 18.455293000000001
#
# number of rings (size 3 to 8) (size 9 to 14) (size 15 to 20)
#    0.000    2.500    0.000    1.875    0.000    5.000 
#    2.250    0.000    0.000    0.000    0.000    0.000 
#    0.000    0.000    0.000    0.000    0.000    0.000 
#
# Total GULP energy -793508.008272 kJ/mol
# GULP energy per Si atom -12398.562629 kJ/mol
# Density = 1.841329 g / cm^3
# Si number density = 18.455293 Si / 1000 Ang^3
#
#
#
# Elastic Constant Matrix: (Units=GPa)
#
#
# Indices 1 2 3 4 5 6 
#
# 1 143.2103 41.7347 65.2185 0.0000 0.0000 0.0000
# 2 41.7347 47.1890 35.9254 0.0000 0.0000 0.0000
# 3 65.2185 35.9254 100.6573 0.0000 0.0000 0.0000
# 4 0.0000 0.0000 0.0000 25.4108 0.0000 0.0000
# 5 0.0000 0.0000 0.0000 0.0000 16.9946 0.0000
# 6 0.0000 0.0000 0.0000 0.0000 0.0000 29.2448
#
#
#
# Elastic Compliance Matrix: (Units=1/GPa)
#
#
# Indices 1 2 3 4 5 6 
#
# 1 0.010984 -0.005899 -0.005011 0.000000 0.000000 0.000000
# 2 -0.005899 0.032266 -0.007694 0.000000 0.000000 0.000000
# 3 -0.005011 -0.007694 0.015928 0.000000 0.000000 0.000000
# 4 0.000000 0.000000 0.000000 0.039353 0.000000 0.000000
# 5 0.000000 0.000000 0.000000 0.000000 0.058842 0.000000
# 6 0.000000 0.000000 0.000000 0.000000 0.000000 0.034194
#
#
# Mechanical properties :
#
#
# Convention : Reuss Voigt Hill
#
# Bulk Modulus (GPa) = 45.51852 64.09042 54.80447
# Shear Modulus (GPa) = 21.17751 24.20858 22.69304
#
# Velocity S-wave (km/s) = 3.39116 3.62573 3.51040
# Velocity P-wave (km/s) = 6.32859 7.23399 6.79638
#
# Compressibility (1/GPa) = 0.02196908
#
# Stress axis : x y z
#
# Youngs Moduli (GPa) = 91.04029 30.99218 62.78393
#
# Poissons Ratio (x) = 0.18283 0.31463
# Poissons Ratio (y) = 0.53708 0.48304
# Poissons Ratio (z) = 0.45624 0.23844
#
# Static dielectric constant tensor:
#      x y z
#    x 3.637010 0.000000 0.000000 
#    y 0.000000 3.353260 0.000000 
#    z 0.000000 0.000000 3.315590 
# 
# 
# High freq. dielectric constant tensor:
#      x y z
#    x 1.727710 0.000000 0.000000 
#    y 0.000000 1.710890 0.000000 
#    z 0.000000 0.000000 1.698070 
# 
# From -- ./inp_files/27692.got.cif
#   From: 2010.03.12/outbox.cif.g09.slc.cpg/sg62_14_cif.got.tgz:27692.got - 2010.04.10 19:12:36.
