data_PCOD8251375
_publ_section_title
;
Structure prediction by ZEFSAII (Michael W. Deem and Ramdas Pophale) SiO2 
 PCOD8251375
Probable space group: P N M A
;
_chemical_formula_sum "Si O2"
_cell_formula_units_Z 40
_cell_length_a 15.716136
_cell_length_b 8.894427
_cell_length_c 15.792463
_cell_angle_alpha 90.000000
_cell_angle_beta 90.000000
_cell_angle_gamma 90.000000
_cell_volume 2207.565618
_symmetry_space_group_name_H-M "P N M A"
_symmetry_group_IT_number 62
_symmetry_cell_setting 'orthorhombic'
loop_
_space_group_symop_operation_xyz
x,y,z
1/2-x,-y,1/2+z
1/2+x,1/2-y,1/2-z
-x,1/2+y,-z
-x,-y,-z
1/2+x,y,1/2-z
1/2-x,1/2+y,1/2+z
x,1/2-y,z
loop_
_atom_site_type_symbol
_atom_site_label
_atom_site_fract_x
_atom_site_fract_y
_atom_site_fract_z
Si Si1 0.468884 0.425893 0.375519
Si Si2 0.127731 0.575554 0.043057
Si Si3 0.938007 0.075341 0.309751
Si Si4 0.569518 0.074752 0.058575
Si Si5 0.305650 0.071814 0.052119
O O1 0.493704 0.250000 0.371003
O O2 0.396021 0.454108 0.445040
O O3 0.552241 0.520549 0.397030
O O4 0.433812 0.488639 0.285681
O O5 0.145025 0.750000 0.060180
O O6 0.210346 0.481312 0.067461
O O7 0.917890 0.250000 0.305952
O O8 0.864561 0.007168 0.370891
O O9 0.034094 0.047709 0.346117
O O10 0.577895 0.250000 0.038316
O O11 0.500000 0.000000 0.000000
O O12 0.659640 0.995789 0.037522
O O13 0.309310 0.250000 0.045977
#
# Coordination Sequence:
#
# PCOD8251375 Si02
#       5
#     8   8   8   8   8
#     4   9  18  36  57  73  96 134 176 211 249 305
#     4  10  20  34  53  76 103 134 170 211 259 304
#     4   8  16  32  54  77  98 130 174 211 246 300
#     4   9  16  29  50  75 103 133 167 205 254 304
#     4  10  19  33  53  76 105 137 173 210 252 304
#
# _framework density 18.119506000000001
#
# number of rings (size 3 to 8) (size 9 to 14) (size 15 to 20)
#    0.000    2.800    0.000    3.000    0.000    0.800 
#    3.600    6.000    0.000    0.000    0.000    0.000 
#    0.000    0.000    0.000    0.000    0.000    0.000 
#
# Total GULP energy -495709.771415 kJ/mol
# GULP energy per Si atom -12392.744285 kJ/mol
# Density = 1.807827 g / cm^3
# Si number density = 18.119506 Si / 1000 Ang^3
#
#
#
# Elastic Constant Matrix: (Units=GPa)
#
#
# Indices 1 2 3 4 5 6 
#
# 1 95.1387 37.3498 47.7176 0.0000 0.0000 0.0000
# 2 37.3498 73.8659 34.0744 0.0000 0.0000 0.0000
# 3 47.7176 34.0744 117.9091 0.0000 0.0000 0.0000
# 4 0.0000 0.0000 0.0000 20.0456 0.0000 0.0000
# 5 0.0000 0.0000 0.0000 0.0000 15.5724 0.0000
# 6 0.0000 0.0000 0.0000 0.0000 0.0000 34.7082
#
#
#
# Elastic Compliance Matrix: (Units=1/GPa)
#
#
# Indices 1 2 3 4 5 6 
#
# 1 0.014890 -0.005480 -0.004442 0.000000 0.000000 0.000000
# 2 -0.005480 0.017637 -0.002879 0.000000 0.000000 0.000000
# 3 -0.004442 -0.002879 0.011111 0.000000 0.000000 0.000000
# 4 0.000000 0.000000 0.000000 0.049886 0.000000 0.000000
# 5 0.000000 0.000000 0.000000 0.000000 0.064216 0.000000
# 6 0.000000 0.000000 0.000000 0.000000 0.000000 0.028812
#
#
# Mechanical properties :
#
#
# Convention : Reuss Voigt Hill
#
# Bulk Modulus (GPa) = 55.44670 58.35524 56.90097
# Shear Modulus (GPa) = 22.91816 25.25004 24.08410
#
# Velocity S-wave (km/s) = 3.56031 3.73705 3.64975
# Velocity P-wave (km/s) = 6.89696 7.13417 7.01657
#
# Compressibility (1/GPa) = 0.01803534
#
# Stress axis : x y z
#
# Youngs Moduli (GPa) = 67.15708 56.69857 90.00060
#
# Poissons Ratio (x) = 0.31070 0.39983
# Poissons Ratio (y) = 0.36802 0.25913
# Poissons Ratio (z) = 0.29835 0.16325
#
# Static dielectric constant tensor:
#      x y z
#    x 3.374770 0.000000 0.000000 
#    y 0.000000 3.325050 0.000000 
#    z 0.000000 0.000000 3.716520 
# 
# 
# High freq. dielectric constant tensor:
#      x y z
#    x 1.693090 0.000000 0.000000 
#    y 0.000000 1.694190 0.000000 
#    z 0.000000 0.000000 1.693960 
# 
# From -- ./inp_files/18634.got.cif
#   From: 2010.03.12/outbox.cif.g09.slc.cpg/sg62_10_cif.got.tgz:18634.got - 2010.04.10 19:12:36.
