data_PCOD8251829
_publ_section_title
;
Structure prediction by ZEFSAII (Michael W. Deem and Ramdas Pophale) SiO2 
 PCOD8251829
Probable space group: P N M A
;
_chemical_formula_sum "Si O2"
_cell_formula_units_Z 64
_cell_length_a 24.844916
_cell_length_b 9.043009
_cell_length_c 15.153601
_cell_angle_alpha 90.000000
_cell_angle_beta 90.000000
_cell_angle_gamma 90.000000
_cell_volume 3404.601951
_symmetry_space_group_name_H-M "P N M A"
_symmetry_group_IT_number 62
_symmetry_cell_setting 'orthorhombic'
loop_
_space_group_symop_operation_xyz
x,y,z
1/2-x,-y,1/2+z
1/2+x,1/2-y,1/2-z
-x,1/2+y,-z
-x,-y,-z
1/2+x,y,1/2-z
1/2-x,1/2+y,1/2+z
x,1/2-y,z
loop_
_atom_site_type_symbol
_atom_site_label
_atom_site_fract_x
_atom_site_fract_y
_atom_site_fract_z
Si Si1 0.567994 0.577385 0.178863
Si Si2 0.837793 0.422889 0.995649
Si Si3 0.756863 0.924885 0.727177
Si Si4 0.604192 0.425000 0.000763
Si Si5 0.221666 0.424316 0.463863
Si Si6 0.139727 0.075201 0.174213
Si Si7 0.139696 0.577131 0.803251
Si Si8 0.556698 0.079401 0.817530
O O1 0.582677 0.750000 0.177994
O O2 0.600043 0.495889 0.255453
O O3 0.505613 0.550728 0.199683
O O4 0.580424 0.509807 0.083888
O O5 0.842814 0.250000 0.974333
O O6 0.872433 0.512471 0.923289
O O7 0.775782 0.480555 0.987983
O O8 0.860581 0.458898 0.092529
O O9 0.753385 0.750000 0.719028
O O10 0.780539 0.989610 0.635455
O O11 0.798432 0.971394 0.803410
O O12 0.695624 0.982998 0.740999
O O13 0.597775 0.250000 0.017534
O O14 0.572855 0.481105 0.914325
O O15 0.666977 0.469713 0.986269
O O16 0.227073 0.250000 0.456439
O O17 0.131077 0.250000 0.176651
O O18 0.133635 0.750000 0.786901
O O19 0.089026 0.499732 0.759703
O O20 0.572329 0.250000 0.813605
#
# Coordination Sequence:
#
# PCOD8251829 Si02
#       8
#     8   8   8   8   8   8   8   8
#     4  11  23  39  55  80 116 149 188 238 281 325
#     4   9  19  35  56  83 115 149 183 228 283 334
#     4   8  15  30  52  79 109 142 178 222 269 321
#     4  10  19  35  58  83 112 151 188 224 275 336
#     4   8  14  29  53  78 110 146 176 211 265 330
#     4  11  21  35  58  84 112 149 190 231 278 334
#     4   9  19  37  59  80 110 149 186 228 280 336
#     4  10  23  38  56  82 113 147 188 238 283 327
#
# _framework density 18.798085
#
# number of rings (size 3 to 8) (size 9 to 14) (size 15 to 20)
#    0.000    2.500    1.250    2.625    1.750    2.000 
#    0.000    1.875    0.000    0.000    0.000    0.000 
#    0.000    0.000    0.000    0.000    0.000    0.000 
#
# Total GULP energy -793292.546976 kJ/mol
# GULP energy per Si atom -12395.196047 kJ/mol
# Density = 1.875530 g / cm^3
# Si number density = 18.798085 Si / 1000 Ang^3
#
#
#
# Elastic Constant Matrix: (Units=GPa)
#
#
# Indices 1 2 3 4 5 6 
#
# 1 86.1026 49.4341 66.7129 0.0000 0.0000 0.0000
# 2 49.4341 66.6158 60.2421 0.0000 0.0000 0.0000
# 3 66.7129 60.2421 126.2752 0.0000 0.0000 0.0000
# 4 0.0000 0.0000 0.0000 30.7688 0.0000 0.0000
# 5 0.0000 0.0000 0.0000 0.0000 25.0961 0.0000
# 6 0.0000 0.0000 0.0000 0.0000 0.0000 22.6662
#
#
#
# Elastic Compliance Matrix: (Units=1/GPa)
#
#
# Indices 1 2 3 4 5 6 
#
# 1 0.023434 -0.010894 -0.007184 0.000000 0.000000 0.000000
# 2 -0.010894 0.031466 -0.009256 0.000000 0.000000 0.000000
# 3 -0.007184 -0.009256 0.016130 0.000000 0.000000 0.000000
# 4 0.000000 0.000000 0.000000 0.032500 0.000000 0.000000
# 5 0.000000 0.000000 0.000000 0.000000 0.039847 0.000000
# 6 0.000000 0.000000 0.000000 0.000000 0.000000 0.044118
#
#
# Mechanical properties :
#
#
# Convention : Reuss Voigt Hill
#
# Bulk Modulus (GPa) = 61.11157 70.19686 65.65421
# Shear Modulus (GPa) = 20.19239 22.54654 21.36946
#
# Velocity S-wave (km/s) = 3.28101 3.46700 3.37529
# Velocity P-wave (km/s) = 6.85080 7.31098 7.08463
#
# Compressibility (1/GPa) = 0.01636351
#
# Stress axis : x y z
#
# Youngs Moduli (GPa) = 42.67220 31.78030 61.99556
#
# Poissons Ratio (x) = 0.34621 0.44535
# Poissons Ratio (y) = 0.46487 0.57384
# Poissons Ratio (z) = 0.30654 0.29416
#
# Static dielectric constant tensor:
#      x y z
#    x 3.578180 0.000000 0.000000 
#    y 0.000000 3.164990 0.000000 
#    z 0.000000 0.000000 3.402300 
# 
# 
# High freq. dielectric constant tensor:
#      x y z
#    x 1.729320 0.000000 0.000000 
#    y 0.000000 1.704250 0.000000 
#    z 0.000000 0.000000 1.731760 
# 
# From -- ./inp_files/20987.got.cif
#   From: 2010.03.12/outbox.cif.g09.slc.cpg/sg62_11_cif.got.tgz:20987.got - 2010.04.10 19:12:36.
