data_PCOD8251164
_publ_section_title
;
Structure prediction by ZEFSAII (Michael W. Deem and Ramdas Pophale) SiO2 
 PCOD8251164
Probable space group: P N M A
;
_chemical_formula_sum "Si O2"
_cell_formula_units_Z 64
_cell_length_a 23.717224
_cell_length_b 11.338523
_cell_length_c 12.647795
_cell_angle_alpha 90.000000
_cell_angle_beta 90.000000
_cell_angle_gamma 90.000000
_cell_volume 3401.223401
_symmetry_space_group_name_H-M "P N M A"
_symmetry_group_IT_number 62
_symmetry_cell_setting 'orthorhombic'
loop_
_space_group_symop_operation_xyz
x,y,z
1/2-x,-y,1/2+z
1/2+x,1/2-y,1/2-z
-x,1/2+y,-z
-x,-y,-z
1/2+x,y,1/2-z
1/2-x,1/2+y,1/2+z
x,1/2-y,z
loop_
_atom_site_type_symbol
_atom_site_label
_atom_site_fract_x
_atom_site_fract_y
_atom_site_fract_z
Si Si1 0.882322 0.615846 0.769901
Si Si2 0.446262 0.039223 0.141097
Si Si3 0.922553 0.382231 0.891699
Si Si4 0.953715 0.880443 0.154584
Si Si5 0.169219 0.617725 0.717826
Si Si6 0.224076 0.382998 0.099225
Si Si7 0.353663 0.491179 0.438385
Si Si8 0.438419 0.879187 0.941445
O O1 0.906092 0.750000 0.800831
O O2 0.909847 0.500273 0.824119
O O3 0.816641 0.613343 0.798788
O O4 0.889642 0.597121 0.644676
O O5 0.392300 0.119700 0.164896
O O6 0.501493 0.115458 0.118554
O O7 0.459006 0.959858 0.242012
O O8 0.430980 0.968291 0.036172
O O9 0.910058 0.250000 0.840568
O O10 0.989327 0.389148 0.915173
O O11 0.885685 0.385963 0.999258
O O12 0.944301 0.750000 0.198537
O O13 0.901443 0.909660 0.078409
O O14 0.187916 0.750000 0.743872
O O15 0.215738 0.563743 0.637138
O O16 0.170654 0.546947 0.826456
O O17 0.231529 0.250000 0.056504
O O18 0.199044 0.460255 0.004310
O O19 0.432250 0.750000 0.990898
#
# Coordination Sequence:
#
# PCOD8251164 Si02
#       8
#     8   8   8   8   8   8   8   8
#     4   9  18  34  55  80 109 145 185 227 271 329
#     4  10  20  33  51  78 109 143 180 224 279 326
#     4  10  19  33  52  81 114 142 174 223 280 336
#     4  10  19  32  51  78 112 143 176 219 275 335
#     4  10  21  37  55  78 107 142 182 229 276 326
#     4   9  19  36  57  77 103 139 183 227 273 326
#     4  10  20  34  55  78 105 141 180 223 273 329
#     4  10  19  33  53  77 108 143 184 225 271 329
#
# _framework density 18.816759000000001
#
# number of rings (size 3 to 8) (size 9 to 14) (size 15 to 20)
#    0.000    2.250    1.250    1.875    0.000    1.500 
#    0.000    1.250    0.000   23.250    0.000    0.000 
#    0.000    0.000    0.000    0.000    0.000    0.000 
#
# Total GULP energy -792933.791615 kJ/mol
# GULP energy per Si atom -12389.590494 kJ/mol
# Density = 1.877393 g / cm^3
# Si number density = 18.816759 Si / 1000 Ang^3
#
#
#
# Elastic Constant Matrix: (Units=GPa)
#
#
# Indices 1 2 3 4 5 6 
#
# 1 84.8882 22.5660 33.4974 0.0000 0.0000 0.0000
# 2 22.5660 91.8931 22.5625 0.0000 0.0000 0.0000
# 3 33.4974 22.5625 78.7645 0.0000 0.0000 0.0000
# 4 0.0000 0.0000 0.0000 -252.6267 0.0000 0.0000
# 5 0.0000 0.0000 0.0000 0.0000 27.1164 0.0000
# 6 0.0000 0.0000 0.0000 0.0000 0.0000 16.5150
#
#
#
# Elastic Compliance Matrix: (Units=1/GPa)
#
#
# Indices 1 2 3 4 5 6 
#
# 1 0.014562 -0.002211 -0.005560 0.000000 0.000000 0.000000
# 2 -0.002211 0.012041 -0.002509 0.000000 0.000000 0.000000
# 3 -0.005560 -0.002509 0.015779 0.000000 0.000000 0.000000
# 4 0.000000 0.000000 0.000000 -0.003958 0.000000 0.000000
# 5 0.000000 0.000000 0.000000 0.000000 0.036878 0.000000
# 6 0.000000 0.000000 0.000000 0.000000 0.000000 0.060551
#
#
# Mechanical properties :
#
#
# Convention : Reuss Voigt Hill
#
# Bulk Modulus (GPa) = 45.82277 45.86641 45.84459
# Shear Modulus (GPa) = 30.54629 -30.00440 0.27095
#
# Velocity S-wave (km/s) = 4.03346 -3.99752 0.37988
# Velocity P-wave (km/s) = 6.78946 1.76672 4.96075
#
# Compressibility (1/GPa) = 0.02182321
#
# Stress axis : x y z
#
# Youngs Moduli (GPa) = 68.67302 83.04845 63.37456
#
# Poissons Ratio (x) = 0.18361 0.35234
# Poissons Ratio (y) = 0.15183 0.15901
# Poissons Ratio (z) = 0.38179 0.20837
#
# Static dielectric constant tensor:
#      x y z
#    x 3.521330 0.000000 0.000000 
#    y 0.000000 3.530250 0.000000 
#    z 0.000000 0.000000 3.311610 
# 
# 
# High freq. dielectric constant tensor:
#      x y z
#    x 1.726050 0.000000 0.000000 
#    y 0.000000 1.733870 0.000000 
#    z 0.000000 0.000000 1.720240 
# 
# From -- ./inp_files/15307.got.cif
#   From: 2010.03.12/outbox.cif.g09.slc.cpg/sg62_8_cif.got.tgz:15307.got - 2010.04.10 19:12:36.
