data_PCOD8251844
_publ_section_title
;
Structure prediction by ZEFSAII (Michael W. Deem and Ramdas Pophale) SiO2 
 PCOD8251844
Probable space group: P N M A
;
_chemical_formula_sum "Si O2"
_cell_formula_units_Z 56
_cell_length_a 16.943810
_cell_length_b 19.339827
_cell_length_c 9.196578
_cell_angle_alpha 90.000000
_cell_angle_beta 90.000000
_cell_angle_gamma 90.000000
_cell_volume 3013.629902
_symmetry_space_group_name_H-M "P N M A"
_symmetry_group_IT_number 62
_symmetry_cell_setting 'orthorhombic'
loop_
_space_group_symop_operation_xyz
x,y,z
1/2-x,-y,1/2+z
1/2+x,1/2-y,1/2-z
-x,1/2+y,-z
-x,-y,-z
1/2+x,y,1/2-z
1/2-x,1/2+y,1/2+z
x,1/2-y,z
loop_
_atom_site_type_symbol
_atom_site_label
_atom_site_fract_x
_atom_site_fract_y
_atom_site_fract_z
Si Si1 0.836723 0.531237 0.647169
Si Si2 0.845714 0.172842 0.778089
Si Si3 0.007659 0.089503 0.249183
Si Si4 0.064150 0.902664 0.450739
Si Si5 0.767455 0.553930 0.346742
Si Si6 0.494976 0.330076 0.532999
Si Si7 0.939042 0.943477 0.231983
O O1 0.900878 0.587655 0.698940
O O2 0.881370 0.468879 0.569136
O O3 0.777009 0.557981 0.521775
O O4 0.789877 0.507894 0.792590
O O5 0.813433 0.250000 0.781316
O O6 0.892033 0.161448 0.625784
O O7 0.769387 0.125979 0.795605
O O8 0.906714 0.157497 0.908411
O O9 0.949320 0.110813 0.380025
O O10 0.981956 0.014870 0.182301
O O11 0.996857 0.151425 0.136269
O O12 0.978735 0.916970 0.380579
O O13 0.848192 0.542863 0.261086
O O14 0.520970 0.250000 0.556788
O O15 0.554010 0.383594 0.611329
#
# Coordination Sequence:
#
# PCOD8251844 Si02
#       7
#     8   8   8   8   8   8   8
#     4  10  21  33  51  87 116 135 179 224 287 331
#     4   9  21  38  53  76 109 148 187 220 276 345
#     4  11  19  36  59  85 111 140 186 244 276 318
#     4   9  17  36  57  78 106 139 183 237 267 323
#     4  11  21  33  57  84 114 145 174 228 286 335
#     4  10  23  38  55  80 111 151 192 227 272 333
#     4  10  19  35  59  82 110 144 186 229 279 330
#
# _framework density 18.582242999999998
#
# number of rings (size 3 to 8) (size 9 to 14) (size 15 to 20)
#    0.000    2.000    2.857    2.143    4.000    1.143 
#    0.000    0.714    0.000    0.000    0.000    0.000 
#    0.000    0.000    0.000    0.000    0.000    0.000 
#
# Total GULP energy -694326.572661 kJ/mol
# GULP energy per Si atom -12398.688798 kJ/mol
# Density = 1.853995 g / cm^3
# Si number density = 18.582243 Si / 1000 Ang^3
#
#
#
# Elastic Constant Matrix: (Units=GPa)
#
#
# Indices 1 2 3 4 5 6 
#
# 1 79.6039 22.0045 28.3187 0.0000 0.0000 0.0000
# 2 22.0045 64.8895 36.8137 0.0000 0.0000 0.0000
# 3 28.3187 36.8137 103.3386 0.0000 0.0000 0.0000
# 4 0.0000 0.0000 0.0000 20.8501 0.0000 0.0000
# 5 0.0000 0.0000 0.0000 0.0000 14.6490 0.0000
# 6 0.0000 0.0000 0.0000 0.0000 0.0000 16.1829
#
#
#
# Elastic Compliance Matrix: (Units=1/GPa)
#
#
# Indices 1 2 3 4 5 6 
#
# 1 0.014472 -0.003331 -0.002779 0.000000 0.000000 0.000000
# 2 -0.003331 0.020081 -0.006241 0.000000 0.000000 0.000000
# 3 -0.002779 -0.006241 0.012662 0.000000 0.000000 0.000000
# 4 0.000000 0.000000 0.000000 0.047961 0.000000 0.000000
# 5 0.000000 0.000000 0.000000 0.000000 0.068264 0.000000
# 6 0.000000 0.000000 0.000000 0.000000 0.000000 0.061794
#
#
# Mechanical properties :
#
#
# Convention : Reuss Voigt Hill
#
# Bulk Modulus (GPa) = 44.41951 46.90062 45.66007
# Shear Modulus (GPa) = 19.42204 21.04940 20.23572
#
# Velocity S-wave (km/s) = 3.23645 3.36932 3.30355
# Velocity P-wave (km/s) = 6.15811 6.35851 6.25911
#
# Compressibility (1/GPa) = 0.02251263
#
# Stress axis : x y z
#
# Youngs Moduli (GPa) = 69.10099 49.79840 78.97737
#
# Poissons Ratio (x) = 0.16586 0.21950
# Poissons Ratio (y) = 0.23015 0.49290
# Poissons Ratio (z) = 0.19205 0.31079
#
# Static dielectric constant tensor:
#      x y z
#    x 3.391620 0.000000 0.000000 
#    y 0.000000 3.251500 0.000000 
#    z 0.000000 0.000000 3.474340 
# 
# 
# High freq. dielectric constant tensor:
#      x y z
#    x 1.718810 0.000000 0.000000 
#    y 0.000000 1.696180 0.000000 
#    z 0.000000 0.000000 1.722060 
# 
# From -- ./inp_files/8024.got.cif
#   From: 2010.03.12/outbox.cif.g09.slc.cpg/sg62_5_cif.got.tgz:8024.got - 2010.04.10 19:12:36.
