data_PCOD8251704
_publ_section_title
;
Structure prediction by ZEFSAII (Michael W. Deem and Ramdas Pophale) SiO2 
 PCOD8251704
Probable space group: P N M A
;
_chemical_formula_sum "Si O2"
_cell_formula_units_Z 64
_cell_length_a 11.546002
_cell_length_b 8.901856
_cell_length_c 32.965386
_cell_angle_alpha 90.000000
_cell_angle_beta 90.000000
_cell_angle_gamma 90.000000
_cell_volume 3388.210301
_symmetry_space_group_name_H-M "P N M A"
_symmetry_group_IT_number 62
_symmetry_cell_setting 'orthorhombic'
loop_
_space_group_symop_operation_xyz
x,y,z
1/2-x,-y,1/2+z
1/2+x,1/2-y,1/2-z
-x,1/2+y,-z
-x,-y,-z
1/2+x,y,1/2-z
1/2-x,1/2+y,1/2+z
x,1/2-y,z
loop_
_atom_site_type_symbol
_atom_site_label
_atom_site_fract_x
_atom_site_fract_y
_atom_site_fract_z
Si Si1 0.096872 0.927617 0.712335
Si Si2 0.821889 0.576015 0.830616
Si Si3 0.284123 0.575605 0.371131
Si Si4 0.419924 0.425098 0.443660
Si Si5 0.983589 0.075678 0.638801
Si Si6 0.653270 0.924780 0.466656
Si Si7 0.931261 0.428031 0.194727
Si Si8 0.682221 0.924976 0.909533
O O1 0.087571 0.750000 0.704849
O O2 0.224716 0.987961 0.700127
O O3 0.072930 0.973156 0.758272
O O4 0.002773 0.004692 0.683218
O O5 0.835690 0.750000 0.821075
O O6 0.782060 0.545094 0.876331
O O7 0.947924 0.505045 0.822812
O O8 0.315804 0.750000 0.374205
O O9 0.342985 0.487736 0.407686
O O10 0.327692 0.510547 0.328345
O O11 0.147762 0.548177 0.374182
O O12 0.442611 0.250000 0.436449
O O13 0.352552 0.456477 0.485469
O O14 0.543982 0.504146 0.443784
O O15 0.015621 0.250000 0.640752
O O16 0.062208 0.997940 0.604532
O O17 0.654991 0.750000 0.456544
O O18 0.772114 0.999856 0.450891
O O19 0.917443 0.250000 0.188624
O O20 0.659867 0.750000 0.916701
#
# Coordination Sequence:
#
# PCOD8251704 Si02
#       8
#     8   8   8   8   8   8   8   8
#     4   9  19  34  55  80 106 140 183 230 279 337
#     4   8  16  31  48  76 108 132 172 223 268 319
#     4  11  24  39  55  79 113 150 189 235 288 342
#     4  10  21  37  58  86 118 153 190 230 276 334
#     4  10  22  39  56  76 110 151 188 235 289 340
#     4  10  20  35  59  89 120 149 182 229 285 336
#     4  10  20  33  56  81 106 142 181 229 282 339
#     4  10  19  34  58  83 110 146 190 234 276 335
#
# _framework density 18.889026999999999
#
# number of rings (size 3 to 8) (size 9 to 14) (size 15 to 20)
#    0.000    2.250    0.000    3.375    1.750    5.000 
#    0.000    3.125    0.000    0.000    0.000    0.000 
#    0.000    0.000    0.000    0.000    0.000    0.000 
#
# Total GULP energy -793709.334589 kJ/mol
# GULP energy per Si atom -12401.708353 kJ/mol
# Density = 1.884604 g / cm^3
# Si number density = 18.889027 Si / 1000 Ang^3
#
#
#
# Elastic Constant Matrix: (Units=GPa)
#
#
# Indices 1 2 3 4 5 6 
#
# 1 63.6896 31.7670 27.9534 0.0000 0.0000 0.0000
# 2 31.7670 75.1480 37.1066 0.0000 0.0000 0.0000
# 3 27.9534 37.1066 80.5253 0.0000 0.0000 0.0000
# 4 0.0000 0.0000 0.0000 29.4426 0.0000 0.0000
# 5 0.0000 0.0000 0.0000 0.0000 24.2714 0.0000
# 6 0.0000 0.0000 0.0000 0.0000 0.0000 29.4692
#
#
#
# Elastic Compliance Matrix: (Units=1/GPa)
#
#
# Indices 1 2 3 4 5 6 
#
# 1 0.020902 -0.006800 -0.004122 0.000000 0.000000 0.000000
# 2 -0.006800 0.019439 -0.006597 0.000000 0.000000 0.000000
# 3 -0.004122 -0.006597 0.016889 0.000000 0.000000 0.000000
# 4 0.000000 0.000000 0.000000 0.033964 0.000000 0.000000
# 5 0.000000 0.000000 0.000000 0.000000 0.041201 0.000000
# 6 0.000000 0.000000 0.000000 0.000000 0.000000 0.033934
#
#
# Mechanical properties :
#
#
# Convention : Reuss Voigt Hill
#
# Bulk Modulus (GPa) = 45.06242 45.89077 45.47659
# Shear Modulus (GPa) = 23.95017 24.80570 24.37794
#
# Velocity S-wave (km/s) = 3.56468 3.62779 3.59637
# Velocity P-wave (km/s) = 6.39146 6.47267 6.43219
#
# Compressibility (1/GPa) = 0.02219144
#
# Stress axis : x y z
#
# Youngs Moduli (GPa) = 47.84146 51.44220 59.20865
#
# Poissons Ratio (x) = 0.34983 0.24408
# Poissons Ratio (y) = 0.32534 0.39060
# Poissons Ratio (z) = 0.19722 0.33937
#
# Static dielectric constant tensor:
#      x y z
#    x 3.517950 0.000000 0.000000 
#    y 0.000000 3.415660 0.000000 
#    z 0.000000 0.000000 3.470430 
# 
# 
# High freq. dielectric constant tensor:
#      x y z
#    x 1.734210 0.000000 0.000000 
#    y 0.000000 1.728820 0.000000 
#    z 0.000000 0.000000 1.734840 
# 
# From -- ./inp_files/32572.got.cif
#   From: 2010.03.12/outbox.cif.g09.slc.cpg/sg62_17_cif.got.tgz:32572.got - 2010.04.10 19:12:36.
