data_PCOD8251942
_publ_section_title
;
Structure prediction by ZEFSAII (Michael W. Deem and Ramdas Pophale) SiO2 
 PCOD8251942
Probable space group: P N M A
;
_chemical_formula_sum "Si O2"
_cell_formula_units_Z 56
_cell_length_a 14.883333
_cell_length_b 9.558966
_cell_length_c 20.771305
_cell_angle_alpha 90.000000
_cell_angle_beta 90.000000
_cell_angle_gamma 90.000000
_cell_volume 2955.118485
_symmetry_space_group_name_H-M "P N M A"
_symmetry_group_IT_number 62
_symmetry_cell_setting 'orthorhombic'
loop_
_space_group_symop_operation_xyz
x,y,z
1/2-x,-y,1/2+z
1/2+x,1/2-y,1/2-z
-x,1/2+y,-z
-x,-y,-z
1/2+x,y,1/2-z
1/2-x,1/2+y,1/2+z
x,1/2-y,z
loop_
_atom_site_type_symbol
_atom_site_label
_atom_site_fract_x
_atom_site_fract_y
_atom_site_fract_z
Si Si1 0.477229 0.409268 0.747685
Si Si2 0.084183 0.407604 0.358768
Si Si3 0.438652 0.405713 0.043410
Si Si4 0.263462 0.588538 0.542469
Si Si5 0.680521 0.084389 0.732971
Si Si6 0.737573 0.912938 0.099145
Si Si7 0.681126 0.591012 0.342644
O O1 0.478646 0.250000 0.774391
O O2 0.417959 0.507295 0.792936
O O3 0.578356 0.468705 0.742051
O O4 0.422169 0.414323 0.681093
O O5 0.120890 0.250000 0.347540
O O6 0.148372 0.492462 0.407842
O O7 0.983442 0.402215 0.386283
O O8 0.434444 0.250000 0.012967
O O9 0.338798 0.464651 0.050604
O O10 0.500000 0.500000 0.000000
O O11 0.273918 0.750000 0.562449
O O12 0.293362 0.566055 0.467613
O O13 0.321245 0.497106 0.591632
O O14 0.683064 0.250000 0.732188
O O15 0.709634 0.031156 0.661960
O O16 0.747655 0.030078 0.789343
O O17 0.710680 0.750000 0.106462
O O18 0.708869 0.750000 0.358642
#
# Coordination Sequence:
#
# PCOD8251942 Si02
#       7
#     8   8   8   8   8   8   8
#     4  10  20  36  58  80 105 140 185 230 273 322
#     4  11  21  32  51  81 112 140 175 224 276 326
#     4  10  20  32  48  75 108 141 177 214 266 327
#     4  10  21  35  53  77 110 149 179 220 273 324
#     4   9  18  35  59  83 103 137 190 233 264 316
#     4  10  19  36  58  78 107 146 188 221 266 329
#     4  10  20  35  56  81 108 141 181 227 273 323
#
# _framework density 18.950171999999998
#
# number of rings (size 3 to 8) (size 9 to 14) (size 15 to 20)
#    0.000    2.000    2.857    1.286    0.000    2.286 
#    0.000    1.429    0.000    0.000    0.000    0.000 
#    0.000    0.000    0.000    0.000    0.000    0.000 
#
# Total GULP energy -694115.982779 kJ/mol
# GULP energy per Si atom -12394.928264 kJ/mol
# Density = 1.890704 g / cm^3
# Si number density = 18.950172 Si / 1000 Ang^3
#
#
#
# Elastic Constant Matrix: (Units=GPa)
#
#
# Indices 1 2 3 4 5 6 
#
# 1 57.7868 12.0404 13.2925 0.0000 0.0000 0.0000
# 2 12.0404 65.2974 34.1996 0.0000 0.0000 0.0000
# 3 13.2925 34.1996 103.0594 0.0000 0.0000 0.0000
# 4 0.0000 0.0000 0.0000 32.6613 0.0000 0.0000
# 5 0.0000 0.0000 0.0000 0.0000 28.2877 0.0000
# 6 0.0000 0.0000 0.0000 0.0000 0.0000 18.0722
#
#
#
# Elastic Compliance Matrix: (Units=1/GPa)
#
#
# Indices 1 2 3 4 5 6 
#
# 1 0.018184 -0.002572 -0.001492 0.000000 0.000000 0.000000
# 2 -0.002572 0.018900 -0.005940 0.000000 0.000000 0.000000
# 3 -0.001492 -0.005940 0.011867 0.000000 0.000000 0.000000
# 4 0.000000 0.000000 0.000000 0.030617 0.000000 0.000000
# 5 0.000000 0.000000 0.000000 0.000000 0.035351 0.000000
# 6 0.000000 0.000000 0.000000 0.000000 0.000000 0.055333
#
#
# Mechanical properties :
#
#
# Convention : Reuss Voigt Hill
#
# Bulk Modulus (GPa) = 34.55036 38.35650 36.45343
# Shear Modulus (GPa) = 25.01158 26.91168 25.96163
#
# Velocity S-wave (km/s) = 3.63693 3.77255 3.70536
# Velocity P-wave (km/s) = 5.99234 6.26584 6.13062
#
# Compressibility (1/GPa) = 0.02894326
#
# Stress axis : x y z
#
# Youngs Moduli (GPa) = 54.99339 52.91047 84.26897
#
# Poissons Ratio (x) = 0.13606 0.12573
# Poissons Ratio (y) = 0.14142 0.50057
# Poissons Ratio (z) = 0.08205 0.31429
#
# Static dielectric constant tensor:
#      x y z
#    x 3.485710 0.000000 0.000000 
#    y 0.000000 3.485820 0.000000 
#    z 0.000000 0.000000 3.474900 
# 
# 
# High freq. dielectric constant tensor:
#      x y z
#    x 1.718180 0.000000 0.000000 
#    y 0.000000 1.717720 0.000000 
#    z 0.000000 0.000000 1.735220 
# 
# From -- ./inp_files/27070.got.cif
#   From: 2010.03.12/outbox.cif.g09.slc.cpg/sg62_14_cif.got.tgz:27070.got - 2010.04.10 19:12:36.
