data_PCOD8251523
_publ_section_title
;
Structure prediction by ZEFSAII (Michael W. Deem and Ramdas Pophale) SiO2 
 PCOD8251523
Probable space group: P N M A
;
_chemical_formula_sum "Si O2"
_cell_formula_units_Z 56
_cell_length_a 9.589770
_cell_length_b 17.956843
_cell_length_c 17.803268
_cell_angle_alpha 90.000000
_cell_angle_beta 90.000000
_cell_angle_gamma 90.000000
_cell_volume 3065.758255
_symmetry_space_group_name_H-M "P N M A"
_symmetry_group_IT_number 62
_symmetry_cell_setting 'orthorhombic'
loop_
_space_group_symop_operation_xyz
x,y,z
1/2-x,-y,1/2+z
1/2+x,1/2-y,1/2-z
-x,1/2+y,-z
-x,-y,-z
1/2+x,y,1/2-z
1/2-x,1/2+y,1/2+z
x,1/2-y,z
loop_
_atom_site_type_symbol
_atom_site_label
_atom_site_fract_x
_atom_site_fract_y
_atom_site_fract_z
Si Si1 0.647271 0.023156 0.378395
Si Si2 0.976288 0.664027 0.315445
Si Si3 0.806848 0.662721 0.965823
Si Si4 0.501580 0.332268 0.986323
Si Si5 0.726368 0.917756 0.256041
Si Si6 0.154197 0.031124 0.494834
Si Si7 0.641670 0.056396 0.599149
O O1 0.642590 0.113053 0.393641
O O2 0.688879 0.998736 0.293258
O O3 0.764982 0.987517 0.429938
O O4 0.501691 0.988245 0.403663
O O5 0.970443 0.750000 0.292309
O O6 0.080623 0.623072 0.258406
O O7 0.035434 0.652155 0.399197
O O8 0.820147 0.630645 0.313105
O O9 0.851245 0.750000 0.958150
O O10 0.639934 0.654033 0.967573
O O11 0.869859 0.627419 0.042745
O O12 0.558152 0.250000 0.997850
O O13 0.631619 0.380721 0.015597
O O14 0.823101 0.920712 0.183116
O O15 0.234146 0.999040 0.423627
O O16 0.000000 0.000000 0.500000
#
# Coordination Sequence:
#
# PCOD8251523 Si02
#       7
#     8   8   8   8   8   8   8
#     4  11  23  38  56  86 119 149 201 236 284 346
#     4  11  22  36  54  84 122 153 186 234 291 351
#     4  10  20  37  61  83 113 153 190 239 291 343
#     4  10  19  33  56  87 112 140 187 233 281 342
#     4  12  22  37  57  84 115 160 191 232 288 345
#     4  11  18  35  59  81 109 150 189 232 275 336
#     4  11  23  37  57  87 116 147 195 241 285 345
#
# _framework density 18.266279999999998
#
# number of rings (size 3 to 8) (size 9 to 14) (size 15 to 20)
#    0.000    1.143    7.143    2.143    0.000    0.571 
#    0.000    2.857    0.000    1.714    0.000    0.000 
#    0.000    0.000    0.000    0.000    0.000    0.000 
#
# Total GULP energy -694050.234994 kJ/mol
# GULP energy per Si atom -12393.754196 kJ/mol
# Density = 1.822471 g / cm^3
# Si number density = 18.266280 Si / 1000 Ang^3
#
#
#
# Elastic Constant Matrix: (Units=GPa)
#
#
# Indices 1 2 3 4 5 6 
#
# 1 94.4722 42.1793 10.0568 0.0000 0.0000 0.0000
# 2 42.1793 153.3397 41.3509 0.0000 0.0000 0.0000
# 3 10.0568 41.3509 54.0045 0.0000 0.0000 0.0000
# 4 0.0000 0.0000 0.0000 25.2328 0.0000 0.0000
# 5 0.0000 0.0000 0.0000 0.0000 25.0635 0.0000
# 6 0.0000 0.0000 0.0000 0.0000 0.0000 31.4720
#
#
#
# Elastic Compliance Matrix: (Units=1/GPa)
#
#
# Indices 1 2 3 4 5 6 
#
# 1 0.012073 -0.003421 0.000371 0.000000 0.000000 0.000000
# 2 -0.003421 0.009188 -0.006398 0.000000 0.000000 0.000000
# 3 0.000371 -0.006398 0.023347 0.000000 0.000000 0.000000
# 4 0.000000 0.000000 0.000000 0.039631 0.000000 0.000000
# 5 0.000000 0.000000 0.000000 0.000000 0.039899 0.000000
# 6 0.000000 0.000000 0.000000 0.000000 0.000000 0.031774
#
#
# Mechanical properties :
#
#
# Convention : Reuss Voigt Hill
#
# Bulk Modulus (GPa) = 38.89240 54.33226 46.61233
# Shear Modulus (GPa) = 27.26610 30.23561 28.75086
#
# Velocity S-wave (km/s) = 3.86774 4.07291 3.97165
# Velocity P-wave (km/s) = 6.42526 7.20606 6.82683
#
# Compressibility (1/GPa) = 0.02571196
#
# Stress axis : x y z
#
# Youngs Moduli (GPa) = 82.82941 108.83951 42.83247
#
# Poissons Ratio (x) = 0.37234 -0.01590
# Poissons Ratio (y) = 0.28336 0.27404
# Poissons Ratio (z) = -0.03075 0.69636
#
# Static dielectric constant tensor:
#      x y z
#    x 3.987000 0.000000 0.000000 
#    y 0.000000 4.574430 0.000000 
#    z 0.000000 0.000000 3.294820 
# 
# 
# High freq. dielectric constant tensor:
#      x y z
#    x 1.716650 0.000000 0.000000 
#    y 0.000000 1.707130 0.000000 
#    z 0.000000 0.000000 1.684220 
# 
# From -- ./inp_files/26117.got.cif
#   From: 2010.03.12/outbox.cif.g09.slc.cpg/sg62_14_cif.got.tgz:26117.got - 2010.04.10 19:12:36.
