data_PCOD8251897
_publ_section_title
;
Structure prediction by ZEFSAII (Michael W. Deem and Ramdas Pophale) SiO2 
 PCOD8251897
Probable space group: P N M A
;
_chemical_formula_sum "Si O2"
_cell_formula_units_Z 64
_cell_length_a 24.076542
_cell_length_b 8.424743
_cell_length_c 15.550570
_cell_angle_alpha 90.000000
_cell_angle_beta 90.000000
_cell_angle_gamma 90.000000
_cell_volume 3154.257072
_symmetry_space_group_name_H-M "P N M A"
_symmetry_group_IT_number 62
_symmetry_cell_setting 'orthorhombic'
loop_
_space_group_symop_operation_xyz
x,y,z
1/2-x,-y,1/2+z
1/2+x,1/2-y,1/2-z
-x,1/2+y,-z
-x,-y,-z
1/2+x,y,1/2-z
1/2-x,1/2+y,1/2+z
x,1/2-y,z
loop_
_atom_site_type_symbol
_atom_site_label
_atom_site_fract_x
_atom_site_fract_y
_atom_site_fract_z
Si Si1 0.251908 0.065513 0.414538
Si Si2 0.061700 0.060994 0.508347
Si Si3 0.866788 0.937026 0.649890
Si Si4 0.366382 0.560315 0.661508
Si Si5 0.637771 0.063500 0.654048
Si Si6 0.368076 0.061629 0.164248
Si Si7 0.561859 0.437621 0.496779
Si Si8 0.250468 0.434758 0.100558
O O1 0.249900 0.250000 0.439613
O O2 0.197064 0.013626 0.363165
O O3 0.304231 0.029160 0.354465
O O4 0.255433 0.961732 0.499626
O O5 0.064291 0.250000 0.513298
O O6 0.095158 0.992064 0.425849
O O7 0.087211 0.987516 0.593881
O O8 0.000000 0.000000 0.500000
O O9 0.873097 0.750000 0.647580
O O10 0.886163 0.998961 0.744121
O O11 0.364582 0.750000 0.656243
O O12 0.408028 0.493695 0.588738
O O13 0.304153 0.492418 0.645856
O O14 0.648211 0.250000 0.645749
O O15 0.595250 0.003686 0.580743
O O16 0.612737 0.017971 0.746508
O O17 0.367556 0.250000 0.174084
O O18 0.307571 0.991005 0.137368
O O19 0.500000 0.500000 0.500000
O O20 0.560511 0.250000 0.493596
O O21 0.252943 0.250000 0.119389
#
# Coordination Sequence:
#
# PCOD8251897 Si02
#       8
#     8   8   8   8   8   8   8   8
#     4  11  20  34  59  91 122 154 195 243 296 359
#     4  11  23  41  61  87 121 160 205 256 303 357
#     4   9  19  35  59  87 117 152 194 241 295 351
#     4   9  17  35  59  83 112 151 191 233 289 352
#     4  11  23  40  60  88 124 161 198 244 303 362
#     4  11  23  39  63  92 119 158 204 250 304 362
#     4  10  22  39  60  83 113 154 199 246 295 345
#     4  10  19  35  60  87 120 154 192 240 297 360
#
# _framework density 20.290040000000001
#
# number of rings (size 3 to 8) (size 9 to 14) (size 15 to 20)
#    0.000    1.750    2.500    2.250    0.000    4.500 
#    0.000    1.250    0.000    3.750    0.000    0.000 
#    0.000    0.000    0.000    0.000    0.000    0.000 
#
# Total GULP energy -793639.297973 kJ/mol
# GULP energy per Si atom -12400.614031 kJ/mol
# Density = 2.024386 g / cm^3
# Si number density = 20.290040 Si / 1000 Ang^3
#
#
#
# Elastic Constant Matrix: (Units=GPa)
#
#
# Indices 1 2 3 4 5 6 
#
# 1 159.2681 20.2887 77.3010 0.0000 0.0000 0.0000
# 2 20.2887 29.3546 12.0836 0.0000 0.0000 0.0000
# 3 77.3010 12.0836 183.4188 0.0000 0.0000 0.0000
# 4 0.0000 0.0000 0.0000 24.2271 0.0000 0.0000
# 5 0.0000 0.0000 0.0000 0.0000 17.9003 0.0000
# 6 0.0000 0.0000 0.0000 0.0000 0.0000 28.7687
#
#
#
# Elastic Compliance Matrix: (Units=1/GPa)
#
#
# Indices 1 2 3 4 5 6 
#
# 1 0.008431 -0.004486 -0.003258 0.000000 0.000000 0.000000
# 2 -0.004486 0.037403 -0.000573 0.000000 0.000000 0.000000
# 3 -0.003258 -0.000573 0.006863 0.000000 0.000000 0.000000
# 4 0.000000 0.000000 0.000000 0.041276 0.000000 0.000000
# 5 0.000000 0.000000 0.000000 0.000000 0.055865 0.000000
# 6 0.000000 0.000000 0.000000 0.000000 0.000000 0.034760
#
#
# Mechanical properties :
#
#
# Convention : Reuss Voigt Hill
#
# Bulk Modulus (GPa) = 27.72990 65.70980 46.71985
# Shear Modulus (GPa) = 23.44622 31.67044 27.55833
#
# Velocity S-wave (km/s) = 3.40303 3.95509 3.68940
# Velocity P-wave (km/s) = 5.39789 7.30154 6.42066
#
# Compressibility (1/GPa) = 0.03606216
#
# Stress axis : x y z
#
# Youngs Moduli (GPa) = 118.60401 26.73576 145.71383
#
# Poissons Ratio (x) = 0.11995 0.47471
# Poissons Ratio (y) = 0.53211 0.08354
# Poissons Ratio (z) = 0.38639 0.01533
#
# Static dielectric constant tensor:
#      x y z
#    x 4.110160 0.000000 0.000000 
#    y 0.000000 3.370560 0.000000 
#    z 0.000000 0.000000 4.088130 
# 
# 
# High freq. dielectric constant tensor:
#      x y z
#    x 1.792810 0.000000 0.000000 
#    y 0.000000 1.763450 0.000000 
#    z 0.000000 0.000000 1.810210 
# 
# From -- ./inp_files/20867.got.cif
#   From: 2010.03.12/outbox.cif.g09.slc.cpg/sg62_11_cif.got.tgz:20867.got - 2010.04.10 19:12:36.
