data_PCOD8251399
_publ_section_title
;
Structure prediction by ZEFSAII (Michael W. Deem and Ramdas Pophale) SiO2 
 PCOD8251399
Probable space group: P N M A
;
_chemical_formula_sum "Si O2"
_cell_formula_units_Z 64
_cell_length_a 23.881681
_cell_length_b 9.214057
_cell_length_c 15.384962
_cell_angle_alpha 90.000000
_cell_angle_beta 90.000000
_cell_angle_gamma 90.000000
_cell_volume 3385.417349
_symmetry_space_group_name_H-M "P N M A"
_symmetry_group_IT_number 62
_symmetry_cell_setting 'orthorhombic'
loop_
_space_group_symop_operation_xyz
x,y,z
1/2-x,-y,1/2+z
1/2+x,1/2-y,1/2-z
-x,1/2+y,-z
-x,-y,-z
1/2+x,y,1/2-z
1/2-x,1/2+y,1/2+z
x,1/2-y,z
loop_
_atom_site_type_symbol
_atom_site_label
_atom_site_fract_x
_atom_site_fract_y
_atom_site_fract_z
Si Si1 0.686723 0.077863 0.495810
Si Si2 0.381664 0.419177 0.165107
Si Si3 0.500775 0.582102 0.410517
Si Si4 0.122133 0.584304 0.150984
Si Si5 0.502768 0.420752 0.091707
Si Si6 0.608795 0.919045 0.154288
Si Si7 0.812909 0.077832 0.499668
Si Si8 0.116457 0.420453 0.837948
O O1 0.685129 0.250000 0.488605
O O2 0.749821 0.017568 0.503876
O O3 0.652337 0.024108 0.579704
O O4 0.660122 0.017351 0.407812
O O5 0.371122 0.250000 0.179501
O O6 0.446054 0.452267 0.143882
O O7 0.343374 0.479973 0.086826
O O8 0.361937 0.500778 0.251743
O O9 0.500000 0.500000 0.500000
O O10 0.495594 0.750000 0.433855
O O11 0.556814 0.544152 0.358546
O O12 0.448050 0.534468 0.352359
O O13 0.132919 0.750000 0.122802
O O14 0.137354 0.559019 0.251738
O O15 0.511504 0.250000 0.076167
O O16 0.552842 0.486059 0.148521
O O17 0.500000 0.500000 0.000000
O O18 0.593083 0.750000 0.138955
O O19 0.653107 0.977172 0.083682
O O20 0.812559 0.250000 0.499960
O O21 0.124377 0.250000 0.824526
#
# Coordination Sequence:
#
# PCOD8251399 Si02
#       8
#     8   8   8   8   8   8   8   8
#     4  10  21  38  59  79 108 149 191 233 275 328
#     4  10  21  37  57  82 111 148 184 219 276 337
#     4  10  19  33  53  81 112 142 177 220 277 332
#     4  10  21  35  57  85 113 146 183 229 284 332
#     4  11  21  35  58  87 115 147 186 227 278 337
#     4  10  20  38  60  82 114 150 184 228 282 340
#     4   9  19  38  59  79 108 149 189 226 279 334
#     4  10  21  36  56  85 112 141 185 232 277 324
#
# _framework density 18.904613000000001
#
# number of rings (size 3 to 8) (size 9 to 14) (size 15 to 20)
#    0.000    2.000    2.500    1.125    0.000    4.500 
#    0.000    2.500    0.000    0.000    0.000    0.000 
#    0.000    0.000    0.000    0.000    0.000    0.000 
#
# Total GULP energy -793764.053316 kJ/mol
# GULP energy per Si atom -12402.563333 kJ/mol
# Density = 1.886158 g / cm^3
# Si number density = 18.904613 Si / 1000 Ang^3
#
#
#
# Elastic Constant Matrix: (Units=GPa)
#
#
# Indices 1 2 3 4 5 6 
#
# 1 134.5068 33.9301 58.7304 0.0000 0.0000 0.0000
# 2 33.9301 43.5341 40.0762 0.0000 0.0000 0.0000
# 3 58.7304 40.0762 147.4523 0.0000 0.0000 0.0000
# 4 0.0000 0.0000 0.0000 33.8000 0.0000 0.0000
# 5 0.0000 0.0000 0.0000 0.0000 13.8900 0.0000
# 6 0.0000 0.0000 0.0000 0.0000 0.0000 22.9388
#
#
#
# Elastic Compliance Matrix: (Units=1/GPa)
#
#
# Indices 1 2 3 4 5 6 
#
# 1 0.009879 -0.005438 -0.002457 0.000000 0.000000 0.000000
# 2 -0.005438 0.033629 -0.006974 0.000000 0.000000 0.000000
# 3 -0.002457 -0.006974 0.009656 0.000000 0.000000 0.000000
# 4 0.000000 0.000000 0.000000 0.029586 0.000000 0.000000
# 5 0.000000 0.000000 0.000000 0.000000 0.071994 0.000000
# 6 0.000000 0.000000 0.000000 0.000000 0.000000 0.043594
#
#
# Mechanical properties :
#
#
# Convention : Reuss Voigt Hill
#
# Bulk Modulus (GPa) = 42.68739 65.66294 54.17517
# Shear Modulus (GPa) = 21.19678 26.97619 24.08649
#
# Velocity S-wave (km/s) = 3.35214 3.78162 3.57333
# Velocity P-wave (km/s) = 6.13285 7.34008 6.76345
#
# Compressibility (1/GPa) = 0.02342612
#
# Stress axis : x y z
#
# Youngs Moduli (GPa) = 101.22407 29.73628 103.56344
#
# Poissons Ratio (x) = 0.16170 0.25444
# Poissons Ratio (y) = 0.55045 0.72226
# Poissons Ratio (z) = 0.24869 0.20738
#
# Static dielectric constant tensor:
#      x y z
#    x 3.630680 0.000000 0.000000 
#    y 0.000000 3.281210 0.000000 
#    z 0.000000 0.000000 3.296930 
# 
# 
# High freq. dielectric constant tensor:
#      x y z
#    x 1.735000 0.000000 0.000000 
#    y 0.000000 1.713410 0.000000 
#    z 0.000000 0.000000 1.746120 
# 
# From -- ./inp_files/20753.got.cif
#   From: 2010.03.12/outbox.cif.g09.slc.cpg/sg62_11_cif.got.tgz:20753.got - 2010.04.10 19:12:36.
