data_PCOD8251478
_publ_section_title
;
Structure prediction by ZEFSAII (Michael W. Deem and Ramdas Pophale) SiO2 
 PCOD8251478
Probable space group: P N M A
;
_chemical_formula_sum "Si O2"
_cell_formula_units_Z 56
_cell_length_a 20.712167
_cell_length_b 9.476887
_cell_length_c 14.930517
_cell_angle_alpha 90.000000
_cell_angle_beta 90.000000
_cell_angle_gamma 90.000000
_cell_volume 2930.664392
_symmetry_space_group_name_H-M "P N M A"
_symmetry_group_IT_number 62
_symmetry_cell_setting 'orthorhombic'
loop_
_space_group_symop_operation_xyz
x,y,z
1/2-x,-y,1/2+z
1/2+x,1/2-y,1/2-z
-x,1/2+y,-z
-x,-y,-z
1/2+x,y,1/2-z
1/2-x,1/2+y,1/2+z
x,1/2-y,z
loop_
_atom_site_type_symbol
_atom_site_label
_atom_site_fract_x
_atom_site_fract_y
_atom_site_fract_z
Si Si1 0.832743 0.412352 0.819168
Si Si2 0.690344 0.415432 0.489848
Si Si3 0.094026 0.093953 0.491097
Si Si4 0.307904 0.414069 0.882637
Si Si5 0.469019 0.405375 0.119157
Si Si6 0.448746 0.907845 0.449878
Si Si7 0.522240 0.908077 0.273839
O O1 0.822877 0.250000 0.845760
O O2 0.799165 0.444597 0.723264
O O3 0.908918 0.450127 0.816782
O O4 0.798146 0.505163 0.895684
O O5 0.691747 0.250000 0.469569
O O6 0.744260 0.456858 0.562551
O O7 0.623164 0.465658 0.533938
O O8 0.124040 0.250000 0.510231
O O9 0.021330 0.115248 0.458316
O O10 0.134121 0.010810 0.416618
O O11 0.090467 0.001328 0.582648
O O12 0.326117 0.250000 0.897366
O O13 0.442548 0.250000 0.146869
O O14 0.504297 0.477532 0.201438
O O15 0.454430 0.750000 0.488248
O O16 0.464609 0.911216 0.345175
O O17 0.500000 0.000000 0.500000
O O18 0.528030 0.750000 0.231940
#
# Coordination Sequence:
#
# PCOD8251478 Si02
#       7
#     8   8   8   8   8   8   8
#     4  10  20  36  60  84 109 148 194 237 285 343
#     4  10  22  39  59  82 113 150 188 237 291 347
#     4  10  20  34  55  82 111 147 188 233 280 334
#     4  10  21  39  59  80 114 155 192 234 289 346
#     4  10  20  33  53  82 115 147 185 232 284 335
#     4  10  20  35  56  82 112 144 183 233 290 342
#     4  10  19  33  55  82 111 146 189 234 281 340
#
# _framework density 19.108295999999999
#
# number of rings (size 3 to 8) (size 9 to 14) (size 15 to 20)
#    0.000    2.000    2.857    0.857    0.000    3.429 
#    2.571    0.000    0.000    0.000    0.000    0.000 
#    0.000    0.000    0.000    0.000    0.000    0.000 
#
# Total GULP energy -694296.236986 kJ/mol
# GULP energy per Si atom -12398.147089 kJ/mol
# Density = 1.906480 g / cm^3
# Si number density = 19.108296 Si / 1000 Ang^3
#
#
#
# Elastic Constant Matrix: (Units=GPa)
#
#
# Indices 1 2 3 4 5 6 
#
# 1 65.8748 33.1829 46.5136 0.0000 0.0000 0.0000
# 2 33.1829 98.9826 51.9608 0.0000 0.0000 0.0000
# 3 46.5136 51.9608 103.6133 0.0000 0.0000 0.0000
# 4 0.0000 0.0000 0.0000 33.7933 0.0000 0.0000
# 5 0.0000 0.0000 0.0000 0.0000 36.2317 0.0000
# 6 0.0000 0.0000 0.0000 0.0000 0.0000 22.1043
#
#
#
# Elastic Compliance Matrix: (Units=1/GPa)
#
#
# Indices 1 2 3 4 5 6 
#
# 1 0.022903 -0.003096 -0.008729 0.000000 0.000000 0.000000
# 2 -0.003096 0.014131 -0.005697 0.000000 0.000000 0.000000
# 3 -0.008729 -0.005697 0.016427 0.000000 0.000000 0.000000
# 4 0.000000 0.000000 0.000000 0.029592 0.000000 0.000000
# 5 0.000000 0.000000 0.000000 0.000000 0.027600 0.000000
# 6 0.000000 0.000000 0.000000 0.000000 0.000000 0.045240
#
#
# Mechanical properties :
#
#
# Convention : Reuss Voigt Hill
#
# Bulk Modulus (GPa) = 54.29544 59.08723 56.69134
# Shear Modulus (GPa) = 25.37091 27.54675 26.45883
#
# Velocity S-wave (km/s) = 3.64777 3.80098 3.72516
# Velocity P-wave (km/s) = 6.79838 7.08891 6.94516
#
# Compressibility (1/GPa) = 0.01841775
#
# Stress axis : x y z
#
# Youngs Moduli (GPa) = 43.66184 70.76551 60.87591
#
# Poissons Ratio (x) = 0.21907 0.53140
# Poissons Ratio (y) = 0.13516 0.34680
# Poissons Ratio (z) = 0.38113 0.40314
#
# Static dielectric constant tensor:
#      x y z
#    x 3.503140 0.000000 0.000000 
#    y 0.000000 3.700660 0.000000 
#    z 0.000000 0.000000 3.453740 
# 
# 
# High freq. dielectric constant tensor:
#      x y z
#    x 1.721780 0.000000 0.000000 
#    y 0.000000 1.749550 0.000000 
#    z 0.000000 0.000000 1.737290 
# 
# From -- ./inp_files/20281.got.cif
#   From: 2010.03.12/outbox.cif.g09.slc.cpg/sg62_11_cif.got.tgz:20281.got - 2010.04.10 19:12:36.
