data_PCOD8251699
_publ_section_title
;
Structure prediction by ZEFSAII (Michael W. Deem and Ramdas Pophale) SiO2 
 PCOD8251699
Probable space group: P N M A
;
_chemical_formula_sum "Si O2"
_cell_formula_units_Z 48
_cell_length_a 13.671392
_cell_length_b 17.148571
_cell_length_c 9.682068
_cell_angle_alpha 90.000000
_cell_angle_beta 90.000000
_cell_angle_gamma 90.000000
_cell_volume 2269.910848
_symmetry_space_group_name_H-M "P N M A"
_symmetry_group_IT_number 62
_symmetry_cell_setting 'orthorhombic'
loop_
_space_group_symop_operation_xyz
x,y,z
1/2-x,-y,1/2+z
1/2+x,1/2-y,1/2-z
-x,1/2+y,-z
-x,-y,-z
1/2+x,y,1/2-z
1/2-x,1/2+y,1/2+z
x,1/2-y,z
loop_
_atom_site_type_symbol
_atom_site_label
_atom_site_fract_x
_atom_site_fract_y
_atom_site_fract_z
Si Si1 0.599244 0.045114 0.660769
Si Si2 0.492721 0.383359 0.407151
Si Si3 0.202112 0.664518 0.011451
Si Si4 0.000001 0.583254 0.429992
Si Si5 0.877502 0.614275 0.671330
Si Si6 0.683907 0.940390 0.217525
O O1 0.548756 0.095319 0.544884
O O2 0.576924 0.086079 0.805418
O O3 0.715467 0.048623 0.635988
O O4 0.560032 0.957426 0.663848
O O5 0.405682 0.325197 0.446930
O O6 0.572539 0.343699 0.303731
O O7 0.231510 0.750000 0.071225
O O8 0.200408 0.598360 0.131517
O O9 0.272559 0.643000 0.882177
O O10 0.107992 0.610258 0.376744
O O11 0.000000 0.500000 0.500000
O O12 0.953866 0.636507 0.548989
O O13 0.868904 0.524585 0.727511
#
# Coordination Sequence:
#
# PCOD8251699 Si02
#       6
#     8   8   8   8   8   8
#     4  11  19  34  65  99 126 159 222 269 318 378
#     4  11  22  38  60  96 130 169 211 271 332 396
#     4  12  26  43  64  96 136 177 215 277 352 403
#     4  10  19  34  58 100 125 156 211 274 314 368
#     4  11  23  38  68  96 126 168 228 273 320 389
#     4  11  21  37  65  95 130 169 221 270 316 391
#
# _framework density 21.146204999999998
#
# number of rings (size 3 to 8) (size 9 to 14) (size 15 to 20)
#    0.000    1.000    8.333    1.000    0.000    2.000 
#    0.000    3.333    0.000    2.000    0.000    0.000 
#    0.000    0.000    0.000    0.000    0.000    0.000 
#
# Total GULP energy -594629.514513 kJ/mol
# GULP energy per Si atom -12388.114886 kJ/mol
# Density = 2.109808 g / cm^3
# Si number density = 21.146205 Si / 1000 Ang^3
#
#
#
# Elastic Constant Matrix: (Units=GPa)
#
#
# Indices 1 2 3 4 5 6 
#
# 1 152.7847 17.4727 37.9087 0.0000 0.0000 0.0000
# 2 17.4727 52.3293 30.2653 0.0000 0.0000 0.0000
# 3 37.9087 30.2653 102.5055 0.0000 0.0000 0.0000
# 4 0.0000 0.0000 0.0000 9.5430 0.0000 0.0000
# 5 0.0000 0.0000 0.0000 0.0000 46.6130 0.0000
# 6 0.0000 0.0000 0.0000 0.0000 0.0000 6.9617
#
#
#
# Elastic Compliance Matrix: (Units=1/GPa)
#
#
# Indices 1 2 3 4 5 6 
#
# 1 0.007254 -0.001050 -0.002373 0.000000 0.000000 0.000000
# 2 -0.001050 0.023197 -0.006461 0.000000 0.000000 0.000000
# 3 -0.002373 -0.006461 0.012541 0.000000 0.000000 0.000000
# 4 0.000000 0.000000 0.000000 0.104789 0.000000 0.000000
# 5 0.000000 0.000000 0.000000 0.000000 0.021453 0.000000
# 6 0.000000 0.000000 0.000000 0.000000 0.000000 0.143642
#
#
# Mechanical properties :
#
#
# Convention : Reuss Voigt Hill
#
# Bulk Modulus (GPa) = 43.05716 53.21254 48.13485
# Shear Modulus (GPa) = 14.68929 27.42172 21.05550
#
# Velocity S-wave (km/s) = 2.63849 3.60497 3.15891
# Velocity P-wave (km/s) = 5.44867 6.52277 6.00976
#
# Compressibility (1/GPa) = 0.02322494
#
# Stress axis : x y z
#
# Youngs Moduli (GPa) = 137.85643 43.10908 79.74079
#
# Poissons Ratio (x) = 0.04526 0.18920
# Poissons Ratio (y) = 0.14472 0.51519
# Poissons Ratio (z) = 0.32709 0.27852
#
# Static dielectric constant tensor:
#      x y z
#    x 4.462630 0.000000 0.000000 
#    y 0.000000 3.437260 0.000000 
#    z 0.000000 0.000000 4.292180 
# 
# 
# High freq. dielectric constant tensor:
#      x y z
#    x 1.854460 0.000000 0.000000 
#    y 0.000000 1.765650 0.000000 
#    z 0.000000 0.000000 1.836710 
# 
# From -- ./inp_files/6482.got.cif
#   From: 2010.03.12/outbox.cif.g09.slc.cpg/sg62_4_cif.got.tgz:6482.got - 2010.04.10 19:12:36.
