data_PCOD8251155
_publ_section_title
;
Structure prediction by ZEFSAII (Michael W. Deem and Ramdas Pophale) SiO2 
 PCOD8251155
Probable space group: P N M A
;
_chemical_formula_sum "Si O2"
_cell_formula_units_Z 48
_cell_length_a 10.700922
_cell_length_b 9.444622
_cell_length_c 24.803811
_cell_angle_alpha 90.000000
_cell_angle_beta 90.000000
_cell_angle_gamma 90.000000
_cell_volume 2506.826014
_symmetry_space_group_name_H-M "P N M A"
_symmetry_group_IT_number 62
_symmetry_cell_setting 'orthorhombic'
loop_
_space_group_symop_operation_xyz
x,y,z
1/2-x,-y,1/2+z
1/2+x,1/2-y,1/2-z
-x,1/2+y,-z
-x,-y,-z
1/2+x,y,1/2-z
1/2-x,1/2+y,1/2+z
x,1/2-y,z
loop_
_atom_site_type_symbol
_atom_site_label
_atom_site_fract_x
_atom_site_fract_y
_atom_site_fract_z
Si Si1 0.757077 0.910001 0.912598
Si Si2 0.486961 0.588017 0.945501
Si Si3 0.656939 0.082059 0.296111
Si Si4 0.124930 0.919200 0.782777
Si Si5 0.379969 0.407606 0.500482
Si Si6 0.250119 0.407367 0.388841
O O1 0.804312 0.750000 0.925861
O O2 0.607731 0.911018 0.907266
O O3 0.821763 0.965831 0.857957
O O4 0.780497 0.016019 0.961618
O O5 0.449887 0.750000 0.961876
O O6 0.378447 0.518022 0.908219
O O7 0.500000 0.500000 0.000000
O O8 0.659952 0.250000 0.292668
O O9 0.519851 0.026269 0.275429
O O10 0.776048 0.023821 0.261881
O O11 0.119097 0.750000 0.783429
O O12 0.178876 0.982346 0.839205
O O13 0.500000 0.500000 0.500000
O O14 0.404622 0.250000 0.522836
O O15 0.341344 0.401539 0.438961
O O16 0.214734 0.250000 0.368670
#
# Coordination Sequence:
#
# PCOD8251155 Si02
#       6
#     8   8   8   8   8   8
#     4  10  20  33  51  77 109 137 172 220 267 323
#     4  10  19  32  51  76 106 138 174 213 259 319
#     4   9  18  30  47  73 103 136 174 220 270 322
#     4   9  17  29  46  69 101 136 171 213 268 320
#     4  11  21  34  53  76 105 140 177 218 270 326
#     4   9  18  31  48  71 105 138 167 211 266 317
#
# _framework density 19.147718999999999
#
# number of rings (size 3 to 8) (size 9 to 14) (size 15 to 20)
#    0.000    2.333    1.667    1.500    2.333    2.667 
#    0.000    0.000    0.000    0.000    0.000    7.000 
#    0.000    0.000    0.000    0.000    0.000    0.000 
#
# Total GULP energy -594686.397318 kJ/mol
# GULP energy per Si atom -12389.299944 kJ/mol
# Density = 1.910414 g / cm^3
# Si number density = 19.147719 Si / 1000 Ang^3
#
#
#
# Elastic Constant Matrix: (Units=GPa)
#
#
# Indices 1 2 3 4 5 6 
#
# 1 123.1005 16.6285 31.4934 0.0000 0.0000 0.0000
# 2 16.6285 48.7004 17.6590 0.0000 0.0000 0.0000
# 3 31.4934 17.6590 89.5451 0.0000 0.0000 0.0000
# 4 0.0000 0.0000 0.0000 15.5965 0.0000 0.0000
# 5 0.0000 0.0000 0.0000 0.0000 38.4014 0.0000
# 6 0.0000 0.0000 0.0000 0.0000 0.0000 16.3128
#
#
#
# Elastic Compliance Matrix: (Units=1/GPa)
#
#
# Indices 1 2 3 4 5 6 
#
# 1 0.009122 -0.002102 -0.002794 0.000000 0.000000 0.000000
# 2 -0.002102 0.022599 -0.003718 0.000000 0.000000 0.000000
# 3 -0.002794 -0.003718 0.012883 0.000000 0.000000 0.000000
# 4 0.000000 0.000000 0.000000 0.064117 0.000000 0.000000
# 5 0.000000 0.000000 0.000000 0.000000 0.026041 0.000000
# 6 0.000000 0.000000 0.000000 0.000000 0.000000 0.061302
#
#
# Mechanical properties :
#
#
# Convention : Reuss Voigt Hill
#
# Bulk Modulus (GPa) = 36.52488 43.65640 40.09064
# Shear Modulus (GPa) = 22.48035 27.09980 24.79008
#
# Velocity S-wave (km/s) = 3.43016 3.76613 3.60206
# Velocity P-wave (km/s) = 5.89955 6.46227 6.18731
#
# Compressibility (1/GPa) = 0.02737860
#
# Stress axis : x y z
#
# Youngs Moduli (GPa) = 109.62401 44.24909 77.61991
#
# Poissons Ratio (x) = 0.09300 0.21686
# Poissons Ratio (y) = 0.23039 0.28856
# Poissons Ratio (z) = 0.30627 0.16450
#
# Static dielectric constant tensor:
#      x y z
#    x 3.484050 0.000000 0.000000 
#    y 0.000000 3.069750 0.000000 
#    z 0.000000 0.000000 -1.954380 
# 
# 
# High freq. dielectric constant tensor:
#      x y z
#    x 1.770040 0.000000 0.000000 
#    y 0.000000 1.674700 0.000000 
#    z 0.000000 0.000000 1.743030 
# 
# From -- ./inp_files/29251.got.cif
#   From: 2010.03.12/outbox.cif.g09.slc.cpg/sg62_15_cif.got.tgz:29251.got - 2010.04.10 19:12:36.
