data_PCOD8251192
_publ_section_title
;
Structure prediction by ZEFSAII (Michael W. Deem and Ramdas Pophale) SiO2 
 PCOD8251192
Probable space group: P N M A
;
_chemical_formula_sum "Si O2"
_cell_formula_units_Z 48
_cell_length_a 16.613591
_cell_length_b 9.095078
_cell_length_c 16.765245
_cell_angle_alpha 90.000000
_cell_angle_beta 90.000000
_cell_angle_gamma 90.000000
_cell_volume 2533.260474
_symmetry_space_group_name_H-M "P N M A"
_symmetry_group_IT_number 62
_symmetry_cell_setting 'orthorhombic'
loop_
_space_group_symop_operation_xyz
x,y,z
1/2-x,-y,1/2+z
1/2+x,1/2-y,1/2-z
-x,1/2+y,-z
-x,-y,-z
1/2+x,y,1/2-z
1/2-x,1/2+y,1/2+z
x,1/2-y,z
loop_
_atom_site_type_symbol
_atom_site_label
_atom_site_fract_x
_atom_site_fract_y
_atom_site_fract_z
Si Si1 0.235716 0.076563 0.896715
Si Si2 0.105073 0.078894 0.428082
Si Si3 0.944956 0.917906 0.398426
Si Si4 0.985523 0.914523 0.879636
Si Si5 0.377386 0.415234 0.511726
Si Si6 0.101881 0.081498 0.773758
O O1 0.241632 0.250000 0.908687
O O2 0.183800 0.033326 0.818299
O O3 0.323785 0.009216 0.884891
O O4 0.196330 0.006939 0.975678
O O5 0.115617 0.250000 0.409217
O O6 0.107138 0.045826 0.523084
O O7 0.021155 0.024620 0.391630
O O8 0.976465 0.750000 0.402567
O O9 0.888268 0.942483 0.321142
O O10 0.957895 0.750000 0.857408
O O11 0.025096 0.988601 0.802428
O O12 0.049864 0.911106 0.950054
O O13 0.907358 0.006598 0.907203
O O14 0.347947 0.250000 0.531614
O O15 0.083060 0.250000 0.795497
#
# Coordination Sequence:
#
# PCOD8251192 Si02
#       6
#     8   8   8   8   8   8
#     4  10  19  32  52  77 105 136 171 214 262 310
#     4  10  20  35  56  79 102 132 172 215 259 309
#     4   9  19  37  58  77  99 132 174 214 254 306
#     4   9  16  26  43  69 100 133 169 207 249 300
#     4   9  16  27  44  67  98 136 173 207 247 300
#     4   9  18  33  53  76 102 134 171 211 257 309
#
# _framework density 18.947914999999998
#
# number of rings (size 3 to 8) (size 9 to 14) (size 15 to 20)
#    0.000    2.667    0.000    2.000    0.000    6.000 
#    0.000    1.667    0.000    8.000    0.000    0.000 
#    0.000    0.000    0.000    0.000    0.000    0.000 
#
# Total GULP energy -595191.462401 kJ/mol
# GULP energy per Si atom -12399.822133 kJ/mol
# Density = 1.890479 g / cm^3
# Si number density = 18.947915 Si / 1000 Ang^3
#
#
#
# Elastic Constant Matrix: (Units=GPa)
#
#
# Indices 1 2 3 4 5 6 
#
# 1 76.4965 42.5987 31.9172 0.0000 0.0000 0.0000
# 2 42.5987 110.8803 32.4260 0.0000 0.0000 0.0000
# 3 31.9172 32.4260 81.2853 0.0000 0.0000 0.0000
# 4 0.0000 0.0000 0.0000 23.1717 0.0000 0.0000
# 5 0.0000 0.0000 0.0000 0.0000 15.9681 0.0000
# 6 0.0000 0.0000 0.0000 0.0000 0.0000 32.9569
#
#
#
# Elastic Compliance Matrix: (Units=1/GPa)
#
#
# Indices 1 2 3 4 5 6 
#
# 1 0.018229 -0.005559 -0.004940 0.000000 0.000000 0.000000
# 2 -0.005559 0.011905 -0.002566 0.000000 0.000000 0.000000
# 3 -0.004940 -0.002566 0.015266 0.000000 0.000000 0.000000
# 4 0.000000 0.000000 0.000000 0.043156 0.000000 0.000000
# 5 0.000000 0.000000 0.000000 0.000000 0.062625 0.000000
# 6 0.000000 0.000000 0.000000 0.000000 0.000000 0.030343
#
#
# Mechanical properties :
#
#
# Convention : Reuss Voigt Hill
#
# Bulk Modulus (GPa) = 51.89629 53.61623 52.75626
# Shear Modulus (GPa) = 23.35603 25.20070 24.27837
#
# Velocity S-wave (km/s) = 3.51471 3.65087 3.58344
# Velocity P-wave (km/s) = 6.62716 6.79190 6.71004
#
# Compressibility (1/GPa) = 0.01926920
#
# Stress axis : x y z
#
# Youngs Moduli (GPa) = 54.85678 83.99967 65.50509
#
# Poissons Ratio (x) = 0.46693 0.32362
# Poissons Ratio (y) = 0.30493 0.16811
# Poissons Ratio (z) = 0.27101 0.21557
#
# Static dielectric constant tensor:
#      x y z
#    x 3.204320 0.000000 0.000000 
#    y 0.000000 3.629580 0.000000 
#    z 0.000000 0.000000 3.343830 
# 
# 
# High freq. dielectric constant tensor:
#      x y z
#    x 1.710840 0.000000 0.000000 
#    y 0.000000 1.748160 0.000000 
#    z 0.000000 0.000000 1.717120 
# 
# From -- ./inp_files/19664.got.cif
#   From: 2010.03.12/outbox.cif.g09.slc.cpg/sg62_10_cif.got.tgz:19664.got - 2010.04.10 19:12:36.
