data_PCOD8251866
_publ_section_title
;
Structure prediction by ZEFSAII (Michael W. Deem and Ramdas Pophale) SiO2 
 PCOD8251866
Probable space group: P N M A
;
_chemical_formula_sum "Si O2"
_cell_formula_units_Z 56
_cell_length_a 14.936421
_cell_length_b 9.183451
_cell_length_c 20.633272
_cell_angle_alpha 90.000000
_cell_angle_beta 90.000000
_cell_angle_gamma 90.000000
_cell_volume 2830.222392
_symmetry_space_group_name_H-M "P N M A"
_symmetry_group_IT_number 62
_symmetry_cell_setting 'orthorhombic'
loop_
_space_group_symop_operation_xyz
x,y,z
1/2-x,-y,1/2+z
1/2+x,1/2-y,1/2-z
-x,1/2+y,-z
-x,-y,-z
1/2+x,y,1/2-z
1/2-x,1/2+y,1/2+z
x,1/2-y,z
loop_
_atom_site_type_symbol
_atom_site_label
_atom_site_fract_x
_atom_site_fract_y
_atom_site_fract_z
Si Si1 0.550297 0.088777 0.553352
Si Si2 0.177553 0.418870 0.168903
Si Si3 0.500141 0.576240 0.305494
Si Si4 0.880127 0.078207 0.301288
Si Si5 0.879952 0.591512 0.532574
Si Si6 0.223127 0.088021 0.024333
Si Si7 0.985502 0.589940 0.405511
O O1 0.509033 0.250000 0.552474
O O2 0.536838 0.023833 0.624824
O O3 0.653966 0.090133 0.534811
O O4 0.500000 0.000000 0.500000
O O5 0.151866 0.250000 0.177542
O O6 0.101363 0.516170 0.203665
O O7 0.273527 0.452036 0.202309
O O8 0.179437 0.460742 0.092573
O O9 0.499587 0.750000 0.296308
O O10 0.432150 0.503659 0.255421
O O11 0.900225 0.250000 0.299129
O O12 0.915150 0.012398 0.368720
O O13 0.854523 0.750000 0.561757
O O14 0.795895 0.526533 0.496188
O O15 0.955869 0.613695 0.478940
O O16 0.917390 0.490034 0.590966
O O17 0.264884 0.250000 0.033842
O O18 0.995633 0.750000 0.371926
#
# Coordination Sequence:
#
# PCOD8251866 Si02
#       7
#     8   8   8   8   8   8   8
#     4  10  21  37  60  88 118 152 192 244 303 359
#     4  10  21  39  65  90 115 156 203 249 303 362
#     4  11  24  41  62  90 122 158 200 251 308 366
#     4  11  23  41  64  88 119 161 208 251 301 366
#     4  10  20  33  54  86 120 155 197 245 296 355
#     4  10  19  35  59  86 118 153 194 245 300 356
#     4  10  20  35  57  84 118 156 196 246 301 352
#
# _framework density 19.786431
#
# number of rings (size 3 to 8) (size 9 to 14) (size 15 to 20)
#    0.000    1.714    2.857    1.714    0.000    4.000 
#    2.571    0.000    0.000    0.000    0.000    0.000 
#    0.000    0.000    0.000    0.000    0.000    0.000 
#
# Total GULP energy -694230.862845 kJ/mol
# GULP energy per Si atom -12396.979694 kJ/mol
# Density = 1.974140 g / cm^3
# Si number density = 19.786431 Si / 1000 Ang^3
#
#
#
# Elastic Constant Matrix: (Units=GPa)
#
#
# Indices 1 2 3 4 5 6 
#
# 1 97.7985 58.7341 45.3725 0.0000 0.0000 0.0000
# 2 58.7341 128.5159 38.7129 0.0000 0.0000 0.0000
# 3 45.3725 38.7129 65.2910 0.0000 0.0000 0.0000
# 4 0.0000 0.0000 0.0000 30.1856 0.0000 0.0000
# 5 0.0000 0.0000 0.0000 0.0000 36.1583 0.0000
# 6 0.0000 0.0000 0.0000 0.0000 0.0000 32.9797
#
#
#
# Elastic Compliance Matrix: (Units=1/GPa)
#
#
# Indices 1 2 3 4 5 6 
#
# 1 0.017646 -0.005321 -0.009108 0.000000 0.000000 0.000000
# 2 -0.005321 0.011078 -0.002870 0.000000 0.000000 0.000000
# 3 -0.009108 -0.002870 0.023347 0.000000 0.000000 0.000000
# 4 0.000000 0.000000 0.000000 0.033128 0.000000 0.000000
# 5 0.000000 0.000000 0.000000 0.000000 0.027656 0.000000
# 6 0.000000 0.000000 0.000000 0.000000 0.000000 0.030322
#
#
# Mechanical properties :
#
#
# Convention : Reuss Voigt Hill
#
# Bulk Modulus (GPa) = 57.23309 64.13824 60.68566
# Shear Modulus (GPa) = 27.23308 29.78380 28.50844
#
# Velocity S-wave (km/s) = 3.71395 3.88398 3.79991
# Velocity P-wave (km/s) = 6.88327 7.25254 7.07032
#
# Compressibility (1/GPa) = 0.01747241
#
# Stress axis : x y z
#
# Youngs Moduli (GPa) = 56.66935 90.27185 42.83148
#
# Poissons Ratio (x) = 0.48035 0.39010
# Poissons Ratio (y) = 0.30154 0.12295
# Poissons Ratio (z) = 0.51613 0.25912
#
# Static dielectric constant tensor:
#      x y z
#    x 3.638730 0.000000 0.000000 
#    y 0.000000 3.867620 0.000000 
#    z 0.000000 0.000000 3.658800 
# 
# 
# High freq. dielectric constant tensor:
#      x y z
#    x 1.766410 0.000000 0.000000 
#    y 0.000000 1.784580 0.000000 
#    z 0.000000 0.000000 1.753670 
# 
# From -- ./inp_files/27222.got.cif
#   From: 2010.03.12/outbox.cif.g09.slc.cpg/sg62_14_cif.got.tgz:27222.got - 2010.04.10 19:12:36.
