data_PCOD8251392
_publ_section_title
;
Structure prediction by ZEFSAII (Michael W. Deem and Ramdas Pophale) SiO2 
 PCOD8251392
Probable space group: P N M A
;
_chemical_formula_sum "Si O2"
_cell_formula_units_Z 64
_cell_length_a 15.326230
_cell_length_b 8.671526
_cell_length_c 24.856097
_cell_angle_alpha 90.000000
_cell_angle_beta 90.000000
_cell_angle_gamma 90.000000
_cell_volume 3303.420080
_symmetry_space_group_name_H-M "P N M A"
_symmetry_group_IT_number 62
_symmetry_cell_setting 'orthorhombic'
loop_
_space_group_symop_operation_xyz
x,y,z
1/2-x,-y,1/2+z
1/2+x,1/2-y,1/2-z
-x,1/2+y,-z
-x,-y,-z
1/2+x,y,1/2-z
1/2-x,1/2+y,1/2+z
x,1/2-y,z
loop_
_atom_site_type_symbol
_atom_site_label
_atom_site_fract_x
_atom_site_fract_y
_atom_site_fract_z
Si Si1 0.499664 0.068763 0.663793
Si Si2 0.192150 0.431840 0.856459
Si Si3 0.494147 0.570900 0.892919
Si Si4 0.174778 0.932659 0.443212
Si Si5 0.675865 0.431939 0.353976
Si Si6 0.963430 0.428170 0.274290
Si Si7 0.821004 0.433199 0.436343
Si Si8 0.218512 0.068530 0.736573
O O1 0.488299 0.250000 0.655902
O O2 0.592180 0.008191 0.640175
O O3 0.422941 0.981174 0.631744
O O4 0.495073 0.031259 0.727355
O O5 0.190247 0.250000 0.862757
O O6 0.251411 0.505168 0.903676
O O7 0.233708 0.476972 0.798894
O O8 0.485164 0.750000 0.907771
O O9 0.420958 0.477189 0.923958
O O10 0.482858 0.544481 0.829084
O O11 0.587709 0.505961 0.912441
O O12 0.181398 0.750000 0.442709
O O13 0.191289 0.997175 0.503148
O O14 0.682821 0.250000 0.346845
O O15 0.740364 0.494103 0.400460
O O16 0.698348 0.514445 0.297496
O O17 0.966288 0.250000 0.256767
O O18 0.864218 0.476594 0.286506
O O19 0.820875 0.250000 0.435785
O O20 0.201602 0.250000 0.730601
#
# Coordination Sequence:
#
# PCOD8251392 Si02
#       8
#     8   8   8   8   8   8   8   8
#     4  10  21  37  55  79 113 146 184 236 283 336
#     4   8  18  36  55  78 109 140 179 229 279 326
#     4  10  20  35  52  79 115 146 177 225 277 328
#     4  10  20  36  59  81 103 146 192 229 277 333
#     4  11  21  36  56  81 111 148 189 230 279 338
#     4  10  19  34  54  79 114 150 181 219 275 338
#     4   9  19  37  57  78 111 147 186 229 275 334
#     4  10  19  33  53  80 112 146 182 228 278 329
#
# _framework density 19.373861999999999
#
# number of rings (size 3 to 8) (size 9 to 14) (size 15 to 20)
#    0.000    2.250    1.250    2.625    1.750    1.000 
#    0.000    5.000    0.000    0.000    0.000    0.000 
#    0.000    0.000    0.000    0.000    0.000    0.000 
#
# Total GULP energy -793581.340101 kJ/mol
# GULP energy per Si atom -12399.708439 kJ/mol
# Density = 1.932977 g / cm^3
# Si number density = 19.373862 Si / 1000 Ang^3
#
#
#
# Elastic Constant Matrix: (Units=GPa)
#
#
# Indices 1 2 3 4 5 6 
#
# 1 132.7174 13.7126 78.1026 0.0000 0.0000 0.0000
# 2 13.7126 29.8531 20.2671 0.0000 0.0000 0.0000
# 3 78.1026 20.2671 115.8226 0.0000 0.0000 0.0000
# 4 0.0000 0.0000 0.0000 18.3873 0.0000 0.0000
# 5 0.0000 0.0000 0.0000 0.0000 30.2275 0.0000
# 6 0.0000 0.0000 0.0000 0.0000 0.0000 30.3198
#
#
#
# Elastic Compliance Matrix: (Units=1/GPa)
#
#
# Indices 1 2 3 4 5 6 
#
# 1 0.012492 -0.000022 -0.008420 0.000000 0.000000 0.000000
# 2 -0.000022 0.038013 -0.006637 0.000000 0.000000 0.000000
# 3 -0.008420 -0.006637 0.015473 0.000000 0.000000 0.000000
# 4 0.000000 0.000000 0.000000 0.054385 0.000000 0.000000
# 5 0.000000 0.000000 0.000000 0.000000 0.033082 0.000000
# 6 0.000000 0.000000 0.000000 0.000000 0.000000 0.032982
#
#
# Mechanical properties :
#
#
# Convention : Reuss Voigt Hill
#
# Bulk Modulus (GPa) = 27.91668 55.83974 41.87821
# Shear Modulus (GPa) = 21.87936 26.87431 24.37683
#
# Velocity S-wave (km/s) = 3.36419 3.72848 3.55101
# Velocity P-wave (km/s) = 5.43425 6.88623 6.20287
#
# Compressibility (1/GPa) = 0.03582087
#
# Stress axis : x y z
#
# Youngs Moduli (GPa) = 80.05046 26.30663 64.62830
#
# Poissons Ratio (x) = 0.00057 0.54417
# Poissons Ratio (y) = 0.00175 0.42894
# Poissons Ratio (z) = 0.67402 0.17460
#
# Static dielectric constant tensor:
#      x y z
#    x 3.662290 0.000000 0.000000 
#    y 0.000000 3.240990 0.000000 
#    z 0.000000 0.000000 3.725660 
# 
# 
# High freq. dielectric constant tensor:
#      x y z
#    x 1.757230 0.000000 0.000000 
#    y 0.000000 1.731100 0.000000 
#    z 0.000000 0.000000 1.746640 
# 
# From -- ./inp_files/29811.got.cif
#   From: 2010.03.12/outbox.cif.g09.slc.cpg/sg62_15_cif.got.tgz:29811.got - 2010.04.10 19:12:36.
