data_PCOD8251012
_publ_section_title
;
Structure prediction by ZEFSAII (Michael W. Deem and Ramdas Pophale) SiO2 
 PCOD8251012
Probable space group: P N M A
;
_chemical_formula_sum "Si O2"
_cell_formula_units_Z 40
_cell_length_a 13.693580
_cell_length_b 8.698351
_cell_length_c 18.170080
_cell_angle_alpha 90.000000
_cell_angle_beta 90.000000
_cell_angle_gamma 90.000000
_cell_volume 2164.266670
_symmetry_space_group_name_H-M "P N M A"
_symmetry_group_IT_number 62
_symmetry_cell_setting 'orthorhombic'
loop_
_space_group_symop_operation_xyz
x,y,z
1/2-x,-y,1/2+z
1/2+x,1/2-y,1/2-z
-x,1/2+y,-z
-x,-y,-z
1/2+x,y,1/2-z
1/2-x,1/2+y,1/2+z
x,1/2-y,z
loop_
_atom_site_type_symbol
_atom_site_label
_atom_site_fract_x
_atom_site_fract_y
_atom_site_fract_z
Si Si1 0.793950 0.068192 0.975846
Si Si2 0.099703 0.567814 0.471000
Si Si3 0.089044 0.932684 0.166008
Si Si4 0.175509 0.930991 0.315986
Si Si5 0.877209 0.568675 0.119784
O O1 0.780743 0.250000 0.976714
O O2 0.845038 0.009185 0.901349
O O3 0.687967 0.990386 0.978264
O O4 0.862600 0.017984 0.043008
O O5 0.096484 0.750000 0.474502
O O6 0.116921 0.508538 0.387466
O O7 0.000000 0.500000 0.500000
O O8 0.091558 0.750000 0.169340
O O9 0.131452 0.005396 0.241696
O O10 0.977736 0.988974 0.155931
O O11 0.162895 0.750000 0.311264
O O12 0.289841 0.974116 0.324005
O O13 0.877893 0.750000 0.102849
#
# Coordination Sequence:
#
# PCOD8251012 Si02
#       5
#     8   8   8   8   8
#     4  10  19  31  50  75 101 129 166 208 247 295
#     4  10  20  35  55  75  99 132 166 203 247 295
#     4   9  17  29  49  76  99 127 170 212 248 288
#     4   8  16  30  48  72  98 126 165 210 248 285
#     4   9  17  31  50  70  98 132 164 205 252 295
#
# _framework density 18.482011
#
# number of rings (size 3 to 8) (size 9 to 14) (size 15 to 20)
#    0.000    2.800    0.000    3.000    0.000    1.600 
#    0.000    7.000    0.000   22.800    0.000    0.000 
#    0.000    0.000    0.000    0.000    0.000    0.000 
#
# Total GULP energy -495915.667721 kJ/mol
# GULP energy per Si atom -12397.891693 kJ/mol
# Density = 1.843994 g / cm^3
# Si number density = 18.482011 Si / 1000 Ang^3
#
#
#
# Elastic Constant Matrix: (Units=GPa)
#
#
# Indices 1 2 3 4 5 6 
#
# 1 186.4096 28.4155 109.7751 0.0000 0.0000 0.0000
# 2 28.4155 40.0241 20.9615 0.0000 0.0000 0.0000
# 3 109.7751 20.9615 144.3465 0.0000 0.0000 0.0000
# 4 0.0000 0.0000 0.0000 22.0634 0.0000 0.0000
# 5 0.0000 0.0000 0.0000 0.0000 30.6496 0.0000
# 6 0.0000 0.0000 0.0000 0.0000 0.0000 25.6873
#
#
#
# Elastic Compliance Matrix: (Units=1/GPa)
#
#
# Indices 1 2 3 4 5 6 
#
# 1 0.010130 -0.003417 -0.007208 0.000000 0.000000 0.000000
# 2 -0.003417 0.028194 -0.001496 0.000000 0.000000 0.000000
# 3 -0.007208 -0.001496 0.012626 0.000000 0.000000 0.000000
# 4 0.000000 0.000000 0.000000 0.045324 0.000000 0.000000
# 5 0.000000 0.000000 0.000000 0.000000 0.032627 0.000000
# 6 0.000000 0.000000 0.000000 0.000000 0.000000 0.038930
#
#
# Mechanical properties :
#
#
# Convention : Reuss Voigt Hill
#
# Bulk Modulus (GPa) = 37.43924 76.56495 57.00209
# Shear Modulus (GPa) = 24.87878 29.78860 27.33369
#
# Velocity S-wave (km/s) = 3.67291 4.01903 3.84986
# Velocity P-wave (km/s) = 6.18774 7.94062 7.11834
#
# Compressibility (1/GPa) = 0.02670995
#
# Stress axis : x y z
#
# Youngs Moduli (GPa) = 98.71798 35.46831 79.19999
#
# Poissons Ratio (x) = 0.12120 0.57084
# Poissons Ratio (y) = 0.33732 0.11845
# Poissons Ratio (z) = 0.71151 0.05305
#
# Static dielectric constant tensor:
#      x y z
#    x 3.563480 0.000000 0.000000 
#    y 0.000000 3.068140 0.000000 
#    z 0.000000 0.000000 3.716440 
# 
# 
# High freq. dielectric constant tensor:
#      x y z
#    x 1.729050 0.000000 0.000000 
#    y 0.000000 1.682680 0.000000 
#    z 0.000000 0.000000 1.717860 
# 
# From -- ./inp_files/18639.got.cif
#   From: 2010.03.12/outbox.cif.g09.slc.cpg/sg62_10_cif.got.tgz:18639.got - 2010.04.10 19:12:36.
