data_PCOD8251223
_publ_section_title
;
Structure prediction by ZEFSAII (Michael W. Deem and Ramdas Pophale) SiO2 
 PCOD8251223
Probable space group: P N M A
;
_chemical_formula_sum "Si O2"
_cell_formula_units_Z 40
_cell_length_a 16.635593
_cell_length_b 9.012101
_cell_length_c 16.319612
_cell_angle_alpha 90.000000
_cell_angle_beta 90.000000
_cell_angle_gamma 90.000000
_cell_volume 2446.663066
_symmetry_space_group_name_H-M "P N M A"
_symmetry_group_IT_number 62
_symmetry_cell_setting 'orthorhombic'
loop_
_space_group_symop_operation_xyz
x,y,z
1/2-x,-y,1/2+z
1/2+x,1/2-y,1/2-z
-x,1/2+y,-z
-x,-y,-z
1/2+x,y,1/2-z
1/2-x,1/2+y,1/2+z
x,1/2-y,z
loop_
_atom_site_type_symbol
_atom_site_label
_atom_site_fract_x
_atom_site_fract_y
_atom_site_fract_z
Si Si1 0.785879 0.925012 0.105494
Si Si2 0.948959 0.576674 0.382704
Si Si3 0.610718 0.582677 0.723572
Si Si4 0.615271 0.577671 0.035101
Si Si5 0.930517 0.082465 0.047663
O O1 0.798971 0.750000 0.109149
O O2 0.695045 0.968284 0.083752
O O3 0.807892 0.996480 0.194435
O O4 0.845631 0.994866 0.036287
O O5 0.934059 0.750000 0.373263
O O6 0.932724 0.499984 0.296779
O O7 0.888486 0.515077 0.451405
O O8 0.040330 0.538393 0.406898
O O9 0.633480 0.750000 0.749957
O O10 0.549753 0.584015 0.645431
O O11 0.615446 0.750000 0.010955
O O12 0.921848 0.250000 0.013786
O O13 0.000000 0.000000 0.000000
#
# Coordination Sequence:
#
# PCOD8251223 Si02
#       5
#     8   8   8   8   8
#     4   9  17  32  53  73 100 134 167 211 257 302
#     4  10  19  32  53  77 102 136 174 210 254 306
#     4   9  19  33  50  73 102 133 168 212 258 303
#     4   9  19  34  52  76 104 135 171 211 256 304
#     4   9  18  31  51  75 101 135 169 206 254 304
#
# _framework density 16.348797999999999
#
# number of rings (size 3 to 8) (size 9 to 14) (size 15 to 20)
#    1.200    1.600    0.000    1.800    0.000    2.400 
#    0.000    2.000    0.000    4.800    0.000    0.000 
#    0.000    0.000    0.000    0.000    0.000    0.000 
#
# Total GULP energy -495678.636693 kJ/mol
# GULP energy per Si atom -12391.965917 kJ/mol
# Density = 1.631159 g / cm^3
# Si number density = 16.348798 Si / 1000 Ang^3
#
#
#
# Elastic Constant Matrix: (Units=GPa)
#
#
# Indices 1 2 3 4 5 6 
#
# 1 100.1300 54.1801 49.8736 0.0000 0.0000 0.0000
# 2 54.1801 111.3080 52.8456 0.0000 0.0000 0.0000
# 3 49.8736 52.8456 85.9168 0.0000 0.0000 0.0000
# 4 0.0000 0.0000 0.0000 34.0275 0.0000 0.0000
# 5 0.0000 0.0000 0.0000 0.0000 21.6505 0.0000
# 6 0.0000 0.0000 0.0000 0.0000 0.0000 25.2748
#
#
#
# Elastic Compliance Matrix: (Units=1/GPa)
#
#
# Indices 1 2 3 4 5 6 
#
# 1 0.015584 -0.004648 -0.006187 0.000000 0.000000 0.000000
# 2 -0.004648 0.014076 -0.005960 0.000000 0.000000 0.000000
# 3 -0.006187 -0.005960 0.018897 0.000000 0.000000 0.000000
# 4 0.000000 0.000000 0.000000 0.029388 0.000000 0.000000
# 5 0.000000 0.000000 0.000000 0.000000 0.046188 0.000000
# 6 0.000000 0.000000 0.000000 0.000000 0.000000 0.039565
#
#
# Mechanical properties :
#
#
# Convention : Reuss Voigt Hill
#
# Bulk Modulus (GPa) = 66.81703 67.90593 67.36148
# Shear Modulus (GPa) = 24.71857 25.55425 25.13641
#
# Velocity S-wave (km/s) = 3.89260 3.95785 3.92536
# Velocity P-wave (km/s) = 7.82058 7.90645 7.86364
#
# Compressibility (1/GPa) = 0.01496624
#
# Stress axis : x y z
#
# Youngs Moduli (GPa) = 64.16876 71.04260 52.91962
#
# Poissons Ratio (x) = 0.33021 0.32743
# Poissons Ratio (y) = 0.29826 0.31539
# Poissons Ratio (z) = 0.39703 0.42340
#
# Static dielectric constant tensor:
#      x y z
#    x 2.941160 0.000000 0.000000 
#    y 0.000000 3.223000 0.000000 
#    z 0.000000 0.000000 2.902340 
# 
# 
# High freq. dielectric constant tensor:
#      x y z
#    x 1.611780 0.000000 0.000000 
#    y 0.000000 1.649010 0.000000 
#    z 0.000000 0.000000 1.611310 
# 
# From -- ./inp_files/24150.got.cif
#   From: 2010.03.12/outbox.cif.g09.slc.cpg/sg62_13_cif.got.tgz:24150.got - 2010.04.10 19:12:36.
