data_PCOD8251388
_publ_section_title
;
Structure prediction by ZEFSAII (Michael W. Deem and Ramdas Pophale) SiO2 
 PCOD8251388
Probable space group: P N M A
;
_chemical_formula_sum "Si O2"
_cell_formula_units_Z 64
_cell_length_a 24.914738
_cell_length_b 8.985615
_cell_length_c 15.138641
_cell_angle_alpha 90.000000
_cell_angle_beta 90.000000
_cell_angle_gamma 90.000000
_cell_volume 3389.151801
_symmetry_space_group_name_H-M "P N M A"
_symmetry_group_IT_number 62
_symmetry_cell_setting 'orthorhombic'
loop_
_space_group_symop_operation_xyz
x,y,z
1/2-x,-y,1/2+z
1/2+x,1/2-y,1/2-z
-x,1/2+y,-z
-x,-y,-z
1/2+x,y,1/2-z
1/2-x,1/2+y,1/2+z
x,1/2-y,z
loop_
_atom_site_type_symbol
_atom_site_label
_atom_site_fract_x
_atom_site_fract_y
_atom_site_fract_z
Si Si1 0.148510 0.925078 0.303372
Si Si2 0.273214 0.081431 0.467827
Si Si3 0.893321 0.076487 0.003494
Si Si4 0.647054 0.426267 0.826394
Si Si5 0.756869 0.421859 0.234212
Si Si6 0.064777 0.073397 0.821351
Si Si7 0.667283 0.923308 0.997549
Si Si8 0.055401 0.573655 0.177030
O O1 0.158937 0.750000 0.290572
O O2 0.143348 0.965687 0.406762
O O3 0.094200 0.980371 0.255898
O O4 0.197428 0.011667 0.258370
O O5 0.253777 0.250000 0.486733
O O6 0.330193 0.048534 0.513005
O O7 0.280337 0.055893 0.363544
O O8 0.229793 0.969192 0.507696
O O9 0.904585 0.250000 0.020773
O O10 0.913696 0.986006 0.086681
O O11 0.923911 0.014309 0.917481
O O12 0.649433 0.250000 0.828092
O O13 0.705051 0.489260 0.800374
O O14 0.601572 0.484525 0.759012
O O15 0.633183 0.488037 0.923952
O O16 0.755633 0.250000 0.262271
O O17 0.065888 0.250000 0.826118
O O18 0.004434 0.013284 0.804905
O O19 0.662474 0.750000 0.977724
O O20 0.055892 0.750000 0.174009
#
# Coordination Sequence:
#
# PCOD8251388 Si02
#       8
#     8   8   8   8   8   8   8   8
#     4   9  19  37  58  80 109 145 183 225 278 334
#     4   9  18  32  51  79 113 146 175 212 269 332
#     4  10  19  33  55  82 113 148 180 216 271 331
#     4  11  22  35  54  78 108 148 188 227 276 327
#     4  10  19  33  53  79 112 143 177 224 270 323
#     4  10  21  37  56  80 110 145 188 231 268 319
#     4  10  21  35  54  80 110 143 183 233 279 326
#     4   9  19  36  58  81 107 144 186 226 272 329
#
# _framework density 18.883780999999999
#
# number of rings (size 3 to 8) (size 9 to 14) (size 15 to 20)
#    0.000    2.250    1.250    1.500    1.750    2.000 
#    0.000    1.875    0.000    0.000    0.000    0.000 
#    0.000    0.000    0.000    0.000    0.000    0.000 
#
# Total GULP energy -793720.218300 kJ/mol
# GULP energy per Si atom -12401.878411 kJ/mol
# Density = 1.884080 g / cm^3
# Si number density = 18.883781 Si / 1000 Ang^3
#
#
#
# Elastic Constant Matrix: (Units=GPa)
#
#
# Indices 1 2 3 4 5 6 
#
# 1 109.1416 29.9799 68.7052 0.0000 0.0000 0.0000
# 2 29.9799 48.4052 35.7886 0.0000 0.0000 0.0000
# 3 68.7052 35.7886 118.1234 0.0000 0.0000 0.0000
# 4 0.0000 0.0000 0.0000 28.9994 0.0000 0.0000
# 5 0.0000 0.0000 0.0000 0.0000 24.6649 0.0000
# 6 0.0000 0.0000 0.0000 0.0000 0.0000 18.6852
#
#
#
# Elastic Compliance Matrix: (Units=1/GPa)
#
#
# Indices 1 2 3 4 5 6 
#
# 1 0.014938 -0.003644 -0.007584 0.000000 0.000000 0.000000
# 2 -0.003644 0.027512 -0.006216 0.000000 0.000000 0.000000
# 3 -0.007584 -0.006216 0.014760 0.000000 0.000000 0.000000
# 4 0.000000 0.000000 0.000000 0.034484 0.000000 0.000000
# 5 0.000000 0.000000 0.000000 0.000000 0.040543 0.000000
# 6 0.000000 0.000000 0.000000 0.000000 0.000000 0.053518
#
#
# Mechanical properties :
#
#
# Convention : Reuss Voigt Hill
#
# Bulk Modulus (GPa) = 44.80064 60.51311 52.65687
# Shear Modulus (GPa) = 21.92176 23.88299 22.90238
#
# Velocity S-wave (km/s) = 3.41086 3.56017 3.48632
# Velocity P-wave (km/s) = 6.26800 7.00102 6.64463
#
# Compressibility (1/GPa) = 0.02232111
#
# Stress axis : x y z
#
# Youngs Moduli (GPa) = 66.94427 36.34823 67.74951
#
# Poissons Ratio (x) = 0.13246 0.51383
# Poissons Ratio (y) = 0.24397 0.42111
# Poissons Ratio (z) = 0.50772 0.22593
#
# Static dielectric constant tensor:
#      x y z
#    x 3.587730 0.000000 0.000000 
#    y 0.000000 3.305620 0.000000 
#    z 0.000000 0.000000 3.584100 
# 
# 
# High freq. dielectric constant tensor:
#      x y z
#    x 1.724500 0.000000 0.000000 
#    y 0.000000 1.719650 0.000000 
#    z 0.000000 0.000000 1.740470 
# 
# From -- ./inp_files/20769.got.cif
#   From: 2010.03.12/outbox.cif.g09.slc.cpg/sg62_11_cif.got.tgz:20769.got - 2010.04.10 19:12:36.
