data_PCOD8251278
_publ_section_title
;
Structure prediction by ZEFSAII (Michael W. Deem and Ramdas Pophale) SiO2 
 PCOD8251278
Probable space group: P N M A
;
_chemical_formula_sum "Si O2"
_cell_formula_units_Z 56
_cell_length_a 14.660207
_cell_length_b 8.676843
_cell_length_c 22.137410
_cell_angle_alpha 90.000000
_cell_angle_beta 90.000000
_cell_angle_gamma 90.000000
_cell_volume 2815.974064
_symmetry_space_group_name_H-M "P N M A"
_symmetry_group_IT_number 62
_symmetry_cell_setting 'orthorhombic'
loop_
_space_group_symop_operation_xyz
x,y,z
1/2-x,-y,1/2+z
1/2+x,1/2-y,1/2-z
-x,1/2+y,-z
-x,-y,-z
1/2+x,y,1/2-z
1/2-x,1/2+y,1/2+z
x,1/2-y,z
loop_
_atom_site_type_symbol
_atom_site_label
_atom_site_fract_x
_atom_site_fract_y
_atom_site_fract_z
Si Si1 0.691564 0.426026 0.881089
Si Si2 0.672087 0.571183 0.278175
Si Si3 0.530404 0.427301 0.361159
Si Si4 0.344238 0.567776 0.851560
Si Si5 0.510820 0.931803 0.932887
Si Si6 0.660384 0.930464 0.595003
Si Si7 0.364610 0.427822 0.537612
O O1 0.659000 0.250000 0.874426
O O2 0.739279 0.481303 0.817847
O O3 0.605046 0.527896 0.899306
O O4 0.764224 0.442324 0.934331
O O5 0.679670 0.750000 0.262438
O O6 0.580592 0.543671 0.316479
O O7 0.657148 0.474884 0.218288
O O8 0.551647 0.250000 0.344323
O O9 0.422286 0.461708 0.358477
O O10 0.563904 0.462076 0.428860
O O11 0.344087 0.750000 0.855894
O O12 0.430537 0.503435 0.889209
O O13 0.252530 0.493874 0.879565
O O14 0.503986 0.750000 0.939820
O O15 0.500000 0.000000 0.000000
O O16 0.676138 0.750000 0.586158
O O17 0.639221 0.998613 0.529282
O O18 0.397499 0.250000 0.540411
#
# Coordination Sequence:
#
# PCOD8251278 Si02
#       7
#     8   8   8   8   8   8   8
#     4   9  19  36  58  81 110 147 185 225 274 330
#     4  10  22  40  58  79 108 144 182 225 278 330
#     4  10  19  32  54  83 110 140 177 217 260 315
#     4  10  22  40  58  78 107 144 185 230 275 326
#     4  11  23  38  60  87 115 150 191 235 286 336
#     4   9  18  33  54  78 107 141 175 214 265 317
#     4   9  17  33  55  80 112 146 175 212 264 320
#
# _framework density 19.886548000000001
#
# number of rings (size 3 to 8) (size 9 to 14) (size 15 to 20)
#    0.000    2.286    0.000    3.429    0.000    7.429 
#    0.000    7.143    0.000    0.000    0.000    0.000 
#    0.000    0.000    0.000    0.000    0.000    0.000 
#
# Total GULP energy -694216.835688 kJ/mol
# GULP energy per Si atom -12396.729209 kJ/mol
# Density = 1.984129 g / cm^3
# Si number density = 19.886548 Si / 1000 Ang^3
#
#
#
# Elastic Constant Matrix: (Units=GPa)
#
#
# Indices 1 2 3 4 5 6 
#
# 1 124.6630 29.6703 46.0571 0.0000 0.0000 0.0000
# 2 29.6703 33.8090 8.7124 0.0000 0.0000 0.0000
# 3 46.0571 8.7124 113.2191 0.0000 0.0000 0.0000
# 4 0.0000 0.0000 0.0000 30.8250 0.0000 0.0000
# 5 0.0000 0.0000 0.0000 0.0000 21.7242 0.0000
# 6 0.0000 0.0000 0.0000 0.0000 0.0000 27.1481
#
#
#
# Elastic Compliance Matrix: (Units=1/GPa)
#
#
# Indices 1 2 3 4 5 6 
#
# 1 0.011719 -0.009239 -0.004056 0.000000 0.000000 0.000000
# 2 -0.009239 0.037461 0.000876 0.000000 0.000000 0.000000
# 3 -0.004056 0.000876 0.010415 0.000000 0.000000 0.000000
# 4 0.000000 0.000000 0.000000 0.032441 0.000000 0.000000
# 5 0.000000 0.000000 0.000000 0.000000 0.046032 0.000000
# 6 0.000000 0.000000 0.000000 0.000000 0.000000 0.036835
#
#
# Mechanical properties :
#
#
# Convention : Reuss Voigt Hill
#
# Bulk Modulus (GPa) = 28.77258 48.95229 38.86244
# Shear Modulus (GPa) = 23.65993 28.42286 26.04139
#
# Velocity S-wave (km/s) = 3.45301 3.78464 3.62262
# Velocity P-wave (km/s) = 5.51339 6.61568 6.08953
#
# Compressibility (1/GPa) = 0.03475531
#
# Stress axis : x y z
#
# Youngs Moduli (GPa) = 85.32962 26.69473 96.01402
#
# Poissons Ratio (x) = 0.24664 0.38947
# Poissons Ratio (y) = 0.78839 -0.08410
# Poissons Ratio (z) = 0.34613 -0.02338
#
# Static dielectric constant tensor:
#      x y z
#    x 3.798750 0.000000 0.000000 
#    y 0.000000 3.361430 0.000000 
#    z 0.000000 0.000000 3.691970 
# 
# 
# High freq. dielectric constant tensor:
#      x y z
#    x 1.783470 0.000000 0.000000 
#    y 0.000000 1.754360 0.000000 
#    z 0.000000 0.000000 1.778170 
# 
# From -- ./inp_files/27306.got.cif
#   From: 2010.03.12/outbox.cif.g09.slc.cpg/sg62_14_cif.got.tgz:27306.got - 2010.04.10 19:12:36.
