data_PCOD8251321
_publ_section_title
;
Structure prediction by ZEFSAII (Michael W. Deem and Ramdas Pophale) SiO2 
 PCOD8251321
Probable space group: P N M A
;
_chemical_formula_sum "Si O2"
_cell_formula_units_Z 56
_cell_length_a 9.435342
_cell_length_b 14.945892
_cell_length_c 24.677364
_cell_angle_alpha 90.000000
_cell_angle_beta 90.000000
_cell_angle_gamma 90.000000
_cell_volume 3479.992062
_symmetry_space_group_name_H-M "P N M A"
_symmetry_group_IT_number 62
_symmetry_cell_setting 'orthorhombic'
loop_
_space_group_symop_operation_xyz
x,y,z
1/2-x,-y,1/2+z
1/2+x,1/2-y,1/2-z
-x,1/2+y,-z
-x,-y,-z
1/2+x,y,1/2-z
1/2-x,1/2+y,1/2+z
x,1/2-y,z
loop_
_atom_site_type_symbol
_atom_site_label
_atom_site_fract_x
_atom_site_fract_y
_atom_site_fract_z
Si Si1 0.602833 0.354537 0.189668
Si Si2 0.577130 0.643974 0.706502
Si Si3 0.206782 0.890175 0.976423
Si Si4 0.243423 0.425383 0.025488
Si Si5 0.483773 0.847235 0.924339
Si Si6 0.494189 0.962615 0.606317
Si Si7 0.469118 0.651433 0.442721
O O1 0.615270 0.250000 0.179530
O O2 0.759152 0.387058 0.207260
O O3 0.487009 0.377677 0.234791
O O4 0.552974 0.398513 0.132361
O O5 0.556135 0.750000 0.691968
O O6 0.492696 0.576420 0.666848
O O7 0.341762 0.832102 0.959724
O O8 0.106511 0.900989 0.924597
O O9 0.119043 0.847597 0.025709
O O10 0.266804 0.985986 0.991719
O O11 0.399866 0.395374 0.039846
O O12 0.159363 0.445207 0.080797
O O13 0.156863 0.357841 0.986736
O O14 0.546825 0.750000 0.910441
O O15 0.532036 0.069420 0.600817
O O16 0.452679 0.750000 0.414703
#
# Coordination Sequence:
#
# PCOD8251321 Si02
#       7
#     8   8   8   8   8   8   8
#     4   9  20  31  44  65  90 120 153 184 219 270
#     4  10  19  33  47  65  94 121 150 189 227 268
#     4   9  17  31  45  63  93 124 154 186 222 272
#     4   9  19  29  43  67  95 121 152 188 223 273
#     4  11  19  28  43  67  94 123 153 181 225 275
#     4   9  18  31  48  66  90 125 159 185 227 277
#     4   9  17  31  48  69  92 120 157 193 225 268
#
# _framework density 16.091991
#
# number of rings (size 3 to 8) (size 9 to 14) (size 15 to 20)
#    0.000    2.571    1.429    3.000    2.000    2.857 
#    0.000    0.000    0.000    0.000    0.000    1.000 
#    0.000    0.000    0.000    0.000    0.000    0.000 
#
# Total GULP energy -693853.693241 kJ/mol
# GULP energy per Si atom -12390.244522 kJ/mol
# Density = 1.605536 g / cm^3
# Si number density = 16.091991 Si / 1000 Ang^3
#
#
#
# Elastic Constant Matrix: (Units=GPa)
#
#
# Indices 1 2 3 4 5 6 
#
# 1 72.1239 9.2016 25.4544 0.0000 0.0000 0.0000
# 2 9.2016 65.2556 12.4001 0.0000 0.0000 0.0000
# 3 25.4544 12.4001 63.8781 0.0000 0.0000 0.0000
# 4 0.0000 0.0000 0.0000 16.0351 0.0000 0.0000
# 5 0.0000 0.0000 0.0000 0.0000 23.4487 0.0000
# 6 0.0000 0.0000 0.0000 0.0000 0.0000 15.4545
#
#
#
# Elastic Compliance Matrix: (Units=1/GPa)
#
#
# Indices 1 2 3 4 5 6 
#
# 1 0.016210 -0.001099 -0.006246 0.000000 0.000000 0.000000
# 2 -0.001099 0.015986 -0.002665 0.000000 0.000000 0.000000
# 3 -0.006246 -0.002665 0.018661 0.000000 0.000000 0.000000
# 4 0.000000 0.000000 0.000000 0.062363 0.000000 0.000000
# 5 0.000000 0.000000 0.000000 0.000000 0.042646 0.000000
# 6 0.000000 0.000000 0.000000 0.000000 0.000000 0.064706
#
#
# Mechanical properties :
#
#
# Convention : Reuss Voigt Hill
#
# Bulk Modulus (GPa) = 32.42930 32.81886 32.62408
# Shear Modulus (GPa) = 19.93057 21.26777 20.59917
#
# Velocity S-wave (km/s) = 3.52311 3.63938 3.58171
# Velocity P-wave (km/s) = 6.06184 6.17243 6.11739
#
# Compressibility (1/GPa) = 0.03083631
#
# Stress axis : x y z
#
# Youngs Moduli (GPa) = 61.69199 62.55559 53.58737
#
# Poissons Ratio (x) = 0.06874 0.33470
# Poissons Ratio (y) = 0.06779 0.14283
# Poissons Ratio (z) = 0.38532 0.16673
#
# Static dielectric constant tensor:
#      x y z
#    x 3.051120 0.000000 0.000000 
#    y 0.000000 2.901780 0.000000 
#    z 0.000000 0.000000 2.870400 
# 
# 
# High freq. dielectric constant tensor:
#      x y z
#    x 1.625640 0.000000 0.000000 
#    y 0.000000 1.595130 0.000000 
#    z 0.000000 0.000000 1.593930 
# 
# From -- ./inp_files/26101.got.cif
#   From: 2010.03.12/outbox.cif.g09.slc.cpg/sg62_14_cif.got.tgz:26101.got - 2010.04.10 19:12:36.
