data_PCOD8251787
_publ_section_title
;
Structure prediction by ZEFSAII (Michael W. Deem and Ramdas Pophale) SiO2 
 PCOD8251787
Probable space group: P N M A
;
_chemical_formula_sum "Si O2"
_cell_formula_units_Z 64
_cell_length_a 19.922730
_cell_length_b 9.169853
_cell_length_c 19.386156
_cell_angle_alpha 90.000000
_cell_angle_beta 90.000000
_cell_angle_gamma 90.000000
_cell_volume 3541.627866
_symmetry_space_group_name_H-M "P N M A"
_symmetry_group_IT_number 62
_symmetry_cell_setting 'orthorhombic'
loop_
_space_group_symop_operation_xyz
x,y,z
1/2-x,-y,1/2+z
1/2+x,1/2-y,1/2-z
-x,1/2+y,-z
-x,-y,-z
1/2+x,y,1/2-z
1/2-x,1/2+y,1/2+z
x,1/2-y,z
loop_
_atom_site_type_symbol
_atom_site_label
_atom_site_fract_x
_atom_site_fract_y
_atom_site_fract_z
Si Si1 0.779661 0.916867 0.252091
Si Si2 0.648447 0.422018 0.271880
Si Si3 0.588194 0.077323 0.682046
Si Si4 0.978878 0.422975 0.710715
Si Si5 0.319477 0.579155 0.573896
Si Si6 0.687019 0.083923 0.909583
Si Si7 0.435471 0.577400 0.471381
Si Si8 0.036894 0.077491 0.562721
O O1 0.757412 0.750000 0.237803
O O2 0.836792 0.972767 0.200196
O O3 0.811554 0.930939 0.327521
O O4 0.717852 0.023985 0.238830
O O5 0.641042 0.250000 0.262841
O O6 0.590237 0.500538 0.230067
O O7 0.649212 0.469366 0.352481
O O8 0.584893 0.250000 0.685815
O O9 0.534374 0.014747 0.736202
O O10 0.572723 0.019159 0.606043
O O11 0.970133 0.250000 0.717612
O O12 0.000276 0.467774 0.633653
O O13 0.306771 0.750000 0.573520
O O14 0.247786 0.506984 0.557291
O O15 0.370824 0.528795 0.515094
O O16 0.697134 0.250000 0.932748
O O17 0.614707 0.025921 0.935476
O O18 0.500000 0.500000 0.500000
O O19 0.445618 0.750000 0.475082
O O20 0.033088 0.250000 0.552450
O O21 0.000000 0.000000 0.500000
#
# Coordination Sequence:
#
# PCOD8251787 Si02
#       8
#     8   8   8   8   8   8   8   8
#     4   9  16  32  56  77  98 131 176 221 258 301
#     4  10  20  33  50  77 111 143 172 211 262 312
#     4   9  17  32  57  80 100 132 177 223 258 298
#     4  10  19  35  57  80 103 134 178 220 260 311
#     4   9  19  34  51  76 112 146 176 212 259 316
#     4   9  17  33  57  78  99 133 178 221 259 305
#     4  10  20  34  52  77 108 140 174 214 260 309
#     4  10  21  37  56  79 106 136 173 221 272 321
#
# _framework density 18.070786999999999
#
# number of rings (size 3 to 8) (size 9 to 14) (size 15 to 20)
#    0.000    2.500    1.250    1.125    0.000    2.000 
#    2.250    1.250    0.000    0.000    0.000    0.000 
#    0.000    0.000    0.000    0.000    0.000    0.000 
#
# Total GULP energy -793585.656075 kJ/mol
# GULP energy per Si atom -12399.775876 kJ/mol
# Density = 1.802966 g / cm^3
# Si number density = 18.070787 Si / 1000 Ang^3
#
#
#
# Elastic Constant Matrix: (Units=GPa)
#
#
# Indices 1 2 3 4 5 6 
#
# 1 162.5808 48.1756 93.8046 0.0000 0.0000 0.0000
# 2 48.1756 38.9930 39.8157 0.0000 0.0000 0.0000
# 3 93.8046 39.8157 131.6428 0.0000 0.0000 0.0000
# 4 0.0000 0.0000 0.0000 24.1203 0.0000 0.0000
# 5 0.0000 0.0000 0.0000 0.0000 34.6742 0.0000
# 6 0.0000 0.0000 0.0000 0.0000 0.0000 29.8301
#
#
#
# Elastic Compliance Matrix: (Units=1/GPa)
#
#
# Indices 1 2 3 4 5 6 
#
# 1 0.012317 -0.009051 -0.006039 0.000000 0.000000 0.000000
# 2 -0.009051 0.043756 -0.006784 0.000000 0.000000 0.000000
# 3 -0.006039 -0.006784 0.013952 0.000000 0.000000 0.000000
# 4 0.000000 0.000000 0.000000 0.041459 0.000000 0.000000
# 5 0.000000 0.000000 0.000000 0.000000 0.028840 0.000000
# 6 0.000000 0.000000 0.000000 0.000000 0.000000 0.033523
#
#
# Mechanical properties :
#
#
# Convention : Reuss Voigt Hill
#
# Bulk Modulus (GPa) = 38.05915 77.42317 57.74116
# Shear Modulus (GPa) = 22.08915 27.81965 24.95440
#
# Velocity S-wave (km/s) = 3.50003 3.92788 3.72011
# Velocity P-wave (km/s) = 6.11886 7.96921 7.10454
#
# Compressibility (1/GPa) = 0.02627489
#
# Stress axis : x y z
#
# Youngs Moduli (GPa) = 81.18585 22.85406 71.67522
#
# Poissons Ratio (x) = 0.20686 0.43288
# Poissons Ratio (y) = 0.73483 0.48628
# Poissons Ratio (z) = 0.49032 0.15505
#
# Static dielectric constant tensor:
#      x y z
#    x 3.426500 0.000000 0.000000 
#    y 0.000000 3.174110 0.000000 
#    z 0.000000 0.000000 3.467800 
# 
# 
# High freq. dielectric constant tensor:
#      x y z
#    x 1.713880 0.000000 0.000000 
#    y 0.000000 1.679130 0.000000 
#    z 0.000000 0.000000 1.692880 
# 
# From -- ./inp_files/27711.got.cif
#   From: 2010.03.12/outbox.cif.g09.slc.cpg/sg62_14_cif.got.tgz:27711.got - 2010.04.10 19:12:36.
