data_PCOD8251685
_publ_section_title
;
Structure prediction by ZEFSAII (Michael W. Deem and Ramdas Pophale) SiO2 
 PCOD8251685
Probable space group: P N M A
;
_chemical_formula_sum "Si O2"
_cell_formula_units_Z 64
_cell_length_a 15.245869
_cell_length_b 8.832774
_cell_length_c 24.329304
_cell_angle_alpha 90.000000
_cell_angle_beta 90.000000
_cell_angle_gamma 90.000000
_cell_volume 3276.264736
_symmetry_space_group_name_H-M "P N M A"
_symmetry_group_IT_number 62
_symmetry_cell_setting 'orthorhombic'
loop_
_space_group_symop_operation_xyz
x,y,z
1/2-x,-y,1/2+z
1/2+x,1/2-y,1/2-z
-x,1/2+y,-z
-x,-y,-z
1/2+x,y,1/2-z
1/2-x,1/2+y,1/2+z
x,1/2-y,z
loop_
_atom_site_type_symbol
_atom_site_label
_atom_site_fract_x
_atom_site_fract_y
_atom_site_fract_z
Si Si1 0.515365 0.073739 0.277131
Si Si2 0.186396 0.572005 0.188840
Si Si3 0.117130 0.425500 0.694453
Si Si4 0.801767 0.571843 0.040715
Si Si5 0.623733 0.075130 0.039539
Si Si6 0.044188 0.076797 0.576547
Si Si7 0.369163 0.428807 0.567755
Si Si8 0.458672 0.428166 0.398535
O O1 0.528231 0.250000 0.270527
O O2 0.470784 0.029866 0.334760
O O3 0.612602 0.002311 0.272415
O O4 0.452919 0.017700 0.229017
O O5 0.175489 0.750000 0.193971
O O6 0.283517 0.520723 0.208042
O O7 0.172668 0.522126 0.125729
O O8 0.105484 0.250000 0.708941
O O9 0.101395 0.456338 0.630232
O O10 0.817308 0.750000 0.044399
O O11 0.703741 0.529369 0.058948
O O12 0.864436 0.486850 0.083400
O O13 0.815142 0.513102 0.979038
O O14 0.647099 0.250000 0.049389
O O15 0.540273 0.031373 0.076549
O O16 0.605091 0.040947 0.975572
O O17 0.011470 0.250000 0.574417
O O18 0.364395 0.250000 0.557419
O O19 0.469537 0.484042 0.565072
O O20 0.467746 0.250000 0.409443
#
# Coordination Sequence:
#
# PCOD8251685 Si02
#       8
#     8   8   8   8   8   8   8   8
#     4  10  22  39  58  83 114 147 186 239 290 332
#     4   9  19  37  61  86 111 147 189 231 281 338
#     4  10  20  37  62  87 112 147 191 232 277 337
#     4  12  23  34  52  81 113 149 190 226 275 339
#     4  10  20  36  57  82 115 149 183 228 279 329
#     4   9  19  37  59  84 113 145 183 227 276 334
#     4  10  19  34  57  83 112 144 184 231 281 335
#     4  10  21  38  55  75 109 148 187 232 284 333
#
# _framework density 19.534441000000001
#
# number of rings (size 3 to 8) (size 9 to 14) (size 15 to 20)
#    0.000    2.000    0.000    3.750    0.000    5.500 
#    2.250    1.250    0.000    0.000    0.000    0.000 
#    0.000    0.000    0.000    0.000    0.000    0.000 
#
# Total GULP energy -793838.710603 kJ/mol
# GULP energy per Si atom -12403.729853 kJ/mol
# Density = 1.948998 g / cm^3
# Si number density = 19.534441 Si / 1000 Ang^3
#
#
#
# Elastic Constant Matrix: (Units=GPa)
#
#
# Indices 1 2 3 4 5 6 
#
# 1 124.0619 26.5996 32.7808 0.0000 0.0000 0.0000
# 2 26.5996 49.0864 15.9821 0.0000 0.0000 0.0000
# 3 32.7808 15.9821 40.7004 0.0000 0.0000 0.0000
# 4 0.0000 0.0000 0.0000 28.3136 0.0000 0.0000
# 5 0.0000 0.0000 0.0000 0.0000 27.5794 0.0000
# 6 0.0000 0.0000 0.0000 0.0000 0.0000 33.5089
#
#
#
# Elastic Compliance Matrix: (Units=1/GPa)
#
#
# Indices 1 2 3 4 5 6 
#
# 1 0.010723 -0.003438 -0.007286 0.000000 0.000000 0.000000
# 2 -0.003438 0.024461 -0.006836 0.000000 0.000000 0.000000
# 3 -0.007286 -0.006836 0.033123 0.000000 0.000000 0.000000
# 4 0.000000 0.000000 0.000000 0.035319 0.000000 0.000000
# 5 0.000000 0.000000 0.000000 0.000000 0.036259 0.000000
# 6 0.000000 0.000000 0.000000 0.000000 0.000000 0.029843
#
#
# Mechanical properties :
#
#
# Convention : Reuss Voigt Hill
#
# Bulk Modulus (GPa) = 30.13367 40.50818 35.32092
# Shear Modulus (GPa) = 23.15772 27.11277 25.13524
#
# Velocity S-wave (km/s) = 3.44682 3.72956 3.59097
# Velocity P-wave (km/s) = 5.59465 6.27120 5.94256
#
# Compressibility (1/GPa) = 0.03318547
#
# Stress axis : x y z
#
# Youngs Moduli (GPa) = 93.25789 40.88101 30.19079
#
# Poissons Ratio (x) = 0.14056 0.21998
# Poissons Ratio (y) = 0.32065 0.20639
# Poissons Ratio (z) = 0.67951 0.27946
#
# Static dielectric constant tensor:
#      x y z
#    x 3.645070 0.000000 0.000000 
#    y 0.000000 3.581640 0.000000 
#    z 0.000000 0.000000 3.427340 
# 
# 
# High freq. dielectric constant tensor:
#      x y z
#    x 1.771230 0.000000 0.000000 
#    y 0.000000 1.763240 0.000000 
#    z 0.000000 0.000000 1.743390 
# 
# From -- ./inp_files/29814.got.cif
#   From: 2010.03.12/outbox.cif.g09.slc.cpg/sg62_15_cif.got.tgz:29814.got - 2010.04.10 19:12:36.
