data_PCOD8251186
_publ_section_title
;
Structure prediction by ZEFSAII (Michael W. Deem and Ramdas Pophale) SiO2 
 PCOD8251186
Probable space group: P N M A
;
_chemical_formula_sum "Si O2"
_cell_formula_units_Z 48
_cell_length_a 11.054008
_cell_length_b 13.296221
_cell_length_c 17.946697
_cell_angle_alpha 90.000000
_cell_angle_beta 90.000000
_cell_angle_gamma 90.000000
_cell_volume 2637.743309
_symmetry_space_group_name_H-M "P N M A"
_symmetry_group_IT_number 62
_symmetry_cell_setting 'orthorhombic'
loop_
_space_group_symop_operation_xyz
x,y,z
1/2-x,-y,1/2+z
1/2+x,1/2-y,1/2-z
-x,1/2+y,-z
-x,-y,-z
1/2+x,y,1/2-z
1/2-x,1/2+y,1/2+z
x,1/2-y,z
loop_
_atom_site_type_symbol
_atom_site_label
_atom_site_fract_x
_atom_site_fract_y
_atom_site_fract_z
Si Si1 0.528255 0.861015 0.381962
Si Si2 0.863131 0.359787 0.718937
Si Si3 0.855915 0.866057 0.600717
Si Si4 0.945259 0.496544 0.335984
Si Si5 0.281856 0.866127 0.066441
Si Si6 0.840670 0.500949 0.181240
O O1 0.470963 0.750000 0.399015
O O2 0.591741 0.858164 0.302445
O O3 0.636621 0.883666 0.440155
O O4 0.429673 0.951088 0.381906
O O5 0.853278 0.250000 0.684193
O O6 0.952969 0.418439 0.665475
O O7 0.730245 0.405981 0.717007
O O8 0.846653 0.750000 0.622080
O O9 0.990920 0.903695 0.621537
O O10 0.839848 0.884785 0.513587
O O11 0.747416 0.919037 0.645960
O O12 0.833447 0.547131 0.379272
O O13 0.911338 0.455849 0.253026
O O14 0.306391 0.750000 0.093733
#
# Coordination Sequence:
#
# PCOD8251186 Si02
#       6
#     8   8   8   8   8   8
#     4   9  17  28  49  78 106 132 155 196 256 313
#     4   9  16  27  47  80 110 129 159 203 256 310
#     4  10  23  38  52  72 100 140 181 217 254 295
#     4  10  19  33  55  77 100 135 176 217 253 298
#     4  10  19  34  55  80 109 134 162 205 265 322
#     4  10  19  32  52  76 103 135 172 210 251 302
#
# _framework density 18.197372999999999
#
# number of rings (size 3 to 8) (size 9 to 14) (size 15 to 20)
#    0.000    2.333    1.667    1.500    0.000    2.667 
#    0.000    0.000    0.000    1.000    0.000    0.000 
#    0.000    0.000    0.000    0.000    0.000    0.000 
#
# Total GULP energy -594872.067923 kJ/mol
# GULP energy per Si atom -12393.168082 kJ/mol
# Density = 1.815596 g / cm^3
# Si number density = 18.197373 Si / 1000 Ang^3
#
#
#
# Elastic Constant Matrix: (Units=GPa)
#
#
# Indices 1 2 3 4 5 6 
#
# 1 67.7538 31.3791 9.6897 0.0000 0.0000 0.0000
# 2 31.3791 82.5221 22.2457 0.0000 0.0000 0.0000
# 3 9.6897 22.2457 43.0446 0.0000 0.0000 0.0000
# 4 0.0000 0.0000 0.0000 18.9754 0.0000 0.0000
# 5 0.0000 0.0000 0.0000 0.0000 20.6726 0.0000
# 6 0.0000 0.0000 0.0000 0.0000 0.0000 26.6933
#
#
#
# Elastic Compliance Matrix: (Units=1/GPa)
#
#
# Indices 1 2 3 4 5 6 
#
# 1 0.017927 -0.006656 -0.000596 0.000000 0.000000 0.000000
# 2 -0.006656 0.016551 -0.007055 0.000000 0.000000 0.000000
# 3 -0.000596 -0.007055 0.027012 0.000000 0.000000 0.000000
# 4 0.000000 0.000000 0.000000 0.052700 0.000000 0.000000
# 5 0.000000 0.000000 0.000000 0.000000 0.048373 0.000000
# 6 0.000000 0.000000 0.000000 0.000000 0.000000 0.037463
#
#
# Mechanical properties :
#
#
# Convention : Reuss Voigt Hill
#
# Bulk Modulus (GPa) = 30.41736 35.54994 32.98365
# Shear Modulus (GPa) = 20.86823 21.93531 21.40177
#
# Velocity S-wave (km/s) = 3.39008 3.47567 3.43314
# Velocity P-wave (km/s) = 5.66348 5.97371 5.82066
#
# Compressibility (1/GPa) = 0.03287596
#
# Stress axis : x y z
#
# Youngs Moduli (GPa) = 55.78099 60.41963 37.02064
#
# Poissons Ratio (x) = 0.40217 0.02205
# Poissons Ratio (y) = 0.37129 0.26119
# Poissons Ratio (z) = 0.03322 0.42627
#
# Static dielectric constant tensor:
#      x y z
#    x 3.504980 0.000000 0.000000 
#    y 0.000000 3.441710 0.000000 
#    z 0.000000 0.000000 3.179310 
# 
# 
# High freq. dielectric constant tensor:
#      x y z
#    x 1.710370 0.000000 0.000000 
#    y 0.000000 1.691860 0.000000 
#    z 0.000000 0.000000 1.686560 
# 
# From -- ./inp_files/22997.got.cif
#   From: 2010.03.12/outbox.cif.g09.slc.cpg/sg62_12_cif.got.tgz:22997.got - 2010.04.10 19:12:36.
