data_PCOD8251005
_publ_section_title
;
Structure prediction by ZEFSAII (Michael W. Deem and Ramdas Pophale) SiO2 
 PCOD8251005
Probable space group: P N M A
;
_chemical_formula_sum "Si O2"
_cell_formula_units_Z 64
_cell_length_a 14.027859
_cell_length_b 9.059027
_cell_length_c 28.656190
_cell_angle_alpha 90.000000
_cell_angle_beta 90.000000
_cell_angle_gamma 90.000000
_cell_volume 3641.592903
_symmetry_space_group_name_H-M "P N M A"
_symmetry_group_IT_number 62
_symmetry_cell_setting 'orthorhombic'
loop_
_space_group_symop_operation_xyz
x,y,z
1/2-x,-y,1/2+z
1/2+x,1/2-y,1/2-z
-x,1/2+y,-z
-x,-y,-z
1/2+x,y,1/2-z
1/2-x,1/2+y,1/2+z
x,1/2-y,z
loop_
_atom_site_type_symbol
_atom_site_label
_atom_site_fract_x
_atom_site_fract_y
_atom_site_fract_z
Si Si1 0.987452 0.077190 0.928846
Si Si2 0.355904 0.921975 0.996436
Si Si3 0.551532 0.575444 0.324075
Si Si4 0.901428 0.916395 0.344364
Si Si5 0.859371 0.077088 0.014753
Si Si6 0.523541 0.578083 0.928286
Si Si7 0.241720 0.074976 0.201667
Si Si8 0.114829 0.084237 0.757387
O O1 0.006446 0.250000 0.929402
O O2 0.955824 0.024822 0.877693
O O3 0.086653 0.000961 0.942694
O O4 0.904985 0.030396 0.965136
O O5 0.359293 0.750000 0.010135
O O6 0.249886 0.974792 0.984177
O O7 0.421786 0.955461 0.951744
O O8 0.390957 0.014740 0.040531
O O9 0.570507 0.750000 0.318955
O O10 0.635027 0.485760 0.299127
O O11 0.453438 0.528424 0.298592
O O12 0.882468 0.750000 0.362448
O O13 0.944628 0.915185 0.291768
O O14 0.975291 0.998202 0.378307
O O15 0.799924 0.004086 0.342215
O O16 0.868399 0.250000 0.022843
O O17 0.540730 0.750000 0.921034
O O18 0.242023 0.250000 0.198207
O O19 0.293099 0.022550 0.250246
O O20 0.151616 0.250000 0.768229
#
# Coordination Sequence:
#
# PCOD8251005 Si02
#       8
#     8   8   8   8   8   8   8   8
#     4   9  19  33  53  78 100 132 175 220 258 299
#     4   9  19  33  50  72 104 144 178 212 261 319
#     4  10  19  35  57  80 105 136 177 216 258 313
#     4   9  18  34  53  72  99 138 174 209 255 309
#     4   9  18  34  51  71 103 140 174 210 263 314
#     4  10  19  31  49  78 107 135 175 222 262 303
#     4  10  20  33  52  81 108 132 168 213 261 307
#     4   8  18  35  53  73 102 138 171 210 255 307
#
# _framework density 17.574725999999998
#
# number of rings (size 3 to 8) (size 9 to 14) (size 15 to 20)
#    0.750    2.000    0.000    1.500    1.750    2.000 
#    0.000    1.250    0.000    4.500    0.000    0.000 
#    0.000    0.000    0.000    0.000    0.000    0.000 
#
# Total GULP energy -793297.962357 kJ/mol
# GULP energy per Si atom -12395.280662 kJ/mol
# Density = 1.753473 g / cm^3
# Si number density = 17.574726 Si / 1000 Ang^3
#
#
#
# Elastic Constant Matrix: (Units=GPa)
#
#
# Indices 1 2 3 4 5 6 
#
# 1 114.3066 44.6232 38.3710 0.0000 0.0000 0.0000
# 2 44.6232 79.1693 32.3102 0.0000 0.0000 0.0000
# 3 38.3710 32.3102 65.4717 0.0000 0.0000 0.0000
# 4 0.0000 0.0000 0.0000 25.2944 0.0000 0.0000
# 5 0.0000 0.0000 0.0000 0.0000 22.3913 0.0000
# 6 0.0000 0.0000 0.0000 0.0000 0.0000 28.2821
#
#
#
# Elastic Compliance Matrix: (Units=1/GPa)
#
#
# Indices 1 2 3 4 5 6 
#
# 1 0.012288 -0.004992 -0.004738 0.000000 0.000000 0.000000
# 2 -0.004992 0.017845 -0.005881 0.000000 0.000000 0.000000
# 3 -0.004738 -0.005881 0.020953 0.000000 0.000000 0.000000
# 4 0.000000 0.000000 0.000000 0.039534 0.000000 0.000000
# 5 0.000000 0.000000 0.000000 0.000000 0.044660 0.000000
# 6 0.000000 0.000000 0.000000 0.000000 0.000000 0.035358
#
#
# Mechanical properties :
#
#
# Convention : Reuss Voigt Hill
#
# Bulk Modulus (GPa) = 50.34280 54.39514 52.36897
# Shear Modulus (GPa) = 23.98304 24.76977 24.37640
#
# Velocity S-wave (km/s) = 3.69810 3.75827 3.72830
# Velocity P-wave (km/s) = 6.85141 7.06050 6.95674
#
# Compressibility (1/GPa) = 0.01986381
#
# Stress axis : x y z
#
# Youngs Moduli (GPa) = 81.38219 56.03799 47.72698
#
# Poissons Ratio (x) = 0.27976 0.22612
# Poissons Ratio (y) = 0.40629 0.28067
# Poissons Ratio (z) = 0.38557 0.32954
#
# Static dielectric constant tensor:
#      x y z
#    x 3.139670 0.000000 0.000000 
#    y 0.000000 3.197510 0.000000 
#    z 0.000000 0.000000 3.185450 
# 
# 
# High freq. dielectric constant tensor:
#      x y z
#    x 1.665090 0.000000 0.000000 
#    y 0.000000 1.679180 0.000000 
#    z 0.000000 0.000000 1.665970 
# 
# From -- ./inp_files/32722.got.cif
#   From: 2010.03.12/outbox.cif.g09.slc.cpg/sg62_17_cif.got.tgz:32722.got - 2010.04.10 19:12:36.
