data_PCOD8251663
_publ_section_title
;
Structure prediction by ZEFSAII (Michael W. Deem and Ramdas Pophale) SiO2 
 PCOD8251663
Probable space group: P N M A
;
_chemical_formula_sum "Si O2"
_cell_formula_units_Z 64
_cell_length_a 15.876301
_cell_length_b 22.564626
_cell_length_c 9.044860
_cell_angle_alpha 90.000000
_cell_angle_beta 90.000000
_cell_angle_gamma 90.000000
_cell_volume 3240.255921
_symmetry_space_group_name_H-M "P N M A"
_symmetry_group_IT_number 62
_symmetry_cell_setting 'orthorhombic'
loop_
_space_group_symop_operation_xyz
x,y,z
1/2-x,-y,1/2+z
1/2+x,1/2-y,1/2-z
-x,1/2+y,-z
-x,-y,-z
1/2+x,y,1/2-z
1/2-x,1/2+y,1/2+z
x,1/2-y,z
loop_
_atom_site_type_symbol
_atom_site_label
_atom_site_fract_x
_atom_site_fract_y
_atom_site_fract_z
Si Si1 0.820898 0.982440 0.678288
Si Si2 0.369406 0.917017 0.079471
Si Si3 0.502152 0.491526 0.743693
Si Si4 0.243694 0.614018 0.309114
Si Si5 0.829141 0.619496 0.893930
Si Si6 0.019517 0.591263 0.973778
Si Si7 0.833100 0.684087 0.603648
Si Si8 0.342641 0.181626 0.563009
O O1 0.799016 0.952914 0.518569
O O2 0.794644 0.940362 0.815089
O O3 0.779410 0.045295 0.694213
O O4 0.922002 0.984381 0.669757
O O5 0.440792 0.961591 0.132247
O O6 0.330585 0.883771 0.219834
O O7 0.398876 0.862609 0.971175
O O8 0.470264 0.443340 0.626695
O O9 0.547528 0.546706 0.659404
O O10 0.263646 0.635746 0.474893
O O11 0.173969 0.654755 0.228151
O O12 0.828309 0.673689 0.779321
O O13 0.923041 0.611205 0.956611
O O14 0.081708 0.647467 0.979729
O O15 0.866889 0.750000 0.574109
O O16 0.740401 0.674850 0.535514
O O17 0.369381 0.250000 0.581305
#
# Coordination Sequence:
#
# PCOD8251663 Si02
#       8
#     8   8   8   8   8   8   8   8
#     4  10  20  33  52  83 118 149 181 231 295 348
#     4  10  20  33  55  83 112 147 189 230 287 347
#     4  10  19  34  56  83 119 148 185 232 295 346
#     4  11  20  33  55  80 115 144 186 244 280 342
#     4  10  21  36  57  89 111 151 197 236 292 350
#     4  10  20  36  59  85 120 151 188 242 287 346
#     4   9  21  41  59  79 113 149 194 247 291 341
#     4  10  22  40  59  80 109 155 196 233 293 347
#
# _framework density 19.751526999999999
#
# number of rings (size 3 to 8) (size 9 to 14) (size 15 to 20)
#    0.000    2.000    2.500    1.125    0.000    5.000 
#    0.000    0.625    0.000    0.000    0.000    0.000 
#    0.000    0.000    0.000    0.000    0.000    0.000 
#
# Total GULP energy -793176.015582 kJ/mol
# GULP energy per Si atom -12393.375243 kJ/mol
# Density = 1.970657 g / cm^3
# Si number density = 19.751527 Si / 1000 Ang^3
#
#
#
# Elastic Constant Matrix: (Units=GPa)
#
#
# Indices 1 2 3 4 5 6 
#
# 1 31.8615 21.6640 20.7721 0.0000 0.0000 0.0000
# 2 21.6640 125.9392 38.9757 0.0000 0.0000 0.0000
# 3 20.7721 38.9757 114.8162 0.0000 0.0000 0.0000
# 4 0.0000 0.0000 0.0000 20.1957 0.0000 0.0000
# 5 0.0000 0.0000 0.0000 0.0000 18.7266 0.0000
# 6 0.0000 0.0000 0.0000 0.0000 0.0000 28.7816
#
#
#
# Elastic Compliance Matrix: (Units=1/GPa)
#
#
# Indices 1 2 3 4 5 6 
#
# 1 0.038155 -0.004947 -0.005224 0.000000 0.000000 0.000000
# 2 -0.004947 0.009514 -0.002335 0.000000 0.000000 0.000000
# 3 -0.005224 -0.002335 0.010447 0.000000 0.000000 0.000000
# 4 0.000000 0.000000 0.000000 0.049516 0.000000 0.000000
# 5 0.000000 0.000000 0.000000 0.000000 0.053400 0.000000
# 6 0.000000 0.000000 0.000000 0.000000 0.000000 0.034744
#
#
# Mechanical properties :
#
#
# Convention : Reuss Voigt Hill
#
# Bulk Modulus (GPa) = 30.20617 48.38228 39.29422
# Shear Modulus (GPa) = 21.56834 26.28777 23.92806
#
# Velocity S-wave (km/s) = 3.30810 3.65214 3.48437
# Velocity P-wave (km/s) = 5.46970 6.50637 6.01043
#
# Compressibility (1/GPa) = 0.03310582
#
# Stress axis : x y z
#
# Youngs Moduli (GPa) = 26.20893 105.11041 95.72021
#
# Poissons Ratio (x) = 0.51996 0.50000
# Poissons Ratio (y) = 0.12965 0.22347
# Poissons Ratio (z) = 0.13690 0.24539
#
# Static dielectric constant tensor:
#      x y z
#    x 3.234920 0.000000 0.000000 
#    y 0.000000 3.648050 0.000000 
#    z 0.000000 0.000000 3.778790 
# 
# 
# High freq. dielectric constant tensor:
#      x y z
#    x 1.735370 0.000000 0.000000 
#    y 0.000000 1.766220 0.000000 
#    z 0.000000 0.000000 1.785120 
# 
# From -- ./inp_files/8149.got.cif
#   From: 2010.03.12/outbox.cif.g09.slc.cpg/sg62_5_cif.got.tgz:8149.got - 2010.04.10 19:12:36.
