data_PCOD8251888
_publ_section_title
;
Structure prediction by ZEFSAII (Michael W. Deem and Ramdas Pophale) SiO2 
 PCOD8251888
Probable space group: P N M A
;
_chemical_formula_sum "Si O2"
_cell_formula_units_Z 48
_cell_length_a 20.037317
_cell_length_b 9.243929
_cell_length_c 13.990035
_cell_angle_alpha 90.000000
_cell_angle_beta 90.000000
_cell_angle_gamma 90.000000
_cell_volume 2591.283747
_symmetry_space_group_name_H-M "P N M A"
_symmetry_group_IT_number 62
_symmetry_cell_setting 'orthorhombic'
loop_
_space_group_symop_operation_xyz
x,y,z
1/2-x,-y,1/2+z
1/2+x,1/2-y,1/2-z
-x,1/2+y,-z
-x,-y,-z
1/2+x,y,1/2-z
1/2-x,1/2+y,1/2+z
x,1/2-y,z
loop_
_atom_site_type_symbol
_atom_site_label
_atom_site_fract_x
_atom_site_fract_y
_atom_site_fract_z
Si Si1 0.062928 0.078983 0.955830
Si Si2 0.238374 0.581248 0.248535
Si Si3 0.816783 0.085861 0.958445
Si Si4 0.437767 0.921236 0.046416
Si Si5 0.611617 0.079214 0.750300
Si Si6 0.186207 0.414440 0.418235
O O1 0.054703 0.250000 0.967250
O O2 0.070406 0.034789 0.844197
O O3 0.127276 0.028648 0.013951
O O4 0.000000 0.000000 0.000000
O O5 0.240534 0.750000 0.270982
O O6 0.208398 0.546622 0.146055
O O7 0.313259 0.514554 0.255031
O O8 0.187788 0.509586 0.323226
O O9 0.844919 0.250000 0.962740
O O10 0.755888 0.066338 0.029395
O O11 0.449713 0.750000 0.043590
O O12 0.427318 0.976947 0.155552
O O13 0.372569 0.967700 0.987294
O O14 0.500000 0.000000 0.000000
O O15 0.619346 0.250000 0.759545
O O16 0.173548 0.250000 0.387788
#
# Coordination Sequence:
#
# PCOD8251888 Si02
#       6
#     8   8   8   8   8   8
#     4  11  23  39  60  85 117 153 193 236 284 343
#     4  10  19  35  60  86 112 149 195 233 278 343
#     4  10  20  36  59  85 113 148 189 236 287 337
#     4  10  21  39  59  82 115 151 189 232 284 338
#     4   9  18  36  60  81 107 150 192 230 279 339
#     4  10  20  35  57  85 115 144 183 241 290 325
#
# _framework density 18.523637000000001
#
# number of rings (size 3 to 8) (size 9 to 14) (size 15 to 20)
#    0.000    2.000    3.333    0.500    0.000    2.667 
#    0.000    7.500    0.000    0.000    0.000    0.000 
#    0.000    0.000    0.000    0.000    0.000    0.000 
#
# Total GULP energy -595230.892395 kJ/mol
# GULP energy per Si atom -12400.643592 kJ/mol
# Density = 1.848148 g / cm^3
# Si number density = 18.523637 Si / 1000 Ang^3
#
#
#
# Elastic Constant Matrix: (Units=GPa)
#
#
# Indices 1 2 3 4 5 6 
#
# 1 103.7524 37.2061 49.0248 0.0000 0.0000 0.0000
# 2 37.2061 48.6704 48.8122 0.0000 0.0000 0.0000
# 3 49.0248 48.8122 123.5028 0.0000 0.0000 0.0000
# 4 0.0000 0.0000 0.0000 31.4139 0.0000 0.0000
# 5 0.0000 0.0000 0.0000 0.0000 25.5709 0.0000
# 6 0.0000 0.0000 0.0000 0.0000 0.0000 35.1703
#
#
#
# Elastic Compliance Matrix: (Units=1/GPa)
#
#
# Indices 1 2 3 4 5 6 
#
# 1 0.013611 -0.008261 -0.002138 0.000000 0.000000 0.000000
# 2 -0.008261 0.039052 -0.012156 0.000000 0.000000 0.000000
# 3 -0.002138 -0.012156 0.013750 0.000000 0.000000 0.000000
# 4 0.000000 0.000000 0.000000 0.031833 0.000000 0.000000
# 5 0.000000 0.000000 0.000000 0.000000 0.039107 0.000000
# 6 0.000000 0.000000 0.000000 0.000000 0.000000 0.028433
#
#
# Mechanical properties :
#
#
# Convention : Reuss Voigt Hill
#
# Bulk Modulus (GPa) = 46.93824 60.66797 53.80311
# Shear Modulus (GPa) = 22.93621 27.82318 25.37969
#
# Velocity S-wave (km/s) = 3.52264 3.87982 3.70554
# Velocity P-wave (km/s) = 6.47611 7.27278 6.88598
#
# Compressibility (1/GPa) = 0.02130459
#
# Stress axis : x y z
#
# Youngs Moduli (GPa) = 73.47064 25.60682 72.72753
#
# Poissons Ratio (x) = 0.21153 0.15550
# Poissons Ratio (y) = 0.60691 0.88404
# Poissons Ratio (z) = 0.15708 0.31127
#
# Static dielectric constant tensor:
#      x y z
#    x 3.234180 0.000000 0.000000 
#    y 0.000000 3.219830 0.000000 
#    z 0.000000 0.000000 3.632950 
# 
# 
# High freq. dielectric constant tensor:
#      x y z
#    x 1.718710 0.000000 0.000000 
#    y 0.000000 1.697130 0.000000 
#    z 0.000000 0.000000 1.735050 
# 
# From -- ./inp_files/19572.got.cif
#   From: 2010.03.12/outbox.cif.g09.slc.cpg/sg62_10_cif.got.tgz:19572.got - 2010.04.10 19:12:36.
