data_PCOD8251173
_publ_section_title
;
Structure prediction by ZEFSAII (Michael W. Deem and Ramdas Pophale) SiO2 
 PCOD8251173
Probable space group: P N M A
;
_chemical_formula_sum "Si O2"
_cell_formula_units_Z 64
_cell_length_a 23.023144
_cell_length_b 8.815309
_cell_length_c 18.937291
_cell_angle_alpha 90.000000
_cell_angle_beta 90.000000
_cell_angle_gamma 90.000000
_cell_volume 3843.439266
_symmetry_space_group_name_H-M "P N M A"
_symmetry_group_IT_number 62
_symmetry_cell_setting 'orthorhombic'
loop_
_space_group_symop_operation_xyz
x,y,z
1/2-x,-y,1/2+z
1/2+x,1/2-y,1/2-z
-x,1/2+y,-z
-x,-y,-z
1/2+x,y,1/2-z
1/2-x,1/2+y,1/2+z
x,1/2-y,z
loop_
_atom_site_type_symbol
_atom_site_label
_atom_site_fract_x
_atom_site_fract_y
_atom_site_fract_z
Si Si1 0.775687 0.072793 0.144126
Si Si2 0.115720 0.928999 0.502030
Si Si3 0.251042 0.428561 0.998790
Si Si4 0.724715 0.572706 0.358547
Si Si5 0.436927 0.926467 0.865438
Si Si6 0.665477 0.074122 0.767793
Si Si7 0.942162 0.927467 0.362923
Si Si8 0.666045 0.424753 0.235482
O O1 0.780297 0.250000 0.131139
O O2 0.714162 0.024774 0.178219
O O3 0.782192 0.991509 0.069272
O O4 0.827685 0.019750 0.195538
O O5 0.110525 0.750000 0.515898
O O6 0.182233 0.984556 0.499321
O O7 0.084649 0.969999 0.429284
O O8 0.083425 0.019808 0.562935
O O9 0.247688 0.250000 0.997316
O O10 0.217509 0.488799 0.067262
O O11 0.721572 0.750000 0.372608
O O12 0.785907 0.522270 0.324166
O O13 0.672548 0.523238 0.306529
O O14 0.435270 0.750000 0.887813
O O15 0.396971 0.955582 0.797167
O O16 0.501105 0.976769 0.843674
O O17 0.673864 0.250000 0.749835
O O18 0.602903 0.038424 0.800247
O O19 0.956811 0.750000 0.368127
O O20 0.675469 0.250000 0.255780
#
# Coordination Sequence:
#
# PCOD8251173 Si02
#       8
#     8   8   8   8   8   8   8   8
#     4  10  19  32  52  74  99 129 166 207 251 301
#     4  11  22  34  49  71 100 137 177 211 244 291
#     4  11  21  32  50  75 104 135 168 205 250 303
#     4  10  19  32  52  74  99 129 166 207 251 301
#     4  11  22  36  52  71 100 136 174 212 249 294
#     4   9  19  34  50  71  99 131 165 207 254 295
#     4  11  22  36  52  71 100 136 174 212 249 294
#     4   9  19  34  50  71  99 131 165 207 254 295
#
# _framework density 16.651752999999999
#
# number of rings (size 3 to 8) (size 9 to 14) (size 15 to 20)
#    0.000    1.750    2.500    2.625    0.000    4.000 
#    0.000    0.000    0.000    0.000    0.000    0.875 
#    0.000    0.000    0.000    0.000    0.000    0.000 
#
# Total GULP energy -793908.879309 kJ/mol
# GULP energy per Si atom -12404.826239 kJ/mol
# Density = 1.661385 g / cm^3
# Si number density = 16.651753 Si / 1000 Ang^3
#
#
#
# Elastic Constant Matrix: (Units=GPa)
#
#
# Indices 1 2 3 4 5 6 
#
# 1 62.9438 24.5396 43.2716 0.0000 0.0000 0.0000
# 2 24.5396 56.7585 42.0834 0.0000 0.0000 0.0000
# 3 43.2716 42.0834 119.4507 0.0000 0.0000 0.0000
# 4 0.0000 0.0000 0.0000 29.4083 0.0000 0.0000
# 5 0.0000 0.0000 0.0000 0.0000 21.1259 0.0000
# 6 0.0000 0.0000 0.0000 0.0000 0.0000 23.9799
#
#
#
# Elastic Compliance Matrix: (Units=1/GPa)
#
#
# Indices 1 2 3 4 5 6 
#
# 1 0.022120 -0.004903 -0.006286 0.000000 0.000000 0.000000
# 2 -0.004903 0.024935 -0.007009 0.000000 0.000000 0.000000
# 3 -0.006286 -0.007009 0.013118 0.000000 0.000000 0.000000
# 4 0.000000 0.000000 0.000000 0.034004 0.000000 0.000000
# 5 0.000000 0.000000 0.000000 0.000000 0.047335 0.000000
# 6 0.000000 0.000000 0.000000 0.000000 0.000000 0.041702
#
#
# Mechanical properties :
#
#
# Convention : Reuss Voigt Hill
#
# Bulk Modulus (GPa) = 42.05574 50.99358 46.52466
# Shear Modulus (GPa) = 21.97475 23.52006 22.74741
#
# Velocity S-wave (km/s) = 3.63666 3.76236 3.70004
# Velocity P-wave (km/s) = 6.55321 7.04016 6.80105
#
# Compressibility (1/GPa) = 0.02377797
#
# Stress axis : x y z
#
# Youngs Moduli (GPa) = 45.20816 40.10458 76.23214
#
# Poissons Ratio (x) = 0.19664 0.47917
# Poissons Ratio (y) = 0.22166 0.53428
# Poissons Ratio (z) = 0.28416 0.28107
#
# Static dielectric constant tensor:
#      x y z
#    x 3.028970 0.000000 0.000000 
#    y 0.000000 3.174130 0.000000 
#    z 0.000000 0.000000 3.075420 
# 
# 
# High freq. dielectric constant tensor:
#      x y z
#    x 1.612800 0.000000 0.000000 
#    y 0.000000 1.655400 0.000000 
#    z 0.000000 0.000000 1.636530 
# 
# From -- ./inp_files/24948.got.cif
#   From: 2010.03.12/outbox.cif.g09.slc.cpg/sg62_13_cif.got.tgz:24948.got - 2010.04.10 19:12:36.
