data_PCOD8251247
_publ_section_title
;
Structure prediction by ZEFSAII (Michael W. Deem and Ramdas Pophale) SiO2 
 PCOD8251247
Probable space group: P N M A
;
_chemical_formula_sum "Si O2"
_cell_formula_units_Z 48
_cell_length_a 20.160856
_cell_length_b 9.140402
_cell_length_c 14.623496
_cell_angle_alpha 90.000000
_cell_angle_beta 90.000000
_cell_angle_gamma 90.000000
_cell_volume 2694.793400
_symmetry_space_group_name_H-M "P N M A"
_symmetry_group_IT_number 62
_symmetry_cell_setting 'orthorhombic'
loop_
_space_group_symop_operation_xyz
x,y,z
1/2-x,-y,1/2+z
1/2+x,1/2-y,1/2-z
-x,1/2+y,-z
-x,-y,-z
1/2+x,y,1/2-z
1/2-x,1/2+y,1/2+z
x,1/2-y,z
loop_
_atom_site_type_symbol
_atom_site_label
_atom_site_fract_x
_atom_site_fract_y
_atom_site_fract_z
Si Si1 0.471852 0.083226 0.724250
Si Si2 0.157180 0.082119 0.193559
Si Si3 0.046958 0.576577 0.428094
Si Si4 0.200271 0.079350 0.998069
Si Si5 0.554947 0.418403 0.557835
Si Si6 0.182554 0.077057 0.396795
O O1 0.448883 0.250000 0.722357
O O2 0.483462 0.035516 0.828943
O O3 0.538806 0.058064 0.665739
O O4 0.411976 0.998049 0.676859
O O5 0.137173 0.250000 0.196550
O O6 0.205315 0.050931 0.107497
O O7 0.191533 0.036589 0.289253
O O8 0.050239 0.750000 0.445664
O O9 0.119895 0.508403 0.437885
O O10 0.000000 0.500000 0.500000
O O11 0.212739 0.250000 0.974611
O O12 0.128854 0.024793 0.961524
O O13 0.253199 0.977519 0.949401
O O14 0.500000 0.500000 0.500000
O O15 0.550637 0.250000 0.529079
O O16 0.173296 0.250000 0.411891
#
# Coordination Sequence:
#
# PCOD8251247 Si02
#       6
#     8   8   8   8   8   8
#     4   9  18  32  53  80 108 136 174 219 263 317
#     4   9  18  34  55  76 103 139 177 215 264 321
#     4  10  20  37  59  81 109 142 180 223 269 319
#     4  10  20  35  54  77 110 145 177 219 271 322
#     4  10  19  32  53  81 110 139 173 215 265 321
#     4  10  21  37  56  79 107 140 183 225 265 320
#
# _framework density 17.812127
#
# number of rings (size 3 to 8) (size 9 to 14) (size 15 to 20)
#    0.000    2.333    1.667    1.000    0.000    2.667 
#    3.000    0.000    0.000    0.000    0.000    0.000 
#    0.000    0.000    0.000    0.000    0.000    0.000 
#
# Total GULP energy -595100.724273 kJ/mol
# GULP energy per Si atom -12397.931756 kJ/mol
# Density = 1.777159 g / cm^3
# Si number density = 17.812127 Si / 1000 Ang^3
#
#
#
# Elastic Constant Matrix: (Units=GPa)
#
#
# Indices 1 2 3 4 5 6 
#
# 1 119.1411 51.6285 72.2113 0.0000 0.0000 0.0000
# 2 51.6285 68.5476 44.3254 0.0000 0.0000 0.0000
# 3 72.2113 44.3254 106.7168 0.0000 0.0000 0.0000
# 4 0.0000 0.0000 0.0000 25.8280 0.0000 0.0000
# 5 0.0000 0.0000 0.0000 0.0000 31.2304 0.0000
# 6 0.0000 0.0000 0.0000 0.0000 0.0000 33.5326
#
#
#
# Elastic Compliance Matrix: (Units=1/GPa)
#
#
# Indices 1 2 3 4 5 6 
#
# 1 0.016409 -0.007081 -0.008162 0.000000 0.000000 0.000000
# 2 -0.007081 0.023001 -0.004762 0.000000 0.000000 0.000000
# 3 -0.008162 -0.004762 0.016872 0.000000 0.000000 0.000000
# 4 0.000000 0.000000 0.000000 0.038718 0.000000 0.000000
# 5 0.000000 0.000000 0.000000 0.000000 0.032020 0.000000
# 6 0.000000 0.000000 0.000000 0.000000 0.000000 0.029822
#
#
# Mechanical properties :
#
#
# Convention : Reuss Voigt Hill
#
# Bulk Modulus (GPa) = 61.45920 70.08176 65.77048
# Shear Modulus (GPa) = 24.71878 26.53422 25.62650
#
# Velocity S-wave (km/s) = 3.72929 3.86381 3.79715
# Velocity P-wave (km/s) = 7.28852 7.70297 7.49861
#
# Compressibility (1/GPa) = 0.01627096
#
# Stress axis : x y z
#
# Youngs Moduli (GPa) = 60.94233 43.47647 59.27087
#
# Poissons Ratio (x) = 0.30785 0.48378
# Poissons Ratio (y) = 0.43152 0.28226
# Poissons Ratio (z) = 0.49743 0.20704
#
# Static dielectric constant tensor:
#      x y z
#    x 3.208270 0.000000 0.000000 
#    y 0.000000 3.334520 0.000000 
#    z 0.000000 0.000000 3.676210 
# 
# 
# High freq. dielectric constant tensor:
#      x y z
#    x 1.669860 0.000000 0.000000 
#    y 0.000000 1.693090 0.000000 
#    z 0.000000 0.000000 1.700800 
# 
# From -- ./inp_files/19583.got.cif
#   From: 2010.03.12/outbox.cif.g09.slc.cpg/sg62_10_cif.got.tgz:19583.got - 2010.04.10 19:12:36.
