data_PCOD8251257
_publ_section_title
;
Structure prediction by ZEFSAII (Michael W. Deem and Ramdas Pophale) SiO2 
 PCOD8251257
Probable space group: P N M A
;
_chemical_formula_sum "Si O2"
_cell_formula_units_Z 64
_cell_length_a 9.591563
_cell_length_b 13.744869
_cell_length_c 25.578247
_cell_angle_alpha 90.000000
_cell_angle_beta 90.000000
_cell_angle_gamma 90.000000
_cell_volume 3372.102488
_symmetry_space_group_name_H-M "P N M A"
_symmetry_group_IT_number 62
_symmetry_cell_setting 'orthorhombic'
loop_
_space_group_symop_operation_xyz
x,y,z
1/2-x,-y,1/2+z
1/2+x,1/2-y,1/2-z
-x,1/2+y,-z
-x,-y,-z
1/2+x,y,1/2-z
1/2-x,1/2+y,1/2+z
x,1/2-y,z
loop_
_atom_site_type_symbol
_atom_site_label
_atom_site_fract_x
_atom_site_fract_y
_atom_site_fract_z
Si Si1 0.763888 0.860630 0.303355
Si Si2 0.679458 0.510378 0.615206
Si Si3 0.559836 0.362213 0.699809
Si Si4 0.167582 0.008358 0.600371
Si Si5 0.448264 0.856723 0.012226
Si Si6 0.428191 0.637194 0.895447
Si Si7 0.740858 0.353316 0.529247
Si Si8 0.941525 0.560888 0.951887
O O1 0.778313 0.750000 0.322530
O O2 0.602936 0.884590 0.290592
O O3 0.856382 0.879606 0.252652
O O4 0.828489 0.926903 0.348142
O O5 0.618364 0.441609 0.659803
O O6 0.808013 0.576674 0.635857
O O7 0.728543 0.439398 0.569596
O O8 0.562783 0.583180 0.590268
O O9 0.580408 0.250000 0.680231
O O10 0.089883 0.062022 0.553350
O O11 0.324641 0.994076 0.581746
O O12 0.079765 0.911144 0.614319
O O13 0.407867 0.750000 0.034634
O O14 0.612182 0.863881 0.000222
O O15 0.377431 0.871229 0.955786
O O16 0.434692 0.750000 0.877030
O O17 0.729210 0.250000 0.559245
O O18 0.628687 0.348517 0.481578
O O19 0.000000 0.500000 0.000000
#
# Coordination Sequence:
#
# PCOD8251257 Si02
#       8
#     8   8   8   8   8   8   8   8
#     4  10  23  40  62  95 125 152 188 238 300 368
#     4  11  21  39  57  84 118 161 198 242 301 354
#     4  10  22  41  63  93 125 150 188 239 298 365
#     4  12  20  38  59  84 120 160 200 240 296 357
#     4  10  19  32  53  84 118 155 198 240 286 346
#     4  11  24  38  57  84 118 160 209 254 286 338
#     4  10  19  32  53  85 119 155 197 240 292 356
#     4  10  21  33  53  81 116 157 197 236 288 347
#
# _framework density 18.979255999999999
#
# number of rings (size 3 to 8) (size 9 to 14) (size 15 to 20)
#    0.000    1.500    3.750    2.625    1.750    0.500 
#    0.000    1.875    0.000    0.750    0.000    0.000 
#    0.000    0.000    0.000    0.000    0.000    0.000 
#
# Total GULP energy -793031.195287 kJ/mol
# GULP energy per Si atom -12391.112426 kJ/mol
# Density = 1.893606 g / cm^3
# Si number density = 18.979256 Si / 1000 Ang^3
#
#
#
# Elastic Constant Matrix: (Units=GPa)
#
#
# Indices 1 2 3 4 5 6 
#
# 1 103.5191 40.4040 27.8036 0.0000 0.0000 0.0000
# 2 40.4040 96.1641 25.2723 0.0000 0.0000 0.0000
# 3 27.8036 25.2723 58.4815 0.0000 0.0000 0.0000
# 4 0.0000 0.0000 0.0000 24.8673 0.0000 0.0000
# 5 0.0000 0.0000 0.0000 0.0000 27.3485 0.0000
# 6 0.0000 0.0000 0.0000 0.0000 0.0000 26.1591
#
#
#
# Elastic Compliance Matrix: (Units=1/GPa)
#
#
# Indices 1 2 3 4 5 6 
#
# 1 0.012369 -0.004119 -0.004100 0.000000 0.000000 0.000000
# 2 -0.004119 0.013103 -0.003704 0.000000 0.000000 0.000000
# 3 -0.004100 -0.003704 0.020650 0.000000 0.000000 0.000000
# 4 0.000000 0.000000 0.000000 0.040214 0.000000 0.000000
# 5 0.000000 0.000000 0.000000 0.000000 0.036565 0.000000
# 6 0.000000 0.000000 0.000000 0.000000 0.000000 0.038228
#
#
# Mechanical properties :
#
#
# Convention : Reuss Voigt Hill
#
# Bulk Modulus (GPa) = 44.89496 49.45827 47.17661
# Shear Modulus (GPa) = 25.98749 26.65396 26.32072
#
# Velocity S-wave (km/s) = 3.70436 3.75156 3.72804
# Velocity P-wave (km/s) = 6.48093 6.69935 6.59105
#
# Compressibility (1/GPa) = 0.02227422
#
# Stress axis : x y z
#
# Youngs Moduli (GPa) = 80.84605 76.31789 48.42731
#
# Poissons Ratio (x) = 0.31438 0.19857
# Poissons Ratio (y) = 0.33304 0.17937
# Poissons Ratio (z) = 0.33151 0.28268
#
# Static dielectric constant tensor:
#      x y z
#    x 4.375970 0.000000 0.000000 
#    y 0.000000 3.608460 0.000000 
#    z 0.000000 0.000000 3.261400 
# 
# 
# High freq. dielectric constant tensor:
#      x y z
#    x 1.754750 0.000000 0.000000 
#    y 0.000000 1.731660 0.000000 
#    z 0.000000 0.000000 1.707670 
# 
# From -- ./inp_files/28980.got.cif
#   From: 2010.03.12/outbox.cif.g09.slc.cpg/sg62_15_cif.got.tgz:28980.got - 2010.04.10 19:12:36.
