data_PCOD8251315
_publ_section_title
;
Structure prediction by ZEFSAII (Michael W. Deem and Ramdas Pophale) SiO2 
 PCOD8251315
Probable space group: P N M A
;
_chemical_formula_sum "Si O2"
_cell_formula_units_Z 48
_cell_length_a 13.933544
_cell_length_b 8.957839
_cell_length_c 18.404461
_cell_angle_alpha 90.000000
_cell_angle_beta 90.000000
_cell_angle_gamma 90.000000
_cell_volume 2297.142564
_symmetry_space_group_name_H-M "P N M A"
_symmetry_group_IT_number 62
_symmetry_cell_setting 'orthorhombic'
loop_
_space_group_symop_operation_xyz
x,y,z
1/2-x,-y,1/2+z
1/2+x,1/2-y,1/2-z
-x,1/2+y,-z
-x,-y,-z
1/2+x,y,1/2-z
1/2-x,1/2+y,1/2+z
x,1/2-y,z
loop_
_atom_site_type_symbol
_atom_site_label
_atom_site_fract_x
_atom_site_fract_y
_atom_site_fract_z
Si Si1 0.931121 0.421673 0.849304
Si Si2 0.816557 0.922230 0.729274
Si Si3 0.946720 0.919652 0.595723
Si Si4 0.855997 0.079363 0.464008
Si Si5 0.172975 0.579030 0.008670
Si Si6 0.852721 0.926242 0.144639
O O1 0.915309 0.250000 0.827651
O O2 0.852406 0.517232 0.806336
O O3 0.039598 0.473172 0.831884
O O4 0.915495 0.443918 0.936062
O O5 0.789655 0.750000 0.737913
O O6 0.905442 0.948973 0.675211
O O7 0.720924 0.003746 0.701789
O O8 0.923510 0.750000 0.569681
O O9 0.061722 0.944589 0.596995
O O10 0.898535 0.038487 0.542673
O O11 0.820870 0.250000 0.465985
O O12 0.767309 0.971669 0.446407
O O13 0.182865 0.750000 0.983996
O O14 0.165546 0.480683 0.936966
O O15 0.839897 0.750000 0.145060
#
# Coordination Sequence:
#
# PCOD8251315 Si02
#       6
#     8   8   8   8   8   8
#     4  10  25  44  62  89 125 163 207 257 308 369
#     4  11  23  40  64  92 125 164 205 255 313 373
#     4   9  19  35  54  83 121 157 198 247 299 358
#     4  10  19  32  56  88 119 156 199 248 301 360
#     4  11  22  39  62  90 124 162 206 259 311 363
#     4  11  23  42  67  92 121 162 208 254 309 370
#
# _framework density 20.895526
#
# number of rings (size 3 to 8) (size 9 to 14) (size 15 to 20)
#    0.000    1.667    1.667    2.500    0.000    5.333 
#    0.000    3.333    0.000    0.000    0.000    0.000 
#    0.000    0.000    0.000    0.000    0.000    0.000 
#
# Total GULP energy -595252.577372 kJ/mol
# GULP energy per Si atom -12401.095362 kJ/mol
# Density = 2.084797 g / cm^3
# Si number density = 20.895526 Si / 1000 Ang^3
#
#
#
# Elastic Constant Matrix: (Units=GPa)
#
#
# Indices 1 2 3 4 5 6 
#
# 1 124.2111 54.4947 42.7335 0.0000 0.0000 0.0000
# 2 54.4947 91.6787 31.4962 0.0000 0.0000 0.0000
# 3 42.7335 31.4962 68.1766 0.0000 0.0000 0.0000
# 4 0.0000 0.0000 0.0000 30.2599 0.0000 0.0000
# 5 0.0000 0.0000 0.0000 0.0000 28.7727 0.0000
# 6 0.0000 0.0000 0.0000 0.0000 0.0000 29.6262
#
#
#
# Elastic Compliance Matrix: (Units=1/GPa)
#
#
# Indices 1 2 3 4 5 6 
#
# 1 0.012230 -0.005511 -0.005120 0.000000 0.000000 0.000000
# 2 -0.005511 0.015448 -0.003683 0.000000 0.000000 0.000000
# 3 -0.005120 -0.003683 0.019578 0.000000 0.000000 0.000000
# 4 0.000000 0.000000 0.000000 0.033047 0.000000 0.000000
# 5 0.000000 0.000000 0.000000 0.000000 0.034755 0.000000
# 6 0.000000 0.000000 0.000000 0.000000 0.000000 0.033754
#
#
# Mechanical properties :
#
#
# Convention : Reuss Voigt Hill
#
# Bulk Modulus (GPa) = 53.67693 60.16837 56.92265
# Shear Modulus (GPa) = 27.22573 28.08788 27.65681
#
# Velocity S-wave (km/s) = 3.61355 3.67032 3.64204
# Velocity P-wave (km/s) = 6.56920 6.84244 6.70721
#
# Compressibility (1/GPa) = 0.01862998
#
# Stress axis : x y z
#
# Youngs Moduli (GPa) = 81.76644 64.73148 51.07666
#
# Poissons Ratio (x) = 0.35671 0.26151
# Poissons Ratio (y) = 0.45058 0.18810
# Poissons Ratio (z) = 0.41865 0.23839
#
# Static dielectric constant tensor:
#      x y z
#    x 4.100450 0.000000 0.000000 
#    y 0.000000 3.788450 0.000000 
#    z 0.000000 0.000000 3.471030 
# 
# 
# High freq. dielectric constant tensor:
#      x y z
#    x 1.830900 0.000000 0.000000 
#    y 0.000000 1.823560 0.000000 
#    z 0.000000 0.000000 1.798810 
# 
# From -- ./inp_files/23693.got.cif
#   From: 2010.03.12/outbox.cif.g09.slc.cpg/sg62_12_cif.got.tgz:23693.got - 2010.04.10 19:12:36.
