data_PCOD8251224
_publ_section_title
;
Structure prediction by ZEFSAII (Michael W. Deem and Ramdas Pophale) SiO2 
 PCOD8251224
Probable space group: P N M A
;
_chemical_formula_sum "Si O2"
_cell_formula_units_Z 40
_cell_length_a 16.097202
_cell_length_b 9.013145
_cell_length_c 16.855894
_cell_angle_alpha 90.000000
_cell_angle_beta 90.000000
_cell_angle_gamma 90.000000
_cell_volume 2445.561244
_symmetry_space_group_name_H-M "P N M A"
_symmetry_group_IT_number 62
_symmetry_cell_setting 'orthorhombic'
loop_
_space_group_symop_operation_xyz
x,y,z
1/2-x,-y,1/2+z
1/2+x,1/2-y,1/2-z
-x,1/2+y,-z
-x,-y,-z
1/2+x,y,1/2-z
1/2-x,1/2+y,1/2+z
x,1/2-y,z
loop_
_atom_site_type_symbol
_atom_site_label
_atom_site_fract_x
_atom_site_fract_y
_atom_site_fract_z
Si Si1 0.376062 0.577658 0.461269
Si Si2 0.046145 0.082357 0.429996
Si Si3 0.777584 0.582257 0.617611
Si Si4 0.098361 0.925464 0.284674
Si Si5 0.054028 0.921918 0.107590
O O1 0.355003 0.750000 0.466560
O O2 0.301192 0.495832 0.419151
O O3 0.457809 0.545291 0.409624
O O4 0.387348 0.516246 0.549908
O O5 0.011895 0.250000 0.423210
O O6 0.146014 0.082447 0.446042
O O7 0.031089 0.996439 0.346199
O O8 0.000000 0.000000 0.500000
O O9 0.754238 0.750000 0.642137
O O10 0.809945 0.492632 0.695691
O O11 0.099458 0.750000 0.295710
O O12 0.072687 0.972963 0.196675
O O13 0.075239 0.750000 0.093924
#
# Coordination Sequence:
#
# PCOD8251224 Si02
#       5
#     8   8   8   8   8
#     4  10  19  32  53  77 102 137 175 210 254 307
#     4   9  18  31  51  75 101 133 169 208 255 306
#     4   9  19  33  50  73 102 133 167 213 258 301
#     4   9  17  32  53  73 100 134 168 211 258 306
#     4   9  19  34  52  76 104 136 172 212 258 306
#
# _framework density 16.356164
#
# number of rings (size 3 to 8) (size 9 to 14) (size 15 to 20)
#    1.200    1.600    0.000    1.800    0.000    2.400 
#    0.000    2.000    0.000    4.800    0.000    0.000 
#    0.000    0.000    0.000    0.000    0.000    0.000 
#
# Total GULP energy -495680.240761 kJ/mol
# GULP energy per Si atom -12392.006019 kJ/mol
# Density = 1.631894 g / cm^3
# Si number density = 16.356164 Si / 1000 Ang^3
#
#
#
# Elastic Constant Matrix: (Units=GPa)
#
#
# Indices 1 2 3 4 5 6 
#
# 1 66.3887 47.7816 56.0288 0.0000 0.0000 0.0000
# 2 47.7816 122.5206 77.9058 0.0000 0.0000 0.0000
# 3 56.0288 77.9058 146.0946 0.0000 0.0000 0.0000
# 4 0.0000 0.0000 0.0000 29.1151 0.0000 0.0000
# 5 0.0000 0.0000 0.0000 0.0000 21.9252 0.0000
# 6 0.0000 0.0000 0.0000 0.0000 0.0000 30.9255
#
#
#
# Elastic Compliance Matrix: (Units=1/GPa)
#
#
# Indices 1 2 3 4 5 6 
#
# 1 0.024424 -0.005400 -0.006487 0.000000 0.000000 0.000000
# 2 -0.005400 0.013543 -0.005151 0.000000 0.000000 0.000000
# 3 -0.006487 -0.005151 0.012080 0.000000 0.000000 0.000000
# 4 0.000000 0.000000 0.000000 0.034346 0.000000 0.000000
# 5 0.000000 0.000000 0.000000 0.000000 0.045610 0.000000
# 6 0.000000 0.000000 0.000000 0.000000 0.000000 0.032336
#
#
# Mechanical properties :
#
#
# Convention : Reuss Voigt Hill
#
# Bulk Modulus (GPa) = 62.61636 77.60404 70.11020
# Shear Modulus (GPa) = 24.78442 26.61233 25.69838
#
# Velocity S-wave (km/s) = 3.89690 4.03805 3.96810
# Velocity P-wave (km/s) = 7.65597 8.32409 7.99701
#
# Compressibility (1/GPa) = 0.01597027
#
# Stress axis : x y z
#
# Youngs Moduli (GPa) = 40.94252 73.83793 82.78411
#
# Poissons Ratio (x) = 0.39874 0.53705
# Poissons Ratio (y) = 0.22110 0.42642
# Poissons Ratio (z) = 0.26561 0.38033
#
# Static dielectric constant tensor:
#      x y z
#    x 2.886740 0.000000 0.000000 
#    y 0.000000 3.215400 0.000000 
#    z 0.000000 0.000000 2.998500 
# 
# 
# High freq. dielectric constant tensor:
#      x y z
#    x 1.609180 0.000000 0.000000 
#    y 0.000000 1.649250 0.000000 
#    z 0.000000 0.000000 1.616440 
# 
# From -- ./inp_files/24157.got.cif
#   From: 2010.03.12/outbox.cif.g09.slc.cpg/sg62_13_cif.got.tgz:24157.got - 2010.04.10 19:12:36.
