data_PCOD8251506
_publ_section_title
;
Structure prediction by ZEFSAII (Michael W. Deem and Ramdas Pophale) SiO2 
 PCOD8251506
Probable space group: P N M A
;
_chemical_formula_sum "Si O2"
_cell_formula_units_Z 64
_cell_length_a 14.819266
_cell_length_b 9.020250
_cell_length_c 24.494133
_cell_angle_alpha 90.000000
_cell_angle_beta 90.000000
_cell_angle_gamma 90.000000
_cell_volume 3274.216099
_symmetry_space_group_name_H-M "P N M A"
_symmetry_group_IT_number 62
_symmetry_cell_setting 'orthorhombic'
loop_
_space_group_symop_operation_xyz
x,y,z
1/2-x,-y,1/2+z
1/2+x,1/2-y,1/2-z
-x,1/2+y,-z
-x,-y,-z
1/2+x,y,1/2-z
1/2-x,1/2+y,1/2+z
x,1/2-y,z
loop_
_atom_site_type_symbol
_atom_site_label
_atom_site_fract_x
_atom_site_fract_y
_atom_site_fract_z
Si Si1 0.034250 0.581235 0.128709
Si Si2 0.129336 0.926492 0.237560
Si Si3 0.591581 0.582087 0.486468
Si Si4 0.003684 0.073979 0.668997
Si Si5 0.168863 0.425657 0.739299
Si Si6 0.366747 0.418808 0.348984
Si Si7 0.052599 0.926079 0.450440
Si Si8 0.759228 0.921135 0.554570
O O1 0.000824 0.750000 0.137323
O O2 0.080083 0.517549 0.183198
O O3 0.105512 0.574386 0.078997
O O4 0.949219 0.476728 0.113501
O O5 0.133961 0.750000 0.238630
O O6 0.075747 0.986474 0.290877
O O7 0.230602 0.992916 0.234162
O O8 0.500000 0.500000 0.500000
O O9 0.581406 0.750000 0.507788
O O10 0.681093 0.515943 0.514542
O O11 0.999412 0.250000 0.669859
O O12 0.988666 0.016329 0.607301
O O13 0.101762 0.019301 0.690930
O O14 0.171510 0.250000 0.739388
O O15 0.129394 0.477616 0.796516
O O16 0.382147 0.250000 0.331341
O O17 0.274363 0.435427 0.382951
O O18 0.045184 0.750000 0.455396
O O19 0.156075 0.973724 0.453952
O O20 0.000000 0.000000 0.500000
O O21 0.783838 0.750000 0.540787
#
# Coordination Sequence:
#
# PCOD8251506 Si02
#       8
#     8   8   8   8   8   8   8   8
#     4  10  19  33  56  82 111 148 190 232 278 337
#     4   9  17  31  54  86 111 135 184 237 278 326
#     4  10  20  34  55  84 117 152 188 233 285 342
#     4   9  18  34  57  85 112 143 188 238 285 337
#     4  10  19  34  59  83 110 148 190 240 285 339
#     4  11  21  34  54  83 119 154 187 232 289 343
#     4  11  24  42  64  87 113 152 201 252 300 348
#     4  10  22  39  58  84 120 158 196 239 290 351
#
# _framework density 19.546662000000001
#
# number of rings (size 3 to 8) (size 9 to 14) (size 15 to 20)
#    0.000    2.000    2.500    1.500    0.000    3.500 
#    0.000    5.625    0.000    0.000    0.000    0.000 
#    0.000    0.000    0.000    0.000    0.000    0.000 
#
# Total GULP energy -793439.132967 kJ/mol
# GULP energy per Si atom -12397.486453 kJ/mol
# Density = 1.950217 g / cm^3
# Si number density = 19.546662 Si / 1000 Ang^3
#
#
#
# Elastic Constant Matrix: (Units=GPa)
#
#
# Indices 1 2 3 4 5 6 
#
# 1 142.4974 37.1420 66.9599 0.0000 0.0000 0.0000
# 2 37.1420 33.8305 28.5331 0.0000 0.0000 0.0000
# 3 66.9599 28.5331 136.5568 0.0000 0.0000 0.0000
# 4 0.0000 0.0000 0.0000 22.4282 0.0000 0.0000
# 5 0.0000 0.0000 0.0000 0.0000 31.5591 0.0000
# 6 0.0000 0.0000 0.0000 0.0000 0.0000 25.2183
#
#
#
# Elastic Compliance Matrix: (Units=1/GPa)
#
#
# Indices 1 2 3 4 5 6 
#
# 1 0.011058 -0.009186 -0.003503 0.000000 0.000000 0.000000
# 2 -0.009186 0.043514 -0.004588 0.000000 0.000000 0.000000
# 3 -0.003503 -0.004588 0.009999 0.000000 0.000000 0.000000
# 4 0.000000 0.000000 0.000000 0.044587 0.000000 0.000000
# 5 0.000000 0.000000 0.000000 0.000000 0.031687 0.000000
# 6 0.000000 0.000000 0.000000 0.000000 0.000000 0.039654
#
#
# Mechanical properties :
#
#
# Convention : Reuss Voigt Hill
#
# Bulk Modulus (GPa) = 33.31374 64.23941 48.77658
# Shear Modulus (GPa) = 22.21657 27.85776 25.03717
#
# Velocity S-wave (km/s) = 3.37499 3.77927 3.58284
# Velocity P-wave (km/s) = 5.68046 7.20970 6.49028
#
# Compressibility (1/GPa) = 0.03001764
#
# Stress axis : x y z
#
# Youngs Moduli (GPa) = 90.43200 22.98123 100.00860
#
# Poissons Ratio (x) = 0.21111 0.35031
# Poissons Ratio (y) = 0.83072 0.45881
# Poissons Ratio (z) = 0.31677 0.10543
#
# Static dielectric constant tensor:
#      x y z
#    x 3.784840 0.000000 0.000000 
#    y 0.000000 3.212440 0.000000 
#    z 0.000000 0.000000 3.813500 
# 
# 
# High freq. dielectric constant tensor:
#      x y z
#    x 1.763420 0.000000 0.000000 
#    y 0.000000 1.725590 0.000000 
#    z 0.000000 0.000000 1.771770 
# 
# From -- ./inp_files/29857.got.cif
#   From: 2010.03.12/outbox.cif.g09.slc.cpg/sg62_15_cif.got.tgz:29857.got - 2010.04.10 19:12:36.
