data_PCOD8251356
_publ_section_title
;
Structure prediction by ZEFSAII (Michael W. Deem and Ramdas Pophale) SiO2 
 PCOD8251356
Probable space group: P N M A
;
_chemical_formula_sum "Si O2"
_cell_formula_units_Z 64
_cell_length_a 18.538047
_cell_length_b 9.118118
_cell_length_c 19.785667
_cell_angle_alpha 90.000000
_cell_angle_beta 90.000000
_cell_angle_gamma 90.000000
_cell_volume 3344.412844
_symmetry_space_group_name_H-M "P N M A"
_symmetry_group_IT_number 62
_symmetry_cell_setting 'orthorhombic'
loop_
_space_group_symop_operation_xyz
x,y,z
1/2-x,-y,1/2+z
1/2+x,1/2-y,1/2-z
-x,1/2+y,-z
-x,-y,-z
1/2+x,y,1/2-z
1/2-x,1/2+y,1/2+z
x,1/2-y,z
loop_
_atom_site_type_symbol
_atom_site_label
_atom_site_fract_x
_atom_site_fract_y
_atom_site_fract_z
Si Si1 0.016753 0.576617 0.310830
Si Si2 0.411422 0.423100 0.674302
Si Si3 0.447911 0.920493 0.948287
Si Si4 0.260028 0.074979 0.621243
Si Si5 0.356900 0.924312 0.226971
Si Si6 0.281998 0.919588 0.973662
Si Si7 0.678369 0.422816 0.624032
Si Si8 0.525451 0.422692 0.566835
O O1 0.016616 0.750000 0.325959
O O2 0.072595 0.534071 0.251524
O O3 0.043849 0.489778 0.375106
O O4 0.937345 0.521308 0.289678
O O5 0.408110 0.250000 0.667264
O O6 0.335276 0.489697 0.649640
O O7 0.476086 0.482638 0.627800
O O8 0.468127 0.750000 0.945421
O O9 0.367146 0.944757 0.974105
O O10 0.500000 0.000000 0.000000
O O11 0.258951 0.250000 0.622553
O O12 0.196328 0.014754 0.669192
O O13 0.248314 0.018523 0.544865
O O14 0.357039 0.750000 0.229785
O O15 0.330560 0.983988 0.299744
O O16 0.261952 0.750000 0.965184
O O17 0.247326 0.004939 0.911002
O O18 0.690876 0.250000 0.625270
O O19 0.607614 0.465852 0.581637
O O20 0.500000 0.500000 0.500000
O O21 0.516375 0.250000 0.558117
#
# Coordination Sequence:
#
# PCOD8251356 Si02
#       8
#     8   8   8   8   8   8   8   8
#     4  10  19  35  59  85 113 147 187 240 292 336
#     4   9  17  30  51  81 109 141 190 235 275 329
#     4  11  24  41  61  86 116 153 194 239 291 348
#     4   9  17  30  52  78 104 141 189 230 273 335
#     4   9  17  32  54  81 112 144 184 234 284 333
#     4  10  22  39  57  82 116 150 186 235 291 346
#     4  10  20  34  55  84 113 145 190 238 280 333
#     4  10  19  33  52  79 113 147 186 234 279 331
#
# _framework density 19.136393999999999
#
# number of rings (size 3 to 8) (size 9 to 14) (size 15 to 20)
#    0.000    2.250    1.250    1.875    1.750    4.500 
#    0.000    1.250    0.000    1.500    0.000    0.000 
#    0.000    0.000    0.000    0.000    0.000    0.000 
#
# Total GULP energy -793647.469689 kJ/mol
# GULP energy per Si atom -12400.741714 kJ/mol
# Density = 1.909284 g / cm^3
# Si number density = 19.136394 Si / 1000 Ang^3
#
#
#
# Elastic Constant Matrix: (Units=GPa)
#
#
# Indices 1 2 3 4 5 6 
#
# 1 100.3662 33.5766 47.2434 0.0000 0.0000 0.0000
# 2 33.5766 38.6077 37.9832 0.0000 0.0000 0.0000
# 3 47.2434 37.9832 140.1820 0.0000 0.0000 0.0000
# 4 0.0000 0.0000 0.0000 28.3046 0.0000 0.0000
# 5 0.0000 0.0000 0.0000 0.0000 43.4874 0.0000
# 6 0.0000 0.0000 0.0000 0.0000 0.0000 20.3925
#
#
#
# Elastic Compliance Matrix: (Units=1/GPa)
#
#
# Indices 1 2 3 4 5 6 
#
# 1 0.014451 -0.010603 -0.001997 0.000000 0.000000 0.000000
# 2 -0.010603 0.043095 -0.008104 0.000000 0.000000 0.000000
# 3 -0.001997 -0.008104 0.010002 0.000000 0.000000 0.000000
# 4 0.000000 0.000000 0.000000 0.035330 0.000000 0.000000
# 5 0.000000 0.000000 0.000000 0.000000 0.022995 0.000000
# 6 0.000000 0.000000 0.000000 0.000000 0.000000 0.049038
#
#
# Mechanical properties :
#
#
# Convention : Reuss Voigt Hill
#
# Bulk Modulus (GPa) = 38.25382 57.41803 47.83592
# Shear Modulus (GPa) = 22.21909 29.12707 25.67308
#
# Velocity S-wave (km/s) = 3.41117 3.90561 3.66674
# Velocity P-wave (km/s) = 5.96224 7.09987 6.55578
#
# Compressibility (1/GPa) = 0.02614118
#
# Stress axis : x y z
#
# Youngs Moduli (GPa) = 69.20105 23.20445 99.97575
#
# Poissons Ratio (x) = 0.24603 0.19967
# Poissons Ratio (y) = 0.73371 0.81017
# Poissons Ratio (z) = 0.13821 0.18804
#
# Static dielectric constant tensor:
#      x y z
#    x 3.683220 0.000000 0.000000 
#    y 0.000000 3.068530 0.000000 
#    z 0.000000 0.000000 3.736260 
# 
# 
# High freq. dielectric constant tensor:
#      x y z
#    x 1.759110 0.000000 0.000000 
#    y 0.000000 1.692790 0.000000 
#    z 0.000000 0.000000 1.762510 
# 
# From -- ./inp_files/27772.got.cif
#   From: 2010.03.12/outbox.cif.g09.slc.cpg/sg62_14_cif.got.tgz:27772.got - 2010.04.10 19:12:36.
