data_PCOD8251436
_publ_section_title
;
Structure prediction by ZEFSAII (Michael W. Deem and Ramdas Pophale) SiO2 
 PCOD8251436
Probable space group: P N M A
;
_chemical_formula_sum "Si O2"
_cell_formula_units_Z 64
_cell_length_a 16.902298
_cell_length_b 13.685445
_cell_length_c 15.242349
_cell_angle_alpha 90.000000
_cell_angle_beta 90.000000
_cell_angle_gamma 90.000000
_cell_volume 3525.791118
_symmetry_space_group_name_H-M "P N M A"
_symmetry_group_IT_number 62
_symmetry_cell_setting 'orthorhombic'
loop_
_space_group_symop_operation_xyz
x,y,z
1/2-x,-y,1/2+z
1/2+x,1/2-y,1/2-z
-x,1/2+y,-z
-x,-y,-z
1/2+x,y,1/2-z
1/2-x,1/2+y,1/2+z
x,1/2-y,z
loop_
_atom_site_type_symbol
_atom_site_label
_atom_site_fract_x
_atom_site_fract_y
_atom_site_fract_z
Si Si1 0.770763 0.863499 0.328700
Si Si2 0.934571 0.133480 0.527479
Si Si3 0.426925 0.526090 0.113933
Si Si4 0.893422 0.137890 0.900083
Si Si5 0.513895 0.020041 0.697118
Si Si6 0.000792 0.637442 0.941662
Si Si7 0.874412 0.862285 0.079283
Si Si8 0.709825 0.636840 0.142692
O O1 0.796773 0.750000 0.318470
O O2 0.842834 0.927213 0.363359
O O3 0.700913 0.874782 0.400530
O O4 0.735782 0.906878 0.237101
O O5 0.928908 0.250000 0.510181
O O6 0.871073 0.096007 0.600597
O O7 0.022580 0.105016 0.558592
O O8 0.914838 0.075094 0.438288
O O9 0.475517 0.499839 0.200918
O O10 0.918160 0.250000 0.886821
O O11 0.933338 0.080428 0.819186
O O12 0.930171 0.100132 0.992066
O O13 0.589294 0.078340 0.660329
O O14 0.507503 0.915881 0.650174
O O15 0.010700 0.750000 0.919474
O O16 0.916330 0.612520 0.986995
O O17 0.890406 0.750000 0.103200
O O18 0.780800 0.883448 0.073150
O O19 0.695499 0.750000 0.159796
#
# Coordination Sequence:
#
# PCOD8251436 Si02
#       8
#     8   8   8   8   8   8   8   8
#     4  10  19  33  54  82 108 130 167 219 265 308
#     4  10  23  41  56  74 106 143 181 223 264 313
#     4  11  23  36  55  81 101 139 184 218 266 313
#     4   9  18  31  51  80 110 139 169 210 267 316
#     4  11  19  31  52  76 107 136 169 216 260 309
#     4   9  19  32  47  74 107 141 172 203 255 317
#     4   9  16  28  50  80 107 131 165 206 260 318
#     4   9  17  32  54  77 103 133 166 216 271 308
#
# _framework density 18.151954
#
# number of rings (size 3 to 8) (size 9 to 14) (size 15 to 20)
#    0.000    2.250    1.250    3.750    0.000    5.000 
#    0.000    0.000    0.000    0.000    0.000    0.875 
#    0.000    0.000    0.000    0.000    0.000    0.000 
#
# Total GULP energy -793384.488388 kJ/mol
# GULP energy per Si atom -12396.632631 kJ/mol
# Density = 1.811064 g / cm^3
# Si number density = 18.151954 Si / 1000 Ang^3
#
#
#
# Elastic Constant Matrix: (Units=GPa)
#
#
# Indices 1 2 3 4 5 6 
#
# 1 98.8508 35.4626 31.3002 0.0000 0.0000 0.0000
# 2 35.4626 69.8001 35.1095 0.0000 0.0000 0.0000
# 3 31.3002 35.1095 81.3642 0.0000 0.0000 0.0000
# 4 0.0000 0.0000 0.0000 25.2537 0.0000 0.0000
# 5 0.0000 0.0000 0.0000 0.0000 16.1688 0.0000
# 6 0.0000 0.0000 0.0000 0.0000 0.0000 15.1269
#
#
#
# Elastic Compliance Matrix: (Units=1/GPa)
#
#
# Indices 1 2 3 4 5 6 
#
# 1 0.012822 -0.005152 -0.002710 0.000000 0.000000 0.000000
# 2 -0.005152 0.020368 -0.006807 0.000000 0.000000 0.000000
# 3 -0.002710 -0.006807 0.016270 0.000000 0.000000 0.000000
# 4 0.000000 0.000000 0.000000 0.039598 0.000000 0.000000
# 5 0.000000 0.000000 0.000000 0.000000 0.061848 0.000000
# 6 0.000000 0.000000 0.000000 0.000000 0.000000 0.066107
#
#
# Mechanical properties :
#
#
# Convention : Reuss Voigt Hill
#
# Bulk Modulus (GPa) = 49.69299 50.41775 50.05537
# Shear Modulus (GPa) = 19.75827 21.18606 20.47216
#
# Velocity S-wave (km/s) = 3.30281 3.42006 3.36195
# Velocity P-wave (km/s) = 6.47922 6.59026 6.53497
#
# Compressibility (1/GPa) = 0.02012356
#
# Stress axis : x y z
#
# Youngs Moduli (GPa) = 77.98871 49.09670 61.46191
#
# Poissons Ratio (x) = 0.25292 0.16655
# Poissons Ratio (y) = 0.40176 0.41839
# Poissons Ratio (z) = 0.21133 0.33421
#
# Static dielectric constant tensor:
#      x y z
#    x 3.530150 0.000000 0.000000 
#    y 0.000000 3.152380 0.000000 
#    z 0.000000 0.000000 3.245660 
# 
# 
# High freq. dielectric constant tensor:
#      x y z
#    x 1.711230 0.000000 0.000000 
#    y 0.000000 1.685890 0.000000 
#    z 0.000000 0.000000 1.686250 
# 
# From -- ./inp_files/14347.got.cif
#   From: 2010.03.12/outbox.cif.g09.slc.cpg/sg62_8_cif.got.tgz:14347.got - 2010.04.10 19:12:36.
