data_PCOD8251935
_publ_section_title
;
Structure prediction by ZEFSAII (Michael W. Deem and Ramdas Pophale) SiO2 
 PCOD8251935
Probable space group: P N M A
;
_chemical_formula_sum "Si O2"
_cell_formula_units_Z 64
_cell_length_a 12.476831
_cell_length_b 17.220652
_cell_length_c 16.107730
_cell_angle_alpha 90.000000
_cell_angle_beta 90.000000
_cell_angle_gamma 90.000000
_cell_volume 3460.893413
_symmetry_space_group_name_H-M "P N M A"
_symmetry_group_IT_number 62
_symmetry_cell_setting 'orthorhombic'
loop_
_space_group_symop_operation_xyz
x,y,z
1/2-x,-y,1/2+z
1/2+x,1/2-y,1/2-z
-x,1/2+y,-z
-x,-y,-z
1/2+x,y,1/2-z
1/2-x,1/2+y,1/2+z
x,1/2-y,z
loop_
_atom_site_type_symbol
_atom_site_label
_atom_site_fract_x
_atom_site_fract_y
_atom_site_fract_z
Si Si1 0.354136 0.936702 0.204669
Si Si2 0.063745 0.029343 0.296421
Si Si3 0.620193 0.531961 0.503098
Si Si4 0.262432 0.944295 0.371023
Si Si5 0.296115 0.938669 0.647041
Si Si6 0.769797 0.841364 0.451369
Si Si7 0.963353 0.661126 0.575589
Si Si8 0.697645 0.837820 0.979505
O O1 0.317925 0.900615 0.293079
O O2 0.318823 0.876928 0.133341
O O3 0.478405 0.959285 0.208465
O O4 0.296786 0.020252 0.199074
O O5 0.098439 0.062439 0.205406
O O6 0.026643 0.105153 0.345712
O O7 0.154886 0.986523 0.346553
O O8 0.500000 0.500000 0.500000
O O9 0.659688 0.512384 0.595412
O O10 0.688661 0.487314 0.435662
O O11 0.654130 0.621587 0.480389
O O12 0.246340 0.882317 0.442877
O O13 0.253309 0.857077 0.610315
O O14 0.750597 0.750000 0.437818
O O15 0.858601 0.858447 0.521507
O O16 0.958680 0.750000 0.607412
O O17 0.070059 0.647020 0.521585
O O18 0.725543 0.750000 0.997310
#
# Coordination Sequence:
#
# PCOD8251935 Si02
#       8
#     8   8   8   8   8   8   8   8
#     4  10  20  34  56  83 113 147 188 239 293 338
#     4  11  19  34  58  83 116 146 196 241 287 344
#     4  10  19  36  57  78 112 149 197 239 278 343
#     4  10  21  34  56  85 108 152 195 244 284 340
#     4   9  20  33  52  79 107 148 189 237 282 337
#     4  10  21  37  57  86 119 149 188 243 300 350
#     4  10  20  34  57  87 116 149 187 240 300 346
#     4  10  20  36  55  79 116 152 190 238 296 353
#
# _framework density 18.492336000000002
#
# number of rings (size 3 to 8) (size 9 to 14) (size 15 to 20)
#    0.000    2.000    2.500    1.500    0.000    2.000 
#    0.000    2.500    0.000   11.250    0.000    0.000 
#    0.000    0.000    0.000    0.000    0.000    0.000 
#
# Total GULP energy -792836.045268 kJ/mol
# GULP energy per Si atom -12388.063207 kJ/mol
# Density = 1.845025 g / cm^3
# Si number density = 18.492336 Si / 1000 Ang^3
#
#
#
# Elastic Constant Matrix: (Units=GPa)
#
#
# Indices 1 2 3 4 5 6 
#
# 1 105.6549 42.4372 25.1046 0.0000 0.0000 0.0000
# 2 42.4372 100.6037 45.1106 0.0000 0.0000 0.0000
# 3 25.1046 45.1106 82.1181 0.0000 0.0000 0.0000
# 4 0.0000 0.0000 0.0000 20.5345 0.0000 0.0000
# 5 0.0000 0.0000 0.0000 0.0000 26.9834 0.0000
# 6 0.0000 0.0000 0.0000 0.0000 0.0000 27.5183
#
#
#
# Elastic Compliance Matrix: (Units=1/GPa)
#
#
# Indices 1 2 3 4 5 6 
#
# 1 0.011473 -0.004335 -0.001126 0.000000 0.000000 0.000000
# 2 -0.004335 0.014826 -0.006819 0.000000 0.000000 0.000000
# 3 -0.001126 -0.006819 0.016268 0.000000 0.000000 0.000000
# 4 0.000000 0.000000 0.000000 0.048698 0.000000 0.000000
# 5 0.000000 0.000000 0.000000 0.000000 0.037060 0.000000
# 6 0.000000 0.000000 0.000000 0.000000 0.000000 0.036339
#
#
# Mechanical properties :
#
#
# Convention : Reuss Voigt Hill
#
# Bulk Modulus (GPa) = 55.53464 57.07573 56.30518
# Shear Modulus (GPa) = 25.61093 26.72220 26.16656
#
# Velocity S-wave (km/s) = 3.72553 3.80549 3.76572
# Velocity P-wave (km/s) = 6.97154 7.08806 7.03004
#
# Compressibility (1/GPa) = 0.01800678
#
# Stress axis : x y z
#
# Youngs Moduli (GPa) = 87.15740 67.44746 61.46988
#
# Poissons Ratio (x) = 0.29237 0.06924
# Poissons Ratio (y) = 0.37781 0.41919
# Poissons Ratio (z) = 0.09817 0.45996
#
# Static dielectric constant tensor:
#      x y z
#    x 3.483850 0.000000 0.000000 
#    y 0.000000 3.372780 0.000000 
#    z 0.000000 0.000000 3.793960 
# 
# 
# High freq. dielectric constant tensor:
#      x y z
#    x 1.718800 0.000000 0.000000 
#    y 0.000000 1.699800 0.000000 
#    z 0.000000 0.000000 1.726590 
# 
# From -- ./inp_files/18286.got.cif
#   From: 2010.03.12/outbox.cif.g09.slc.cpg/sg62_10_cif.got.tgz:18286.got - 2010.04.10 19:12:36.
