data_PCOD8251792
_publ_section_title
;
Structure prediction by ZEFSAII (Michael W. Deem and Ramdas Pophale) SiO2 
 PCOD8251792
Probable space group: P N M A
;
_chemical_formula_sum "Si O2"
_cell_formula_units_Z 56
_cell_length_a 21.743773
_cell_length_b 9.299626
_cell_length_c 14.652774
_cell_angle_alpha 90.000000
_cell_angle_beta 90.000000
_cell_angle_gamma 90.000000
_cell_volume 2962.922144
_symmetry_space_group_name_H-M "P N M A"
_symmetry_group_IT_number 62
_symmetry_cell_setting 'orthorhombic'
loop_
_space_group_symop_operation_xyz
x,y,z
1/2-x,-y,1/2+z
1/2+x,1/2-y,1/2-z
-x,1/2+y,-z
-x,-y,-z
1/2+x,y,1/2-z
1/2-x,1/2+y,1/2+z
x,1/2-y,z
loop_
_atom_site_type_symbol
_atom_site_label
_atom_site_fract_x
_atom_site_fract_y
_atom_site_fract_z
Si Si1 0.756058 0.082592 0.622438
Si Si2 0.480187 0.418784 0.282213
Si Si3 0.177792 0.579673 0.559542
Si Si4 0.280133 0.921241 0.696152
Si Si5 0.095684 0.079462 0.103000
Si Si6 0.887070 0.917162 0.099837
Si Si7 0.038919 0.918867 0.575590
O O1 0.767824 0.250000 0.642127
O O2 0.794675 0.026695 0.536049
O O3 0.684989 0.051967 0.603698
O O4 0.781021 0.989668 0.704978
O O5 0.471214 0.250000 0.297574
O O6 0.539365 0.479667 0.336218
O O7 0.419385 0.494972 0.319875
O O8 0.488554 0.453703 0.175307
O O9 0.179490 0.750000 0.563153
O O10 0.220284 0.521642 0.641833
O O11 0.108701 0.522149 0.571799
O O12 0.280455 0.750000 0.705365
O O13 0.340431 0.978276 0.643640
O O14 0.097114 0.250000 0.105703
O O15 0.088207 0.027689 0.998484
O O16 0.901791 0.750000 0.113930
O O17 0.036515 0.750000 0.554217
O O18 0.000000 0.000000 0.500000
#
# Coordination Sequence:
#
# PCOD8251792 Si02
#       7
#     8   8   8   8   8   8   8
#     4  10  20  34  54  79 107 138 177 224 266 315
#     4  10  21  36  55  81 112 143 179 227 273 315
#     4   9  18  36  57  76 105 146 179 209 266 334
#     4  10  19  35  59  82 106 143 184 219 267 326
#     4   9  18  34  56  81 110 142 178 221 269 323
#     4  10  19  35  57  81 108 143 181 217 268 330
#     4  10  22  38  56  78 108 144 183 225 269 319
#
# _framework density 18.900259999999999
#
# number of rings (size 3 to 8) (size 9 to 14) (size 15 to 20)
#    0.000    2.286    1.429    1.286    2.000    2.286 
#    0.000    2.857    0.000    0.000    0.000    0.000 
#    0.000    0.000    0.000    0.000    0.000    0.000 
#
# Total GULP energy -694478.101602 kJ/mol
# GULP energy per Si atom -12401.394671 kJ/mol
# Density = 1.885724 g / cm^3
# Si number density = 18.900260 Si / 1000 Ang^3
#
#
#
# Elastic Constant Matrix: (Units=GPa)
#
#
# Indices 1 2 3 4 5 6 
#
# 1 84.0473 20.2011 22.4699 0.0000 0.0000 0.0000
# 2 20.2011 27.4626 25.0631 0.0000 0.0000 0.0000
# 3 22.4699 25.0631 99.2339 0.0000 0.0000 0.0000
# 4 0.0000 0.0000 0.0000 30.5730 0.0000 0.0000
# 5 0.0000 0.0000 0.0000 0.0000 38.2128 0.0000
# 6 0.0000 0.0000 0.0000 0.0000 0.0000 19.9165
#
#
#
# Elastic Compliance Matrix: (Units=1/GPa)
#
#
# Indices 1 2 3 4 5 6 
#
# 1 0.014498 -0.009966 -0.000766 0.000000 0.000000 0.000000
# 2 -0.009966 0.054171 -0.011425 0.000000 0.000000 0.000000
# 3 -0.000766 -0.011425 0.013136 0.000000 0.000000 0.000000
# 4 0.000000 0.000000 0.000000 0.032709 0.000000 0.000000
# 5 0.000000 0.000000 0.000000 0.000000 0.026169 0.000000
# 6 0.000000 0.000000 0.000000 0.000000 0.000000 0.050210
#
#
# Mechanical properties :
#
#
# Convention : Reuss Voigt Hill
#
# Bulk Modulus (GPa) = 26.67257 38.46801 32.57029
# Shear Modulus (GPa) = 20.18548 27.27443 23.72995
#
# Velocity S-wave (km/s) = 3.27157 3.80290 3.54720
# Velocity P-wave (km/s) = 5.33046 6.29921 5.83498
#
# Compressibility (1/GPa) = 0.03749170
#
# Stress axis : x y z
#
# Youngs Moduli (GPa) = 68.97453 18.46019 76.12547
#
# Poissons Ratio (x) = 0.18397 0.05830
# Poissons Ratio (y) = 0.68738 0.86974
# Poissons Ratio (z) = 0.05283 0.21091
#
# Static dielectric constant tensor:
#      x y z
#    x 3.720640 0.000000 0.000000 
#    y 0.000000 3.055840 0.000000 
#    z 0.000000 0.000000 3.790740 
# 
# 
# High freq. dielectric constant tensor:
#      x y z
#    x 1.746380 0.000000 0.000000 
#    y 0.000000 1.693430 0.000000 
#    z 0.000000 0.000000 1.749930 
# 
# From -- ./inp_files/14786.got.cif
#   From: 2010.03.12/outbox.cif.g09.slc.cpg/sg62_8_cif.got.tgz:14786.got - 2010.04.10 19:12:36.
