data_PCOD8251073
_publ_section_title
;
Structure prediction by ZEFSAII (Michael W. Deem and Ramdas Pophale) SiO2 
 PCOD8251073
Probable space group: P N M A
;
_chemical_formula_sum "Si O2"
_cell_formula_units_Z 56
_cell_length_a 20.694885
_cell_length_b 9.516048
_cell_length_c 14.840381
_cell_angle_alpha 90.000000
_cell_angle_beta 90.000000
_cell_angle_gamma 90.000000
_cell_volume 2922.568454
_symmetry_space_group_name_H-M "P N M A"
_symmetry_group_IT_number 62
_symmetry_cell_setting 'orthorhombic'
loop_
_space_group_symop_operation_xyz
x,y,z
1/2-x,-y,1/2+z
1/2+x,1/2-y,1/2-z
-x,1/2+y,-z
-x,-y,-z
1/2+x,y,1/2-z
1/2-x,1/2+y,1/2+z
x,1/2-y,z
loop_
_atom_site_type_symbol
_atom_site_label
_atom_site_fract_x
_atom_site_fract_y
_atom_site_fract_z
Si Si1 0.476859 0.905327 0.729985
Si Si2 0.031288 0.096120 0.617316
Si Si3 0.676230 0.412585 0.513378
Si Si4 0.330749 0.588639 0.690595
Si Si5 0.203320 0.913264 0.358323
Si Si6 0.405055 0.096109 0.992354
Si Si7 0.447852 0.090849 0.448565
O O1 0.473027 0.750000 0.775154
O O2 0.407156 0.946734 0.689413
O O3 0.531436 0.903173 0.654608
O O4 0.497687 0.021100 0.800063
O O5 0.056523 0.250000 0.647546
O O6 0.977934 0.115100 0.540575
O O7 0.092491 0.008558 0.578153
O O8 0.653244 0.250000 0.520465
O O9 0.695898 0.445333 0.409630
O O10 0.735643 0.444147 0.578918
O O11 0.620765 0.516298 0.545605
O O12 0.318152 0.750000 0.715798
O O13 0.292536 0.496846 0.764399
O O14 0.197237 0.750000 0.333675
O O15 0.140340 0.965856 0.413590
O O16 0.377967 0.250000 0.022409
O O17 0.443945 0.250000 0.487913
O O18 0.500000 0.000000 0.500000
#
# Coordination Sequence:
#
# PCOD8251073 Si02
#       7
#     8   8   8   8   8   8   8
#     4  10  20  35  56  82 112 148 186 231 287 348
#     4  10  19  31  52  82 112 144 188 237 283 334
#     4  10  22  42  62  85 119 156 195 245 301 350
#     4  10  20  37  61  85 113 151 195 239 289 349
#     4  10  21  39  62  85 116 157 199 243 290 351
#     4   9  18  33  52  78 112 149 186 229 287 343
#     4  11  22  38  61  88 117 149 190 241 298 353
#
# _framework density 19.161228000000001
#
# number of rings (size 3 to 8) (size 9 to 14) (size 15 to 20)
#    0.000    2.000    2.857    0.857    0.000    3.429 
#    2.571    0.000    0.000    0.000    0.000    0.000 
#    0.000    0.000    0.000    0.000    0.000    0.000 
#
# Total GULP energy -694289.922892 kJ/mol
# GULP energy per Si atom -12398.034337 kJ/mol
# Density = 1.911762 g / cm^3
# Si number density = 19.161228 Si / 1000 Ang^3
#
#
#
# Elastic Constant Matrix: (Units=GPa)
#
#
# Indices 1 2 3 4 5 6 
#
# 1 71.8173 45.5917 44.2705 0.0000 0.0000 0.0000
# 2 45.5917 124.3048 63.6045 0.0000 0.0000 0.0000
# 3 44.2705 63.6045 101.5388 0.0000 0.0000 0.0000
# 4 0.0000 0.0000 0.0000 32.0353 0.0000 0.0000
# 5 0.0000 0.0000 0.0000 0.0000 33.9108 0.0000
# 6 0.0000 0.0000 0.0000 0.0000 0.0000 25.2396
#
#
#
# Elastic Compliance Matrix: (Units=1/GPa)
#
#
# Indices 1 2 3 4 5 6 
#
# 1 0.020518 -0.004339 -0.006228 0.000000 0.000000 0.000000
# 2 -0.004339 0.012757 -0.006099 0.000000 0.000000 0.000000
# 3 -0.006228 -0.006099 0.016384 0.000000 0.000000 0.000000
# 4 0.000000 0.000000 0.000000 0.031216 0.000000 0.000000
# 5 0.000000 0.000000 0.000000 0.000000 0.029489 0.000000
# 6 0.000000 0.000000 0.000000 0.000000 0.000000 0.039620
#
#
# Mechanical properties :
#
#
# Convention : Reuss Voigt Hill
#
# Bulk Modulus (GPa) = 61.24730 67.17714 64.21222
# Shear Modulus (GPa) = 26.48892 27.85008 27.16950
#
# Velocity S-wave (km/s) = 3.72213 3.81656 3.76964
# Velocity P-wave (km/s) = 7.10675 7.38624 7.24784
#
# Compressibility (1/GPa) = 0.01632725
#
# Stress axis : x y z
#
# Youngs Moduli (GPa) = 48.73877 78.38837 61.03339
#
# Poissons Ratio (x) = 0.34010 0.38011
# Poissons Ratio (y) = 0.21146 0.37227
# Poissons Ratio (z) = 0.30354 0.47812
#
# Static dielectric constant tensor:
#      x y z
#    x 3.740970 0.000000 0.000000 
#    y 0.000000 3.836440 0.000000 
#    z 0.000000 0.000000 3.591580 
# 
# 
# High freq. dielectric constant tensor:
#      x y z
#    x 1.724420 0.000000 0.000000 
#    y 0.000000 1.753610 0.000000 
#    z 0.000000 0.000000 1.739860 
# 
# From -- ./inp_files/20286.got.cif
#   From: 2010.03.12/outbox.cif.g09.slc.cpg/sg62_11_cif.got.tgz:20286.got - 2010.04.10 19:12:36.
