data_PCOD8251251
_publ_section_title
;
Structure prediction by ZEFSAII (Michael W. Deem and Ramdas Pophale) SiO2 
 PCOD8251251
Probable space group: P N M A
;
_chemical_formula_sum "Si O2"
_cell_formula_units_Z 48
_cell_length_a 9.913087
_cell_length_b 14.948485
_cell_length_c 17.963242
_cell_angle_alpha 90.000000
_cell_angle_beta 90.000000
_cell_angle_gamma 90.000000
_cell_volume 2661.894374
_symmetry_space_group_name_H-M "P N M A"
_symmetry_group_IT_number 62
_symmetry_cell_setting 'orthorhombic'
loop_
_space_group_symop_operation_xyz
x,y,z
1/2-x,-y,1/2+z
1/2+x,1/2-y,1/2-z
-x,1/2+y,-z
-x,-y,-z
1/2+x,y,1/2-z
1/2-x,1/2+y,1/2+z
x,1/2-y,z
loop_
_atom_site_type_symbol
_atom_site_label
_atom_site_fract_x
_atom_site_fract_y
_atom_site_fract_z
Si Si1 0.922446 0.148397 0.127610
Si Si2 0.778562 0.645890 0.897182
Si Si3 0.911170 0.146789 0.531607
Si Si4 0.327153 0.029813 0.237881
Si Si5 0.860797 0.648594 0.576575
Si Si6 0.913127 0.019437 0.669232
O O1 0.924921 0.250000 0.156635
O O2 0.899736 0.087170 0.198737
O O3 0.800706 0.135079 0.067662
O O4 0.063529 0.124943 0.087599
O O5 0.751828 0.750000 0.882348
O O6 0.731707 0.593756 0.824841
O O7 0.695102 0.614503 0.969251
O O8 0.889087 0.250000 0.552866
O O9 0.884694 0.088682 0.603890
O O10 0.063208 0.129005 0.501236
O O11 0.440735 0.962489 0.205521
O O12 0.206601 0.969290 0.270893
O O13 0.895649 0.750000 0.602360
O O14 0.915631 0.583204 0.640573
#
# Coordination Sequence:
#
# PCOD8251251 Si02
#       6
#     8   8   8   8   8   8
#     4   9  18  31  48  79 116 142 167 213 269 332
#     4  10  19  32  53  81 113 144 176 218 275 328
#     4  10  21  38  58  79 103 145 190 227 267 316
#     4  11  20  33  51  79 112 144 181 212 273 324
#     4   9  18  32  54  81 110 140 173 215 269 323
#     4  11  22  36  55  79 112 143 182 225 267 327
#
# _framework density 18.03227
#
# number of rings (size 3 to 8) (size 9 to 14) (size 15 to 20)
#    0.000    2.000    3.333    1.000    0.000    1.333 
#    0.000    5.833    0.000    0.000    0.000    0.000 
#    0.000    0.000    0.000    0.000    0.000    0.000 
#
# Total GULP energy -595101.524414 kJ/mol
# GULP energy per Si atom -12397.948425 kJ/mol
# Density = 1.799123 g / cm^3
# Si number density = 18.032270 Si / 1000 Ang^3
#
#
#
# Elastic Constant Matrix: (Units=GPa)
#
#
# Indices 1 2 3 4 5 6 
#
# 1 152.0968 36.6452 72.7934 0.0000 0.0000 0.0000
# 2 36.6452 46.3699 45.3190 0.0000 0.0000 0.0000
# 3 72.7934 45.3190 107.2013 0.0000 0.0000 0.0000
# 4 0.0000 0.0000 0.0000 24.1229 0.0000 0.0000
# 5 0.0000 0.0000 0.0000 0.0000 30.4093 0.0000
# 6 0.0000 0.0000 0.0000 0.0000 0.0000 14.0160
#
#
#
# Elastic Compliance Matrix: (Units=1/GPa)
#
#
# Indices 1 2 3 4 5 6 
#
# 1 0.009862 -0.002128 -0.005797 0.000000 0.000000 0.000000
# 2 -0.002128 0.037208 -0.014285 0.000000 0.000000 0.000000
# 3 -0.005797 -0.014285 0.019303 0.000000 0.000000 0.000000
# 4 0.000000 0.000000 0.000000 0.041454 0.000000 0.000000
# 5 0.000000 0.000000 0.000000 0.000000 0.032885 0.000000
# 6 0.000000 0.000000 0.000000 0.000000 0.000000 0.071347
#
#
# Mechanical properties :
#
#
# Convention : Reuss Voigt Hill
#
# Bulk Modulus (GPa) = 45.54919 68.35367 56.95143
# Shear Modulus (GPa) = 18.95397 23.77035 21.36216
#
# Velocity S-wave (km/s) = 3.24561 3.63466 3.44563
# Velocity P-wave (km/s) = 6.27375 7.45674 6.89068
#
# Compressibility (1/GPa) = 0.02195428
#
# Stress axis : x y z
#
# Youngs Moduli (GPa) = 101.40042 26.87559 51.80446
#
# Poissons Ratio (x) = 0.05719 0.30031
# Poissons Ratio (y) = 0.21579 0.74001
# Poissons Ratio (z) = 0.58781 0.38391
#
# Static dielectric constant tensor:
#      x y z
#    x 3.834410 0.000000 0.000000 
#    y 0.000000 3.037580 0.000000 
#    z 0.000000 0.000000 3.087990 
# 
# 
# High freq. dielectric constant tensor:
#      x y z
#    x 1.722090 0.000000 0.000000 
#    y 0.000000 1.668170 0.000000 
#    z 0.000000 0.000000 1.672410 
# 
# From -- ./inp_files/22201.got.cif
#   From: 2010.03.12/outbox.cif.g09.slc.cpg/sg62_12_cif.got.tgz:22201.got - 2010.04.10 19:12:36.
