data_PCOD8251895
_publ_section_title
;
Structure prediction by ZEFSAII (Michael W. Deem and Ramdas Pophale) SiO2 
 PCOD8251895
Probable space group: P N M A
;
_chemical_formula_sum "Si O2"
_cell_formula_units_Z 64
_cell_length_a 32.730446
_cell_length_b 8.592816
_cell_length_c 10.935516
_cell_angle_alpha 90.000000
_cell_angle_beta 90.000000
_cell_angle_gamma 90.000000
_cell_volume 3075.577789
_symmetry_space_group_name_H-M "P N M A"
_symmetry_group_IT_number 62
_symmetry_cell_setting 'orthorhombic'
loop_
_space_group_symop_operation_xyz
x,y,z
1/2-x,-y,1/2+z
1/2+x,1/2-y,1/2-z
-x,1/2+y,-z
-x,-y,-z
1/2+x,y,1/2-z
1/2-x,1/2+y,1/2+z
x,1/2-y,z
loop_
_atom_site_type_symbol
_atom_site_label
_atom_site_fract_x
_atom_site_fract_y
_atom_site_fract_z
Si Si1 0.779489 0.434325 0.581931
Si Si2 0.143700 0.929163 0.756500
Si Si3 0.986340 0.066972 0.287689
Si Si4 0.371874 0.427050 0.878087
Si Si5 0.727473 0.431302 0.814532
Si Si6 0.574036 0.933987 0.577156
Si Si7 0.418415 0.928518 0.078884
Si Si8 0.935110 0.072287 0.810821
O O1 0.775701 0.250000 0.577455
O O2 0.825935 0.489801 0.605372
O O3 0.754760 0.498285 0.701177
O O4 0.763404 0.495254 0.449249
O O5 0.158596 0.750000 0.756942
O O6 0.120424 0.978231 0.881536
O O7 0.181265 0.040543 0.727509
O O8 0.109808 0.951620 0.653225
O O9 0.982819 0.250000 0.308107
O O10 0.960685 0.005894 0.169733
O O11 0.965730 0.978989 0.403521
O O12 0.033355 0.020748 0.274427
O O13 0.374354 0.250000 0.927888
O O14 0.388408 0.434207 0.739039
O O15 0.404043 0.543235 0.941380
O O16 0.735900 0.250000 0.830213
O O17 0.571549 0.750000 0.569395
O O18 0.565568 0.007334 0.444523
O O19 0.411926 0.750000 0.117636
O O20 0.950362 0.250000 0.816498
#
# Coordination Sequence:
#
# PCOD8251895 Si02
#       8
#     8   8   8   8   8   8   8   8
#     4  10  23  42  63  89 125 164 203 251 310 369
#     4  10  19  35  60  87 116 152 191 233 292 353
#     4  10  20  35  55  81 114 152 192 238 297 355
#     4  10  21  38  59  80 111 154 191 236 296 353
#     4  11  23  39  63  96 125 158 207 254 303 368
#     4   8  17  33  55  82 112 150 194 235 284 351
#     4  11  21  35  58  84 110 145 194 243 283 340
#     4  10  20  35  55  81 112 148 196 245 290 345
#
# _framework density 20.809097999999999
#
# number of rings (size 3 to 8) (size 9 to 14) (size 15 to 20)
#    0.000    2.000    1.250    3.375    0.000    3.000 
#    0.000    5.625    0.000    0.000    0.000    0.000 
#    0.000    0.000    0.000    0.000    0.000    0.000 
#
# Total GULP energy -793105.440587 kJ/mol
# GULP energy per Si atom -12392.272509 kJ/mol
# Density = 2.076174 g / cm^3
# Si number density = 20.809098 Si / 1000 Ang^3
#
#
#
# Elastic Constant Matrix: (Units=GPa)
#
#
# Indices 1 2 3 4 5 6 
#
# 1 90.8631 14.7268 56.9481 0.0000 0.0000 0.0000
# 2 14.7268 53.8739 20.1275 0.0000 0.0000 0.0000
# 3 56.9481 20.1275 85.0644 0.0000 0.0000 0.0000
# 4 0.0000 0.0000 0.0000 22.9382 0.0000 0.0000
# 5 0.0000 0.0000 0.0000 0.0000 30.2662 0.0000
# 6 0.0000 0.0000 0.0000 0.0000 0.0000 24.8316
#
#
#
# Elastic Compliance Matrix: (Units=1/GPa)
#
#
# Indices 1 2 3 4 5 6 
#
# 1 0.018973 -0.000484 -0.012588 0.000000 0.000000 0.000000
# 2 -0.000484 0.020374 -0.004497 0.000000 0.000000 0.000000
# 3 -0.012588 -0.004497 0.021247 0.000000 0.000000 0.000000
# 4 0.000000 0.000000 0.000000 0.043595 0.000000 0.000000
# 5 0.000000 0.000000 0.000000 0.000000 0.033040 0.000000
# 6 0.000000 0.000000 0.000000 0.000000 0.000000 0.040271
#
#
# Mechanical properties :
#
#
# Convention : Reuss Voigt Hill
#
# Bulk Modulus (GPa) = 39.28082 45.93403 42.60742
# Shear Modulus (GPa) = 22.61180 24.80713 23.70947
#
# Velocity S-wave (km/s) = 3.29998 3.45647 3.37913
# Velocity P-wave (km/s) = 5.78253 6.16859 5.97867
#
# Compressibility (1/GPa) = 0.02545771
#
# Stress axis : x y z
#
# Youngs Moduli (GPa) = 52.70604 49.08170 47.06578
#
# Poissons Ratio (x) = 0.02374 0.59244
# Poissons Ratio (y) = 0.02549 0.21166
# Poissons Ratio (z) = 0.66344 0.22072
#
# Static dielectric constant tensor:
#      x y z
#    x 3.782760 0.000000 0.000000 
#    y 0.000000 3.442940 0.000000 
#    z 0.000000 0.000000 4.099560 
# 
# 
# High freq. dielectric constant tensor:
#      x y z
#    x 1.809740 0.000000 0.000000 
#    y 0.000000 1.793490 0.000000 
#    z 0.000000 0.000000 1.818250 
# 
# From -- ./inp_files/15819.got.cif
#   From: 2010.03.12/outbox.cif.g09.slc.cpg/sg62_8_cif.got.tgz:15819.got - 2010.04.10 19:12:36.
