data_PCOD8251046
_publ_section_title
;
Structure prediction by ZEFSAII (Michael W. Deem and Ramdas Pophale) SiO2 
 PCOD8251046
Probable space group: P N M A
;
_chemical_formula_sum "Si O2"
_cell_formula_units_Z 64
_cell_length_a 27.558523
_cell_length_b 9.444841
_cell_length_c 14.056426
_cell_angle_alpha 90.000000
_cell_angle_beta 90.000000
_cell_angle_gamma 90.000000
_cell_volume 3658.689041
_symmetry_space_group_name_H-M "P N M A"
_symmetry_group_IT_number 62
_symmetry_cell_setting 'orthorhombic'
loop_
_space_group_symop_operation_xyz
x,y,z
1/2-x,-y,1/2+z
1/2+x,1/2-y,1/2-z
-x,1/2+y,-z
-x,-y,-z
1/2+x,y,1/2-z
1/2-x,1/2+y,1/2+z
x,1/2-y,z
loop_
_atom_site_type_symbol
_atom_site_label
_atom_site_fract_x
_atom_site_fract_y
_atom_site_fract_z
Si Si1 0.094991 0.411801 0.423663
Si Si2 0.388479 0.910695 0.336701
Si Si3 0.477739 0.078206 0.409506
Si Si4 0.293963 0.086769 0.323838
Si Si5 0.701131 0.083217 0.060658
Si Si6 0.513145 0.089282 0.208717
Si Si7 0.087122 0.000940 0.633996
Si Si8 0.308762 0.402497 0.111696
O O1 0.096952 0.250000 0.393568
O O2 0.148638 0.478418 0.405242
O O3 0.055100 0.488745 0.354734
O O4 0.080078 0.416867 0.534794
O O5 0.389388 0.750000 0.377422
O O6 0.424434 0.013890 0.394097
O O7 0.336142 0.980305 0.355583
O O8 0.401734 0.898449 0.224550
O O9 0.475252 0.250000 0.421623
O O10 0.509427 0.031178 0.316804
O O11 0.500000 0.000000 0.500000
O O12 0.306810 0.250000 0.351413
O O13 0.244005 0.034406 0.370917
O O14 0.283594 0.072983 0.212527
O O15 0.698053 0.250000 0.050747
O O16 0.711496 0.024443 0.955660
O O17 0.528504 0.250000 0.217378
O O18 0.461972 0.083581 0.154352
O O19 0.132871 0.897062 0.624099
O O20 0.293485 0.250000 0.069868
#
# Coordination Sequence:
#
# PCOD8251046 Si02
#       8
#     8   8   8   8   8   8   8   8
#     4   9  16  27  44  68  97 128 159 190 229 285
#     4  10  19  31  51  78  99 121 160 205 245 288
#     4  10  20  35  53  72  98 132 166 204 247 289
#     4   9  18  33  50  69  96 129 162 200 246 291
#     4   9  18  32  49  68  95 129 160 194 242 291
#     4   9  17  28  45  69  95 126 164 197 229 276
#     4   9  16  27  45  69 100 128 153 189 237 286
#     4   9  17  29  47  69  93 123 161 201 242 288
#
# _framework density 17.492604
#
# number of rings (size 3 to 8) (size 9 to 14) (size 15 to 20)
#    0.000    2.750    0.000    1.875    0.000    6.500 
#    0.000    1.250    0.000   13.500    0.000    0.000 
#    0.000    0.000    0.000    0.000    0.000    0.000 
#
# Total GULP energy -792885.852771 kJ/mol
# GULP energy per Si atom -12388.841450 kJ/mol
# Density = 1.745279 g / cm^3
# Si number density = 17.492604 Si / 1000 Ang^3
#
#
#
# Elastic Constant Matrix: (Units=GPa)
#
#
# Indices 1 2 3 4 5 6 
#
# 1 110.6582 35.1350 85.9902 0.0000 0.0000 0.0000
# 2 35.1350 59.8748 35.4236 0.0000 0.0000 0.0000
# 3 85.9902 35.4236 105.0102 0.0000 0.0000 0.0000
# 4 0.0000 0.0000 0.0000 22.8642 0.0000 0.0000
# 5 0.0000 0.0000 0.0000 0.0000 30.7356 0.0000
# 6 0.0000 0.0000 0.0000 0.0000 0.0000 19.8032
#
#
#
# Elastic Compliance Matrix: (Units=1/GPa)
#
#
# Indices 1 2 3 4 5 6 
#
# 1 0.025342 -0.003240 -0.019659 0.000000 0.000000 0.000000
# 2 -0.003240 0.021280 -0.004525 0.000000 0.000000 0.000000
# 3 -0.019659 -0.004525 0.027148 0.000000 0.000000 0.000000
# 4 0.000000 0.000000 0.000000 0.043737 0.000000 0.000000
# 5 0.000000 0.000000 0.000000 0.000000 0.032536 0.000000
# 6 0.000000 0.000000 0.000000 0.000000 0.000000 0.050497
#
#
# Mechanical properties :
#
#
# Convention : Reuss Voigt Hill
#
# Bulk Modulus (GPa) = 52.85103 65.40454 59.12778
# Shear Modulus (GPa) = 19.10614 22.61354 20.85984
#
# Velocity S-wave (km/s) = 3.30849 3.59938 3.45700
# Velocity P-wave (km/s) = 6.69879 7.39899 7.05758
#
# Compressibility (1/GPa) = 0.01892111
#
# Stress axis : x y z
#
# Youngs Moduli (GPa) = 39.45949 46.99218 36.83526
#
# Poissons Ratio (x) = 0.15226 0.72415
# Poissons Ratio (y) = 0.12786 0.16669
# Poissons Ratio (z) = 0.77574 0.21265
#
# Static dielectric constant tensor:
#      x y z
#    x 3.474390 0.000000 0.000000 
#    y 0.000000 3.068240 0.000000 
#    z 0.000000 0.000000 3.316040 
# 
# 
# High freq. dielectric constant tensor:
#      x y z
#    x 1.672240 0.000000 0.000000 
#    y 0.000000 1.658770 0.000000 
#    z 0.000000 0.000000 1.666320 
# 
# From -- ./inp_files/21208.got.cif
#   From: 2010.03.12/outbox.cif.g09.slc.cpg/sg62_11_cif.got.tgz:21208.got - 2010.04.10 19:12:36.
