data_PCOD8251884
_publ_section_title
;
Structure prediction by ZEFSAII (Michael W. Deem and Ramdas Pophale) SiO2 
 PCOD8251884
Probable space group: P N M A
;
_chemical_formula_sum "Si O2"
_cell_formula_units_Z 64
_cell_length_a 12.704263
_cell_length_b 9.084056
_cell_length_c 28.168973
_cell_angle_alpha 90.000000
_cell_angle_beta 90.000000
_cell_angle_gamma 90.000000
_cell_volume 3250.875161
_symmetry_space_group_name_H-M "P N M A"
_symmetry_group_IT_number 62
_symmetry_cell_setting 'orthorhombic'
loop_
_space_group_symop_operation_xyz
x,y,z
1/2-x,-y,1/2+z
1/2+x,1/2-y,1/2-z
-x,1/2+y,-z
-x,-y,-z
1/2+x,y,1/2-z
1/2-x,1/2+y,1/2+z
x,1/2-y,z
loop_
_atom_site_type_symbol
_atom_site_label
_atom_site_fract_x
_atom_site_fract_y
_atom_site_fract_z
Si Si1 0.085582 0.583084 0.430728
Si Si2 0.377717 0.577556 0.296673
Si Si3 0.337395 0.578165 0.556214
Si Si4 0.786977 0.423807 0.037193
Si Si5 0.542567 0.578051 0.614956
Si Si6 0.448181 0.078204 0.204440
Si Si7 0.387138 0.078830 0.098848
Si Si8 0.143573 0.585074 0.321911
O O1 0.077325 0.750000 0.449749
O O2 0.171688 0.497573 0.461930
O O3 0.124805 0.576582 0.377401
O O4 0.970672 0.508063 0.434132
O O5 0.399523 0.750000 0.294421
O O6 0.456483 0.507513 0.335151
O O7 0.388017 0.509629 0.244813
O O8 0.261447 0.535993 0.312899
O O9 0.341508 0.750000 0.542793
O O10 0.347993 0.482980 0.508738
O O11 0.434455 0.533300 0.589387
O O12 0.229946 0.537229 0.583230
O O13 0.772899 0.250000 0.033595
O O14 0.857617 0.467401 0.082612
O O15 0.544971 0.750000 0.626350
O O16 0.439863 0.250000 0.214851
O O17 0.397316 0.033687 0.154017
O O18 0.569917 0.029718 0.205550
O O19 0.412733 0.250000 0.092405
O O20 0.121385 0.750000 0.302825
#
# Coordination Sequence:
#
# PCOD8251884 Si02
#       8
#     8   8   8   8   8   8   8   8
#     4  10  19  35  60  85 112 148 192 239 289 342
#     4  11  22  37  59  87 117 150 193 240 290 350
#     4  10  22  40  60  83 118 157 194 238 293 353
#     4  11  22  36  58  88 118 151 197 244 292 349
#     4  10  22  39  59  85 117 154 197 244 291 347
#     4  10  21  36  57  85 115 150 191 237 293 349
#     4   9  20  39  59  82 114 152 193 241 293 346
#     4   9  19  36  56  80 110 147 189 237 289 340
#
# _framework density 19.687007999999999
#
# number of rings (size 3 to 8) (size 9 to 14) (size 15 to 20)
#    0.000    2.000    1.250    1.875    0.000    5.000 
#    0.000    1.250    0.000    0.000    0.000    0.000 
#    0.000    0.000    0.000    0.000    0.000    0.000 
#
# Total GULP energy -793830.340214 kJ/mol
# GULP energy per Si atom -12403.599066 kJ/mol
# Density = 1.964220 g / cm^3
# Si number density = 19.687008 Si / 1000 Ang^3
#
#
#
# Elastic Constant Matrix: (Units=GPa)
#
#
# Indices 1 2 3 4 5 6 
#
# 1 85.1430 35.6797 11.2715 0.0000 0.0000 0.0000
# 2 35.6797 74.0123 25.6608 0.0000 0.0000 0.0000
# 3 11.2715 25.6608 48.3825 0.0000 0.0000 0.0000
# 4 0.0000 0.0000 0.0000 35.8415 0.0000 0.0000
# 5 0.0000 0.0000 0.0000 0.0000 21.5662 0.0000
# 6 0.0000 0.0000 0.0000 0.0000 0.0000 30.4549
#
#
#
# Elastic Compliance Matrix: (Units=1/GPa)
#
#
# Indices 1 2 3 4 5 6 
#
# 1 0.014725 -0.007241 0.000410 0.000000 0.000000 0.000000
# 2 -0.007241 0.020116 -0.008982 0.000000 0.000000 0.000000
# 3 0.000410 -0.008982 0.025337 0.000000 0.000000 0.000000
# 4 0.000000 0.000000 0.000000 0.027901 0.000000 0.000000
# 5 0.000000 0.000000 0.000000 0.000000 0.046369 0.000000
# 6 0.000000 0.000000 0.000000 0.000000 0.000000 0.032835
#
#
# Mechanical properties :
#
#
# Convention : Reuss Voigt Hill
#
# Bulk Modulus (GPa) = 35.02378 39.19575 37.10977
# Shear Modulus (GPa) = 23.98929 26.56756 25.27842
#
# Velocity S-wave (km/s) = 3.49454 3.67754 3.58720
# Velocity P-wave (km/s) = 5.84049 6.16320 6.00401
#
# Compressibility (1/GPa) = 0.02855203
#
# Stress axis : x y z
#
# Youngs Moduli (GPa) = 67.91202 49.71157 39.46786
#
# Poissons Ratio (x) = 0.35994 -0.01617
# Poissons Ratio (y) = 0.49173 0.35451
# Poissons Ratio (z) = -0.02783 0.44652
#
# Static dielectric constant tensor:
#      x y z
#    x 3.666880 0.000000 0.000000 
#    y 0.000000 3.605140 0.000000 
#    z 0.000000 0.000000 3.539360 
# 
# 
# High freq. dielectric constant tensor:
#      x y z
#    x 1.772130 0.000000 0.000000 
#    y 0.000000 1.768670 0.000000 
#    z 0.000000 0.000000 1.765460 
# 
# From -- ./inp_files/32441.got.cif
#   From: 2010.03.12/outbox.cif.g09.slc.cpg/sg62_17_cif.got.tgz:32441.got - 2010.04.10 19:12:36.
