data_PCOD8251653
_publ_section_title
;
Structure prediction by ZEFSAII (Michael W. Deem and Ramdas Pophale) SiO2 
 PCOD8251653
Probable space group: P N M A
;
_chemical_formula_sum "Si O2"
_cell_formula_units_Z 64
_cell_length_a 22.461587
_cell_length_b 9.328255
_cell_length_c 15.702164
_cell_angle_alpha 90.000000
_cell_angle_beta 90.000000
_cell_angle_gamma 90.000000
_cell_volume 3290.033774
_symmetry_space_group_name_H-M "P N M A"
_symmetry_group_IT_number 62
_symmetry_cell_setting 'orthorhombic'
loop_
_space_group_symop_operation_xyz
x,y,z
1/2-x,-y,1/2+z
1/2+x,1/2-y,1/2-z
-x,1/2+y,-z
-x,-y,-z
1/2+x,y,1/2-z
1/2-x,1/2+y,1/2+z
x,1/2-y,z
loop_
_atom_site_type_symbol
_atom_site_label
_atom_site_fract_x
_atom_site_fract_y
_atom_site_fract_z
Si Si1 0.846475 0.419811 0.808058
Si Si2 0.455828 0.922023 0.934148
Si Si3 0.964775 0.416283 0.073164
Si Si4 0.038517 0.414555 0.237276
Si Si5 0.838259 0.410108 0.514316
Si Si6 0.743810 0.591893 0.445907
Si Si7 0.242974 0.906250 0.326592
Si Si8 0.165390 0.593181 0.892307
O O1 0.857490 0.250000 0.803581
O O2 0.909702 0.492874 0.803786
O O3 0.811308 0.469425 0.891868
O O4 0.806763 0.480968 0.731186
O O5 0.454344 0.750000 0.950442
O O6 0.476039 0.956105 0.836102
O O7 0.391261 0.991634 0.949699
O O8 0.500000 0.000000 0.000000
O O9 0.971167 0.250000 0.049061
O O10 0.896050 0.468045 0.069047
O O11 0.984521 0.443779 0.171535
O O12 0.000000 0.500000 0.000000
O O13 0.058427 0.250000 0.235570
O O14 0.861271 0.250000 0.486886
O O15 0.803370 0.493150 0.438278
O O16 0.785666 0.390236 0.581270
O O17 0.762149 0.750000 0.412403
O O18 0.718456 0.605335 0.540332
O O19 0.257956 0.750000 0.288870
O O20 0.305974 0.989811 0.321478
O O21 0.151898 0.750000 0.852656
#
# Coordination Sequence:
#
# PCOD8251653 Si02
#       8
#     8   8   8   8   8   8   8   8
#     4  10  19  34  56  82 113 144 185 235 283 342
#     4  11  23  40  61  83 112 154 201 251 301 351
#     4  10  21  38  58  85 119 155 193 236 287 346
#     4  10  22  38  59  86 118 154 198 246 292 348
#     4  10  19  35  57  81 109 142 183 234 290 346
#     4   9  18  32  53  81 111 145 181 225 279 341
#     4   9  18  32  53  78 106 138 176 225 275 329
#     4   9  18  33  52  74 105 145 182 216 270 335
#
# _framework density 19.452687000000001
#
# number of rings (size 3 to 8) (size 9 to 14) (size 15 to 20)
#    0.000    2.250    1.250    1.500    0.000    4.000 
#    2.250    2.500    0.000    0.000    0.000    0.000 
#    0.000    0.000    0.000    0.000    0.000    0.000 
#
# Total GULP energy -792847.154441 kJ/mol
# GULP energy per Si atom -12388.236788 kJ/mol
# Density = 1.940841 g / cm^3
# Si number density = 19.452687 Si / 1000 Ang^3
#
#
#
# Elastic Constant Matrix: (Units=GPa)
#
#
# Indices 1 2 3 4 5 6 
#
# 1 89.7503 47.3349 17.9624 0.0000 0.0000 0.0000
# 2 47.3349 87.9871 29.2509 0.0000 0.0000 0.0000
# 3 17.9624 29.2509 65.0145 0.0000 0.0000 0.0000
# 4 0.0000 0.0000 0.0000 20.1779 0.0000 0.0000
# 5 0.0000 0.0000 0.0000 0.0000 32.0738 0.0000
# 6 0.0000 0.0000 0.0000 0.0000 0.0000 37.0675
#
#
#
# Elastic Compliance Matrix: (Units=1/GPa)
#
#
# Indices 1 2 3 4 5 6 
#
# 1 0.015577 -0.008172 -0.000627 0.000000 0.000000 0.000000
# 2 -0.008172 0.017651 -0.005684 0.000000 0.000000 0.000000
# 3 -0.000627 -0.005684 0.018112 0.000000 0.000000 0.000000
# 4 0.000000 0.000000 0.000000 0.049559 0.000000 0.000000
# 5 0.000000 0.000000 0.000000 0.000000 0.031178 0.000000
# 6 0.000000 0.000000 0.000000 0.000000 0.000000 0.026978
#
#
# Mechanical properties :
#
#
# Convention : Reuss Voigt Hill
#
# Bulk Modulus (GPa) = 44.69325 47.98315 46.33820
# Shear Modulus (GPa) = 25.57823 27.74408 26.66116
#
# Velocity S-wave (km/s) = 3.63008 3.78065 3.70613
# Velocity P-wave (km/s) = 6.37144 6.61649 6.49512
#
# Compressibility (1/GPa) = 0.02237474
#
# Stress axis : x y z
#
# Youngs Moduli (GPa) = 64.19568 56.65393 55.21306
#
# Poissons Ratio (x) = 0.46296 0.03463
# Poissons Ratio (y) = 0.52459 0.31382
# Poissons Ratio (z) = 0.04026 0.32201
#
# Static dielectric constant tensor:
#      x y z
#    x 3.665100 0.000000 0.000000 
#    y 0.000000 3.957540 0.000000 
#    z 0.000000 0.000000 3.516220 
# 
# 
# High freq. dielectric constant tensor:
#      x y z
#    x 1.754330 0.000000 0.000000 
#    y 0.000000 1.757210 0.000000 
#    z 0.000000 0.000000 1.743360 
# 
# From -- ./inp_files/24835.got.cif
#   From: 2010.03.12/outbox.cif.g09.slc.cpg/sg62_13_cif.got.tgz:24835.got - 2010.04.10 19:12:36.
