data_PCOD8251511
_publ_section_title
;
Structure prediction by ZEFSAII (Michael W. Deem and Ramdas Pophale) SiO2 
 PCOD8251511
Probable space group: P N M A
;
_chemical_formula_sum "Si O2"
_cell_formula_units_Z 48
_cell_length_a 28.742134
_cell_length_b 8.821537
_cell_length_c 10.339469
_cell_angle_alpha 90.000000
_cell_angle_beta 90.000000
_cell_angle_gamma 90.000000
_cell_volume 2621.570282
_symmetry_space_group_name_H-M "P N M A"
_symmetry_group_IT_number 62
_symmetry_cell_setting 'orthorhombic'
loop_
_space_group_symop_operation_xyz
x,y,z
1/2-x,-y,1/2+z
1/2+x,1/2-y,1/2-z
-x,1/2+y,-z
-x,-y,-z
1/2+x,y,1/2-z
1/2-x,1/2+y,1/2+z
x,1/2-y,z
loop_
_atom_site_type_symbol
_atom_site_label
_atom_site_fract_x
_atom_site_fract_y
_atom_site_fract_z
Si Si1 0.113806 0.926676 0.512824
Si Si2 0.284073 0.927023 0.720337
Si Si3 0.983773 0.925209 0.869066
Si Si4 0.611472 0.077286 0.250853
Si Si5 0.472220 0.570819 0.118904
Si Si6 0.719415 0.928635 0.008101
O O1 0.105421 0.750000 0.537124
O O2 0.167303 0.974404 0.534676
O O3 0.098990 0.965905 0.366433
O O4 0.081844 0.021441 0.611133
O O5 0.274651 0.750000 0.733238
O O6 0.338135 0.964006 0.690286
O O7 0.254176 0.993324 0.601157
O O8 0.267332 0.000441 0.854180
O O9 0.998601 0.750000 0.865637
O O10 0.927764 0.942990 0.860174
O O11 0.008061 0.011413 0.752652
O O12 0.000000 0.000000 0.000000
O O13 0.611674 0.250000 0.197665
O O14 0.476798 0.750000 0.112346
O O15 0.500000 0.500000 0.000000
O O16 0.724136 0.750000 0.024003
#
# Coordination Sequence:
#
# PCOD8251511 Si02
#       6
#     8   8   8   8   8   8
#     4  10  19  33  56  83 111 143 184 231 275 324
#     4   9  18  35  57  80 109 142 180 226 272 325
#     4  11  23  39  57  81 115 151 186 228 277 332
#     4   9  18  34  57  79 106 146 188 224 270 329
#     4  12  23  37  59  85 111 144 185 230 276 330
#     4   9  19  35  55  81 113 143 180 228 275 325
#
# _framework density 18.309636000000001
#
# number of rings (size 3 to 8) (size 9 to 14) (size 15 to 20)
#    0.000    2.000    1.667    2.500    0.000    2.000 
#    3.000    0.000    0.000    0.000    0.000    0.000 
#    0.000    0.000    0.000    0.000    0.000    0.000 
#
# Total GULP energy -595260.018859 kJ/mol
# GULP energy per Si atom -12401.250393 kJ/mol
# Density = 1.826796 g / cm^3
# Si number density = 18.309636 Si / 1000 Ang^3
#
#
#
# Elastic Constant Matrix: (Units=GPa)
#
#
# Indices 1 2 3 4 5 6 
#
# 1 118.8034 45.7427 84.0378 0.0000 0.0000 0.0000
# 2 45.7427 92.7303 55.0737 0.0000 0.0000 0.0000
# 3 84.0378 55.0737 144.9604 0.0000 0.0000 0.0000
# 4 0.0000 0.0000 0.0000 33.4413 0.0000 0.0000
# 5 0.0000 0.0000 0.0000 0.0000 35.6902 0.0000
# 6 0.0000 0.0000 0.0000 0.0000 0.0000 25.7350
#
#
#
# Elastic Compliance Matrix: (Units=1/GPa)
#
#
# Indices 1 2 3 4 5 6 
#
# 1 0.014831 -0.002853 -0.007514 0.000000 0.000000 0.000000
# 2 -0.002853 0.014475 -0.003845 0.000000 0.000000 0.000000
# 3 -0.007514 -0.003845 0.012715 0.000000 0.000000 0.000000
# 4 0.000000 0.000000 0.000000 0.029903 0.000000 0.000000
# 5 0.000000 0.000000 0.000000 0.000000 0.028019 0.000000
# 6 0.000000 0.000000 0.000000 0.000000 0.000000 0.038858
#
#
# Mechanical properties :
#
#
# Convention : Reuss Voigt Hill
#
# Bulk Modulus (GPa) = 73.54824 80.68915 77.11869
# Shear Modulus (GPa) = 29.11062 30.41594 29.76328
#
# Velocity S-wave (km/s) = 3.99169 4.08020 4.03619
# Velocity P-wave (km/s) = 7.84227 8.14631 7.99573
#
# Compressibility (1/GPa) = 0.01359652
#
# Stress axis : x y z
#
# Youngs Moduli (GPa) = 67.42639 69.08337 78.64490
#
# Poissons Ratio (x) = 0.19712 0.59093
# Poissons Ratio (y) = 0.19239 0.30241
# Poissons Ratio (z) = 0.50664 0.26565
#
# Static dielectric constant tensor:
#      x y z
#    x 3.732440 0.000000 0.000000 
#    y 0.000000 3.424490 0.000000 
#    z 0.000000 0.000000 3.409140 
# 
# 
# High freq. dielectric constant tensor:
#      x y z
#    x 1.720940 0.000000 0.000000 
#    y 0.000000 1.714300 0.000000 
#    z 0.000000 0.000000 1.691220 
# 
# From -- ./inp_files/10226.got.cif
#   From: 2010.03.12/outbox.cif.g09.slc.cpg/sg62_6_cif.got.tgz:10226.got - 2010.04.10 19:12:36.
