data_PCOD8251165
_publ_section_title
;
Structure prediction by ZEFSAII (Michael W. Deem and Ramdas Pophale) SiO2 
 PCOD8251165
Probable space group: P N M A
;
_chemical_formula_sum "Si O2"
_cell_formula_units_Z 56
_cell_length_a 15.745342
_cell_length_b 8.765601
_cell_length_c 21.179576
_cell_angle_alpha 90.000000
_cell_angle_beta 90.000000
_cell_angle_gamma 90.000000
_cell_volume 2923.149707
_symmetry_space_group_name_H-M "P N M A"
_symmetry_group_IT_number 62
_symmetry_cell_setting 'orthorhombic'
loop_
_space_group_symop_operation_xyz
x,y,z
1/2-x,-y,1/2+z
1/2+x,1/2-y,1/2-z
-x,1/2+y,-z
-x,-y,-z
1/2+x,y,1/2-z
1/2-x,1/2+y,1/2+z
x,1/2-y,z
loop_
_atom_site_type_symbol
_atom_site_label
_atom_site_fract_x
_atom_site_fract_y
_atom_site_fract_z
Si Si1 0.434300 0.926950 0.952936
Si Si2 0.915809 0.929515 0.219358
Si Si3 0.995431 0.420303 0.099140
Si Si4 0.554753 0.075025 0.192936
Si Si5 0.252252 0.569987 0.809277
Si Si6 0.759258 0.427478 0.557683
Si Si7 0.624068 0.580021 0.479331
O O1 0.416983 0.750000 0.968834
O O2 0.464849 0.944233 0.880936
O O3 0.351871 0.027179 0.964897
O O4 0.500000 0.000000 0.000000
O O5 0.908357 0.750000 0.218225
O O6 0.821088 0.995643 0.234810
O O7 0.943723 0.988033 0.151187
O O8 0.985174 0.975960 0.271096
O O9 0.016108 0.250000 0.124292
O O10 0.082488 0.509997 0.083992
O O11 0.943144 0.410500 0.035282
O O12 0.545164 0.250000 0.214026
O O13 0.651436 0.018304 0.208906
O O14 0.244325 0.750000 0.804221
O O15 0.232352 0.523839 0.881167
O O16 0.753259 0.250000 0.574390
O O17 0.699352 0.467844 0.499089
O O18 0.658117 0.750000 0.463856
#
# Coordination Sequence:
#
# PCOD8251165 Si02
#       7
#     8   8   8   8   8   8   8
#     4  10  21  39  62  86 112 144 186 235 287 337
#     4  12  23  35  57  86 117 152 190 235 286 341
#     4  10  20  33  52  76 112 151 184 225 273 328
#     4   9  21  40  61  84 113 149 190 235 284 339
#     4  10  20  37  59  82 110 149 194 238 283 337
#     4  11  20  32  55  84 114 147 188 232 279 336
#     4  10  19  32  51  78 112 147 185 229 273 322
#
# _framework density 19.157418
#
# number of rings (size 3 to 8) (size 9 to 14) (size 15 to 20)
#    0.000    1.714    1.429    5.143    0.000    4.571 
#    0.000    1.429    0.000    5.143    0.000    0.000 
#    0.000    0.000    0.000    0.000    0.000    0.000 
#
# Total GULP energy -694337.960989 kJ/mol
# GULP energy per Si atom -12398.892161 kJ/mol
# Density = 1.911382 g / cm^3
# Si number density = 19.157418 Si / 1000 Ang^3
#
#
#
# Elastic Constant Matrix: (Units=GPa)
#
#
# Indices 1 2 3 4 5 6 
#
# 1 118.3737 52.3058 43.8155 0.0000 0.0000 0.0000
# 2 52.3058 128.8374 30.4478 0.0000 0.0000 0.0000
# 3 43.8155 30.4478 44.9592 0.0000 0.0000 0.0000
# 4 0.0000 0.0000 0.0000 29.3439 0.0000 0.0000
# 5 0.0000 0.0000 0.0000 0.0000 33.9846 0.0000
# 6 0.0000 0.0000 0.0000 0.0000 0.0000 35.3545
#
#
#
# Elastic Compliance Matrix: (Units=1/GPa)
#
#
# Indices 1 2 3 4 5 6 
#
# 1 0.014097 -0.002948 -0.011741 0.000000 0.000000 0.000000
# 2 -0.002948 0.009857 -0.003802 0.000000 0.000000 0.000000
# 3 -0.011741 -0.003802 0.036260 0.000000 0.000000 0.000000
# 4 0.000000 0.000000 0.000000 0.034079 0.000000 0.000000
# 5 0.000000 0.000000 0.000000 0.000000 0.029425 0.000000
# 6 0.000000 0.000000 0.000000 0.000000 0.000000 0.028285
#
#
# Mechanical properties :
#
#
# Convention : Reuss Voigt Hill
#
# Bulk Modulus (GPa) = 43.04772 60.58982 51.81877
# Shear Modulus (GPa) = 25.41555 30.77669 28.09612
#
# Velocity S-wave (km/s) = 3.64630 4.01248 3.83377
# Velocity P-wave (km/s) = 6.34402 7.29128 6.83408
#
# Compressibility (1/GPa) = 0.02323004
#
# Stress axis : x y z
#
# Youngs Moduli (GPa) = 70.93947 101.44811 27.57842
#
# Poissons Ratio (x) = 0.29908 0.32381
# Poissons Ratio (y) = 0.20914 0.10487
# Poissons Ratio (z) = 0.83293 0.38576
#
# Static dielectric constant tensor:
#      x y z
#    x 3.737640 0.000000 0.000000 
#    y 0.000000 3.695330 0.000000 
#    z 0.000000 0.000000 3.242400 
# 
# 
# High freq. dielectric constant tensor:
#      x y z
#    x 1.750460 0.000000 0.000000 
#    y 0.000000 1.758830 0.000000 
#    z 0.000000 0.000000 1.712570 
# 
# From -- ./inp_files/27056.got.cif
#   From: 2010.03.12/outbox.cif.g09.slc.cpg/sg62_14_cif.got.tgz:27056.got - 2010.04.10 19:12:36.
