data_PCOD8251377
_publ_section_title
;
Structure prediction by ZEFSAII (Michael W. Deem and Ramdas Pophale) SiO2 
 PCOD8251377
Probable space group: P N M A
;
_chemical_formula_sum "Si O2"
_cell_formula_units_Z 64
_cell_length_a 19.629113
_cell_length_b 8.901599
_cell_length_c 20.396839
_cell_angle_alpha 90.000000
_cell_angle_beta 90.000000
_cell_angle_gamma 90.000000
_cell_volume 3563.949727
_symmetry_space_group_name_H-M "P N M A"
_symmetry_group_IT_number 62
_symmetry_cell_setting 'orthorhombic'
loop_
_space_group_symop_operation_xyz
x,y,z
1/2-x,-y,1/2+z
1/2+x,1/2-y,1/2-z
-x,1/2+y,-z
-x,-y,-z
1/2+x,y,1/2-z
1/2-x,1/2+y,1/2+z
x,1/2-y,z
loop_
_atom_site_type_symbol
_atom_site_label
_atom_site_fract_x
_atom_site_fract_y
_atom_site_fract_z
Si Si1 0.066507 0.925670 0.379790
Si Si2 0.933579 0.422267 0.227327
Si Si3 0.704852 0.071908 0.314636
Si Si4 0.787965 0.072038 0.189877
Si Si5 0.927905 0.077643 0.381564
Si Si6 0.293264 0.922416 0.077196
Si Si7 0.803102 0.577400 0.570923
Si Si8 0.071553 0.574705 0.228410
O O1 0.053274 0.750000 0.388360
O O2 0.081711 0.968129 0.304448
O O3 0.129665 0.976669 0.423658
O O4 0.000208 0.013299 0.405136
O O5 0.949170 0.250000 0.209076
O O6 0.866071 0.485308 0.190974
O O7 0.919196 0.439250 0.304104
O O8 0.997343 0.521393 0.204213
O O9 0.702537 0.250000 0.314006
O O10 0.745944 0.007232 0.251846
O O11 0.740743 0.019223 0.380936
O O12 0.628314 0.009793 0.313870
O O13 0.789435 0.250000 0.196381
O O14 0.753191 0.018231 0.122526
O O15 0.921988 0.250000 0.403913
O O16 0.869729 0.981899 0.416200
O O17 0.290440 0.750000 0.100242
O O18 0.271587 0.938662 0.001272
O O19 0.822649 0.750000 0.586684
O O20 0.078520 0.750000 0.215541
#
# Coordination Sequence:
#
# PCOD8251377 Si02
#       8
#     8   8   8   8   8   8   8   8
#     4  10  20  33  51  78 110 143 179 223 269 315
#     4   9  17  32  54  80 104 134 176 220 262 312
#     4  11  20  35  59  81 104 142 184 223 262 315
#     4   9  17  33  57  81 102 133 182 223 260 312
#     4  10  19  33  53  76 105 145 186 219 260 320
#     4  11  23  36  52  78 112 144 177 223 276 320
#     4  10  21  37  55  76 107 147 182 220 269 324
#     4  10  20  33  51  82 114 138 168 218 276 319
#
# _framework density 17.957605000000001
#
# number of rings (size 3 to 8) (size 9 to 14) (size 15 to 20)
#    0.000    2.000    2.500    1.875    0.000    3.000 
#    0.000    0.625    0.000    0.750    0.000    0.000 
#    0.000    0.000    0.000    0.000    0.000    0.000 
#
# Total GULP energy -793807.729041 kJ/mol
# GULP energy per Si atom -12403.245766 kJ/mol
# Density = 1.791673 g / cm^3
# Si number density = 17.957605 Si / 1000 Ang^3
#
#
#
# Elastic Constant Matrix: (Units=GPa)
#
#
# Indices 1 2 3 4 5 6 
#
# 1 125.5531 39.3255 50.9267 0.0000 0.0000 0.0000
# 2 39.3255 70.7054 28.9646 0.0000 0.0000 0.0000
# 3 50.9267 28.9646 75.4364 0.0000 0.0000 0.0000
# 4 0.0000 0.0000 0.0000 21.2157 0.0000 0.0000
# 5 0.0000 0.0000 0.0000 0.0000 22.3389 0.0000
# 6 0.0000 0.0000 0.0000 0.0000 0.0000 30.2768
#
#
#
# Elastic Compliance Matrix: (Units=1/GPa)
#
#
# Indices 1 2 3 4 5 6 
#
# 1 0.011819 -0.003922 -0.006473 0.000000 0.000000 0.000000
# 2 -0.003922 0.018084 -0.004296 0.000000 0.000000 0.000000
# 3 -0.006473 -0.004296 0.019276 0.000000 0.000000 0.000000
# 4 0.000000 0.000000 0.000000 0.047135 0.000000 0.000000
# 5 0.000000 0.000000 0.000000 0.000000 0.044765 0.000000
# 6 0.000000 0.000000 0.000000 0.000000 0.000000 0.033029
#
#
# Mechanical properties :
#
#
# Convention : Reuss Voigt Hill
#
# Bulk Modulus (GPa) = 50.51269 56.68093 53.59681
# Shear Modulus (GPa) = 23.79958 24.93148 24.36553
#
# Velocity S-wave (km/s) = 3.64444 3.73010 3.68752
# Velocity P-wave (km/s) = 6.77490 7.08405 6.93120
#
# Compressibility (1/GPa) = 0.01979700
#
# Stress axis : x y z
#
# Youngs Moduli (GPa) = 84.61190 55.29645 51.87907
#
# Poissons Ratio (x) = 0.21686 0.33581
# Poissons Ratio (y) = 0.33183 0.22288
# Poissons Ratio (z) = 0.54769 0.23756
#
# Static dielectric constant tensor:
#      x y z
#    x 3.411900 0.000000 0.000000 
#    y 0.000000 3.256630 0.000000 
#    z 0.000000 0.000000 3.156740 
# 
# 
# High freq. dielectric constant tensor:
#      x y z
#    x 1.699470 0.000000 0.000000 
#    y 0.000000 1.692760 0.000000 
#    z 0.000000 0.000000 1.668110 
# 
# From -- ./inp_files/27630.got.cif
#   From: 2010.03.12/outbox.cif.g09.slc.cpg/sg62_14_cif.got.tgz:27630.got - 2010.04.10 19:12:36.
