data_PCOD8251384
_publ_section_title
;
Structure prediction by ZEFSAII (Michael W. Deem and Ramdas Pophale) SiO2 
 PCOD8251384
Probable space group: P N M A
;
_chemical_formula_sum "Si O2"
_cell_formula_units_Z 40
_cell_length_a 15.243678
_cell_length_b 9.458490
_cell_length_c 15.272627
_cell_angle_alpha 90.000000
_cell_angle_beta 90.000000
_cell_angle_gamma 90.000000
_cell_volume 2202.040593
_symmetry_space_group_name_H-M "P N M A"
_symmetry_group_IT_number 62
_symmetry_cell_setting 'orthorhombic'
loop_
_space_group_symop_operation_xyz
x,y,z
1/2-x,-y,1/2+z
1/2+x,1/2-y,1/2-z
-x,1/2+y,-z
-x,-y,-z
1/2+x,y,1/2-z
1/2-x,1/2+y,1/2+z
x,1/2-y,z
loop_
_atom_site_type_symbol
_atom_site_label
_atom_site_fract_x
_atom_site_fract_y
_atom_site_fract_z
Si Si1 0.327605 0.418198 0.716657
Si Si2 0.236056 0.912550 0.028048
Si Si3 0.563300 0.411362 0.940901
Si Si4 0.312964 0.581891 0.359825
Si Si5 0.477634 0.582602 0.250766
O O1 0.325627 0.250000 0.717796
O O2 0.295342 0.471515 0.622008
O O3 0.262875 0.472707 0.793383
O O4 0.425401 0.479939 0.731538
O O5 0.206598 0.750000 0.015056
O O6 0.339956 0.927068 0.021725
O O7 0.194262 0.008293 0.953287
O O8 0.531230 0.250000 0.942988
O O9 0.557890 0.471160 0.842495
O O10 0.500000 0.500000 0.000000
O O11 0.306723 0.750000 0.371921
O O12 0.407815 0.533612 0.323411
O O13 0.482787 0.750000 0.251154
#
# Coordination Sequence:
#
# PCOD8251384 Si02
#       5
#     8   8   8   8   8
#     4   9  17  32  53  75 103 138 174 212 258 308
#     4  10  20  34  52  76 108 140 168 213 271 312
#     4  10  19  33  53  79 106 133 174 221 263 307
#     4  10  19  34  55  78 102 136 181 218 252 309
#     4   9  17  31  53  76 100 136 179 215 248 305
#
# _framework density 18.164968999999999
#
# number of rings (size 3 to 8) (size 9 to 14) (size 15 to 20)
#    0.000    2.400    2.000    1.200    0.000    3.200 
#    0.000    2.000    0.000    2.400    0.000    0.000 
#    0.000    0.000    0.000    0.000    0.000    0.000 
#
# Total GULP energy -495947.896283 kJ/mol
# GULP energy per Si atom -12398.697407 kJ/mol
# Density = 1.812362 g / cm^3
# Si number density = 18.164969 Si / 1000 Ang^3
#
#
#
# Elastic Constant Matrix: (Units=GPa)
#
#
# Indices 1 2 3 4 5 6 
#
# 1 84.5651 13.0578 10.3826 0.0000 0.0000 0.0000
# 2 13.0578 28.3717 22.3086 0.0000 0.0000 0.0000
# 3 10.3826 22.3086 91.0639 0.0000 0.0000 0.0000
# 4 0.0000 0.0000 0.0000 29.7182 0.0000 0.0000
# 5 0.0000 0.0000 0.0000 0.0000 39.9723 0.0000
# 6 0.0000 0.0000 0.0000 0.0000 0.0000 16.5361
#
#
#
# Elastic Compliance Matrix: (Units=1/GPa)
#
#
# Indices 1 2 3 4 5 6 
#
# 1 0.012730 -0.005843 -0.000020 0.000000 0.000000 0.000000
# 2 -0.005843 0.046338 -0.010685 0.000000 0.000000 0.000000
# 3 -0.000020 -0.010685 0.013601 0.000000 0.000000 0.000000
# 4 0.000000 0.000000 0.000000 0.033649 0.000000 0.000000
# 5 0.000000 0.000000 0.000000 0.000000 0.025017 0.000000
# 6 0.000000 0.000000 0.000000 0.000000 0.000000 0.060474
#
#
# Mechanical properties :
#
#
# Convention : Reuss Voigt Hill
#
# Bulk Modulus (GPa) = 25.27061 32.83320 29.05190
# Shear Modulus (GPa) = 20.99988 27.79546 24.39767
#
# Velocity S-wave (km/s) = 3.40378 3.91598 3.66883
# Velocity P-wave (km/s) = 5.42122 6.20973 5.82882
#
# Compressibility (1/GPa) = 0.03957167
#
# Stress axis : x y z
#
# Youngs Moduli (GPa) = 78.55518 21.58077 73.52265
#
# Poissons Ratio (x) = 0.12610 0.00147
# Poissons Ratio (y) = 0.45901 0.78562
# Poissons Ratio (z) = 0.00157 0.23060
#
# Static dielectric constant tensor:
#      x y z
#    x 3.761870 0.000000 0.000000 
#    y 0.000000 2.886670 0.000000 
#    z 0.000000 0.000000 3.575830 
# 
# 
# High freq. dielectric constant tensor:
#      x y z
#    x 1.717560 0.000000 0.000000 
#    y 0.000000 1.650990 0.000000 
#    z 0.000000 0.000000 1.715410 
# 
# From -- ./inp_files/12977.got.cif
#   From: 2010.03.12/outbox.cif.g09.slc.cpg/sg62_7_cif.got.tgz:12977.got - 2010.04.10 19:12:36.
