data_PCOD8251045
_publ_section_title
;
Structure prediction by ZEFSAII (Michael W. Deem and Ramdas Pophale) SiO2 
 PCOD8251045
Probable space group: P N M A
;
_chemical_formula_sum "Si O2"
_cell_formula_units_Z 64
_cell_length_a 14.305671
_cell_length_b 9.347450
_cell_length_c 24.879711
_cell_angle_alpha 90.000000
_cell_angle_beta 90.000000
_cell_angle_gamma 90.000000
_cell_volume 3326.953379
_symmetry_space_group_name_H-M "P N M A"
_symmetry_group_IT_number 62
_symmetry_cell_setting 'orthorhombic'
loop_
_space_group_symop_operation_xyz
x,y,z
1/2-x,-y,1/2+z
1/2+x,1/2-y,1/2-z
-x,1/2+y,-z
-x,-y,-z
1/2+x,y,1/2-z
1/2-x,1/2+y,1/2+z
x,1/2-y,z
loop_
_atom_site_type_symbol
_atom_site_label
_atom_site_fract_x
_atom_site_fract_y
_atom_site_fract_z
Si Si1 0.310736 0.918614 0.694699
Si Si2 0.028256 0.592219 0.950144
Si Si3 0.829488 0.085090 0.603311
Si Si4 0.479961 0.585108 0.054424
Si Si5 0.233990 0.593005 0.980731
Si Si6 0.487162 0.080662 0.333191
Si Si7 0.720920 0.085197 0.903097
Si Si8 0.281828 0.080146 0.305688
O O1 0.303737 0.750000 0.685792
O O2 0.420542 0.965128 0.700178
O O3 0.257950 0.967806 0.748221
O O4 0.261142 0.990667 0.644442
O O5 0.984125 0.750000 0.957299
O O6 0.997136 0.521250 0.893809
O O7 0.139502 0.601187 0.947198
O O8 0.000000 0.500000 0.000000
O O9 0.800756 0.250000 0.611337
O O10 0.941270 0.064095 0.600688
O O11 0.796213 0.030876 0.544919
O O12 0.783629 0.991722 0.649939
O O13 0.473774 0.750000 0.037161
O O14 0.383757 0.534587 0.081985
O O15 0.500000 0.500000 0.000000
O O16 0.283955 0.750000 0.977077
O O17 0.215732 0.558975 0.043661
O O18 0.477673 0.250000 0.336897
O O19 0.389479 0.023189 0.308274
O O20 0.723219 0.250000 0.884567
O O21 0.275346 0.250000 0.313909
#
# Coordination Sequence:
#
# PCOD8251045 Si02
#       8
#     8   8   8   8   8   8   8   8
#     4  10  22  38  60  87 112 147 197 244 283 333
#     4  10  19  31  51  78 111 147 183 227 278 334
#     4  11  22  35  56  87 115 143 190 245 284 327
#     4  10  21  36  56  84 118 156 192 233 287 347
#     4  10  19  34  56  80 110 154 191 222 279 349
#     4   9  18  36  58  81 112 146 185 233 281 331
#     4  10  21  37  57  82 118 155 188 231 290 351
#     4  10  21  40  62  81 112 156 195 234 286 347
#
# _framework density 19.236820000000002
#
# number of rings (size 3 to 8) (size 9 to 14) (size 15 to 20)
#    0.000    2.000    2.500    1.125    0.000    3.500 
#    0.000    1.875    0.000    0.000    0.000    0.000 
#    0.000    0.000    0.000    0.000    0.000    0.000 
#
# Total GULP energy -793327.004123 kJ/mol
# GULP energy per Si atom -12395.734439 kJ/mol
# Density = 1.919304 g / cm^3
# Si number density = 19.236820 Si / 1000 Ang^3
#
#
#
# Elastic Constant Matrix: (Units=GPa)
#
#
# Indices 1 2 3 4 5 6 
#
# 1 114.0840 29.1303 60.3142 0.0000 0.0000 0.0000
# 2 29.1303 51.6142 39.6142 0.0000 0.0000 0.0000
# 3 60.3142 39.6142 125.0565 0.0000 0.0000 0.0000
# 4 0.0000 0.0000 0.0000 32.6836 0.0000 0.0000
# 5 0.0000 0.0000 0.0000 0.0000 35.2269 0.0000
# 6 0.0000 0.0000 0.0000 0.0000 0.0000 21.9746
#
#
#
# Elastic Compliance Matrix: (Units=1/GPa)
#
#
# Indices 1 2 3 4 5 6 
#
# 1 0.012133 -0.003113 -0.004865 0.000000 0.000000 0.000000
# 2 -0.003113 0.026397 -0.006860 0.000000 0.000000 0.000000
# 3 -0.004865 -0.006860 0.012516 0.000000 0.000000 0.000000
# 4 0.000000 0.000000 0.000000 0.030596 0.000000 0.000000
# 5 0.000000 0.000000 0.000000 0.000000 0.028387 0.000000
# 6 0.000000 0.000000 0.000000 0.000000 0.000000 0.045507
#
#
# Mechanical properties :
#
#
# Convention : Reuss Voigt Hill
#
# Bulk Modulus (GPa) = 46.79932 60.98578 53.89255
# Shear Modulus (GPa) = 25.99610 28.75675 27.37643
#
# Velocity S-wave (km/s) = 3.68009 3.87056 3.77653
# Velocity P-wave (km/s) = 6.51446 7.19350 6.86239
#
# Compressibility (1/GPa) = 0.02136783
#
# Stress axis : x y z
#
# Youngs Moduli (GPa) = 82.42237 37.88334 79.89775
#
# Poissons Ratio (x) = 0.11794 0.38873
# Poissons Ratio (y) = 0.25661 0.54811
# Poissons Ratio (z) = 0.40101 0.25989
#
# Static dielectric constant tensor:
#      x y z
#    x 3.908110 0.000000 0.000000 
#    y 0.000000 3.368970 0.000000 
#    z 0.000000 0.000000 3.467080 
# 
# 
# High freq. dielectric constant tensor:
#      x y z
#    x 1.760530 0.000000 0.000000 
#    y 0.000000 1.727920 0.000000 
#    z 0.000000 0.000000 1.743120 
# 
# From -- ./inp_files/29771.got.cif
#   From: 2010.03.12/outbox.cif.g09.slc.cpg/sg62_15_cif.got.tgz:29771.got - 2010.04.10 19:12:36.
