data_PCOD8251711
_publ_section_title
;
Structure prediction by ZEFSAII (Michael W. Deem and Ramdas Pophale) SiO2 
 PCOD8251711
Probable space group: P N M A
;
_chemical_formula_sum "Si O2"
_cell_formula_units_Z 48
_cell_length_a 10.259012
_cell_length_b 8.727167
_cell_length_c 29.066607
_cell_angle_alpha 90.000000
_cell_angle_beta 90.000000
_cell_angle_gamma 90.000000
_cell_volume 2602.394684
_symmetry_space_group_name_H-M "P N M A"
_symmetry_group_IT_number 62
_symmetry_cell_setting 'orthorhombic'
loop_
_space_group_symop_operation_xyz
x,y,z
1/2-x,-y,1/2+z
1/2+x,1/2-y,1/2-z
-x,1/2+y,-z
-x,-y,-z
1/2+x,y,1/2-z
1/2-x,1/2+y,1/2+z
x,1/2-y,z
loop_
_atom_site_type_symbol
_atom_site_label
_atom_site_fract_x
_atom_site_fract_y
_atom_site_fract_z
Si Si1 0.763334 0.573784 0.114496
Si Si2 0.368170 0.926500 0.483170
Si Si3 0.799956 0.432763 0.209084
Si Si4 0.488597 0.430562 0.114667
Si Si5 0.381628 0.930315 0.028244
Si Si6 0.506517 0.430832 0.217642
O O1 0.724401 0.750000 0.123082
O O2 0.862335 0.557525 0.072045
O O3 0.832767 0.504869 0.159578
O O4 0.634918 0.478552 0.101662
O O5 0.359790 0.750000 0.498260
O O6 0.500000 0.000000 0.500000
O O7 0.253328 0.018184 0.507112
O O8 0.805468 0.250000 0.204625
O O9 0.655562 0.486330 0.225669
O O10 0.907396 0.499292 0.244562
O O11 0.475326 0.250000 0.108016
O O12 0.387311 0.514569 0.081203
O O13 0.458094 0.481420 0.167045
O O14 0.394232 0.750000 0.026167
O O15 0.500000 0.000000 0.000000
O O16 0.502309 0.250000 0.221530
#
# Coordination Sequence:
#
# PCOD8251711 Si02
#       6
#     8   8   8   8   8   8
#     4  10  20  35  56  81 111 146 186 229 280 340
#     4  11  24  41  59  82 116 153 192 237 287 342
#     4   9  17  33  55  78 105 141 181 225 272 327
#     4  10  19  34  58  85 112 145 189 235 280 331
#     4  12  23  37  60  87 116 149 190 235 281 336
#     4   8  16  31  53  78 106 137 180 226 270 326
#
# _framework density 18.44455
#
# number of rings (size 3 to 8) (size 9 to 14) (size 15 to 20)
#    0.000    2.000    1.667    4.000    0.000    2.000 
#    3.000    4.167    0.000    0.000    0.000    0.000 
#    0.000    0.000    0.000    0.000    0.000    0.000 
#
# Total GULP energy -595206.959905 kJ/mol
# GULP energy per Si atom -12400.144998 kJ/mol
# Density = 1.840257 g / cm^3
# Si number density = 18.444550 Si / 1000 Ang^3
#
#
#
# Elastic Constant Matrix: (Units=GPa)
#
#
# Indices 1 2 3 4 5 6 
#
# 1 113.6384 43.3915 75.6594 0.0000 0.0000 0.0000
# 2 43.3915 102.1564 50.4726 0.0000 0.0000 0.0000
# 3 75.6594 50.4726 135.4943 0.0000 0.0000 0.0000
# 4 0.0000 0.0000 0.0000 31.2903 0.0000 0.0000
# 5 0.0000 0.0000 0.0000 0.0000 37.6811 0.0000
# 6 0.0000 0.0000 0.0000 0.0000 0.0000 24.5485
#
#
#
# Elastic Compliance Matrix: (Units=1/GPa)
#
#
# Indices 1 2 3 4 5 6 
#
# 1 0.014574 -0.002659 -0.007148 0.000000 0.000000 0.000000
# 2 -0.002659 0.012482 -0.003165 0.000000 0.000000 0.000000
# 3 -0.007148 -0.003165 0.012550 0.000000 0.000000 0.000000
# 4 0.000000 0.000000 0.000000 0.031959 0.000000 0.000000
# 5 0.000000 0.000000 0.000000 0.000000 0.026539 0.000000
# 6 0.000000 0.000000 0.000000 0.000000 0.000000 0.040736
#
#
# Mechanical properties :
#
#
# Convention : Reuss Voigt Hill
#
# Bulk Modulus (GPa) = 73.18691 76.70400 74.94546
# Shear Modulus (GPa) = 29.52702 30.82170 30.17436
#
# Velocity S-wave (km/s) = 4.00541 4.09228 4.04908
# Velocity P-wave (km/s) = 7.82027 8.00035 7.91082
#
# Compressibility (1/GPa) = 0.01366365
#
# Stress axis : x y z
#
# Youngs Moduli (GPa) = 68.61596 80.11535 79.67836
#
# Poissons Ratio (x) = 0.21302 0.56950
# Poissons Ratio (y) = 0.18245 0.25217
# Poissons Ratio (z) = 0.49043 0.25356
#
# Static dielectric constant tensor:
#      x y z
#    x 2.394900 0.000000 0.000000 
#    y 0.000000 3.372940 0.000000 
#    z 0.000000 0.000000 3.673360 
# 
# 
# High freq. dielectric constant tensor:
#      x y z
#    x 1.698250 0.000000 0.000000 
#    y 0.000000 1.711710 0.000000 
#    z 0.000000 0.000000 1.726930 
# 
# From -- ./inp_files/32022.got.cif
#   From: 2010.03.12/outbox.cif.g09.slc.cpg/sg62_17_cif.got.tgz:32022.got - 2010.04.10 19:12:36.
