data_PCOD8251911
_publ_section_title
;
Structure prediction by ZEFSAII (Michael W. Deem and Ramdas Pophale) SiO2 
 PCOD8251911
Probable space group: P N M A
;
_chemical_formula_sum "Si O2"
_cell_formula_units_Z 56
_cell_length_a 5.224669
_cell_length_b 16.479223
_cell_length_c 30.854957
_cell_angle_alpha 90.000000
_cell_angle_beta 90.000000
_cell_angle_gamma 90.000000
_cell_volume 2656.565069
_symmetry_space_group_name_H-M "P N M A"
_symmetry_group_IT_number 62
_symmetry_cell_setting 'orthorhombic'
loop_
_space_group_symop_operation_xyz
x,y,z
1/2-x,-y,1/2+z
1/2+x,1/2-y,1/2-z
-x,1/2+y,-z
-x,-y,-z
1/2+x,y,1/2-z
1/2-x,1/2+y,1/2+z
x,1/2-y,z
loop_
_atom_site_type_symbol
_atom_site_label
_atom_site_fract_x
_atom_site_fract_y
_atom_site_fract_z
Si Si1 0.248655 0.344665 0.912468
Si Si2 0.749878 0.554859 0.000152
Si Si3 0.790078 0.903243 0.906227
Si Si4 0.243701 0.608409 0.767577
Si Si5 0.789081 0.842995 0.638186
Si Si6 0.248251 0.583682 0.127860
Si Si7 0.758331 0.571843 0.269788
O O1 0.288373 0.250000 0.919939
O O2 0.477820 0.378314 0.883050
O O3 0.980003 0.359176 0.888492
O O4 0.251254 0.386762 0.958933
O O5 0.750427 0.610339 0.957275
O O6 0.500000 0.500000 0.000000
O O7 0.000000 0.500000 0.000000
O O8 0.568694 0.854602 0.881784
O O9 0.069335 0.868789 0.895061
O O10 0.777344 0.997760 0.895442
O O11 0.485817 0.655706 0.746882
O O12 0.263693 0.601252 0.819283
O O13 0.210931 0.520285 0.746299
O O14 0.754942 0.750000 0.651915
O O15 0.225983 0.573841 0.179064
O O16 0.518109 0.616040 0.246412
#
# Coordination Sequence:
#
# PCOD8251911 Si02
#       7
#     8   8   8   8   8   8   8
#     4  12  26  45  70 105 139 174 218 275 350 403
#     4  12  23  46  70 104 135 173 227 277 326 401
#     4  12  23  42  71  95 134 179 233 276 326 397
#     4  10  20  37  57  86 126 170 228 273 324 381
#     4  12  26  41  61  99 143 184 227 280 340 392
#     4  12  23  42  73  99 133 179 224 285 321 405
#     4  10  19  35  61  96 125 161 227 274 327 379
#
# _framework density 21.079854999999998
#
# number of rings (size 3 to 8) (size 9 to 14) (size 15 to 20)
#    0.000    0.571    2.857    7.714    0.000    1.714 
#    0.000    0.000    0.000    8.571    0.000    0.000 
#    0.000    0.000    0.000    0.000    0.000    0.000 
#
# Total GULP energy -694495.407444 kJ/mol
# GULP energy per Si atom -12401.703704 kJ/mol
# Density = 2.103188 g / cm^3
# Si number density = 21.079855 Si / 1000 Ang^3
#
#
#
# Elastic Constant Matrix: (Units=GPa)
#
#
# Indices 1 2 3 4 5 6 
#
# 1 127.4534 -3.9143 -3.9952 0.0000 0.0000 0.0000
# 2 -3.9143 65.1963 2.1561 0.0000 0.0000 0.0000
# 3 -3.9952 2.1561 118.9589 0.0000 0.0000 0.0000
# 4 0.0000 0.0000 0.0000 13.9157 0.0000 0.0000
# 5 0.0000 0.0000 0.0000 0.0000 40.7719 0.0000
# 6 0.0000 0.0000 0.0000 0.0000 0.0000 26.1161
#
#
#
# Elastic Compliance Matrix: (Units=1/GPa)
#
#
# Indices 1 2 3 4 5 6 
#
# 1 0.007868 0.000464 0.000256 0.000000 0.000000 0.000000
# 2 0.000464 0.015375 -0.000263 0.000000 0.000000 0.000000
# 3 0.000256 -0.000263 0.008420 0.000000 0.000000 0.000000
# 4 0.000000 0.000000 0.000000 0.071861 0.000000 0.000000
# 5 0.000000 0.000000 0.000000 0.000000 0.024527 0.000000
# 6 0.000000 0.000000 0.000000 0.000000 0.000000 0.038291
#
#
# Mechanical properties :
#
#
# Convention : Reuss Voigt Hill
#
# Bulk Modulus (GPa) = 30.69730 33.34462 32.02096
# Shear Modulus (GPa) = 28.36290 37.31821 32.84056
#
# Velocity S-wave (km/s) = 3.67208 4.21209 3.95132
# Velocity P-wave (km/s) = 5.70727 6.28555 6.00338
#
# Compressibility (1/GPa) = 0.03257616
#
# Stress axis : x y z
#
# Youngs Moduli (GPa) = 127.09267 65.04134 118.77009
#
# Poissons Ratio (x) = -0.03018 -0.03039
# Poissons Ratio (y) = -0.05896 0.03125
# Poissons Ratio (z) = -0.03252 0.01711
#
# Static dielectric constant tensor:
#      x y z
#    x 6.822530 0.000000 0.000000 
#    y 0.000000 3.505460 0.000000 
#    z 0.000000 0.000000 4.010460 
# 
# 
# High freq. dielectric constant tensor:
#      x y z
#    x 1.863320 0.000000 0.000000 
#    y 0.000000 1.792070 0.000000 
#    z 0.000000 0.000000 1.842310 
# 
# From -- ./inp_files/31624.got.cif
#   From: 2010.03.12/outbox.cif.g09.slc.cpg/sg62_16_cif.got.tgz:31624.got - 2010.04.10 19:12:36.
