data_PCOD8251110
_publ_section_title
;
Structure prediction by ZEFSAII (Michael W. Deem and Ramdas Pophale) SiO2 
 PCOD8251110
Probable space group: P N M A
;
_chemical_formula_sum "Si O2"
_cell_formula_units_Z 64
_cell_length_a 21.655829
_cell_length_b 9.785461
_cell_length_c 16.806192
_cell_angle_alpha 90.000000
_cell_angle_beta 90.000000
_cell_angle_gamma 90.000000
_cell_volume 3561.438298
_symmetry_space_group_name_H-M "P N M A"
_symmetry_group_IT_number 62
_symmetry_cell_setting 'orthorhombic'
loop_
_space_group_symop_operation_xyz
x,y,z
1/2-x,-y,1/2+z
1/2+x,1/2-y,1/2-z
-x,1/2+y,-z
-x,-y,-z
1/2+x,y,1/2-z
1/2-x,1/2+y,1/2+z
x,1/2-y,z
loop_
_atom_site_type_symbol
_atom_site_label
_atom_site_fract_x
_atom_site_fract_y
_atom_site_fract_z
Si Si1 0.103421 0.909739 0.265853
Si Si2 0.821421 0.412063 0.583526
Si Si3 0.289465 0.099268 0.199426
Si Si4 0.363251 0.906589 0.301441
Si Si5 0.687713 0.090713 0.535700
Si Si6 0.033574 0.407868 0.679811
Si Si7 0.653958 0.406644 0.364174
Si Si8 0.109320 0.906887 0.569884
O O1 0.110768 0.750000 0.244652
O O2 0.154890 0.959648 0.329655
O O3 0.037139 0.939743 0.303957
O O4 0.107450 0.997659 0.185133
O O5 0.816718 0.250000 0.582259
O O6 0.753745 0.474514 0.562705
O O7 0.872806 0.457036 0.518594
O O8 0.303673 0.250000 0.233495
O O9 0.218758 0.082812 0.179235
O O10 0.328318 0.074093 0.119857
O O11 0.306296 0.990386 0.266155
O O12 0.346611 0.750000 0.285126
O O13 0.364109 0.935252 0.396234
O O14 0.427714 0.947145 0.259719
O O15 0.699352 0.250000 0.519680
O O16 0.661066 0.030570 0.453213
O O17 0.044246 0.250000 0.657323
O O18 0.055174 0.498603 0.605143
O O19 0.629480 0.250000 0.365228
O O20 0.086161 0.750000 0.570653
#
# Coordination Sequence:
#
# PCOD8251110 Si02
#       8
#     8   8   8   8   8   8   8   8
#     4  10  21  35  50  69  98 135 168 200 239 288
#     4   9  16  29  50  74  97 125 163 198 238 297
#     4   9  16  28  47  71  98 121 146 194 253 291
#     4   9  17  30  51  72  93 128 169 200 230 284
#     4   9  16  29  50  74  95 120 160 203 241 291
#     4   9  19  34  48  69 102 133 165 204 242 278
#     4  10  19  32  50  71  96 122 156 204 250 288
#     4   9  16  29  51  74  94 124 162 198 236 287
#
# _framework density 17.970267
#
# number of rings (size 3 to 8) (size 9 to 14) (size 15 to 20)
#    0.000    2.750    1.250    0.750    0.000    2.500 
#    0.000    1.875    0.000    1.500    0.000    0.000 
#    0.000    0.000    0.000    0.000    0.000    0.000 
#
# Total GULP energy -793337.338976 kJ/mol
# GULP energy per Si atom -12395.895922 kJ/mol
# Density = 1.792937 g / cm^3
# Si number density = 17.970267 Si / 1000 Ang^3
#
#
#
# Elastic Constant Matrix: (Units=GPa)
#
#
# Indices 1 2 3 4 5 6 
#
# 1 39.6252 13.7244 18.1705 0.0000 0.0000 0.0000
# 2 13.7244 42.1447 29.3708 0.0000 0.0000 0.0000
# 3 18.1705 29.3708 109.1838 0.0000 0.0000 0.0000
# 4 0.0000 0.0000 0.0000 21.9517 0.0000 0.0000
# 5 0.0000 0.0000 0.0000 0.0000 21.0817 0.0000
# 6 0.0000 0.0000 0.0000 0.0000 0.0000 19.2534
#
#
#
# Elastic Compliance Matrix: (Units=1/GPa)
#
#
# Indices 1 2 3 4 5 6 
#
# 1 0.029137 -0.007519 -0.002826 0.000000 0.000000 0.000000
# 2 -0.007519 0.031142 -0.007126 0.000000 0.000000 0.000000
# 3 -0.002826 -0.007126 0.011546 0.000000 0.000000 0.000000
# 4 0.000000 0.000000 0.000000 0.045555 0.000000 0.000000
# 5 0.000000 0.000000 0.000000 0.000000 0.047434 0.000000
# 6 0.000000 0.000000 0.000000 0.000000 0.000000 0.051939
#
#
# Mechanical properties :
#
#
# Convention : Reuss Voigt Hill
#
# Bulk Modulus (GPa) = 27.11280 34.83167 30.97224
# Shear Modulus (GPa) = 18.94011 21.10322 20.02167
#
# Velocity S-wave (km/s) = 3.25001 3.43058 3.34152
# Velocity P-wave (km/s) = 5.40405 5.92595 5.67101
#
# Compressibility (1/GPa) = 0.03688294
#
# Stress axis : x y z
#
# Youngs Moduli (GPa) = 34.32107 32.11047 86.60848
#
# Poissons Ratio (x) = 0.24143 0.24479
# Poissons Ratio (y) = 0.25805 0.61719
# Poissons Ratio (z) = 0.09701 0.22883
#
# Static dielectric constant tensor:
#      x y z
#    x 3.176010 0.000000 0.000000 
#    y 0.000000 3.145540 0.000000 
#    z 0.000000 0.000000 3.505100 
# 
# 
# High freq. dielectric constant tensor:
#      x y z
#    x 1.681000 0.000000 0.000000 
#    y 0.000000 1.664880 0.000000 
#    z 0.000000 0.000000 1.700770 
# 
# From -- ./inp_files/20860.got.cif
#   From: 2010.03.12/outbox.cif.g09.slc.cpg/sg62_11_cif.got.tgz:20860.got - 2010.04.10 19:12:36.
