data_PCOD8251054
_publ_section_title
;
Structure prediction by ZEFSAII (Michael W. Deem and Ramdas Pophale) SiO2 
 PCOD8251054
Probable space group: P N M A
;
_chemical_formula_sum "Si O2"
_cell_formula_units_Z 56
_cell_length_a 22.976135
_cell_length_b 8.909166
_cell_length_c 14.258958
_cell_angle_alpha 90.000000
_cell_angle_beta 90.000000
_cell_angle_gamma 90.000000
_cell_volume 2918.783047
_symmetry_space_group_name_H-M "P N M A"
_symmetry_group_IT_number 62
_symmetry_cell_setting 'orthorhombic'
loop_
_space_group_symop_operation_xyz
x,y,z
1/2-x,-y,1/2+z
1/2+x,1/2-y,1/2-z
-x,1/2+y,-z
-x,-y,-z
1/2+x,y,1/2-z
1/2-x,1/2+y,1/2+z
x,1/2-y,z
loop_
_atom_site_type_symbol
_atom_site_label
_atom_site_fract_x
_atom_site_fract_y
_atom_site_fract_z
Si Si1 0.656756 0.074248 0.890622
Si Si2 0.719008 0.421486 0.610760
Si Si3 0.497260 0.428893 0.398005
Si Si4 0.278175 0.577297 0.606338
Si Si5 0.384901 0.426807 0.284544
Si Si6 0.661203 0.075782 0.100904
Si Si7 0.608968 0.425028 0.289573
O O1 0.653370 0.250000 0.873976
O O2 0.722077 0.020510 0.868186
O O3 0.611502 0.995128 0.820276
O O4 0.639068 0.029741 0.997292
O O5 0.713352 0.250000 0.644386
O O6 0.704480 0.438061 0.501719
O O7 0.674503 0.522762 0.667531
O O8 0.783641 0.478600 0.631761
O O9 0.500000 0.500000 0.500000
O O10 0.498569 0.250000 0.407367
O O11 0.439184 0.484805 0.345705
O O12 0.551154 0.493465 0.336424
O O13 0.264489 0.750000 0.632944
O O14 0.332342 0.509032 0.664082
O O15 0.386440 0.250000 0.275137
O O16 0.680052 0.250000 0.101489
O O17 0.610368 0.044254 0.177244
O O18 0.608540 0.250000 0.311816
#
# Coordination Sequence:
#
# PCOD8251054 Si02
#       7
#     8   8   8   8   8   8   8
#     4  10  20  33  51  77 107 137 172 215 259 306
#     4  10  19  31  51  80 111 140 172 213 260 312
#     4  10  22  39  58  79 103 134 173 215 259 310
#     4   9  17  30  52  80 108 137 166 204 259 317
#     4  11  22  35  52  74 103 141 180 217 260 309
#     4   9  18  33  54  79 107 138 172 213 261 313
#     4   9  17  33  55  75  99 135 174 209 253 309
#
# _framework density 19.186078999999999
#
# number of rings (size 3 to 8) (size 9 to 14) (size 15 to 20)
#    0.000    2.286    0.000    3.000    0.000    4.571 
#    0.000    2.143    0.000    0.000    0.000    0.000 
#    0.000    0.000    0.000    0.000    0.000    0.000 
#
# Total GULP energy -694393.068553 kJ/mol
# GULP energy per Si atom -12399.876224 kJ/mol
# Density = 1.914241 g / cm^3
# Si number density = 19.186079 Si / 1000 Ang^3
#
#
#
# Elastic Constant Matrix: (Units=GPa)
#
#
# Indices 1 2 3 4 5 6 
#
# 1 82.1911 32.2252 83.9256 0.0000 0.0000 0.0000
# 2 32.2252 51.8655 36.1777 0.0000 0.0000 0.0000
# 3 83.9256 36.1777 147.5887 0.0000 0.0000 0.0000
# 4 0.0000 0.0000 0.0000 30.2304 0.0000 0.0000
# 5 0.0000 0.0000 0.0000 0.0000 36.0981 0.0000
# 6 0.0000 0.0000 0.0000 0.0000 0.0000 18.0304
#
#
#
# Elastic Compliance Matrix: (Units=1/GPa)
#
#
# Indices 1 2 3 4 5 6 
#
# 1 0.031940 -0.008656 -0.016040 0.000000 0.000000 0.000000
# 2 -0.008656 0.025603 -0.001354 0.000000 0.000000 0.000000
# 3 -0.016040 -0.001354 0.016229 0.000000 0.000000 0.000000
# 4 0.000000 0.000000 0.000000 0.033079 0.000000 0.000000
# 5 0.000000 0.000000 0.000000 0.000000 0.027702 0.000000
# 6 0.000000 0.000000 0.000000 0.000000 0.000000 0.055462
#
#
# Mechanical properties :
#
#
# Convention : Reuss Voigt Hill
#
# Bulk Modulus (GPa) = 46.14478 65.14468 55.64473
# Shear Modulus (GPa) = 20.05302 25.49291 22.77296
#
# Velocity S-wave (km/s) = 3.23644 3.64911 3.44896
# Velocity P-wave (km/s) = 6.17005 7.19601 6.70269
#
# Compressibility (1/GPa) = 0.02167093
#
# Stress axis : x y z
#
# Youngs Moduli (GPa) = 31.30915 39.05771 61.61904
#
# Poissons Ratio (x) = 0.33809 0.98840
# Poissons Ratio (y) = 0.27101 0.08342
# Poissons Ratio (z) = 0.50221 0.05287
#
# Static dielectric constant tensor:
#      x y z
#    x 3.469940 0.000000 0.000000 
#    y 0.000000 3.365680 0.000000 
#    z 0.000000 0.000000 3.831570 
# 
# 
# High freq. dielectric constant tensor:
#      x y z
#    x 1.723780 0.000000 0.000000 
#    y 0.000000 1.730660 0.000000 
#    z 0.000000 0.000000 1.766780 
# 
# From -- ./inp_files/20184.got.cif
#   From: 2010.03.12/outbox.cif.g09.slc.cpg/sg62_11_cif.got.tgz:20184.got - 2010.04.10 19:12:36.
