data_PCOD8251313
_publ_section_title
;
Structure prediction by ZEFSAII (Michael W. Deem and Ramdas Pophale) SiO2 
 PCOD8251313
Probable space group: P N M A
;
_chemical_formula_sum "Si O2"
_cell_formula_units_Z 64
_cell_length_a 20.276813
_cell_length_b 12.970740
_cell_length_c 12.272929
_cell_angle_alpha 90.000000
_cell_angle_beta 90.000000
_cell_angle_gamma 90.000000
_cell_volume 3227.844999
_symmetry_space_group_name_H-M "P N M A"
_symmetry_group_IT_number 62
_symmetry_cell_setting 'orthorhombic'
loop_
_space_group_symop_operation_xyz
x,y,z
1/2-x,-y,1/2+z
1/2+x,1/2-y,1/2-z
-x,1/2+y,-z
-x,-y,-z
1/2+x,y,1/2-z
1/2-x,1/2+y,1/2+z
x,1/2-y,z
loop_
_atom_site_type_symbol
_atom_site_label
_atom_site_fract_x
_atom_site_fract_y
_atom_site_fract_z
Si Si1 0.981234 0.867545 0.815067
Si Si2 0.878576 0.366016 0.075175
Si Si3 0.820110 0.129052 0.672830
Si Si4 0.063646 0.368512 0.759384
Si Si5 0.425729 0.429752 0.654110
Si Si6 0.162658 0.866834 0.577582
Si Si7 0.190600 0.012542 0.778077
Si Si8 0.470569 0.454699 0.106586
O O1 0.959481 0.750000 0.837544
O O2 0.054775 0.892083 0.858007
O O3 0.978038 0.898011 0.687237
O O4 0.929750 0.946623 0.870698
O O5 0.857900 0.250000 0.098308
O O6 0.818159 0.432569 0.121913
O O7 0.887988 0.379309 0.946378
O O8 0.810277 0.250000 0.690853
O O9 0.887746 0.094970 0.733178
O O10 0.819121 0.100686 0.545271
O O11 0.760751 0.066781 0.726405
O O12 0.065539 0.250000 0.724010
O O13 0.134999 0.401101 0.806316
O O14 0.058535 0.440910 0.655688
O O15 0.000953 0.386585 0.839812
O O16 0.186778 0.750000 0.604102
O O17 0.189398 0.949798 0.664028
O O18 0.083641 0.868080 0.582663
O O19 0.500000 0.500000 0.000000
#
# Coordination Sequence:
#
# PCOD8251313 Si02
#       8
#     8   8   8   8   8   8   8   8
#     4  10  20  36  59  92 128 159 201 255 315 366
#     4  11  21  38  64  92 123 163 204 252 309 366
#     4  11  25  42  62  88 124 165 204 254 309 361
#     4  10  20  36  58  87 118 153 200 248 301 362
#     4  11  22  40  62  94 125 158 205 250 308 362
#     4  10  20  39  62  83 113 159 206 244 297 368
#     4  11  23  39  61  88 121 158 205 254 303 363
#     4  10  19  32  56  86 119 157 198 249 299 357
#
# _framework density 19.827470000000002
#
# number of rings (size 3 to 8) (size 9 to 14) (size 15 to 20)
#    0.000    1.500    3.750    4.125    1.750    2.000 
#    0.000    1.875    0.000    1.500    0.000    0.000 
#    0.000    0.000    0.000    0.000    0.000    0.000 
#
# Total GULP energy -793089.544158 kJ/mol
# GULP energy per Si atom -12392.024127 kJ/mol
# Density = 1.978234 g / cm^3
# Si number density = 19.827470 Si / 1000 Ang^3
#
#
#
# Elastic Constant Matrix: (Units=GPa)
#
#
# Indices 1 2 3 4 5 6 
#
# 1 55.4551 33.1793 16.5550 0.0000 0.0000 0.0000
# 2 33.1793 130.1254 25.5534 0.0000 0.0000 0.0000
# 3 16.5550 25.5534 84.7747 0.0000 0.0000 0.0000
# 4 0.0000 0.0000 0.0000 22.1834 0.0000 0.0000
# 5 0.0000 0.0000 0.0000 0.0000 23.2441 0.0000
# 6 0.0000 0.0000 0.0000 0.0000 0.0000 25.4946
#
#
#
# Elastic Compliance Matrix: (Units=1/GPa)
#
#
# Indices 1 2 3 4 5 6 
#
# 1 0.021867 -0.005035 -0.002752 0.000000 0.000000 0.000000
# 2 -0.005035 0.009328 -0.001828 0.000000 0.000000 0.000000
# 3 -0.002752 -0.001828 0.012885 0.000000 0.000000 0.000000
# 4 0.000000 0.000000 0.000000 0.045079 0.000000 0.000000
# 5 0.000000 0.000000 0.000000 0.000000 0.043022 0.000000
# 6 0.000000 0.000000 0.000000 0.000000 0.000000 0.039224
#
#
# Mechanical properties :
#
#
# Convention : Reuss Voigt Hill
#
# Bulk Modulus (GPa) = 40.24578 46.77007 43.50792
# Shear Modulus (GPa) = 25.13597 27.18891 26.16244
#
# Velocity S-wave (km/s) = 3.56439 3.70709 3.63644
# Velocity P-wave (km/s) = 6.10589 6.47789 6.29464
#
# Compressibility (1/GPa) = 0.02484733
#
# Stress axis : x y z
#
# Youngs Moduli (GPa) = 45.73131 107.20654 77.61190
#
# Poissons Ratio (x) = 0.53979 0.21363
# Poissons Ratio (y) = 0.23026 0.14191
# Poissons Ratio (z) = 0.12588 0.19602
#
# Static dielectric constant tensor:
#      x y z
#    x 3.499210 0.000000 0.000000 
#    y 0.000000 3.758580 0.000000 
#    z 0.000000 0.000000 3.590030 
# 
# 
# High freq. dielectric constant tensor:
#      x y z
#    x 1.740950 0.000000 0.000000 
#    y 0.000000 1.788770 0.000000 
#    z 0.000000 0.000000 1.774740 
# 
# From -- ./inp_files/14321.got.cif
#   From: 2010.03.12/outbox.cif.g09.slc.cpg/sg62_8_cif.got.tgz:14321.got - 2010.04.10 19:12:36.
