data_PCOD8251747
_publ_section_title
;
Structure prediction by ZEFSAII (Michael W. Deem and Ramdas Pophale) SiO2 
 PCOD8251747
Probable space group: P N M A
;
_chemical_formula_sum "Si O2"
_cell_formula_units_Z 44
_cell_length_a 13.068077
_cell_length_b 12.994351
_cell_length_c 13.004848
_cell_angle_alpha 90.000000
_cell_angle_beta 90.000000
_cell_angle_gamma 90.000000
_cell_volume 2208.368577
_symmetry_space_group_name_H-M "P N M A"
_symmetry_group_IT_number 62
_symmetry_cell_setting 'orthorhombic'
loop_
_space_group_symop_operation_xyz
x,y,z
1/2-x,-y,1/2+z
1/2+x,1/2-y,1/2-z
-x,1/2+y,-z
-x,-y,-z
1/2+x,y,1/2-z
1/2-x,1/2+y,1/2+z
x,1/2-y,z
loop_
_atom_site_type_symbol
_atom_site_label
_atom_site_fract_x
_atom_site_fract_y
_atom_site_fract_z
Si Si1 0.010355 0.750000 0.559545
Si Si2 0.592710 0.567764 0.817329
Si Si3 0.909810 0.250000 0.651863
Si Si4 0.257685 0.059856 0.583584
Si Si5 0.605690 0.965325 0.236747
Si Si6 0.866566 0.750000 0.380152
Si Si7 0.245071 0.629568 0.855672
O O1 0.019933 0.849318 0.629912
O O2 0.098874 0.750000 0.472148
O O3 0.899272 0.750000 0.502833
O O4 0.674439 0.531617 0.903770
O O5 0.516232 0.477488 0.778904
O O6 0.648169 0.614423 0.718196
O O7 0.857837 0.145671 0.693275
O O8 0.029907 0.250000 0.687373
O O9 0.362595 0.031347 0.642965
O O10 0.202971 0.152491 0.644226
O O11 0.287444 0.090129 0.468498
O O12 0.661308 0.059076 0.179475
O O13 0.276154 0.750000 0.854270
#
# Coordination Sequence:
#
# PCOD8251747 Si02
#       7
#     4   8   4   8   8   4   8
#     4  10  20  33  64  87 121 155 198 260 317 358
#     4  11  22  40  59  92 126 160 210 264 310 377
#     4  10  21  37  61  94 119 161 207 260 314 363
#     4  11  22  39  60  89 126 161 209 257 310 373
#     4  11  24  39  65  91 125 167 212 257 318 375
#     4  10  19  34  61  85 114 154 197 252 305 355
#     4  11  24  39  63  95 125 167 206 257 323 377
#
# _framework density 19.924211
#
# number of rings (size 3 to 8) (size 9 to 14) (size 15 to 20)
#    0.545    0.727    3.636    2.727    1.273    2.909 
#    0.000    0.000    0.000    0.000    0.000    0.000 
#    0.000    0.000    0.000    0.000    0.000    0.000 
#
# Total GULP energy -545307.160364 kJ/mol
# GULP energy per Si atom -12393.344554 kJ/mol
# Density = 1.987886 g / cm^3
# Si number density = 19.924211 Si / 1000 Ang^3
#
#
#
# Elastic Constant Matrix: (Units=GPa)
#
#
# Indices 1 2 3 4 5 6 
#
# 1 60.4905 23.6453 23.6621 0.0000 0.0000 0.0000
# 2 23.6453 123.8919 42.5979 0.0000 0.0000 0.0000
# 3 23.6621 42.5979 86.3000 0.0000 0.0000 0.0000
# 4 0.0000 0.0000 0.0000 30.9849 0.0000 0.0000
# 5 0.0000 0.0000 0.0000 0.0000 21.6101 0.0000
# 6 0.0000 0.0000 0.0000 0.0000 0.0000 15.9418
#
#
#
# Elastic Compliance Matrix: (Units=1/GPa)
#
#
# Indices 1 2 3 4 5 6 
#
# 1 0.019007 -0.002211 -0.004120 0.000000 0.000000 0.000000
# 2 -0.002211 0.009979 -0.004319 0.000000 0.000000 0.000000
# 3 -0.004120 -0.004319 0.014849 0.000000 0.000000 0.000000
# 4 0.000000 0.000000 0.000000 0.032274 0.000000 0.000000
# 5 0.000000 0.000000 0.000000 0.000000 0.046275 0.000000
# 6 0.000000 0.000000 0.000000 0.000000 0.000000 0.062728
#
#
# Mechanical properties :
#
#
# Convention : Reuss Voigt Hill
#
# Bulk Modulus (GPa) = 44.37663 50.05477 47.21570
# Shear Modulus (GPa) = 23.37274 25.75916 24.56595
#
# Velocity S-wave (km/s) = 3.42874 3.59953 3.51518
# Velocity P-wave (km/s) = 6.16410 6.51557 6.34227
#
# Compressibility (1/GPa) = 0.02253438
#
# Stress axis : x y z
#
# Youngs Moduli (GPa) = 52.61083 100.21426 67.34382
#
# Poissons Ratio (x) = 0.22157 0.27747
# Poissons Ratio (y) = 0.11632 0.29087
# Poissons Ratio (z) = 0.21677 0.43285
#
# Static dielectric constant tensor:
#      x y z
#    x 3.377260 0.000000 0.000000 
#    y 0.000000 3.687420 0.000000 
#    z 0.000000 0.000000 3.456470 
# 
# 
# High freq. dielectric constant tensor:
#      x y z
#    x 1.763350 0.000000 0.000000 
#    y 0.000000 1.791460 0.000000 
#    z 0.000000 0.000000 1.763860 
# 
# From -- ./inp_files/18855.got.cif
#   From: 2010.03.12/outbox.cif.g09.slc.cpg/sg62_10_cif.got.tgz:18855.got - 2010.04.10 19:12:36.
