data_PCOD8251775
_publ_section_title
;
Structure prediction by ZEFSAII (Michael W. Deem and Ramdas Pophale) SiO2 
 PCOD8251775
Probable space group: P N M A
;
_chemical_formula_sum "Si O2"
_cell_formula_units_Z 56
_cell_length_a 21.087683
_cell_length_b 9.291290
_cell_length_c 15.027831
_cell_angle_alpha 90.000000
_cell_angle_beta 90.000000
_cell_angle_gamma 90.000000
_cell_volume 2944.429650
_symmetry_space_group_name_H-M "P N M A"
_symmetry_group_IT_number 62
_symmetry_cell_setting 'orthorhombic'
loop_
_space_group_symop_operation_xyz
x,y,z
1/2-x,-y,1/2+z
1/2+x,1/2-y,1/2-z
-x,1/2+y,-z
-x,-y,-z
1/2+x,y,1/2-z
1/2-x,1/2+y,1/2+z
x,1/2-y,z
loop_
_atom_site_type_symbol
_atom_site_label
_atom_site_fract_x
_atom_site_fract_y
_atom_site_fract_z
Si Si1 0.244849 0.418746 0.739130
Si Si2 0.277613 0.913885 0.906251
Si Si3 0.308384 0.417952 0.560299
Si Si4 0.564169 0.580024 0.527102
Si Si5 0.081770 0.087659 0.456826
Si Si6 0.983915 0.918270 0.364533
Si Si7 0.396467 0.581243 0.296223
O O1 0.257311 0.250000 0.744298
O O2 0.282824 0.492025 0.818433
O O3 0.276429 0.484036 0.649061
O O4 0.170257 0.454533 0.748211
O O5 0.260969 0.750000 0.879602
O O6 0.343262 0.924172 0.958036
O O7 0.225124 0.982368 0.972218
O O8 0.292369 0.250000 0.560469
O O9 0.384055 0.445886 0.551805
O O10 0.500000 0.500000 0.500000
O O11 0.551154 0.750000 0.539577
O O12 0.593305 0.515677 0.617253
O O13 0.058686 0.250000 0.441817
O O14 0.060113 0.030994 0.553416
O O15 0.051677 0.995597 0.376094
O O16 0.995898 0.750000 0.365699
O O17 0.951479 0.963443 0.272339
O O18 0.400118 0.750000 0.321837
#
# Coordination Sequence:
#
# PCOD8251775 Si02
#       7
#     8   8   8   8   8   8   8
#     4  10  20  35  58  84 108 140 187 234 279 333
#     4  10  19  35  56  79 109 142 179 224 279 334
#     4   9  19  37  59  81 110 149 187 229 286 346
#     4  11  23  40  61  83 113 152 194 236 286 343
#     4   9  18  32  52  79 110 143 181 228 280 333
#     4   9  18  33  53  77 108 146 184 224 273 335
#     4  10  20  36  58  83 110 145 190 236 283 338
#
# _framework density 19.018964
#
# number of rings (size 3 to 8) (size 9 to 14) (size 15 to 20)
#    0.000    2.286    1.429    1.286    0.000    5.714 
#    0.000    6.429    0.000    3.429    0.000    0.000 
#    0.000    0.000    0.000    0.000    0.000    0.000 
#
# Total GULP energy -694276.231876 kJ/mol
# GULP energy per Si atom -12397.789855 kJ/mol
# Density = 1.897568 g / cm^3
# Si number density = 19.018964 Si / 1000 Ang^3
#
#
#
# Elastic Constant Matrix: (Units=GPa)
#
#
# Indices 1 2 3 4 5 6 
#
# 1 103.4839 39.1460 48.4575 0.0000 0.0000 0.0000
# 2 39.1460 52.4720 41.3702 0.0000 0.0000 0.0000
# 3 48.4575 41.3702 119.4810 0.0000 0.0000 0.0000
# 4 0.0000 0.0000 0.0000 29.3328 0.0000 0.0000
# 5 0.0000 0.0000 0.0000 0.0000 34.1326 0.0000
# 6 0.0000 0.0000 0.0000 0.0000 0.0000 30.0601
#
#
#
# Elastic Compliance Matrix: (Units=1/GPa)
#
#
# Indices 1 2 3 4 5 6 
#
# 1 0.014141 -0.008292 -0.002864 0.000000 0.000000 0.000000
# 2 -0.008292 0.031076 -0.007397 0.000000 0.000000 0.000000
# 3 -0.002864 -0.007397 0.012092 0.000000 0.000000 0.000000
# 4 0.000000 0.000000 0.000000 0.034092 0.000000 0.000000
# 5 0.000000 0.000000 0.000000 0.000000 0.029297 0.000000
# 6 0.000000 0.000000 0.000000 0.000000 0.000000 0.033267
#
#
# Mechanical properties :
#
#
# Convention : Reuss Voigt Hill
#
# Bulk Modulus (GPa) = 49.49671 59.26493 54.38082
# Shear Modulus (GPa) = 25.27740 28.46932 26.87336
#
# Velocity S-wave (km/s) = 3.64959 3.87317 3.76304
# Velocity P-wave (km/s) = 6.62123 7.15755 6.89461
#
# Compressibility (1/GPa) = 0.02020336
#
# Stress axis : x y z
#
# Youngs Moduli (GPa) = 70.71592 32.17949 82.69649
#
# Poissons Ratio (x) = 0.26682 0.23686
# Poissons Ratio (y) = 0.58635 0.61172
# Poissons Ratio (z) = 0.20255 0.23804
#
# Static dielectric constant tensor:
#      x y z
#    x 3.537910 0.000000 0.000000 
#    y 0.000000 3.344900 0.000000 
#    z 0.000000 0.000000 3.567340 
# 
# 
# High freq. dielectric constant tensor:
#      x y z
#    x 1.747240 0.000000 0.000000 
#    y 0.000000 1.718050 0.000000 
#    z 0.000000 0.000000 1.738890 
# 
# From -- ./inp_files/20247.got.cif
#   From: 2010.03.12/outbox.cif.g09.slc.cpg/sg62_11_cif.got.tgz:20247.got - 2010.04.10 19:12:36.
