data_PCOD8251491
_publ_section_title
;
Structure prediction by ZEFSAII (Michael W. Deem and Ramdas Pophale) SiO2 
 PCOD8251491
Probable space group: P N M A
;
_chemical_formula_sum "Si O2"
_cell_formula_units_Z 64
_cell_length_a 19.861041
_cell_length_b 17.753980
_cell_length_c 9.612154
_cell_angle_alpha 90.000000
_cell_angle_beta 90.000000
_cell_angle_gamma 90.000000
_cell_volume 3389.365890
_symmetry_space_group_name_H-M "P N M A"
_symmetry_group_IT_number 62
_symmetry_cell_setting 'orthorhombic'
loop_
_space_group_symop_operation_xyz
x,y,z
1/2-x,-y,1/2+z
1/2+x,1/2-y,1/2-z
-x,1/2+y,-z
-x,-y,-z
1/2+x,y,1/2-z
1/2-x,1/2+y,1/2+z
x,1/2-y,z
loop_
_atom_site_type_symbol
_atom_site_label
_atom_site_fract_x
_atom_site_fract_y
_atom_site_fract_z
Si Si1 0.389969 0.837201 0.275270
Si Si2 0.506133 0.162483 0.951080
Si Si3 0.250832 0.584167 0.266594
Si Si4 0.200224 0.527624 0.990571
Si Si5 0.507082 0.162588 0.263568
Si Si6 0.062850 0.056463 0.015713
Si Si7 0.110997 0.836986 0.258807
Si Si8 0.876971 0.334152 0.056960
O O1 0.399506 0.750000 0.320699
O O2 0.422268 0.851400 0.123320
O O3 0.311329 0.856024 0.266883
O O4 0.429948 0.890588 0.381196
O O5 0.490455 0.250000 0.965934
O O6 0.446890 0.126175 0.855876
O O7 0.506863 0.129108 0.106919
O O8 0.259030 0.523425 0.386214
O O9 0.181831 0.626484 0.296148
O O10 0.248918 0.540349 0.120996
O O11 0.183916 0.607855 0.916925
O O12 0.129799 0.491819 0.039368
O O13 0.530634 0.250000 0.269894
O O14 0.557470 0.110630 0.350758
O O15 0.432864 0.153254 0.326540
O O16 0.000000 0.000000 0.000000
O O17 0.117922 0.750000 0.293889
O O18 0.091367 0.848800 0.096643
O O19 0.846771 0.250000 0.065784
#
# Coordination Sequence:
#
# PCOD8251491 Si02
#       8
#     8   8   8   8   8   8   8   8
#     4  10  21  39  61  85 115 156 198 241 289 346
#     4   9  19  33  55  87 116 141 187 246 290 330
#     4  10  22  37  57  79 116 153 187 235 287 351
#     4  10  22  38  55  80 114 148 191 233 289 342
#     4  10  19  33  55  85 117 147 184 240 293 336
#     4  11  21  36  58  84 117 151 193 240 285 352
#     4   9  17  33  56  83 108 144 193 235 276 337
#     4   9  17  32  57  79 103 142 189 233 277 334
#
# _framework density 18.882587999999998
#
# number of rings (size 3 to 8) (size 9 to 14) (size 15 to 20)
#    0.000    2.250    1.250    1.500    1.750    4.500 
#    0.000    0.625    0.000    3.750    0.000    0.000 
#    0.000    0.000    0.000    0.000    0.000    0.000 
#
# Total GULP energy -793500.969098 kJ/mol
# GULP energy per Si atom -12398.452642 kJ/mol
# Density = 1.883961 g / cm^3
# Si number density = 18.882588 Si / 1000 Ang^3
#
#
#
# Elastic Constant Matrix: (Units=GPa)
#
#
# Indices 1 2 3 4 5 6 
#
# 1 62.6008 26.4788 28.0553 0.0000 0.0000 0.0000
# 2 26.4788 79.3003 37.8703 0.0000 0.0000 0.0000
# 3 28.0553 37.8703 104.1929 0.0000 0.0000 0.0000
# 4 0.0000 0.0000 0.0000 27.8470 0.0000 0.0000
# 5 0.0000 0.0000 0.0000 0.0000 27.1384 0.0000
# 6 0.0000 0.0000 0.0000 0.0000 0.0000 16.1182
#
#
#
# Elastic Compliance Matrix: (Units=1/GPa)
#
#
# Indices 1 2 3 4 5 6 
#
# 1 0.019607 -0.004871 -0.003509 0.000000 0.000000 0.000000
# 2 -0.004871 0.016469 -0.004674 0.000000 0.000000 0.000000
# 3 -0.003509 -0.004674 0.012241 0.000000 0.000000 0.000000
# 4 0.000000 0.000000 0.000000 0.035911 0.000000 0.000000
# 5 0.000000 0.000000 0.000000 0.000000 0.036848 0.000000
# 6 0.000000 0.000000 0.000000 0.000000 0.000000 0.062042
#
#
# Mechanical properties :
#
#
# Convention : Reuss Voigt Hill
#
# Bulk Modulus (GPa) = 45.02741 47.87807 46.45274
# Shear Modulus (GPa) = 23.08084 24.46668 23.77376
#
# Velocity S-wave (km/s) = 3.49998 3.60353 3.55213
# Velocity P-wave (km/s) = 6.34279 6.53640 6.44032
#
# Compressibility (1/GPa) = 0.02220869
#
# Stress axis : x y z
#
# Youngs Moduli (GPa) = 51.00156 60.72001 81.69037
#
# Poissons Ratio (x) = 0.29578 0.28665
# Poissons Ratio (y) = 0.24844 0.38184
# Poissons Ratio (z) = 0.17896 0.28382
#
# Static dielectric constant tensor:
#      x y z
#    x 3.342640 0.000000 0.000000 
#    y 0.000000 3.628590 0.000000 
#    z 0.000000 0.000000 3.588830 
# 
# 
# High freq. dielectric constant tensor:
#      x y z
#    x 1.723040 0.000000 0.000000 
#    y 0.000000 1.738050 0.000000 
#    z 0.000000 0.000000 1.731330 
# 
# From -- ./inp_files/8102.got.cif
#   From: 2010.03.12/outbox.cif.g09.slc.cpg/sg62_5_cif.got.tgz:8102.got - 2010.04.10 19:12:36.
