data_PCOD8251594
_publ_section_title
;
Structure prediction by ZEFSAII (Michael W. Deem and Ramdas Pophale) SiO2 
 PCOD8251594
Probable space group: P N M A
;
_chemical_formula_sum "Si O2"
_cell_formula_units_Z 56
_cell_length_a 34.171073
_cell_length_b 15.152377
_cell_length_c 5.004324
_cell_angle_alpha 90.000000
_cell_angle_beta 90.000000
_cell_angle_gamma 90.000000
_cell_volume 2591.103753
_symmetry_space_group_name_H-M "P N M A"
_symmetry_group_IT_number 62
_symmetry_cell_setting 'orthorhombic'
loop_
_space_group_symop_operation_xyz
x,y,z
1/2-x,-y,1/2+z
1/2+x,1/2-y,1/2-z
-x,1/2+y,-z
-x,-y,-z
1/2+x,y,1/2-z
1/2-x,1/2+y,1/2+z
x,1/2-y,z
loop_
_atom_site_type_symbol
_atom_site_label
_atom_site_fract_x
_atom_site_fract_y
_atom_site_fract_z
Si Si1 0.527727 0.570577 0.644828
Si Si2 0.170113 0.587118 0.398730
Si Si3 0.578901 0.082437 0.581943
Si Si4 0.061594 0.750000 0.029997
Si Si5 0.746558 0.056169 0.652967
Si Si6 0.384739 0.250000 0.021146
Si Si7 0.037170 0.350170 0.427676
Si Si8 0.337018 0.967170 0.396908
O O1 0.500000 0.500000 0.500000
O O2 0.568606 0.518216 0.683863
O O3 0.535079 0.661912 0.486925
O O4 0.505016 0.599136 0.918143
O O5 0.216028 0.620115 0.400987
O O6 0.141956 0.666159 0.469676
O O7 0.163737 0.509748 0.607344
O O8 0.159626 0.545671 0.112228
O O9 0.565872 0.102024 0.281543
O O10 0.625480 0.096686 0.589079
O O11 0.556274 0.148090 0.780399
O O12 0.097296 0.750000 0.817938
O O13 0.078518 0.750000 0.326335
O O14 0.752789 0.970034 0.464825
O O15 0.703006 0.092065 0.573758
O O16 0.030439 0.250000 0.341974
#
# Coordination Sequence:
#
# PCOD8251594 Si02
#       8
#     8   8   8   4   8   4   8   8
#     4  10  23  43  64  89 121 160 207 249 307 375
#     4  10  19  34  54  83 122 154 194 233 302 367
#     4  11  22  36  63  88 113 150 204 249 295 355
#     4  12  26  42  62  94 126 160 202 260 314 368
#     4   8  16  30  53  80 107 148 190 233 282 349
#     4  12  24  36  58  88 128 164 188 250 324 360
#     4  11  23  41  59  81 115 158 195 244 306 355
#     4  10  19  35  58  86 114 149 200 255 287 344
#
# _framework density 21.612411000000002
#
# number of rings (size 3 to 8) (size 9 to 14) (size 15 to 20)
#    0.000    1.714    0.714    4.286    0.000    5.714 
#    0.000    0.000    3.143    0.000    0.000    0.000 
#    0.000    0.000    0.000    0.000    0.000    0.000 
#
# Total GULP energy -693768.717089 kJ/mol
# GULP energy per Si atom -12388.727091 kJ/mol
# Density = 2.156322 g / cm^3
# Si number density = 21.612411 Si / 1000 Ang^3
#
#
#
# Elastic Constant Matrix: (Units=GPa)
#
#
# Indices 1 2 3 4 5 6 
#
# 1 104.2365 32.2155 4.7760 0.0000 0.0000 0.0000
# 2 32.2155 85.4848 -1.7347 0.0000 0.0000 0.0000
# 3 4.7760 -1.7347 52.9269 0.0000 0.0000 0.0000
# 4 0.0000 0.0000 0.0000 21.5950 0.0000 0.0000
# 5 0.0000 0.0000 0.0000 0.0000 29.5995 0.0000
# 6 0.0000 0.0000 0.0000 0.0000 0.0000 14.3821
#
#
#
# Elastic Compliance Matrix: (Units=1/GPa)
#
#
# Indices 1 2 3 4 5 6 
#
# 1 0.010924 -0.004140 -0.001121 0.000000 0.000000 0.000000
# 2 -0.004140 0.013274 0.000809 0.000000 0.000000 0.000000
# 3 -0.001121 0.000809 0.019022 0.000000 0.000000 0.000000
# 4 0.000000 0.000000 0.000000 0.046307 0.000000 0.000000
# 5 0.000000 0.000000 0.000000 0.000000 0.033784 0.000000
# 6 0.000000 0.000000 0.000000 0.000000 0.000000 0.069531
#
#
# Mechanical properties :
#
#
# Convention : Reuss Voigt Hill
#
# Bulk Modulus (GPa) = 29.14137 34.79576 31.96856
# Shear Modulus (GPa) = 23.45365 26.94142 25.19754
#
# Velocity S-wave (km/s) = 3.29780 3.53451 3.41821
# Velocity P-wave (km/s) = 5.29278 5.72642 5.51387
#
# Compressibility (1/GPa) = 0.03431548
#
# Stress axis : x y z
#
# Youngs Moduli (GPa) = 91.53847 75.33267 52.57155
#
# Poissons Ratio (x) = 0.31185 0.05896
# Poissons Ratio (y) = 0.37894 -0.04251
# Poissons Ratio (z) = 0.10266 -0.06092
#
# Static dielectric constant tensor:
#      x y z
#    x 4.578530 0.000000 0.000000 
#    y 0.000000 3.670320 0.000000 
#    z 0.000000 0.000000 3.884290 
# 
# 
# High freq. dielectric constant tensor:
#      x y z
#    x 1.871770 0.000000 0.000000 
#    y 0.000000 1.801860 0.000000 
#    z 0.000000 0.000000 1.857840 
# 
# From -- ./inp_files/3644.got.cif
#   From: 2010.03.12/outbox.cif.g09.slc.cpg/sg62_2_cif.got.tgz:3644.got - 2010.04.10 19:12:36.
