data_PCOD8251669
_publ_section_title
;
Structure prediction by ZEFSAII (Michael W. Deem and Ramdas Pophale) SiO2 
 PCOD8251669
Probable space group: P N M A
;
_chemical_formula_sum "Si O2"
_cell_formula_units_Z 64
_cell_length_a 15.139079
_cell_length_b 8.941233
_cell_length_c 24.287164
_cell_angle_alpha 90.000000
_cell_angle_beta 90.000000
_cell_angle_gamma 90.000000
_cell_volume 3287.559889
_symmetry_space_group_name_H-M "P N M A"
_symmetry_group_IT_number 62
_symmetry_cell_setting 'orthorhombic'
loop_
_space_group_symop_operation_xyz
x,y,z
1/2-x,-y,1/2+z
1/2+x,1/2-y,1/2-z
-x,1/2+y,-z
-x,-y,-z
1/2+x,y,1/2-z
1/2-x,1/2+y,1/2+z
x,1/2-y,z
loop_
_atom_site_type_symbol
_atom_site_label
_atom_site_fract_x
_atom_site_fract_y
_atom_site_fract_z
Si Si1 0.683115 0.922003 0.069617
Si Si2 0.990384 0.573908 0.389146
Si Si3 0.459532 0.923817 0.783939
Si Si4 0.181769 0.923684 0.851333
Si Si5 0.189640 0.575273 0.136436
Si Si6 0.326727 0.077035 0.058025
Si Si7 0.719617 0.574757 0.238848
Si Si8 0.514333 0.420661 0.341182
O O1 0.697890 0.750000 0.086558
O O2 0.584782 0.973139 0.086020
O O3 0.755631 0.021384 0.099977
O O4 0.697357 0.947586 0.005271
O O5 0.978213 0.750000 0.384562
O O6 0.977279 0.503006 0.328558
O O7 0.915768 0.511839 0.429343
O O8 0.453181 0.750000 0.797950
O O9 0.497888 0.954579 0.723572
O O10 0.363097 0.995414 0.789944
O O11 0.198912 0.750000 0.839560
O O12 0.080121 0.950620 0.869631
O O13 0.196123 0.013483 0.794189
O O14 0.198357 0.750000 0.123890
O O15 0.244672 0.483386 0.092562
O O16 0.227039 0.534096 0.196874
O O17 0.086952 0.528911 0.131978
O O18 0.342238 0.250000 0.071955
O O19 0.708295 0.750000 0.230164
O O20 0.546000 0.250000 0.349632
#
# Coordination Sequence:
#
# PCOD8251669 Si02
#       8
#     8   8   8   8   8   8   8   8
#     4  10  23  42  61  85 119 157 198 247 300 351
#     4  11  22  37  58  87 122 157 197 244 293 354
#     4  10  19  34  56  85 119 157 195 234 289 349
#     4  11  22  36  60  90 118 155 200 243 293 352
#     4  10  22  40  61  88 118 155 199 247 301 350
#     4  11  24  41  62  85 115 158 202 247 299 355
#     4  10  20  35  55  83 119 155 191 238 294 350
#     4   9  21  39  58  86 122 157 197 245 292 351
#
# _framework density 19.467326
#
# number of rings (size 3 to 8) (size 9 to 14) (size 15 to 20)
#    0.000    1.750    1.250    2.625    1.750    4.500 
#    0.000    0.625    0.000    0.000    0.000    0.000 
#    0.000    0.000    0.000    0.000    0.000    0.000 
#
# Total GULP energy -793862.581663 kJ/mol
# GULP energy per Si atom -12404.102838 kJ/mol
# Density = 1.942302 g / cm^3
# Si number density = 19.467326 Si / 1000 Ang^3
#
#
#
# Elastic Constant Matrix: (Units=GPa)
#
#
# Indices 1 2 3 4 5 6 
#
# 1 108.9868 52.4820 51.9415 0.0000 0.0000 0.0000
# 2 52.4820 100.7882 47.0174 0.0000 0.0000 0.0000
# 3 51.9415 47.0174 77.3078 0.0000 0.0000 0.0000
# 4 0.0000 0.0000 0.0000 30.1452 0.0000 0.0000
# 5 0.0000 0.0000 0.0000 0.0000 24.1226 0.0000
# 6 0.0000 0.0000 0.0000 0.0000 0.0000 31.3192
#
#
#
# Elastic Compliance Matrix: (Units=1/GPa)
#
#
# Indices 1 2 3 4 5 6 
#
# 1 0.014697 -0.004253 -0.007288 0.000000 0.000000 0.000000
# 2 -0.004253 0.015083 -0.006315 0.000000 0.000000 0.000000
# 3 -0.007288 -0.006315 0.021673 0.000000 0.000000 0.000000
# 4 0.000000 0.000000 0.000000 0.033173 0.000000 0.000000
# 5 0.000000 0.000000 0.000000 0.000000 0.041455 0.000000
# 6 0.000000 0.000000 0.000000 0.000000 0.000000 0.031929
#
#
# Mechanical properties :
#
#
# Convention : Reuss Voigt Hill
#
# Bulk Modulus (GPa) = 63.53446 65.55161 64.54303
# Shear Modulus (GPa) = 25.12968 26.16020 25.64494
#
# Velocity S-wave (km/s) = 3.59676 3.66977 3.63344
# Velocity P-wave (km/s) = 7.06797 7.19041 7.12945
#
# Compressibility (1/GPa) = 0.01573949
#
# Stress axis : x y z
#
# Youngs Moduli (GPa) = 68.04246 66.30171 46.14101
#
# Poissons Ratio (x) = 0.28199 0.33626
# Poissons Ratio (y) = 0.28939 0.29140
# Poissons Ratio (z) = 0.49588 0.41872
#
# Static dielectric constant tensor:
#      x y z
#    x 3.507160 0.000000 0.000000 
#    y 0.000000 3.612790 0.000000 
#    z 0.000000 0.000000 3.478250 
# 
# 
# High freq. dielectric constant tensor:
#      x y z
#    x 1.756400 0.000000 0.000000 
#    y 0.000000 1.768590 0.000000 
#    z 0.000000 0.000000 1.750010 
# 
# From -- ./inp_files/29744.got.cif
#   From: 2010.03.12/outbox.cif.g09.slc.cpg/sg62_15_cif.got.tgz:29744.got - 2010.04.10 19:12:36.
