data_PCOD8251877
_publ_section_title
;
Structure prediction by ZEFSAII (Michael W. Deem and Ramdas Pophale) SiO2 
 PCOD8251877
Probable space group: P N M A
;
_chemical_formula_sum "Si O2"
_cell_formula_units_Z 56
_cell_length_a 19.796116
_cell_length_b 8.736155
_cell_length_c 16.701463
_cell_angle_alpha 90.000000
_cell_angle_beta 90.000000
_cell_angle_gamma 90.000000
_cell_volume 2888.383375
_symmetry_space_group_name_H-M "P N M A"
_symmetry_group_IT_number 62
_symmetry_cell_setting 'orthorhombic'
loop_
_space_group_symop_operation_xyz
x,y,z
1/2-x,-y,1/2+z
1/2+x,1/2-y,1/2-z
-x,1/2+y,-z
-x,-y,-z
1/2+x,y,1/2-z
1/2-x,1/2+y,1/2+z
x,1/2-y,z
loop_
_atom_site_type_symbol
_atom_site_label
_atom_site_fract_x
_atom_site_fract_y
_atom_site_fract_z
Si Si1 0.801416 0.572875 0.080254
Si Si2 0.115838 0.429379 0.316838
Si Si3 0.259104 0.428438 0.257459
Si Si4 0.674303 0.428974 0.018593
Si Si5 0.134279 0.073397 0.656321
Si Si6 0.954131 0.573077 0.067556
Si Si7 0.480317 0.430607 0.260529
O O1 0.790273 0.750000 0.102885
O O2 0.795115 0.470588 0.159451
O O3 0.745610 0.519096 0.015722
O O4 0.875839 0.546803 0.043783
O O5 0.104903 0.250000 0.323412
O O6 0.179743 0.468911 0.260747
O O7 0.129735 0.491717 0.406816
O O8 0.048743 0.501838 0.278119
O O9 0.271189 0.250000 0.240773
O O10 0.291123 0.528225 0.186533
O O11 0.691252 0.250000 0.029460
O O12 0.631762 0.459341 0.938420
O O13 0.119536 0.250000 0.676033
O O14 0.080150 0.968614 0.700447
O O15 0.972049 0.750000 0.072672
O O16 0.969397 0.502058 0.153345
O O17 0.000000 0.500000 0.000000
O O18 0.485468 0.250000 0.271280
#
# Coordination Sequence:
#
# PCOD8251877 Si02
#       7
#     8   8   8   8   8   8   8
#     4  10  20  36  58  83 113 144 187 243 291 345
#     4   8  18  37  58  83 114 151 198 243 289 347
#     4  10  19  35  60  82 109 152 194 239 293 350
#     4   9  20  38  59  83 116 156 196 243 292 343
#     4  11  22  36  56  86 120 154 198 245 291 347
#     4  11  24  40  59  85 119 153 192 242 295 356
#     4  11  22  38  61  86 117 158 198 241 297 358
#
# _framework density 19.388007000000002
#
# number of rings (size 3 to 8) (size 9 to 14) (size 15 to 20)
#    0.000    2.000    1.429    3.000    0.000    4.571 
#    0.000   11.429    0.000    0.000    0.000    0.000 
#    0.000    0.000    0.000    0.000    0.000    0.000 
#
# Total GULP energy -694426.068397 kJ/mol
# GULP energy per Si atom -12400.465507 kJ/mol
# Density = 1.934388 g / cm^3
# Si number density = 19.388007 Si / 1000 Ang^3
#
#
#
# Elastic Constant Matrix: (Units=GPa)
#
#
# Indices 1 2 3 4 5 6 
#
# 1 125.9597 41.2772 69.1501 0.0000 0.0000 0.0000
# 2 41.2772 65.3794 34.5233 0.0000 0.0000 0.0000
# 3 69.1501 34.5233 89.8066 0.0000 0.0000 0.0000
# 4 0.0000 0.0000 0.0000 25.2508 0.0000 0.0000
# 5 0.0000 0.0000 0.0000 0.0000 29.0633 0.0000
# 6 0.0000 0.0000 0.0000 0.0000 0.0000 25.5817
#
#
#
# Elastic Compliance Matrix: (Units=1/GPa)
#
#
# Indices 1 2 3 4 5 6 
#
# 1 0.014583 -0.004113 -0.009648 0.000000 0.000000 0.000000
# 2 -0.004113 0.020351 -0.004657 0.000000 0.000000 0.000000
# 3 -0.009648 -0.004657 0.020354 0.000000 0.000000 0.000000
# 4 0.000000 0.000000 0.000000 0.039603 0.000000 0.000000
# 5 0.000000 0.000000 0.000000 0.000000 0.034408 0.000000
# 6 0.000000 0.000000 0.000000 0.000000 0.000000 0.039090
#
#
# Mechanical properties :
#
#
# Convention : Reuss Voigt Hill
#
# Bulk Modulus (GPa) = 54.18975 63.44965 58.81970
# Shear Modulus (GPa) = 23.65468 25.05883 24.35676
#
# Velocity S-wave (km/s) = 3.49674 3.59902 3.54825
# Velocity P-wave (km/s) = 6.65685 7.07587 6.86956
#
# Compressibility (1/GPa) = 0.01845367
#
# Stress axis : x y z
#
# Youngs Moduli (GPa) = 68.57105 49.13840 49.13028
#
# Poissons Ratio (x) = 0.20208 0.47401
# Poissons Ratio (y) = 0.28200 0.22878
# Poissons Ratio (z) = 0.66158 0.22882
#
# Static dielectric constant tensor:
#      x y z
#    x 3.752420 0.000000 0.000000 
#    y 0.000000 3.516690 0.000000 
#    z 0.000000 0.000000 3.587680 
# 
# 
# High freq. dielectric constant tensor:
#      x y z
#    x 1.759870 0.000000 0.000000 
#    y 0.000000 1.750630 0.000000 
#    z 0.000000 0.000000 1.749900 
# 
# From -- ./inp_files/20304.got.cif
#   From: 2010.03.12/outbox.cif.g09.slc.cpg/sg62_11_cif.got.tgz:20304.got - 2010.04.10 19:12:36.
