data_PCOD8251758
_publ_section_title
;
Structure prediction by ZEFSAII (Michael W. Deem and Ramdas Pophale) SiO2 
 PCOD8251758
Probable space group: P N M A
;
_chemical_formula_sum "Si O2"
_cell_formula_units_Z 40
_cell_length_a 8.584736
_cell_length_b 19.020853
_cell_length_c 13.856573
_cell_angle_alpha 90.000000
_cell_angle_beta 90.000000
_cell_angle_gamma 90.000000
_cell_volume 2262.625969
_symmetry_space_group_name_H-M "P N M A"
_symmetry_group_IT_number 62
_symmetry_cell_setting 'orthorhombic'
loop_
_space_group_symop_operation_xyz
x,y,z
1/2-x,-y,1/2+z
1/2+x,1/2-y,1/2-z
-x,1/2+y,-z
-x,-y,-z
1/2+x,y,1/2-z
1/2-x,1/2+y,1/2+z
x,1/2-y,z
loop_
_atom_site_type_symbol
_atom_site_label
_atom_site_fract_x
_atom_site_fract_y
_atom_site_fract_z
Si Si1 0.776745 0.886665 0.959491
Si Si2 0.103000 0.885983 0.868777
Si Si3 0.725967 0.978627 0.134427
Si Si4 0.103862 0.524872 0.691818
Si Si5 0.357334 0.250000 0.118395
Si Si6 0.287630 0.750000 0.820831
O O1 0.669860 0.818156 0.947674
O O2 0.954528 0.869138 0.934063
O O3 0.718040 0.949872 0.892180
O O4 0.765903 0.911012 0.070354
O O5 0.211449 0.818116 0.868632
O O6 0.201939 0.950596 0.914356
O O7 0.051855 0.907836 0.758615
O O8 0.801642 0.969306 0.241128
O O9 0.540997 0.986396 0.143415
O O10 0.233193 0.250000 0.205588
O O11 0.529422 0.250000 0.161145
#
# Coordination Sequence:
#
# PCOD8251758 Si02
#       6
#     8   8   8   8   4   4
#     4  12  21  36  57  83 115 147 191 233 274 347
#     4  10  20  35  54  82 113 151 180 219 291 334
#     4  10  21  35  57  82 116 146 189 233 276 337
#     4  10  19  35  52  81 112 146 184 222 283 327
#     4  12  24  34  52  84 111 154 188 228 297 330
#     4  12  22  36  56  78 121 152 176 236 287 360
#
# _framework density 17.678574000000001
#
# number of rings (size 3 to 8) (size 9 to 14) (size 15 to 20)
#    1.200    0.000    4.000    4.200    0.000    0.000 
#    0.000    0.000    0.000    1.200    0.000    1.400 
#    0.000    0.000    0.000    0.000    0.000    0.000 
#
# Total GULP energy -495980.215906 kJ/mol
# GULP energy per Si atom -12399.505398 kJ/mol
# Density = 1.763834 g / cm^3
# Si number density = 17.678574 Si / 1000 Ang^3
#
#
#
# Elastic Constant Matrix: (Units=GPa)
#
#
# Indices 1 2 3 4 5 6 
#
# 1 91.6377 30.9347 27.8670 0.0000 0.0000 0.0000
# 2 30.9347 74.5490 35.3036 0.0000 0.0000 0.0000
# 3 27.8670 35.3036 66.7695 0.0000 0.0000 0.0000
# 4 0.0000 0.0000 0.0000 30.6211 0.0000 0.0000
# 5 0.0000 0.0000 0.0000 0.0000 19.9219 0.0000
# 6 0.0000 0.0000 0.0000 0.0000 0.0000 25.0256
#
#
#
# Elastic Compliance Matrix: (Units=1/GPa)
#
#
# Indices 1 2 3 4 5 6 
#
# 1 0.013278 -0.003849 -0.003507 0.000000 0.000000 0.000000
# 2 -0.003849 0.019011 -0.008445 0.000000 0.000000 0.000000
# 3 -0.003507 -0.008445 0.020906 0.000000 0.000000 0.000000
# 4 0.000000 0.000000 0.000000 0.032657 0.000000 0.000000
# 5 0.000000 0.000000 0.000000 0.000000 0.050196 0.000000
# 6 0.000000 0.000000 0.000000 0.000000 0.000000 0.039959
#
#
# Mechanical properties :
#
#
# Convention : Reuss Voigt Hill
#
# Bulk Modulus (GPa) = 46.31220 46.79633 46.55426
# Shear Modulus (GPa) = 23.27679 24.37045 23.82362
#
# Velocity S-wave (km/s) = 3.63253 3.71688 3.67495
# Velocity P-wave (km/s) = 6.62173 6.70436 6.66317
#
# Compressibility (1/GPa) = 0.02159258
#
# Stress axis : x y z
#
# Youngs Moduli (GPa) = 75.31063 52.60231 47.83410
#
# Poissons Ratio (x) = 0.20249 0.16773
# Poissons Ratio (y) = 0.28990 0.40396
# Poissons Ratio (z) = 0.26408 0.44423
#
# Static dielectric constant tensor:
#      x y z
#    x 3.247150 0.000000 0.000000 
#    y 0.000000 3.094260 0.000000 
#    z 0.000000 0.000000 2.997710 
# 
# 
# High freq. dielectric constant tensor:
#      x y z
#    x 1.700030 0.000000 0.000000 
#    y 0.000000 1.659070 0.000000 
#    z 0.000000 0.000000 1.651840 
# 
# From -- ./inp_files/22318.got.cif
#   From: 2010.03.12/outbox.cif.g09.slc.cpg/sg62_12_cif.got.tgz:22318.got - 2010.04.10 19:12:36.
