data_PCOD8251398
_publ_section_title
;
Structure prediction by ZEFSAII (Michael W. Deem and Ramdas Pophale) SiO2 
 PCOD8251398
Probable space group: P N M A
;
_chemical_formula_sum "Si O2"
_cell_formula_units_Z 64
_cell_length_a 27.318927
_cell_length_b 12.968844
_cell_length_c 9.204064
_cell_angle_alpha 90.000000
_cell_angle_beta 90.000000
_cell_angle_gamma 90.000000
_cell_volume 3260.952958
_symmetry_space_group_name_H-M "P N M A"
_symmetry_group_IT_number 62
_symmetry_cell_setting 'orthorhombic'
loop_
_space_group_symop_operation_xyz
x,y,z
1/2-x,-y,1/2+z
1/2+x,1/2-y,1/2-z
-x,1/2+y,-z
-x,-y,-z
1/2+x,y,1/2-z
1/2-x,1/2+y,1/2+z
x,1/2-y,z
loop_
_atom_site_type_symbol
_atom_site_label
_atom_site_fract_x
_atom_site_fract_y
_atom_site_fract_z
Si Si1 0.629250 0.634090 0.611266
Si Si2 0.953959 0.984144 0.163112
Si Si3 0.791866 0.008208 0.647007
Si Si4 0.119624 0.364716 0.298882
Si Si5 0.056962 0.021516 0.522672
Si Si6 0.225689 0.628201 0.062582
Si Si7 0.032849 0.363940 0.107640
Si Si8 0.859489 0.367974 0.443735
O O1 0.607917 0.750000 0.602932
O O2 0.585955 0.553976 0.579092
O O3 0.669591 0.619031 0.486847
O O4 0.650985 0.615280 0.772761
O O5 0.934527 0.937531 0.313166
O O6 0.971008 0.890776 0.062394
O O7 0.000579 0.056629 0.201386
O O8 0.767041 0.072418 0.780006
O O9 0.813013 0.086741 0.528470
O O10 0.835395 0.941191 0.714549
O O11 0.755891 0.930448 0.562980
O O12 0.139722 0.250000 0.329209
O O13 0.079329 0.390504 0.421728
O O14 0.090028 0.370233 0.148518
O O15 0.089197 0.917840 0.504741
O O16 0.000000 0.000000 0.500000
O O17 0.241102 0.750000 0.073042
O O18 0.011722 0.250000 0.133625
O O19 0.863894 0.250000 0.487569
#
# Coordination Sequence:
#
# PCOD8251398 Si02
#       8
#     8   8   8   8   8   8   8   8
#     4   9  18  34  56  81 107 143 187 235 286 338
#     4  10  19  33  54  75 111 142 188 232 278 333
#     4  11  22  39  61  85 119 151 194 242 304 355
#     4  10  21  37  57  80 114 152 191 235 293 355
#     4  10  19  33  53  81 111 149 189 236 285 336
#     4  11  23  39  62  89 119 153 197 247 303 363
#     4  10  20  33  51  75 106 147 185 225 276 336
#     4   9  19  35  57  82 112 150 194 243 292 349
#
# _framework density 19.626165
#
# number of rings (size 3 to 8) (size 9 to 14) (size 15 to 20)
#    0.000    2.000    1.250    2.625    0.000    1.500 
#    0.000    1.875    0.000    6.000    0.000    0.000 
#    0.000    0.000    0.000    0.000    0.000    0.000 
#
# Total GULP energy -793330.748059 kJ/mol
# GULP energy per Si atom -12395.792938 kJ/mol
# Density = 1.958149 g / cm^3
# Si number density = 19.626165 Si / 1000 Ang^3
#
#
#
# Elastic Constant Matrix: (Units=GPa)
#
#
# Indices 1 2 3 4 5 6 
#
# 1 60.3609 19.3477 13.2176 0.0000 0.0000 0.0000
# 2 19.3477 93.1991 35.4205 0.0000 0.0000 0.0000
# 3 13.2176 35.4205 73.2319 0.0000 0.0000 0.0000
# 4 0.0000 0.0000 0.0000 26.2388 0.0000 0.0000
# 5 0.0000 0.0000 0.0000 0.0000 30.1879 0.0000
# 6 0.0000 0.0000 0.0000 0.0000 0.0000 25.4642
#
#
#
# Elastic Compliance Matrix: (Units=1/GPa)
#
#
# Indices 1 2 3 4 5 6 
#
# 1 0.017931 -0.003054 -0.001759 0.000000 0.000000 0.000000
# 2 -0.003054 0.013666 -0.006059 0.000000 0.000000 0.000000
# 3 -0.001759 -0.006059 0.016903 0.000000 0.000000 0.000000
# 4 0.000000 0.000000 0.000000 0.038112 0.000000 0.000000
# 5 0.000000 0.000000 0.000000 0.000000 0.033126 0.000000
# 6 0.000000 0.000000 0.000000 0.000000 0.000000 0.039271
#
#
# Mechanical properties :
#
#
# Convention : Reuss Voigt Hill
#
# Bulk Modulus (GPa) = 37.37374 40.30706 38.84040
# Shear Modulus (GPa) = 26.36130 26.96525 26.66327
#
# Velocity S-wave (km/s) = 3.66891 3.71070 3.68986
# Velocity P-wave (km/s) = 6.08539 6.24027 6.16332
#
# Compressibility (1/GPa) = 0.02675676
#
# Stress axis : x y z
#
# Youngs Moduli (GPa) = 55.76901 73.17233 59.15984
#
# Poissons Ratio (x) = 0.22345 0.10408
# Poissons Ratio (y) = 0.17031 0.35844
# Poissons Ratio (z) = 0.09812 0.44335
#
# Static dielectric constant tensor:
#      x y z
#    x 3.458610 0.000000 0.000000 
#    y 0.000000 3.588340 0.000000 
#    z 0.000000 0.000000 3.548120 
# 
# 
# High freq. dielectric constant tensor:
#      x y z
#    x 1.756930 0.000000 0.000000 
#    y 0.000000 1.763080 0.000000 
#    z 0.000000 0.000000 1.766420 
# 
# From -- ./inp_files/9495.got.cif
#   From: 2010.03.12/outbox.cif.g09.slc.cpg/sg62_5_cif.got.tgz:9495.got - 2010.04.10 19:12:36.
