data_PCOD8251391
_publ_section_title
;
Structure prediction by ZEFSAII (Michael W. Deem and Ramdas Pophale) SiO2 
 PCOD8251391
Probable space group: P N M A
;
_chemical_formula_sum "Si O2"
_cell_formula_units_Z 64
_cell_length_a 15.924136
_cell_length_b 9.152289
_cell_length_c 22.967602
_cell_angle_alpha 90.000000
_cell_angle_beta 90.000000
_cell_angle_gamma 90.000000
_cell_volume 3347.351020
_symmetry_space_group_name_H-M "P N M A"
_symmetry_group_IT_number 62
_symmetry_cell_setting 'orthorhombic'
loop_
_space_group_symop_operation_xyz
x,y,z
1/2-x,-y,1/2+z
1/2+x,1/2-y,1/2-z
-x,1/2+y,-z
-x,-y,-z
1/2+x,y,1/2-z
1/2-x,1/2+y,1/2+z
x,1/2-y,z
loop_
_atom_site_type_symbol
_atom_site_label
_atom_site_fract_x
_atom_site_fract_y
_atom_site_fract_z
Si Si1 0.456417 0.906416 0.275546
Si Si2 0.745508 0.577093 0.546952
Si Si3 0.324561 0.411179 0.334520
Si Si4 0.564003 0.425846 0.044657
Si Si5 0.376779 0.090423 0.653712
Si Si6 0.551075 0.923722 0.166914
Si Si7 0.583059 0.923263 0.474946
Si Si8 0.321738 0.913863 0.752798
O O1 0.409338 0.750000 0.276865
O O2 0.548188 0.889829 0.301565
O O3 0.469249 0.954876 0.208137
O O4 0.411045 0.013885 0.319073
O O5 0.749314 0.750000 0.547347
O O6 0.724775 0.514307 0.611559
O O7 0.839629 0.524408 0.529080
O O8 0.669825 0.522672 0.505307
O O9 0.349007 0.250000 0.355738
O O10 0.273035 0.408567 0.274977
O O11 0.554583 0.250000 0.043721
O O12 0.538728 0.487146 0.107740
O O13 0.500000 0.500000 0.000000
O O14 0.333454 0.250000 0.644193
O O15 0.407532 0.028084 0.592047
O O16 0.315410 0.978133 0.687092
O O17 0.561830 0.750000 0.155345
O O18 0.631473 0.985578 0.200536
O O19 0.570533 0.750000 0.481764
O O20 0.500000 0.000000 0.500000
O O21 0.360928 0.750000 0.751336
#
# Coordination Sequence:
#
# PCOD8251391 Si02
#       8
#     8   8   8   8   8   8   8   8
#     4   9  19  33  51  79 111 141 177 228 279 336
#     4   9  19  37  59  83 115 154 195 241 293 351
#     4  10  19  33  53  80 109 141 184 229 281 346
#     4  11  22  40  62  84 115 154 202 253 300 351
#     4   9  19  35  52  76 110 145 184 224 275 341
#     4  10  20  37  58  82 111 144 187 235 292 351
#     4  10  20  36  59  85 117 156 193 236 291 348
#     4  10  19  33  55  79 107 143 181 228 282 334
#
# _framework density 19.119595
#
# number of rings (size 3 to 8) (size 9 to 14) (size 15 to 20)
#    0.000    2.250    1.250    2.625    0.000    4.000 
#    2.250    1.250    0.000    0.000    0.000    0.000 
#    0.000    0.000    0.000    0.000    0.000    0.000 
#
# Total GULP energy -792885.370130 kJ/mol
# GULP energy per Si atom -12388.833908 kJ/mol
# Density = 1.907608 g / cm^3
# Si number density = 19.119595 Si / 1000 Ang^3
#
#
#
# Elastic Constant Matrix: (Units=GPa)
#
#
# Indices 1 2 3 4 5 6 
#
# 1 88.8058 29.9197 44.5398 0.0000 0.0000 0.0000
# 2 29.9197 73.2046 38.7678 0.0000 0.0000 0.0000
# 3 44.5398 38.7678 136.5325 0.0000 0.0000 0.0000
# 4 0.0000 0.0000 0.0000 31.8691 0.0000 0.0000
# 5 0.0000 0.0000 0.0000 0.0000 29.2826 0.0000
# 6 0.0000 0.0000 0.0000 0.0000 0.0000 18.7907
#
#
#
# Elastic Compliance Matrix: (Units=1/GPa)
#
#
# Indices 1 2 3 4 5 6 
#
# 1 0.014393 -0.003997 -0.003560 0.000000 0.000000 0.000000
# 2 -0.003997 0.017188 -0.003577 0.000000 0.000000 0.000000
# 3 -0.003560 -0.003577 0.009501 0.000000 0.000000 0.000000
# 4 0.000000 0.000000 0.000000 0.031378 0.000000 0.000000
# 5 0.000000 0.000000 0.000000 0.000000 0.034150 0.000000
# 6 0.000000 0.000000 0.000000 0.000000 0.000000 0.053218
#
#
# Mechanical properties :
#
#
# Convention : Reuss Voigt Hill
#
# Bulk Modulus (GPa) = 53.15101 58.33306 55.74204
# Shear Modulus (GPa) = 26.54382 28.34283 27.44333
#
# Velocity S-wave (km/s) = 3.73004 3.85437 3.79271
# Velocity P-wave (km/s) = 6.81253 7.09817 6.95681
#
# Compressibility (1/GPa) = 0.01881432
#
# Stress axis : x y z
#
# Youngs Moduli (GPa) = 69.47903 58.17983 105.24933
#
# Poissons Ratio (x) = 0.23255 0.37472
# Poissons Ratio (y) = 0.27771 0.37643
# Poissons Ratio (z) = 0.24737 0.20808
#
# Static dielectric constant tensor:
#      x y z
#    x 3.384600 0.000000 0.000000 
#    y 0.000000 3.753610 0.000000 
#    z 0.000000 0.000000 3.706160 
# 
# 
# High freq. dielectric constant tensor:
#      x y z
#    x 1.724860 0.000000 0.000000 
#    y 0.000000 1.733740 0.000000 
#    z 0.000000 0.000000 1.751710 
# 
# From -- ./inp_files/29821.got.cif
#   From: 2010.03.12/outbox.cif.g09.slc.cpg/sg62_15_cif.got.tgz:29821.got - 2010.04.10 19:12:36.
