data_PCOD8251798
_publ_section_title
;
Structure prediction by ZEFSAII (Michael W. Deem and Ramdas Pophale) SiO2 
 PCOD8251798
Probable space group: P N M A
;
_chemical_formula_sum "Si O2"
_cell_formula_units_Z 64
_cell_length_a 12.736750
_cell_length_b 8.904986
_cell_length_c 28.987763
_cell_angle_alpha 90.000000
_cell_angle_beta 90.000000
_cell_angle_gamma 90.000000
_cell_volume 3287.808905
_symmetry_space_group_name_H-M "P N M A"
_symmetry_group_IT_number 62
_symmetry_cell_setting 'orthorhombic'
loop_
_space_group_symop_operation_xyz
x,y,z
1/2-x,-y,1/2+z
1/2+x,1/2-y,1/2-z
-x,1/2+y,-z
-x,-y,-z
1/2+x,y,1/2-z
1/2-x,1/2+y,1/2+z
x,1/2-y,z
loop_
_atom_site_type_symbol
_atom_site_label
_atom_site_fract_x
_atom_site_fract_y
_atom_site_fract_z
Si Si1 0.885188 0.422862 0.415526
Si Si2 0.185294 0.074579 0.030813
Si Si3 0.887361 0.573263 0.606898
Si Si4 0.465362 0.429181 0.605642
Si Si5 0.169564 0.929381 0.933970
Si Si6 0.348443 0.583830 0.175523
Si Si7 0.385155 0.416241 0.705038
Si Si8 0.042973 0.074031 0.294207
O O1 0.882962 0.250000 0.399624
O O2 0.810735 0.447665 0.459959
O O3 0.832859 0.518765 0.375324
O O4 0.007635 0.471142 0.422791
O O5 0.158826 0.250000 0.023153
O O6 0.117227 0.013100 0.073037
O O7 0.153589 0.978765 0.986550
O O8 0.873502 0.750000 0.607728
O O9 0.782414 0.507448 0.583552
O O10 0.899845 0.511054 0.659351
O O11 0.457406 0.250000 0.598066
O O12 0.581954 0.489567 0.596614
O O13 0.439598 0.474370 0.658269
O O14 0.158593 0.750000 0.930176
O O15 0.396728 0.750000 0.171284
O O16 0.238469 0.588867 0.200335
O O17 0.423952 0.483044 0.206731
O O18 0.428503 0.250000 0.716841
O O19 0.402829 0.526521 0.747301
O O20 0.042251 0.250000 0.296846
#
# Coordination Sequence:
#
# PCOD8251798 Si02
#       8
#     8   8   8   8   8   8   8   8
#     4   9  18  35  60  85 112 147 192 240 285 342
#     4  11  22  37  60  89 117 149 195 244 295 350
#     4   8  18  38  58  81 115 153 190 236 287 342
#     4  11  23  41  60  82 116 152 196 244 293 347
#     4  11  23  39  59  83 118 159 197 236 292 351
#     4  10  19  35  57  82 114 148 187 236 292 344
#     4  10  22  38  58  85 114 148 191 241 293 347
#     4  10  21  37  59  86 116 151 193 237 289 348
#
# _framework density 19.46585
#
# number of rings (size 3 to 8) (size 9 to 14) (size 15 to 20)
#    0.000    2.000    1.250    3.000    0.000    4.000 
#    0.000    8.750    0.000    0.000    0.000    0.000 
#    0.000    0.000    0.000    0.000    0.000    0.000 
#
# Total GULP energy -793415.895129 kJ/mol
# GULP energy per Si atom -12397.123361 kJ/mol
# Density = 1.942155 g / cm^3
# Si number density = 19.465850 Si / 1000 Ang^3
#
#
#
# Elastic Constant Matrix: (Units=GPa)
#
#
# Indices 1 2 3 4 5 6 
#
# 1 100.7579 22.3156 24.8111 0.0000 0.0000 0.0000
# 2 22.3156 63.4213 25.7974 0.0000 0.0000 0.0000
# 3 24.8111 25.7974 58.9053 0.0000 0.0000 0.0000
# 4 0.0000 0.0000 0.0000 23.3837 0.0000 0.0000
# 5 0.0000 0.0000 0.0000 0.0000 24.9408 0.0000
# 6 0.0000 0.0000 0.0000 0.0000 0.0000 28.0523
#
#
#
# Elastic Compliance Matrix: (Units=1/GPa)
#
#
# Indices 1 2 3 4 5 6 
#
# 1 0.011391 -0.002502 -0.003702 0.000000 0.000000 0.000000
# 2 -0.002502 0.019735 -0.007589 0.000000 0.000000 0.000000
# 3 -0.003702 -0.007589 0.021859 0.000000 0.000000 0.000000
# 4 0.000000 0.000000 0.000000 0.042765 0.000000 0.000000
# 5 0.000000 0.000000 0.000000 0.000000 0.040095 0.000000
# 6 0.000000 0.000000 0.000000 0.000000 0.000000 0.035648
#
#
# Mechanical properties :
#
#
# Convention : Reuss Voigt Hill
#
# Bulk Modulus (GPa) = 39.37215 40.99252 40.18233
# Shear Modulus (GPa) = 24.09126 25.28606 24.68866
#
# Velocity S-wave (km/s) = 3.52179 3.60807 3.56519
# Velocity P-wave (km/s) = 6.06692 6.20177 6.13472
#
# Compressibility (1/GPa) = 0.02539867
#
# Stress axis : x y z
#
# Youngs Moduli (GPa) = 87.79236 50.67175 45.74727
#
# Poissons Ratio (x) = 0.12678 0.16935
# Poissons Ratio (y) = 0.21966 0.34717
# Poissons Ratio (z) = 0.32500 0.38455
#
# Static dielectric constant tensor:
#      x y z
#    x 3.791070 0.000000 0.000000 
#    y 0.000000 3.599360 0.000000 
#    z 0.000000 0.000000 3.509160 
# 
# 
# High freq. dielectric constant tensor:
#      x y z
#    x 1.767550 0.000000 0.000000 
#    y 0.000000 1.755810 0.000000 
#    z 0.000000 0.000000 1.749300 
# 
# From -- ./inp_files/32589.got.cif
#   From: 2010.03.12/outbox.cif.g09.slc.cpg/sg62_17_cif.got.tgz:32589.got - 2010.04.10 19:12:36.
