data_PCOD8251550
_publ_section_title
;
Structure prediction by ZEFSAII (Michael W. Deem and Ramdas Pophale) SiO2 
 PCOD8251550
Probable space group: P N M A
;
_chemical_formula_sum "Si O2"
_cell_formula_units_Z 64
_cell_length_a 5.870788
_cell_length_b 18.123362
_cell_length_c 28.630666
_cell_angle_alpha 90.000000
_cell_angle_beta 90.000000
_cell_angle_gamma 90.000000
_cell_volume 3046.257516
_symmetry_space_group_name_H-M "P N M A"
_symmetry_group_IT_number 62
_symmetry_cell_setting 'orthorhombic'
loop_
_space_group_symop_operation_xyz
x,y,z
1/2-x,-y,1/2+z
1/2+x,1/2-y,1/2-z
-x,1/2+y,-z
-x,-y,-z
1/2+x,y,1/2-z
1/2-x,1/2+y,1/2+z
x,1/2-y,z
loop_
_atom_site_type_symbol
_atom_site_label
_atom_site_fract_x
_atom_site_fract_y
_atom_site_fract_z
Si Si1 0.293900 0.666194 0.858406
Si Si2 0.597495 0.905447 0.727165
Si Si3 0.565240 0.332912 0.546998
Si Si4 0.110921 0.927405 0.399705
Si Si5 0.233596 0.665825 0.137645
Si Si6 0.509370 0.032797 0.669991
Si Si7 0.524146 0.167209 0.442578
Si Si8 0.332081 0.061052 0.112190
O O1 0.365750 0.750000 0.846950
O O2 0.101387 0.639171 0.821889
O O3 0.199050 0.659385 0.911066
O O4 0.510018 0.612897 0.855778
O O5 0.348819 0.884267 0.750055
O O6 0.594700 0.994878 0.718243
O O7 0.663842 0.250000 0.549495
O O8 0.773028 0.389094 0.555728
O O9 0.374975 0.343915 0.586376
O O10 0.456011 0.348929 0.496369
O O11 0.288029 0.967588 0.366423
O O12 0.988354 0.864451 0.368240
O O13 0.950489 0.994105 0.416573
O O14 0.232983 0.750000 0.155522
O O15 0.094523 0.615656 0.175252
O O16 0.322146 0.976586 0.650941
O O17 0.625877 0.250000 0.437456
O O18 0.712452 0.108921 0.427373
#
# Coordination Sequence:
#
# PCOD8251550 Si02
#       8
#     8   8   8   8   8   8   8   8
#     4  11  24  42  63  89 124 167 214 266 326 392
#     4  12  26  44  72  99 127 166 212 273 334 397
#     4   9  19  35  52  87 126 161 214 263 309 368
#     4  10  19  33  61  84 122 164 207 263 315 379
#     4   9  19  35  62  92 126 168 214 264 312 377
#     4  10  21  40  62  91 127 163 207 261 327 396
#     4  10  21  36  57  81 123 171 208 261 319 377
#     4  11  19  37  60  84 119 168 215 257 319 390
#
# _framework density 21.009385000000002
#
# number of rings (size 3 to 8) (size 9 to 14) (size 15 to 20)
#    0.000    1.750    2.500    1.500    1.750    2.500 
#    0.000   11.250    0.000    0.750    0.000    0.000 
#    0.000    0.000    0.000    0.000    0.000    0.000 
#
# Total GULP energy -793027.076088 kJ/mol
# GULP energy per Si atom -12391.048064 kJ/mol
# Density = 2.096157 g / cm^3
# Si number density = 21.009385 Si / 1000 Ang^3
#
#
#
# Elastic Constant Matrix: (Units=GPa)
#
#
# Indices 1 2 3 4 5 6 
#
# 1 96.3260 41.8506 9.6208 0.0000 0.0000 0.0000
# 2 41.8506 126.9080 4.5957 0.0000 0.0000 0.0000
# 3 9.6208 4.5957 26.0792 0.0000 0.0000 0.0000
# 4 0.0000 0.0000 0.0000 21.3119 0.0000 0.0000
# 5 0.0000 0.0000 0.0000 0.0000 23.4118 0.0000
# 6 0.0000 0.0000 0.0000 0.0000 0.0000 38.4749
#
#
#
# Elastic Compliance Matrix: (Units=1/GPa)
#
#
# Indices 1 2 3 4 5 6 
#
# 1 0.012502 -0.003981 -0.003910 0.000000 0.000000 0.000000
# 2 -0.003981 0.009198 -0.000152 0.000000 0.000000 0.000000
# 3 -0.003910 -0.000152 0.039814 0.000000 0.000000 0.000000
# 4 0.000000 0.000000 0.000000 0.046922 0.000000 0.000000
# 5 0.000000 0.000000 0.000000 0.000000 0.042714 0.000000
# 6 0.000000 0.000000 0.000000 0.000000 0.000000 0.025991
#
#
# Mechanical properties :
#
#
# Convention : Reuss Voigt Hill
#
# Bulk Modulus (GPa) = 22.01363 40.16082 31.08722
# Shear Modulus (GPa) = 23.99578 29.52280 26.75929
#
# Velocity S-wave (km/s) = 3.38323 3.75269 3.57274
# Velocity P-wave (km/s) = 5.07567 6.15907 5.64343
#
# Compressibility (1/GPa) = 0.04542641
#
# Stress axis : x y z
#
# Youngs Moduli (GPa) = 79.98969 108.71833 25.11672
#
# Poissons Ratio (x) = 0.43281 0.09822
# Poissons Ratio (y) = 0.31844 0.00382
# Poissons Ratio (z) = 0.31279 0.01655
#
# Static dielectric constant tensor:
#      x y z
#    x 3.932020 0.000000 0.000000 
#    y 0.000000 4.181400 0.000000 
#    z 0.000000 0.000000 3.603730 
# 
# 
# High freq. dielectric constant tensor:
#      x y z
#    x 1.825250 0.000000 0.000000 
#    y 0.000000 1.839620 0.000000 
#    z 0.000000 0.000000 1.788670 
# 
# From -- ./inp_files/31690.got.cif
#   From: 2010.03.12/outbox.cif.g09.slc.cpg/sg62_16_cif.got.tgz:31690.got - 2010.04.10 19:12:36.
