data_PCOD8251191
_publ_section_title
;
Structure prediction by ZEFSAII (Michael W. Deem and Ramdas Pophale) SiO2 
 PCOD8251191
Probable space group: P N M A
;
_chemical_formula_sum "Si O2"
_cell_formula_units_Z 48
_cell_length_a 16.792099
_cell_length_b 9.113581
_cell_length_c 16.478460
_cell_angle_alpha 90.000000
_cell_angle_beta 90.000000
_cell_angle_gamma 90.000000
_cell_volume 2521.800149
_symmetry_space_group_name_H-M "P N M A"
_symmetry_group_IT_number 62
_symmetry_cell_setting 'orthorhombic'
loop_
_space_group_symop_operation_xyz
x,y,z
1/2-x,-y,1/2+z
1/2+x,1/2-y,1/2-z
-x,1/2+y,-z
-x,-y,-z
1/2+x,y,1/2-z
1/2-x,1/2+y,1/2+z
x,1/2-y,z
loop_
_atom_site_type_symbol
_atom_site_label
_atom_site_fract_x
_atom_site_fract_y
_atom_site_fract_z
Si Si1 0.228821 0.080453 0.899788
Si Si2 0.093109 0.918311 0.427209
Si Si3 0.938121 0.079824 0.388978
Si Si4 0.989056 0.584916 0.876772
Si Si5 0.379465 0.085585 0.515435
Si Si6 0.104776 0.077305 0.764280
O O1 0.213594 0.250000 0.921324
O O2 0.321836 0.047455 0.886506
O O3 0.182431 0.037289 0.817552
O O4 0.198251 0.987895 0.976382
O O5 0.067317 0.750000 0.413016
O O6 0.099231 0.951029 0.523096
O O7 0.028823 0.022246 0.384965
O O8 0.937874 0.250000 0.366165
O O9 0.883658 0.992792 0.324470
O O10 0.969597 0.750000 0.847469
O O11 0.025328 0.492143 0.803034
O O12 0.907801 0.506921 0.906315
O O13 0.050623 0.588597 0.950193
O O14 0.357815 0.250000 0.543604
O O15 0.092145 0.250000 0.757296
#
# Coordination Sequence:
#
# PCOD8251191 Si02
#       6
#     8   8   8   8   8   8
#     4   9  18  33  53  76 103 137 173 213 261 308
#     4   9  19  37  58  77 100 134 176 217 256 303
#     4  10  20  35  56  79 102 132 171 213 258 307
#     4   9  16  27  44  67  98 135 173 208 246 299
#     4   9  16  26  43  69 100 134 170 208 251 302
#     4  10  19  32  52  77 105 135 169 211 260 311
#
# _framework density 19.034020999999999
#
# number of rings (size 3 to 8) (size 9 to 14) (size 15 to 20)
#    0.000    2.667    0.000    2.000    0.000    6.000 
#    0.000    1.667    0.000    4.000    0.000    0.000 
#    0.000    0.000    0.000    0.000    0.000    0.000 
#
# Total GULP energy -595243.092666 kJ/mol
# GULP energy per Si atom -12400.897764 kJ/mol
# Density = 1.899070 g / cm^3
# Si number density = 19.034021 Si / 1000 Ang^3
#
#
#
# Elastic Constant Matrix: (Units=GPa)
#
#
# Indices 1 2 3 4 5 6 
#
# 1 75.9298 38.1748 31.6645 0.0000 0.0000 0.0000
# 2 38.1748 111.9399 38.8184 0.0000 0.0000 0.0000
# 3 31.6645 38.8184 72.1566 0.0000 0.0000 0.0000
# 4 0.0000 0.0000 0.0000 34.1933 0.0000 0.0000
# 5 0.0000 0.0000 0.0000 0.0000 16.6609 0.0000
# 6 0.0000 0.0000 0.0000 0.0000 0.0000 25.6656
#
#
#
# Elastic Compliance Matrix: (Units=1/GPa)
#
#
# Indices 1 2 3 4 5 6 
#
# 1 0.017505 -0.004064 -0.005495 0.000000 0.000000 0.000000
# 2 -0.004064 0.011926 -0.004632 0.000000 0.000000 0.000000
# 3 -0.005495 -0.004632 0.018762 0.000000 0.000000 0.000000
# 4 0.000000 0.000000 0.000000 0.029245 0.000000 0.000000
# 5 0.000000 0.000000 0.000000 0.000000 0.060021 0.000000
# 6 0.000000 0.000000 0.000000 0.000000 0.000000 0.038963
#
#
# Mechanical properties :
#
#
# Convention : Reuss Voigt Hill
#
# Bulk Modulus (GPa) = 50.48051 53.03797 51.75924
# Shear Modulus (GPa) = 23.65087 25.39519 24.52303
#
# Velocity S-wave (km/s) = 3.52882 3.65663 3.59329
# Velocity P-wave (km/s) = 6.57131 6.76412 6.66841
#
# Compressibility (1/GPa) = 0.01980963
#
# Stress axis : x y z
#
# Youngs Moduli (GPa) = 57.12648 83.85244 53.29823
#
# Poissons Ratio (x) = 0.34078 0.29289
# Poissons Ratio (y) = 0.23217 0.24689
# Poissons Ratio (z) = 0.31393 0.38843
#
# Static dielectric constant tensor:
#      x y z
#    x 3.251770 0.000000 0.000000 
#    y 0.000000 3.633290 0.000000 
#    z 0.000000 0.000000 3.354090 
# 
# 
# High freq. dielectric constant tensor:
#      x y z
#    x 1.715040 0.000000 0.000000 
#    y 0.000000 1.751080 0.000000 
#    z 0.000000 0.000000 1.723140 
# 
# From -- ./inp_files/19666.got.cif
#   From: 2010.03.12/outbox.cif.g09.slc.cpg/sg62_10_cif.got.tgz:19666.got - 2010.04.10 19:12:36.
