data_PCOD8251060
_publ_section_title
;
Structure prediction by ZEFSAII (Michael W. Deem and Ramdas Pophale) SiO2 
 PCOD8251060
Probable space group: P N M A
;
_chemical_formula_sum "Si O2"
_cell_formula_units_Z 56
_cell_length_a 14.562982
_cell_length_b 9.242341
_cell_length_c 20.780460
_cell_angle_alpha 90.000000
_cell_angle_beta 90.000000
_cell_angle_gamma 90.000000
_cell_volume 2796.967742
_symmetry_space_group_name_H-M "P N M A"
_symmetry_group_IT_number 62
_symmetry_cell_setting 'orthorhombic'
loop_
_space_group_symop_operation_xyz
x,y,z
1/2-x,-y,1/2+z
1/2+x,1/2-y,1/2-z
-x,1/2+y,-z
-x,-y,-z
1/2+x,y,1/2-z
1/2-x,1/2+y,1/2+z
x,1/2-y,z
loop_
_atom_site_type_symbol
_atom_site_label
_atom_site_fract_x
_atom_site_fract_y
_atom_site_fract_z
Si Si1 0.070149 0.910625 0.040509
Si Si2 0.773750 0.920183 0.472207
Si Si3 0.684190 0.919506 0.239295
Si Si4 0.432328 0.910316 0.354451
Si Si5 0.994345 0.421387 0.259225
Si Si6 0.649868 0.079731 0.835932
Si Si7 0.757516 0.085130 0.595249
O O1 0.074194 0.750000 0.010962
O O2 0.171141 0.977763 0.042203
O O3 0.032254 0.907251 0.113197
O O4 0.000000 0.000000 0.000000
O O5 0.777806 0.750000 0.482300
O O6 0.831764 0.965657 0.409873
O O7 0.807543 0.993275 0.538974
O O8 0.660988 0.750000 0.246360
O O9 0.765036 0.963007 0.289153
O O10 0.711447 0.960718 0.166501
O O11 0.594153 0.012511 0.253996
O O12 0.411292 0.750000 0.323735
O O13 0.352735 0.942679 0.407062
O O14 0.429891 0.033906 0.300747
O O15 0.000579 0.250000 0.266708
O O16 0.943108 0.491619 0.320364
O O17 0.630429 0.250000 0.830145
O O18 0.783290 0.250000 0.581058
#
# Coordination Sequence:
#
# PCOD8251060 Si02
#       7
#     8   8   8   8   8   8   8
#     4  10  19  31  51  81 116 151 187 229 283 349
#     4  10  21  35  56  86 121 157 192 242 299 353
#     4  10  21  41  66  87 114 159 210 247 288 358
#     4  10  19  36  58  81 114 158 199 235 285 359
#     4  12  25  38  59  92 122 150 193 257 313 349
#     4  10  21  42  66  87 117 162 207 243 293 362
#     4  10  20  36  61  87 113 154 199 241 288 346
#
# _framework density 20.021681000000001
#
# number of rings (size 3 to 8) (size 9 to 14) (size 15 to 20)
#    0.000    1.714    2.857    2.143    0.000    5.143 
#    0.000    2.143    0.000    0.000    0.000    0.000 
#    0.000    0.000    0.000    0.000    0.000    0.000 
#
# Total GULP energy -694178.253622 kJ/mol
# GULP energy per Si atom -12396.040243 kJ/mol
# Density = 1.997611 g / cm^3
# Si number density = 20.021681 Si / 1000 Ang^3
#
#
#
# Elastic Constant Matrix: (Units=GPa)
#
#
# Indices 1 2 3 4 5 6 
#
# 1 45.1728 23.7638 1.6165 0.0000 0.0000 0.0000
# 2 23.7638 69.6609 31.2123 0.0000 0.0000 0.0000
# 3 1.6165 31.2123 108.8568 0.0000 0.0000 0.0000
# 4 0.0000 0.0000 0.0000 34.3957 0.0000 0.0000
# 5 0.0000 0.0000 0.0000 0.0000 25.1997 0.0000
# 6 0.0000 0.0000 0.0000 0.0000 0.0000 25.8653
#
#
#
# Elastic Compliance Matrix: (Units=1/GPa)
#
#
# Indices 1 2 3 4 5 6 
#
# 1 0.027619 -0.010600 0.002629 0.000000 0.000000 0.000000
# 2 -0.010600 0.020540 -0.005732 0.000000 0.000000 0.000000
# 3 0.002629 -0.005732 0.010791 0.000000 0.000000 0.000000
# 4 0.000000 0.000000 0.000000 0.029073 0.000000 0.000000
# 5 0.000000 0.000000 0.000000 0.000000 0.039683 0.000000
# 6 0.000000 0.000000 0.000000 0.000000 0.000000 0.038662
#
#
# Mechanical properties :
#
#
# Convention : Reuss Voigt Hill
#
# Bulk Modulus (GPa) = 31.70137 37.43066 34.56602
# Shear Modulus (GPa) = 24.47523 28.23199 26.35361
#
# Velocity S-wave (km/s) = 3.50013 3.75917 3.63196
# Velocity P-wave (km/s) = 5.67472 6.13004 5.90677
#
# Compressibility (1/GPa) = 0.03154437
#
# Stress axis : x y z
#
# Youngs Moduli (GPa) = 36.20643 48.68661 92.67137
#
# Poissons Ratio (x) = 0.51608 -0.24365
# Poissons Ratio (y) = 0.38379 0.53118
# Poissons Ratio (z) = -0.09519 0.27906
#
# Static dielectric constant tensor:
#      x y z
#    x 3.666910 0.000000 0.000000 
#    y 0.000000 3.413130 0.000000 
#    z 0.000000 0.000000 3.766950 
# 
# 
# High freq. dielectric constant tensor:
#      x y z
#    x 1.770090 0.000000 0.000000 
#    y 0.000000 1.760880 0.000000 
#    z 0.000000 0.000000 1.785420 
# 
# From -- ./inp_files/27112.got.cif
#   From: 2010.03.12/outbox.cif.g09.slc.cpg/sg62_14_cif.got.tgz:27112.got - 2010.04.10 19:12:36.
