data_PCOD8251218
_publ_section_title
;
Structure prediction by ZEFSAII (Michael W. Deem and Ramdas Pophale) SiO2 
 PCOD8251218
Probable space group: P N M A
;
_chemical_formula_sum "Si O2"
_cell_formula_units_Z 48
_cell_length_a 14.867641
_cell_length_b 9.949719
_cell_length_c 17.662019
_cell_angle_alpha 90.000000
_cell_angle_beta 90.000000
_cell_angle_gamma 90.000000
_cell_volume 2612.722162
_symmetry_space_group_name_H-M "P N M A"
_symmetry_group_IT_number 62
_symmetry_cell_setting 'orthorhombic'
loop_
_space_group_symop_operation_xyz
x,y,z
1/2-x,-y,1/2+z
1/2+x,1/2-y,1/2-z
-x,1/2+y,-z
-x,-y,-z
1/2+x,y,1/2-z
1/2-x,1/2+y,1/2+z
x,1/2-y,z
loop_
_atom_site_type_symbol
_atom_site_label
_atom_site_fract_x
_atom_site_fract_y
_atom_site_fract_z
Si Si1 0.858399 0.024251 0.457774
Si Si2 0.085786 0.905655 0.999545
Si Si3 0.852028 0.095908 0.698139
Si Si4 0.791028 0.098137 0.858084
Si Si5 0.547792 0.103445 0.094157
Si Si6 0.215777 0.105210 0.929392
O O1 0.793409 0.118659 0.507072
O O2 0.941448 0.103927 0.422215
O O3 0.800851 0.966439 0.388049
O O4 0.897401 0.912264 0.515490
O O5 0.066214 0.750000 0.975813
O O6 0.128794 0.911554 0.082009
O O7 0.153680 0.974906 0.940309
O O8 0.000000 0.000000 0.000000
O O9 0.887521 0.250000 0.702814
O O10 0.829473 0.033166 0.780637
O O11 0.759204 0.087093 0.652510
O O12 0.928733 0.008364 0.656851
O O13 0.765594 0.250000 0.838908
O O14 0.573003 0.250000 0.126684
O O15 0.163499 0.250000 0.932514
#
# Coordination Sequence:
#
# PCOD8251218 Si02
#       6
#     8   8   8   8   8   8
#     4   9  18  31  54  78 104 136 175 213 256 307
#     4  10  20  35  56  77 101 134 178 221 256 302
#     4   9  19  35  53  75 105 138 173 213 257 308
#     4   9  18  35  55  76 101 136 180 216 252 303
#     4  10  19  32  52  81 111 136 168 213 265 313
#     4   9  17  32  54  77 102 133 170 213 260 305
#
# _framework density 18.371644
#
# number of rings (size 3 to 8) (size 9 to 14) (size 15 to 20)
#    0.000    2.667    0.000    1.500    0.000    8.667 
#    3.000    5.000    0.000    0.000    0.000    0.000 
#    0.000    0.000    0.000    0.000    0.000    0.000 
#
# Total GULP energy -594821.145313 kJ/mol
# GULP energy per Si atom -12392.107194 kJ/mol
# Density = 1.832983 g / cm^3
# Si number density = 18.371644 Si / 1000 Ang^3
#
#
#
# Elastic Constant Matrix: (Units=GPa)
#
#
# Indices 1 2 3 4 5 6 
#
# 1 79.0046 42.6288 17.7304 0.0000 0.0000 0.0000
# 2 42.6288 120.9810 26.3015 0.0000 0.0000 0.0000
# 3 17.7304 26.3015 73.7355 0.0000 0.0000 0.0000
# 4 0.0000 0.0000 0.0000 19.0769 0.0000 0.0000
# 5 0.0000 0.0000 0.0000 0.0000 19.1927 0.0000
# 6 0.0000 0.0000 0.0000 0.0000 0.0000 19.5803
#
#
#
# Elastic Compliance Matrix: (Units=1/GPa)
#
#
# Indices 1 2 3 4 5 6 
#
# 1 0.015890 -0.005169 -0.001977 0.000000 0.000000 0.000000
# 2 -0.005169 0.010642 -0.002553 0.000000 0.000000 0.000000
# 3 -0.001977 -0.002553 0.014948 0.000000 0.000000 0.000000
# 4 0.000000 0.000000 0.000000 0.052419 0.000000 0.000000
# 5 0.000000 0.000000 0.000000 0.000000 0.052103 0.000000
# 6 0.000000 0.000000 0.000000 0.000000 0.000000 0.051072
#
#
# Mechanical properties :
#
#
# Convention : Reuss Voigt Hill
#
# Bulk Modulus (GPa) = 45.28625 49.67138 47.47882
# Shear Modulus (GPa) = 22.33789 24.04066 23.18927
#
# Velocity S-wave (km/s) = 3.49074 3.62135 3.55664
# Velocity P-wave (km/s) = 6.39927 6.67692 6.53957
#
# Compressibility (1/GPa) = 0.02208176
#
# Stress axis : x y z
#
# Youngs Moduli (GPa) = 62.93096 93.96494 66.89819
#
# Poissons Ratio (x) = 0.48573 0.13226
# Poissons Ratio (y) = 0.32531 0.17080
# Poissons Ratio (z) = 0.12442 0.23990
#
# Static dielectric constant tensor:
#      x y z
#    x 3.322910 0.000000 0.000000 
#    y 0.000000 3.437070 0.000000 
#    z 0.000000 0.000000 3.420600 
# 
# 
# High freq. dielectric constant tensor:
#      x y z
#    x 1.703950 0.000000 0.000000 
#    y 0.000000 1.711210 0.000000 
#    z 0.000000 0.000000 1.699070 
# 
# From -- ./inp_files/23848.got.cif
#   From: 2010.03.12/outbox.cif.g09.slc.cpg/sg62_12_cif.got.tgz:23848.got - 2010.04.10 19:12:36.
