data_PCOD8251406
_publ_section_title
;
Structure prediction by ZEFSAII (Michael W. Deem and Ramdas Pophale) SiO2 
 PCOD8251406
Probable space group: P N M A
;
_chemical_formula_sum "Si O2"
_cell_formula_units_Z 56
_cell_length_a 8.619251
_cell_length_b 20.344397
_cell_length_c 16.612430
_cell_angle_alpha 90.000000
_cell_angle_beta 90.000000
_cell_angle_gamma 90.000000
_cell_volume 2913.047149
_symmetry_space_group_name_H-M "P N M A"
_symmetry_group_IT_number 62
_symmetry_cell_setting 'orthorhombic'
loop_
_space_group_symop_operation_xyz
x,y,z
1/2-x,-y,1/2+z
1/2+x,1/2-y,1/2-z
-x,1/2+y,-z
-x,-y,-z
1/2+x,y,1/2-z
1/2-x,1/2+y,1/2+z
x,1/2-y,z
loop_
_atom_site_type_symbol
_atom_site_label
_atom_site_fract_x
_atom_site_fract_y
_atom_site_fract_z
Si Si1 0.348903 0.419975 0.420000
Si Si2 0.395222 0.565615 0.357601
Si Si3 0.159289 0.482467 0.544572
Si Si4 0.141417 0.390906 0.275697
Si Si5 0.210210 0.533409 0.207512
Si Si6 0.168240 0.114022 0.021070
Si Si7 0.842251 0.324409 0.344492
O O1 0.391419 0.494292 0.397982
O O2 0.233509 0.420837 0.497007
O O3 0.267355 0.384655 0.345766
O O4 0.498247 0.376317 0.440622
O O5 0.276087 0.571385 0.284286
O O6 0.570938 0.577359 0.328169
O O7 0.344054 0.620591 0.423751
O O8 0.149217 0.468854 0.640862
O O9 0.279877 0.541167 0.541682
O O10 0.000000 0.500000 0.500000
O O11 0.140591 0.462433 0.233692
O O12 0.188411 0.337291 0.208770
O O13 0.973264 0.375251 0.313585
O O14 0.292495 0.163544 0.062002
O O15 0.901426 0.250000 0.335943
#
# Coordination Sequence:
#
# PCOD8251406 Si02
#       7
#     8   8   8   8   8   8   8
#     4  10  19  33  54  75 112 155 179 216 273 342
#     4  10  20  31  49  79 112 145 178 216 267 342
#     4  11  20  31  52  82 117 151 184 216 269 343
#     4  11  22  36  55  81 113 149 190 232 285 337
#     4  11  20  33  53  81 117 152 180 215 275 346
#     4  11  20  38  51  74 113 149 187 231 280 325
#     4  12  24  39  58  78 104 147 198 247 286 328
#
# _framework density 19.223858
#
# number of rings (size 3 to 8) (size 9 to 14) (size 15 to 20)
#    0.000    1.143    4.286    4.714    6.000    0.000 
#    0.000    0.714    0.000    0.000    0.000    1.000 
#    0.000    0.000    0.000    0.000    0.000    0.000 
#
# Total GULP energy -694087.151980 kJ/mol
# GULP energy per Si atom -12394.413428 kJ/mol
# Density = 1.918010 g / cm^3
# Si number density = 19.223858 Si / 1000 Ang^3
#
#
#
# Elastic Constant Matrix: (Units=GPa)
#
#
# Indices 1 2 3 4 5 6 
#
# 1 110.5576 15.0225 63.3653 0.0000 0.0000 0.0000
# 2 15.0225 30.7122 27.8944 0.0000 0.0000 0.0000
# 3 63.3653 27.8944 152.8517 0.0000 0.0000 0.0000
# 4 0.0000 0.0000 0.0000 14.4921 0.0000 0.0000
# 5 0.0000 0.0000 0.0000 0.0000 41.5254 0.0000
# 6 0.0000 0.0000 0.0000 0.0000 0.0000 13.0358
#
#
#
# Elastic Compliance Matrix: (Units=1/GPa)
#
#
# Indices 1 2 3 4 5 6 
#
# 1 0.011930 -0.001610 -0.004652 0.000000 0.000000 0.000000
# 2 -0.001610 0.039247 -0.006495 0.000000 0.000000 0.000000
# 3 -0.004652 -0.006495 0.009656 0.000000 0.000000 0.000000
# 4 0.000000 0.000000 0.000000 0.069003 0.000000 0.000000
# 5 0.000000 0.000000 0.000000 0.000000 0.024082 0.000000
# 6 0.000000 0.000000 0.000000 0.000000 0.000000 0.076712
#
#
# Mechanical properties :
#
#
# Convention : Reuss Voigt Hill
#
# Bulk Modulus (GPa) = 28.31332 56.29841 42.30586
# Shear Modulus (GPa) = 18.66255 26.33329 22.49792
#
# Velocity S-wave (km/s) = 3.11915 3.70513 3.42469
# Velocity P-wave (km/s) = 5.26615 6.90313 6.13944
#
# Compressibility (1/GPa) = 0.03531907
#
# Stress axis : x y z
#
# Youngs Moduli (GPa) = 83.82242 25.47974 103.56353
#
# Poissons Ratio (x) = 0.04103 0.48175
# Poissons Ratio (y) = 0.13499 0.67261
# Poissons Ratio (z) = 0.38992 0.16548
#
# Static dielectric constant tensor:
#      x y z
#    x 3.655630 0.000000 0.000000 
#    y 0.000000 2.837050 0.000000 
#    z 0.000000 0.000000 4.219960 
# 
# 
# High freq. dielectric constant tensor:
#      x y z
#    x 1.761700 0.000000 0.000000 
#    y 0.000000 1.652130 0.000000 
#    z 0.000000 0.000000 1.774850 
# 
# From -- ./inp_files/22505.got.cif
#   From: 2010.03.12/outbox.cif.g09.slc.cpg/sg62_12_cif.got.tgz:22505.got - 2010.04.10 19:12:36.
