data_PCOD8251795
_publ_section_title
;
Structure prediction by ZEFSAII (Michael W. Deem and Ramdas Pophale) SiO2 
 PCOD8251795
Probable space group: P N M A
;
_chemical_formula_sum "Si O2"
_cell_formula_units_Z 64
_cell_length_a 11.048430
_cell_length_b 8.881767
_cell_length_c 32.516972
_cell_angle_alpha 90.000000
_cell_angle_beta 90.000000
_cell_angle_gamma 90.000000
_cell_volume 3190.876837
_symmetry_space_group_name_H-M "P N M A"
_symmetry_group_IT_number 62
_symmetry_cell_setting 'orthorhombic'
loop_
_space_group_symop_operation_xyz
x,y,z
1/2-x,-y,1/2+z
1/2+x,1/2-y,1/2-z
-x,1/2+y,-z
-x,-y,-z
1/2+x,y,1/2-z
1/2-x,1/2+y,1/2+z
x,1/2-y,z
loop_
_atom_site_type_symbol
_atom_site_label
_atom_site_fract_x
_atom_site_fract_y
_atom_site_fract_z
Si Si1 0.884673 0.572757 0.022410
Si Si2 0.030204 0.413607 0.890792
Si Si3 0.082753 0.072767 0.385743
Si Si4 0.075214 0.571857 0.766650
Si Si5 0.237513 0.083463 0.826425
Si Si6 0.613322 0.928047 0.823352
Si Si7 0.122479 0.073031 0.169021
Si Si8 0.610855 0.929118 0.025769
O O1 0.894108 0.750000 0.015832
O O2 0.898567 0.522511 0.069818
O O3 0.746629 0.521913 0.009315
O O4 0.000000 0.500000 0.000000
O O5 0.974264 0.250000 0.901969
O O6 0.118993 0.395080 0.853148
O O7 0.924413 0.524485 0.876112
O O8 0.089667 0.250000 0.395914
O O9 0.956787 0.023316 0.364514
O O10 0.179131 0.032293 0.350918
O O11 0.098939 0.978324 0.427031
O O12 0.096508 0.750000 0.770432
O O13 0.197684 0.491936 0.783316
O O14 0.050916 0.520159 0.719557
O O15 0.960408 0.517922 0.793199
O O16 0.296510 0.250000 0.819408
O O17 0.622005 0.750000 0.822464
O O18 0.746250 0.000760 0.825070
O O19 0.130254 0.250000 0.168827
O O20 0.598977 0.750000 0.023343
O O21 0.500000 0.000000 0.000000
#
# Coordination Sequence:
#
# PCOD8251795 Si02
#       8
#     8   8   8   8   8   8   8   8
#     4  10  22  40  62  90 122 154 195 252 310 370
#     4   9  18  36  57  77 108 145 180 227 286 343
#     4  11  22  37  61  90 118 157 205 249 304 371
#     4   9  18  33  56  82 108 149 197 241 292 351
#     4  10  19  35  57  81 113 149 189 240 291 346
#     4   9  20  35  54  83 119 152 194 250 299 351
#     4   9  18  33  53  79 109 143 188 238 289 343
#     4  11  24  45  67  92 128 167 210 263 320 383
#
# _framework density 20.057182999999998
#
# number of rings (size 3 to 8) (size 9 to 14) (size 15 to 20)
#    0.000    2.250    1.250    1.125    1.750    3.000 
#    0.000    6.875    0.000    0.000    0.000    0.000 
#    0.000    0.000    0.000    0.000    0.000    0.000 
#
# Total GULP energy -792918.505503 kJ/mol
# GULP energy per Si atom -12389.351648 kJ/mol
# Density = 2.001153 g / cm^3
# Si number density = 20.057183 Si / 1000 Ang^3
#
#
#
# Elastic Constant Matrix: (Units=GPa)
#
#
# Indices 1 2 3 4 5 6 
#
# 1 144.9385 38.3512 54.3786 0.0000 0.0000 0.0000
# 2 38.3512 43.0398 20.9358 0.0000 0.0000 0.0000
# 3 54.3786 20.9358 70.9502 0.0000 0.0000 0.0000
# 4 0.0000 0.0000 0.0000 24.8934 0.0000 0.0000
# 5 0.0000 0.0000 0.0000 0.0000 28.5988 0.0000
# 6 0.0000 0.0000 0.0000 0.0000 0.0000 23.3182
#
#
#
# Elastic Compliance Matrix: (Units=1/GPa)
#
#
# Indices 1 2 3 4 5 6 
#
# 1 0.011140 -0.006741 -0.006549 0.000000 0.000000 0.000000
# 2 -0.006741 0.031207 -0.004042 0.000000 0.000000 0.000000
# 3 -0.006549 -0.004042 0.020307 0.000000 0.000000 0.000000
# 4 0.000000 0.000000 0.000000 0.040171 0.000000 0.000000
# 5 0.000000 0.000000 0.000000 0.000000 0.034966 0.000000
# 6 0.000000 0.000000 0.000000 0.000000 0.000000 0.042885
#
#
# Mechanical properties :
#
#
# Convention : Reuss Voigt Hill
#
# Bulk Modulus (GPa) = 35.72744 54.02884 44.87814
# Shear Modulus (GPa) = 22.25477 25.04629 23.65053
#
# Velocity S-wave (km/s) = 3.33463 3.53759 3.43761
# Velocity P-wave (km/s) = 5.71645 6.60923 6.17899
#
# Compressibility (1/GPa) = 0.02798969
#
# Stress axis : x y z
#
# Youngs Moduli (GPa) = 89.76400 32.04400 49.24508
#
# Poissons Ratio (x) = 0.21601 0.32252
# Poissons Ratio (y) = 0.60510 0.19905
# Poissons Ratio (z) = 0.58788 0.12952
#
# Static dielectric constant tensor:
#      x y z
#    x 4.144290 0.000000 0.000000 
#    y 0.000000 3.674130 0.000000 
#    z 0.000000 0.000000 3.736850 
# 
# 
# High freq. dielectric constant tensor:
#      x y z
#    x 1.784160 0.000000 0.000000 
#    y 0.000000 1.765710 0.000000 
#    z 0.000000 0.000000 1.780070 
# 
# From -- ./inp_files/32617.got.cif
#   From: 2010.03.12/outbox.cif.g09.slc.cpg/sg62_17_cif.got.tgz:32617.got - 2010.04.10 19:12:36.
