data_PCOD8251907
_publ_section_title
;
Structure prediction by ZEFSAII (Michael W. Deem and Ramdas Pophale) SiO2 
 PCOD8251907
Probable space group: P N M A
;
_chemical_formula_sum "Si O2"
_cell_formula_units_Z 56
_cell_length_a 9.697377
_cell_length_b 15.355524
_cell_length_c 19.339203
_cell_angle_alpha 90.000000
_cell_angle_beta 90.000000
_cell_angle_gamma 90.000000
_cell_volume 2879.767944
_symmetry_space_group_name_H-M "P N M A"
_symmetry_group_IT_number 62
_symmetry_cell_setting 'orthorhombic'
loop_
_space_group_symop_operation_xyz
x,y,z
1/2-x,-y,1/2+z
1/2+x,1/2-y,1/2-z
-x,1/2+y,-z
-x,-y,-z
1/2+x,y,1/2-z
1/2-x,1/2+y,1/2+z
x,1/2-y,z
loop_
_atom_site_type_symbol
_atom_site_label
_atom_site_fract_x
_atom_site_fract_y
_atom_site_fract_z
Si Si1 0.408339 0.562623 0.046511
Si Si2 0.363477 0.978833 0.391533
Si Si3 0.526572 0.351287 0.818625
Si Si4 0.334050 0.532289 0.622247
Si Si5 0.604370 0.152866 0.491698
Si Si6 0.776250 0.065280 0.750873
Si Si7 0.701282 0.653618 0.542758
O O1 0.501960 0.604299 0.106927
O O2 0.287505 0.505483 0.077282
O O3 0.500000 0.500000 0.000000
O O4 0.337281 0.640956 0.003934
O O5 0.323086 0.913795 0.454544
O O6 0.299682 0.948107 0.320581
O O7 0.528026 0.976266 0.388134
O O8 0.302561 0.075753 0.401740
O O9 0.496468 0.250000 0.824372
O O10 0.425210 0.392810 0.761874
O O11 0.684564 0.368036 0.796051
O O12 0.360248 0.627952 0.588912
O O13 0.295282 0.524898 0.704232
O O14 0.660937 0.250000 0.505657
O O15 0.439181 0.149240 0.502193
O O16 0.712407 0.750000 0.577674
#
# Coordination Sequence:
#
# PCOD8251907 Si02
#       7
#     8   8   8   8   8   8   8
#     4  11  21  37  58  83 121 160 198 251 310 363
#     4  11  19  39  62  90 123 156 203 257 307 375
#     4  11  24  39  58  87 123 161 208 255 304 377
#     4  10  20  40  57  84 120 158 201 245 304 368
#     4  10  20  35  64  93 118 155 203 260 308 363
#     4  11  23  40  61  84 121 171 202 248 321 370
#     4  10  19  35  61  91 118 153 202 252 311 368
#
# _framework density 19.446010999999999
#
# number of rings (size 3 to 8) (size 9 to 14) (size 15 to 20)
#    0.000    1.429    4.286    2.571    0.000    1.143 
#    0.000    1.429    0.000    0.000    0.000    0.000 
#    0.000    0.000    0.000    0.000    0.000    0.000 
#
# Total GULP energy -693957.214211 kJ/mol
# GULP energy per Si atom -12392.093111 kJ/mol
# Density = 1.940175 g / cm^3
# Si number density = 19.446011 Si / 1000 Ang^3
#
#
#
# Elastic Constant Matrix: (Units=GPa)
#
#
# Indices 1 2 3 4 5 6 
#
# 1 79.5057 28.3273 35.5446 0.0000 0.0000 0.0000
# 2 28.3273 126.1843 55.5719 0.0000 0.0000 0.0000
# 3 35.5446 55.5719 114.2493 0.0000 0.0000 0.0000
# 4 0.0000 0.0000 0.0000 15.5416 0.0000 0.0000
# 5 0.0000 0.0000 0.0000 0.0000 32.6309 0.0000
# 6 0.0000 0.0000 0.0000 0.0000 0.0000 19.0711
#
#
#
# Elastic Compliance Matrix: (Units=1/GPa)
#
#
# Indices 1 2 3 4 5 6 
#
# 1 0.014877 -0.001656 -0.003823 0.000000 0.000000 0.000000
# 2 -0.001656 0.010270 -0.004480 0.000000 0.000000 0.000000
# 3 -0.003823 -0.004480 0.012121 0.000000 0.000000 0.000000
# 4 0.000000 0.000000 0.000000 0.064343 0.000000 0.000000
# 5 0.000000 0.000000 0.000000 0.000000 0.030646 0.000000
# 6 0.000000 0.000000 0.000000 0.000000 0.000000 0.052435
#
#
# Mechanical properties :
#
#
# Convention : Reuss Voigt Hill
#
# Bulk Modulus (GPa) = 57.63754 62.09189 59.86471
# Shear Modulus (GPa) = 23.76497 26.81510 25.29003
#
# Velocity S-wave (km/s) = 3.49965 3.71745 3.61019
# Velocity P-wave (km/s) = 6.78485 7.10110 6.94478
#
# Compressibility (1/GPa) = 0.01734980
#
# Stress axis : x y z
#
# Youngs Moduli (GPa) = 67.21850 97.37361 82.49968
#
# Poissons Ratio (x) = 0.16126 0.31538
# Poissons Ratio (y) = 0.11132 0.36960
# Poissons Ratio (z) = 0.25697 0.43624
#
# Static dielectric constant tensor:
#      x y z
#    x 3.797500 0.000000 0.000000 
#    y 0.000000 3.532750 0.000000 
#    z 0.000000 0.000000 3.797980 
# 
# 
# High freq. dielectric constant tensor:
#      x y z
#    x 1.764360 0.000000 0.000000 
#    y 0.000000 1.738240 0.000000 
#    z 0.000000 0.000000 1.748780 
# 
# From -- ./inp_files/25982.got.cif
#   From: 2010.03.12/outbox.cif.g09.slc.cpg/sg62_13_cif.got.tgz:25982.got - 2010.04.10 19:12:36.
