data_PCOD8251988
_publ_section_title
;
Structure prediction by ZEFSAII (Michael W. Deem and Ramdas Pophale) SiO2 
 PCOD8251988
Probable space group: P N M A
;
_chemical_formula_sum "Si O2"
_cell_formula_units_Z 48
_cell_length_a 8.944763
_cell_length_b 8.542345
_cell_length_c 31.106166
_cell_angle_alpha 90.000000
_cell_angle_beta 90.000000
_cell_angle_gamma 90.000000
_cell_volume 2376.798861
_symmetry_space_group_name_H-M "P N M A"
_symmetry_group_IT_number 62
_symmetry_cell_setting 'orthorhombic'
loop_
_space_group_symop_operation_xyz
x,y,z
1/2-x,-y,1/2+z
1/2+x,1/2-y,1/2-z
-x,1/2+y,-z
-x,-y,-z
1/2+x,y,1/2-z
1/2-x,1/2+y,1/2+z
x,1/2-y,z
loop_
_atom_site_type_symbol
_atom_site_label
_atom_site_fract_x
_atom_site_fract_y
_atom_site_fract_z
Si Si1 0.929872 0.435935 0.205418
Si Si2 0.423144 0.066262 0.123662
Si Si3 0.413460 0.565437 0.791728
Si Si4 0.581361 0.435055 0.541450
Si Si5 0.081897 0.565935 0.458782
Si Si6 0.901458 0.433469 0.874930
O O1 0.950109 0.250000 0.198757
O O2 0.757844 0.486506 0.207993
O O3 0.008132 0.498097 0.248739
O O4 0.000238 0.530097 0.166426
O O5 0.451113 0.250000 0.118177
O O6 0.503429 0.998329 0.166267
O O7 0.490671 0.978150 0.083256
O O8 0.248367 0.033647 0.127319
O O9 0.430198 0.750000 0.791917
O O10 0.500000 0.500000 0.500000
O O11 0.584411 0.250000 0.538682
O O12 0.749918 0.502563 0.543770
O O13 0.493182 0.491129 0.583575
O O14 0.087208 0.750000 0.463243
O O15 0.000000 0.500000 0.500000
O O16 0.863728 0.250000 0.877285
#
# Coordination Sequence:
#
# PCOD8251988 Si02
#       6
#     8   8   8   8   8   8
#     4  10  19  36  60  85 112 148 190 234 280 335
#     4  11  22  38  60  87 116 152 193 237 287 341
#     4   9  19  35  59  87 115 147 190 237 283 334
#     4  10  23  40  59  82 113 149 188 232 282 336
#     4  11  23  40  60  86 117 151 190 237 287 342
#     4  11  23  39  57  83 116 151 188 233 284 338
#
# _framework density 20.195229999999999
#
# number of rings (size 3 to 8) (size 9 to 14) (size 15 to 20)
#    0.000    1.667    0.000    4.500    0.000    8.000 
#    0.000    5.000    0.000    0.000    0.000    0.000 
#    0.000    0.000    0.000    0.000    0.000    0.000 
#
# Total GULP energy -595419.123198 kJ/mol
# GULP energy per Si atom -12404.565067 kJ/mol
# Density = 2.014926 g / cm^3
# Si number density = 20.195230 Si / 1000 Ang^3
#
#
#
# Elastic Constant Matrix: (Units=GPa)
#
#
# Indices 1 2 3 4 5 6 
#
# 1 154.0082 11.0175 77.9821 0.0000 0.0000 0.0000
# 2 11.0175 27.8315 14.6423 0.0000 0.0000 0.0000
# 3 77.9821 14.6423 189.4097 0.0000 0.0000 0.0000
# 4 0.0000 0.0000 0.0000 33.2912 0.0000 0.0000
# 5 0.0000 0.0000 0.0000 0.0000 47.7187 0.0000
# 6 0.0000 0.0000 0.0000 0.0000 0.0000 28.4447
#
#
#
# Elastic Compliance Matrix: (Units=1/GPa)
#
#
# Indices 1 2 3 4 5 6 
#
# 1 0.008267 -0.001545 -0.003284 0.000000 0.000000 0.000000
# 2 -0.001545 0.037742 -0.002282 0.000000 0.000000 0.000000
# 3 -0.003284 -0.002282 0.006808 0.000000 0.000000 0.000000
# 4 0.000000 0.000000 0.000000 0.030038 0.000000 0.000000
# 5 0.000000 0.000000 0.000000 0.000000 0.020956 0.000000
# 6 0.000000 0.000000 0.000000 0.000000 0.000000 0.035156
#
#
# Mechanical properties :
#
#
# Convention : Reuss Voigt Hill
#
# Bulk Modulus (GPa) = 25.90932 64.28146 45.09539
# Shear Modulus (GPa) = 30.11082 39.73142 34.92112
#
# Velocity S-wave (km/s) = 3.86552 4.44031 4.16285
# Velocity P-wave (km/s) = 5.72540 7.62808 6.74418
#
# Compressibility (1/GPa) = 0.03859616
#
# Stress axis : x y z
#
# Youngs Moduli (GPa) = 120.96984 26.49538 146.88583
#
# Poissons Ratio (x) = 0.04093 0.48237
# Poissons Ratio (y) = 0.18686 0.33515
# Poissons Ratio (z) = 0.39727 0.06045
#
# Static dielectric constant tensor:
#      x y z
#    x 2.662310 0.000000 0.000000 
#    y 0.000000 3.409230 0.000000 
#    z 0.000000 0.000000 3.705190 
# 
# 
# High freq. dielectric constant tensor:
#      x y z
#    x 1.809270 0.000000 0.000000 
#    y 0.000000 1.768400 0.000000 
#    z 0.000000 0.000000 1.809660 
# 
# From -- ./inp_files/31968.got.cif
#   From: 2010.03.12/outbox.cif.g09.slc.cpg/sg62_16_cif.got.tgz:31968.got - 2010.04.10 19:12:36.
