data_PCOD8251649
_publ_section_title
;
Structure prediction by ZEFSAII (Michael W. Deem and Ramdas Pophale) SiO2 
 PCOD8251649
Probable space group: P N M A
;
_chemical_formula_sum "Si O2"
_cell_formula_units_Z 48
_cell_length_a 16.117028
_cell_length_b 16.320248
_cell_length_c 8.995037
_cell_angle_alpha 90.000000
_cell_angle_beta 90.000000
_cell_angle_gamma 90.000000
_cell_volume 2365.999609
_symmetry_space_group_name_H-M "P N M A"
_symmetry_group_IT_number 62
_symmetry_cell_setting 'orthorhombic'
loop_
_space_group_symop_operation_xyz
x,y,z
1/2-x,-y,1/2+z
1/2+x,1/2-y,1/2-z
-x,1/2+y,-z
-x,-y,-z
1/2+x,y,1/2-z
1/2-x,1/2+y,1/2+z
x,1/2-y,z
loop_
_atom_site_type_symbol
_atom_site_label
_atom_site_fract_x
_atom_site_fract_y
_atom_site_fract_z
Si Si1 0.289412 0.093359 0.644425
Si Si2 0.031476 0.089435 0.541411
Si Si3 0.863022 0.342406 0.585725
Si Si4 0.125175 0.152432 0.806174
Si Si5 0.692948 0.157720 0.104990
Si Si6 0.289988 0.906116 0.582300
O O1 0.366390 0.131014 0.738359
O O2 0.210471 0.131593 0.726281
O O3 0.276743 0.121406 0.473339
O O4 0.298905 0.996181 0.649834
O O5 0.054941 0.102429 0.715589
O O6 0.109318 0.108964 0.436591
O O7 0.953521 0.149343 0.512244
O O8 0.000000 0.000000 0.500000
O O9 0.831101 0.250000 0.569670
O O10 0.798239 0.400745 0.500406
O O11 0.107166 0.250000 0.805721
O O12 0.133140 0.117772 0.974173
O O13 0.679912 0.250000 0.050438
O O14 0.707889 0.156032 0.280261
#
# Coordination Sequence:
#
# PCOD8251649 Si02
#       6
#     8   8   8   8   8   8
#     4  10  19  34  56  82 110 145 189 233 274 327
#     4  11  22  38  59  83 111 147 191 238 284 336
#     4  11  21  37  58  83 111 148 191 236 281 335
#     4  10  20  38  58  80 113 157 190 221 281 359
#     4  11  21  37  58  84 115 152 188 230 284 343
#     4  11  21  36  59  86 114 147 188 236 284 338
#
# _framework density 20.287407000000002
#
# number of rings (size 3 to 8) (size 9 to 14) (size 15 to 20)
#    0.000    1.333    0.000   11.500    0.000    0.000 
#    0.000    5.000    0.000    0.000    0.000    0.000 
#    0.000    0.000    0.000    0.000    0.000    0.000 
#
# Total GULP energy -594912.337787 kJ/mol
# GULP energy per Si atom -12394.007037 kJ/mol
# Density = 2.024123 g / cm^3
# Si number density = 20.287407 Si / 1000 Ang^3
#
#
#
# Elastic Constant Matrix: (Units=GPa)
#
#
# Indices 1 2 3 4 5 6 
#
# 1 65.1522 11.8389 27.6196 0.0000 0.0000 0.0000
# 2 11.8389 115.4750 19.5340 0.0000 0.0000 0.0000
# 3 27.6196 19.5340 109.2425 0.0000 0.0000 0.0000
# 4 0.0000 0.0000 0.0000 34.5354 0.0000 0.0000
# 5 0.0000 0.0000 0.0000 0.0000 23.2395 0.0000
# 6 0.0000 0.0000 0.0000 0.0000 0.0000 32.4350
#
#
#
# Elastic Compliance Matrix: (Units=1/GPa)
#
#
# Indices 1 2 3 4 5 6 
#
# 1 0.017318 -0.001067 -0.004188 0.000000 0.000000 0.000000
# 2 -0.001067 0.008996 -0.001339 0.000000 0.000000 0.000000
# 3 -0.004188 -0.001339 0.010452 0.000000 0.000000 0.000000
# 4 0.000000 0.000000 0.000000 0.028956 0.000000 0.000000
# 5 0.000000 0.000000 0.000000 0.000000 0.043030 0.000000
# 6 0.000000 0.000000 0.000000 0.000000 0.000000 0.030831
#
#
# Mechanical properties :
#
#
# Convention : Reuss Voigt Hill
#
# Bulk Modulus (GPa) = 42.41121 45.31721 43.86421
# Shear Modulus (GPa) = 31.12762 33.43380 32.28071
#
# Velocity S-wave (km/s) = 3.92130 4.06397 3.99327
# Velocity P-wave (km/s) = 6.43838 6.66388 6.55210
#
# Compressibility (1/GPa) = 0.02357867
#
# Stress axis : x y z
#
# Youngs Moduli (GPa) = 57.74398 111.16358 95.67468
#
# Poissons Ratio (x) = 0.11862 0.40065
# Poissons Ratio (y) = 0.06162 0.12809
# Poissons Ratio (z) = 0.24181 0.14882
#
# Static dielectric constant tensor:
#      x y z
#    x 3.752590 0.000000 0.000000 
#    y 0.000000 3.694010 0.000000 
#    z 0.000000 0.000000 4.170030 
# 
# 
# High freq. dielectric constant tensor:
#      x y z
#    x 1.767770 0.000000 0.000000 
#    y 0.000000 1.806020 0.000000 
#    z 0.000000 0.000000 1.795050 
# 
# From -- ./inp_files/7634.got.cif
#   From: 2010.03.12/outbox.cif.g09.slc.cpg/sg62_4_cif.got.tgz:7634.got - 2010.04.10 19:12:36.
