data_PCOD8251912
_publ_section_title
;
Structure prediction by ZEFSAII (Michael W. Deem and Ramdas Pophale) SiO2 
 PCOD8251912
Probable space group: P N M A
;
_chemical_formula_sum "Si O2"
_cell_formula_units_Z 48
_cell_length_a 14.990597
_cell_length_b 8.634007
_cell_length_c 18.802328
_cell_angle_alpha 90.000000
_cell_angle_beta 90.000000
_cell_angle_gamma 90.000000
_cell_volume 2433.564996
_symmetry_space_group_name_H-M "P N M A"
_symmetry_group_IT_number 62
_symmetry_cell_setting 'orthorhombic'
loop_
_space_group_symop_operation_xyz
x,y,z
1/2-x,-y,1/2+z
1/2+x,1/2-y,1/2-z
-x,1/2+y,-z
-x,-y,-z
1/2+x,y,1/2-z
1/2-x,1/2+y,1/2+z
x,1/2-y,z
loop_
_atom_site_type_symbol
_atom_site_label
_atom_site_fract_x
_atom_site_fract_y
_atom_site_fract_z
Si Si1 0.506238 0.065577 0.284283
Si Si2 0.363441 0.068534 0.173851
Si Si3 0.301518 0.568403 0.765703
Si Si4 0.904403 0.066122 0.481507
Si Si5 0.251309 0.567703 0.414524
Si Si6 0.058317 0.933444 0.936660
O O1 0.503342 0.250000 0.285626
O O2 0.434818 0.995861 0.228730
O O3 0.602730 0.006428 0.259269
O O4 0.482736 0.002621 0.362629
O O5 0.381244 0.250000 0.170616
O O6 0.264061 0.032293 0.200306
O O7 0.375979 0.998429 0.095404
O O8 0.302340 0.750000 0.784996
O O9 0.267526 0.475754 0.833533
O O10 0.909622 0.250000 0.480990
O O11 0.831804 0.008224 0.538465
O O12 0.000000 0.000000 0.500000
O O13 0.264504 0.750000 0.421996
O O14 0.339797 0.486679 0.444076
O O15 0.054632 0.750000 0.939343
O O16 0.000000 0.000000 0.000000
#
# Coordination Sequence:
#
# PCOD8251912 Si02
#       6
#     8   8   8   8   8   8
#     4   9  18  33  59  87 108 141 194 245 286 342
#     4   9  17  33  56  84 109 141 193 240 280 339
#     4  10  19  35  62  85 108 149 198 243 287 346
#     4  10  22  38  60  87 118 154 196 243 295 354
#     4  11  23  39  59  89 126 158 190 243 307 361
#     4  11  23  40  61  87 119 160 207 251 298 357
#
# _framework density 19.724150000000002
#
# number of rings (size 3 to 8) (size 9 to 14) (size 15 to 20)
#    0.000    2.000    1.667    2.000    2.333    2.667 
#    0.000    2.500    0.000    0.000    0.000    0.000 
#    0.000    0.000    0.000    0.000    0.000    0.000 
#
# Total GULP energy -595276.624674 kJ/mol
# GULP energy per Si atom -12401.596347 kJ/mol
# Density = 1.967926 g / cm^3
# Si number density = 19.724150 Si / 1000 Ang^3
#
#
#
# Elastic Constant Matrix: (Units=GPa)
#
#
# Indices 1 2 3 4 5 6 
#
# 1 142.8767 23.8871 42.5730 0.0000 0.0000 0.0000
# 2 23.8871 36.2812 22.3698 0.0000 0.0000 0.0000
# 3 42.5730 22.3698 124.6800 0.0000 0.0000 0.0000
# 4 0.0000 0.0000 0.0000 26.4041 0.0000 0.0000
# 5 0.0000 0.0000 0.0000 0.0000 43.5579 0.0000
# 6 0.0000 0.0000 0.0000 0.0000 0.0000 25.8067
#
#
#
# Elastic Compliance Matrix: (Units=1/GPa)
#
#
# Indices 1 2 3 4 5 6 
#
# 1 0.008322 -0.004191 -0.002090 0.000000 0.000000 0.000000
# 2 -0.004191 0.033101 -0.004508 0.000000 0.000000 0.000000
# 3 -0.002090 -0.004508 0.009543 0.000000 0.000000 0.000000
# 4 0.000000 0.000000 0.000000 0.037873 0.000000 0.000000
# 5 0.000000 0.000000 0.000000 0.000000 0.022958 0.000000
# 6 0.000000 0.000000 0.000000 0.000000 0.000000 0.038750
#
#
# Mechanical properties :
#
#
# Convention : Reuss Voigt Hill
#
# Bulk Modulus (GPa) = 34.02608 53.49975 43.76291
# Shear Modulus (GPa) = 27.48454 33.48761 30.48608
#
# Velocity S-wave (km/s) = 3.73694 4.12490 3.93570
# Velocity P-wave (km/s) = 5.99233 7.06182 6.54894
#
# Compressibility (1/GPa) = 0.02938922
#
# Stress axis : x y z
#
# Youngs Moduli (GPa) = 120.15755 30.21048 104.78957
#
# Poissons Ratio (x) = 0.12661 0.21899
# Poissons Ratio (y) = 0.50356 0.47238
# Poissons Ratio (z) = 0.25111 0.13619
#
# Static dielectric constant tensor:
#      x y z
#    x 3.577450 0.000000 0.000000 
#    y 0.000000 3.279840 0.000000 
#    z 0.000000 0.000000 3.889630 
# 
# 
# High freq. dielectric constant tensor:
#      x y z
#    x 1.787460 0.000000 0.000000 
#    y 0.000000 1.730100 0.000000 
#    z 0.000000 0.000000 1.783530 
# 
# From -- ./inp_files/23698.got.cif
#   From: 2010.03.12/outbox.cif.g09.slc.cpg/sg62_12_cif.got.tgz:23698.got - 2010.04.10 19:12:36.
