data_PCOD8251424
_publ_section_title
;
Structure prediction by ZEFSAII (Michael W. Deem and Ramdas Pophale) SiO2 
 PCOD8251424
Probable space group: P N M A
;
_chemical_formula_sum "Si O2"
_cell_formula_units_Z 64
_cell_length_a 18.286627
_cell_length_b 13.765182
_cell_length_c 13.335782
_cell_angle_alpha 90.000000
_cell_angle_beta 90.000000
_cell_angle_gamma 90.000000
_cell_volume 3356.866360
_symmetry_space_group_name_H-M "P N M A"
_symmetry_group_IT_number 62
_symmetry_cell_setting 'orthorhombic'
loop_
_space_group_symop_operation_xyz
x,y,z
1/2-x,-y,1/2+z
1/2+x,1/2-y,1/2-z
-x,1/2+y,-z
-x,-y,-z
1/2+x,y,1/2-z
1/2-x,1/2+y,1/2+z
x,1/2-y,z
loop_
_atom_site_type_symbol
_atom_site_label
_atom_site_fract_x
_atom_site_fract_y
_atom_site_fract_z
Si Si1 0.395133 0.029578 0.715560
Si Si2 0.297515 0.860898 0.492936
Si Si3 0.498804 0.864178 0.020117
Si Si4 0.029397 0.977322 0.664189
Si Si5 0.291058 0.642207 0.724690
Si Si6 0.366586 0.363144 0.301758
Si Si7 0.414280 0.019663 0.491187
Si Si8 0.153970 0.638160 0.394480
O O1 0.479631 0.011471 0.742665
O O2 0.354061 0.932615 0.751958
O O3 0.386399 0.056995 0.599458
O O4 0.359837 0.117820 0.777402
O O5 0.314761 0.750000 0.461540
O O6 0.271940 0.867249 0.607709
O O7 0.371158 0.920164 0.466944
O O8 0.229820 0.909653 0.432021
O O9 0.482196 0.750000 0.033284
O O10 0.583049 0.894928 0.042879
O O11 0.449260 0.926469 0.098423
O O12 0.485660 0.900156 0.906566
O O13 0.099687 0.925860 0.711181
O O14 0.321196 0.750000 0.747904
O O15 0.220075 0.622090 0.792861
O O16 0.388332 0.250000 0.289054
O O17 0.395952 0.398663 0.409421
O O18 0.500000 0.000000 0.500000
O O19 0.165782 0.750000 0.413312
#
# Coordination Sequence:
#
# PCOD8251424 Si02
#       8
#     8   8   8   8   8   8   8   8
#     4  10  20  35  54  76 107 144 179 225 270 324
#     4   9  18  34  57  80 104 136 179 230 278 332
#     4   9  18  32  53  83 113 138 172 225 283 338
#     4  10  19  33  54  79 109 142 181 222 276 337
#     4   9  19  34  54  80 104 132 176 228 279 326
#     4  11  22  36  56  79 108 147 190 234 277 325
#     4  11  22  37  50  75 114 147 190 227 266 324
#     4   9  17  32  55  79 102 134 177 219 273 330
#
# _framework density 19.0654
#
# number of rings (size 3 to 8) (size 9 to 14) (size 15 to 20)
#    0.000    2.250    1.250    1.875    0.000    4.000 
#    0.000    0.625    0.000    0.750    0.000    0.000 
#    0.000    0.000    0.000    0.000    0.000    0.000 
#
# Total GULP energy -793311.289635 kJ/mol
# GULP energy per Si atom -12395.488901 kJ/mol
# Density = 1.902201 g / cm^3
# Si number density = 19.065400 Si / 1000 Ang^3
#
#
#
# Elastic Constant Matrix: (Units=GPa)
#
#
# Indices 1 2 3 4 5 6 
#
# 1 55.0441 10.4862 8.4444 0.0000 0.0000 0.0000
# 2 10.4862 70.2627 21.9358 0.0000 0.0000 0.0000
# 3 8.4444 21.9358 73.0806 0.0000 0.0000 0.0000
# 4 0.0000 0.0000 0.0000 31.1828 0.0000 0.0000
# 5 0.0000 0.0000 0.0000 0.0000 26.4986 0.0000
# 6 0.0000 0.0000 0.0000 0.0000 0.0000 28.7579
#
#
#
# Elastic Compliance Matrix: (Units=1/GPa)
#
#
# Indices 1 2 3 4 5 6 
#
# 1 0.018841 -0.002353 -0.001471 0.000000 0.000000 0.000000
# 2 -0.002353 0.015998 -0.004530 0.000000 0.000000 0.000000
# 3 -0.001471 -0.004530 0.015213 0.000000 0.000000 0.000000
# 4 0.000000 0.000000 0.000000 0.032069 0.000000 0.000000
# 5 0.000000 0.000000 0.000000 0.000000 0.037738 0.000000
# 6 0.000000 0.000000 0.000000 0.000000 0.000000 0.034773
#
#
# Mechanical properties :
#
#
# Convention : Reuss Voigt Hill
#
# Bulk Modulus (GPa) = 29.98966 31.12447 30.55706
# Shear Modulus (GPa) = 27.40418 27.78926 27.59672
#
# Velocity S-wave (km/s) = 3.79539 3.82196 3.80870
# Velocity P-wave (km/s) = 5.91360 5.98641 5.95012
#
# Compressibility (1/GPa) = 0.03334483
#
# Stress axis : x y z
#
# Youngs Moduli (GPa) = 53.07545 62.50902 65.73241
#
# Poissons Ratio (x) = 0.14706 0.09668
# Poissons Ratio (y) = 0.12487 0.29777
# Poissons Ratio (z) = 0.07807 0.28317
#
# Static dielectric constant tensor:
#      x y z
#    x 3.419770 0.000000 0.000000 
#    y 0.000000 3.482960 0.000000 
#    z 0.000000 0.000000 3.527870 
# 
# 
# High freq. dielectric constant tensor:
#      x y z
#    x 1.728690 0.000000 0.000000 
#    y 0.000000 1.735300 0.000000 
#    z 0.000000 0.000000 1.743220 
# 
# From -- ./inp_files/14331.got.cif
#   From: 2010.03.12/outbox.cif.g09.slc.cpg/sg62_8_cif.got.tgz:14331.got - 2010.04.10 19:12:36.
