data_PCOD8251750
_publ_section_title
;
Structure prediction by ZEFSAII (Michael W. Deem and Ramdas Pophale) SiO2 
 PCOD8251750
Probable space group: P N M A
;
_chemical_formula_sum "Si O2"
_cell_formula_units_Z 64
_cell_length_a 9.685591
_cell_length_b 17.395981
_cell_length_c 19.295103
_cell_angle_alpha 90.000000
_cell_angle_beta 90.000000
_cell_angle_gamma 90.000000
_cell_volume 3251.038793
_symmetry_space_group_name_H-M "P N M A"
_symmetry_group_IT_number 62
_symmetry_cell_setting 'orthorhombic'
loop_
_space_group_symop_operation_xyz
x,y,z
1/2-x,-y,1/2+z
1/2+x,1/2-y,1/2-z
-x,1/2+y,-z
-x,-y,-z
1/2+x,y,1/2-z
1/2-x,1/2+y,1/2+z
x,1/2-y,z
loop_
_atom_site_type_symbol
_atom_site_label
_atom_site_fract_x
_atom_site_fract_y
_atom_site_fract_z
Si Si1 0.225296 0.119169 0.779414
Si Si2 0.298868 0.452704 0.233683
Si Si3 0.571948 0.659041 0.529903
Si Si4 0.448721 0.986258 0.102421
Si Si5 0.025805 0.078431 0.161603
Si Si6 0.569506 0.428166 0.594601
Si Si7 0.994559 0.665993 0.329682
Si Si8 0.710441 0.038740 0.028520
O O1 0.139294 0.129752 0.850507
O O2 0.369495 0.163814 0.781775
O O3 0.141525 0.153635 0.715772
O O4 0.259410 0.028935 0.770591
O O5 0.404600 0.475211 0.173474
O O6 0.390443 0.405928 0.289995
O O7 0.167389 0.405331 0.204439
O O8 0.581142 0.750000 0.523058
O O9 0.478821 0.636499 0.596513
O O10 0.514237 0.623329 0.458998
O O11 0.724783 0.623349 0.538776
O O12 0.505828 0.899423 0.112030
O O13 0.569337 0.038871 0.071605
O O14 0.318614 0.981455 0.051392
O O15 0.028007 0.989560 0.135112
O O16 0.683757 0.474732 0.552964
O O17 0.984427 0.750000 0.365036
#
# Coordination Sequence:
#
# PCOD8251750 Si02
#       8
#     8   8   8   8   8   8   8   8
#     4  10  20  35  56  85 113 154 192 229 289 347
#     4  10  19  34  62  88 114 146 197 252 291 339
#     4  11  24  39  58  85 122 159 199 245 301 362
#     4  10  20  35  59  87 115 150 198 244 298 342
#     4  10  21  36  63  91 116 150 198 245 295 353
#     4  10  19  37  62  83 115 148 198 240 289 349
#     4  11  22  35  51  81 125 157 188 232 284 355
#     4  10  20  37  62  85 112 151 198 250 287 349
#
# _framework density 19.686017
#
# number of rings (size 3 to 8) (size 9 to 14) (size 15 to 20)
#    0.000    1.750    1.250    5.625    3.500    2.500 
#    0.000    0.625    0.000    0.750    0.000    0.000 
#    0.000    0.000    0.000    0.000    0.000    0.000 
#
# Total GULP energy -793620.939196 kJ/mol
# GULP energy per Si atom -12400.327175 kJ/mol
# Density = 1.964121 g / cm^3
# Si number density = 19.686017 Si / 1000 Ang^3
#
#
#
# Elastic Constant Matrix: (Units=GPa)
#
#
# Indices 1 2 3 4 5 6 
#
# 1 82.4054 20.3690 21.4871 0.0000 0.0000 0.0000
# 2 20.3690 66.0832 19.5315 0.0000 0.0000 0.0000
# 3 21.4871 19.5315 85.1874 0.0000 0.0000 0.0000
# 4 0.0000 0.0000 0.0000 16.0196 0.0000 0.0000
# 5 0.0000 0.0000 0.0000 0.0000 33.4667 0.0000
# 6 0.0000 0.0000 0.0000 0.0000 0.0000 13.4819
#
#
#
# Elastic Compliance Matrix: (Units=1/GPa)
#
#
# Indices 1 2 3 4 5 6 
#
# 1 0.013677 -0.003428 -0.002664 0.000000 0.000000 0.000000
# 2 -0.003428 0.017092 -0.003054 0.000000 0.000000 0.000000
# 3 -0.002664 -0.003054 0.013111 0.000000 0.000000 0.000000
# 4 0.000000 0.000000 0.000000 0.062424 0.000000 0.000000
# 5 0.000000 0.000000 0.000000 0.000000 0.029880 0.000000
# 6 0.000000 0.000000 0.000000 0.000000 0.000000 0.074173
#
#
# Mechanical properties :
#
#
# Convention : Reuss Voigt Hill
#
# Bulk Modulus (GPa) = 39.08159 39.60569 39.34364
# Shear Modulus (GPa) = 21.08114 24.07955 22.58034
#
# Velocity S-wave (km/s) = 3.27596 3.50119 3.39045
# Velocity P-wave (km/s) = 5.84849 6.04209 5.94608
#
# Compressibility (1/GPa) = 0.02558749
#
# Stress axis : x y z
#
# Youngs Moduli (GPa) = 73.11468 58.50752 76.27234
#
# Poissons Ratio (x) = 0.20059 0.20317
# Poissons Ratio (y) = 0.25067 0.23293
# Poissons Ratio (z) = 0.19476 0.17868
#
# Static dielectric constant tensor:
#      x y z
#    x 3.650180 0.000000 0.000000 
#    y 0.000000 3.293790 0.000000 
#    z 0.000000 0.000000 3.814050 
# 
# 
# High freq. dielectric constant tensor:
#      x y z
#    x 1.777890 0.000000 0.000000 
#    y 0.000000 1.718790 0.000000 
#    z 0.000000 0.000000 1.779490 
# 
# From -- ./inp_files/26167.got.cif
#   From: 2010.03.12/outbox.cif.g09.slc.cpg/sg62_14_cif.got.tgz:26167.got - 2010.04.10 19:12:36.
