data_PCOD8251739
_publ_section_title
;
Structure prediction by ZEFSAII (Michael W. Deem and Ramdas Pophale) SiO2 
 PCOD8251739
Probable space group: P N M A
;
_chemical_formula_sum "Si O2"
_cell_formula_units_Z 64
_cell_length_a 12.588234
_cell_length_b 17.976191
_cell_length_c 14.721618
_cell_angle_alpha 90.000000
_cell_angle_beta 90.000000
_cell_angle_gamma 90.000000
_cell_volume 3331.332836
_symmetry_space_group_name_H-M "P N M A"
_symmetry_group_IT_number 62
_symmetry_cell_setting 'orthorhombic'
loop_
_space_group_symop_operation_xyz
x,y,z
1/2-x,-y,1/2+z
1/2+x,1/2-y,1/2-z
-x,1/2+y,-z
-x,-y,-z
1/2+x,y,1/2-z
1/2-x,1/2+y,1/2+z
x,1/2-y,z
loop_
_atom_site_type_symbol
_atom_site_label
_atom_site_fract_x
_atom_site_fract_y
_atom_site_fract_z
Si Si1 0.136866 0.556656 0.536744
Si Si2 0.098712 0.091506 0.443587
Si Si3 0.383850 0.913282 0.737781
Si Si4 0.046567 0.605598 0.019764
Si Si5 0.711954 0.469610 0.793093
Si Si6 0.442358 0.005886 0.356515
Si Si7 0.744754 0.332962 0.913875
Si Si8 0.828099 0.835830 0.937626
O O1 0.136479 0.493996 0.457911
O O2 0.143757 0.514510 0.632766
O O3 0.234671 0.613125 0.520182
O O4 0.026262 0.601301 0.534605
O O5 0.122522 0.116065 0.340237
O O6 0.161210 0.147633 0.507740
O O7 0.337470 0.850049 0.670605
O O8 0.322176 0.990150 0.724349
O O9 0.503814 0.933835 0.710397
O O10 0.136027 0.664920 0.045527
O O11 0.024214 0.556527 0.108977
O O12 0.099610 0.551210 0.944292
O O13 0.939059 0.644345 0.985624
O O14 0.651452 0.465615 0.697273
O O15 0.732543 0.386216 0.827209
O O16 0.721916 0.250000 0.879494
O O17 0.799771 0.750000 0.954569
#
# Coordination Sequence:
#
# PCOD8251739 Si02
#       8
#     8   8   8   8   8   8   8   8
#     4   9  20  36  58  85 112 148 190 240 289 336
#     4  10  20  36  60  86 110 147 198 241 288 346
#     4  10  19  34  60  85 108 141 191 245 289 335
#     4  10  21  37  60  87 113 153 195 242 288 338
#     4  10  19  35  58  85 111 142 191 243 282 339
#     4  10  19  34  61  88 106 142 197 245 284 324
#     4  11  23  38  55  82 122 157 186 233 294 357
#     4  10  22  38  56  83 121 154 187 235 296 357
#
# _framework density 19.21153
#
# number of rings (size 3 to 8) (size 9 to 14) (size 15 to 20)
#    0.000    2.000    2.500    1.125    7.000    1.000 
#    0.000    1.250    0.000    0.000    0.000    0.000 
#    0.000    0.000    0.000    0.000    0.000    0.000 
#
# Total GULP energy -793554.020427 kJ/mol
# GULP energy per Si atom -12399.281569 kJ/mol
# Density = 1.916780 g / cm^3
# Si number density = 19.211530 Si / 1000 Ang^3
#
#
#
# Elastic Constant Matrix: (Units=GPa)
#
#
# Indices 1 2 3 4 5 6 
#
# 1 100.7814 44.2271 25.2713 0.0000 0.0000 0.0000
# 2 44.2271 105.2967 19.7200 0.0000 0.0000 0.0000
# 3 25.2713 19.7200 66.8021 0.0000 0.0000 0.0000
# 4 0.0000 0.0000 0.0000 14.5194 0.0000 0.0000
# 5 0.0000 0.0000 0.0000 0.0000 25.3200 0.0000
# 6 0.0000 0.0000 0.0000 0.0000 0.0000 17.7187
#
#
#
# Elastic Compliance Matrix: (Units=1/GPa)
#
#
# Indices 1 2 3 4 5 6 
#
# 1 0.012881 -0.004761 -0.003468 0.000000 0.000000 0.000000
# 2 -0.004761 0.011812 -0.001686 0.000000 0.000000 0.000000
# 3 -0.003468 -0.001686 0.016779 0.000000 0.000000 0.000000
# 4 0.000000 0.000000 0.000000 0.068874 0.000000 0.000000
# 5 0.000000 0.000000 0.000000 0.000000 0.039494 0.000000
# 6 0.000000 0.000000 0.000000 0.000000 0.000000 0.056437
#
#
# Mechanical properties :
#
#
# Convention : Reuss Voigt Hill
#
# Bulk Modulus (GPa) = 46.20266 50.14631 48.17449
# Shear Modulus (GPa) = 21.42962 23.75575 22.59268
#
# Velocity S-wave (km/s) = 3.34347 3.52026 3.43300
# Velocity P-wave (km/s) = 6.24553 6.53313 6.39095
#
# Compressibility (1/GPa) = 0.02164377
#
# Stress axis : x y z
#
# Youngs Moduli (GPa) = 77.63184 84.65635 59.59813
#
# Poissons Ratio (x) = 0.40305 0.20666
# Poissons Ratio (y) = 0.36961 0.10048
# Poissons Ratio (z) = 0.26919 0.14272
#
# Static dielectric constant tensor:
#      x y z
#    x 3.512060 0.000000 0.000000 
#    y 0.000000 3.190740 0.000000 
#    z 0.000000 0.000000 3.523890 
# 
# 
# High freq. dielectric constant tensor:
#      x y z
#    x 1.756540 0.000000 0.000000 
#    y 0.000000 1.716400 0.000000 
#    z 0.000000 0.000000 1.743720 
# 
# From -- ./inp_files/18261.got.cif
#   From: 2010.03.12/outbox.cif.g09.slc.cpg/sg62_10_cif.got.tgz:18261.got - 2010.04.10 19:12:36.
