data_PCOD8251951
_publ_section_title
;
Structure prediction by ZEFSAII (Michael W. Deem and Ramdas Pophale) SiO2 
 PCOD8251951
Probable space group: P N M A
;
_chemical_formula_sum "Si O2"
_cell_formula_units_Z 48
_cell_length_a 10.030482
_cell_length_b 8.646774
_cell_length_c 27.039318
_cell_angle_alpha 90.000000
_cell_angle_beta 90.000000
_cell_angle_gamma 90.000000
_cell_volume 2345.155498
_symmetry_space_group_name_H-M "P N M A"
_symmetry_group_IT_number 62
_symmetry_cell_setting 'orthorhombic'
loop_
_space_group_symop_operation_xyz
x,y,z
1/2-x,-y,1/2+z
1/2+x,1/2-y,1/2-z
-x,1/2+y,-z
-x,-y,-z
1/2+x,y,1/2-z
1/2-x,1/2+y,1/2+z
x,1/2-y,z
loop_
_atom_site_type_symbol
_atom_site_label
_atom_site_fract_x
_atom_site_fract_y
_atom_site_fract_z
Si Si1 0.970420 0.433957 0.884206
Si Si2 0.976845 0.570710 0.392689
Si Si3 0.600303 0.568762 0.791755
Si Si4 0.759339 0.072105 0.963668
Si Si5 0.380107 0.066671 0.722804
Si Si6 0.741924 0.432502 0.570181
O O1 0.964682 0.250000 0.883545
O O2 0.117168 0.496439 0.898250
O O3 0.865884 0.496003 0.924667
O O4 0.930522 0.496460 0.830271
O O5 0.980866 0.750000 0.375852
O O6 0.122587 0.502602 0.405575
O O7 0.911962 0.470862 0.349432
O O8 0.888234 0.551625 0.441716
O O9 0.619941 0.750000 0.784631
O O10 0.727266 0.481448 0.768577
O O11 0.467131 0.512273 0.764999
O O12 0.790409 0.250000 0.975572
O O13 0.772931 0.977405 0.013499
O O14 0.392934 0.250000 0.727404
O O15 0.746392 0.250000 0.572711
#
# Coordination Sequence:
#
# PCOD8251951 Si02
#       6
#     8   8   8   8   8   8
#     4   9  19  37  60  87 118 154 204 253 291 359
#     4  10  21  39  61  85 120 165 210 249 299 377
#     4  12  26  43  64  97 131 157 201 268 325 365
#     4  10  19  36  58  83 119 161 206 253 302 362
#     4  11  23  44  70  92 121 169 214 249 307 385
#     4  10  21  35  57  90 120 155 205 254 302 364
#
# _framework density 20.467727
#
# number of rings (size 3 to 8) (size 9 to 14) (size 15 to 20)
#    0.000    1.667    1.667    3.000    2.333    1.333 
#    0.000    1.667    0.000    0.000    0.000    0.000 
#    0.000    0.000    0.000    0.000    0.000    0.000 
#
# Total GULP energy -595400.338473 kJ/mol
# GULP energy per Si atom -12404.173718 kJ/mol
# Density = 2.042114 g / cm^3
# Si number density = 20.467727 Si / 1000 Ang^3
#
#
#
# Elastic Constant Matrix: (Units=GPa)
#
#
# Indices 1 2 3 4 5 6 
#
# 1 100.7813 9.6257 1.6577 0.0000 0.0000 0.0000
# 2 9.6257 39.2583 15.5491 0.0000 0.0000 0.0000
# 3 1.6577 15.5491 57.4826 0.0000 0.0000 0.0000
# 4 0.0000 0.0000 0.0000 34.1093 0.0000 0.0000
# 5 0.0000 0.0000 0.0000 0.0000 39.2409 0.0000
# 6 0.0000 0.0000 0.0000 0.0000 0.0000 21.6943
#
#
#
# Elastic Compliance Matrix: (Units=1/GPa)
#
#
# Indices 1 2 3 4 5 6 
#
# 1 0.010170 -0.002663 0.000427 0.000000 0.000000 0.000000
# 2 -0.002663 0.029226 -0.007829 0.000000 0.000000 0.000000
# 3 0.000427 -0.007829 0.019502 0.000000 0.000000 0.000000
# 4 0.000000 0.000000 0.000000 0.029318 0.000000 0.000000
# 5 0.000000 0.000000 0.000000 0.000000 0.025484 0.000000
# 6 0.000000 0.000000 0.000000 0.000000 0.000000 0.046095
#
#
# Mechanical properties :
#
#
# Convention : Reuss Voigt Hill
#
# Bulk Modulus (GPa) = 25.79405 27.90970 26.85187
# Shear Modulus (GPa) = 25.92745 30.38822 28.15783
#
# Velocity S-wave (km/s) = 3.56300 3.85735 3.71309
# Velocity P-wave (km/s) = 5.43657 5.78830 5.61519
#
# Compressibility (1/GPa) = 0.03876863
#
# Stress axis : x y z
#
# Youngs Moduli (GPa) = 98.33078 34.21616 51.27683
#
# Poissons Ratio (x) = 0.09110 -0.02189
# Poissons Ratio (y) = 0.26182 0.40144
# Poissons Ratio (z) = -0.04198 0.26787
#
# Static dielectric constant tensor:
#      x y z
#    x 4.128370 0.000000 0.000000 
#    y 0.000000 3.414520 0.000000 
#    z 0.000000 0.000000 3.679850 
# 
# 
# High freq. dielectric constant tensor:
#      x y z
#    x 1.820500 0.000000 0.000000 
#    y 0.000000 1.771000 0.000000 
#    z 0.000000 0.000000 1.804070 
# 
# From -- ./inp_files/32039.got.cif
#   From: 2010.03.12/outbox.cif.g09.slc.cpg/sg62_17_cif.got.tgz:32039.got - 2010.04.10 19:12:36.
