data_PCOD8251021
_publ_section_title
;
Structure prediction by ZEFSAII (Michael W. Deem and Ramdas Pophale) SiO2 
 PCOD8251021
Probable space group: P N M A
;
_chemical_formula_sum "Si O2"
_cell_formula_units_Z 64
_cell_length_a 17.653668
_cell_length_b 9.090687
_cell_length_c 20.289740
_cell_angle_alpha 90.000000
_cell_angle_beta 90.000000
_cell_angle_gamma 90.000000
_cell_volume 3256.178029
_symmetry_space_group_name_H-M "P N M A"
_symmetry_group_IT_number 62
_symmetry_cell_setting 'orthorhombic'
loop_
_space_group_symop_operation_xyz
x,y,z
1/2-x,-y,1/2+z
1/2+x,1/2-y,1/2-z
-x,1/2+y,-z
-x,-y,-z
1/2+x,y,1/2-z
1/2-x,1/2+y,1/2+z
x,1/2-y,z
loop_
_atom_site_type_symbol
_atom_site_label
_atom_site_fract_x
_atom_site_fract_y
_atom_site_fract_z
Si Si1 0.844218 0.075989 0.343484
Si Si2 0.913998 0.083277 0.798784
Si Si3 0.340141 0.423839 0.886335
Si Si4 0.999618 0.084345 0.667899
Si Si5 0.729486 0.923872 0.976773
Si Si6 0.111664 0.088182 0.975496
Si Si7 0.275950 0.924156 0.763632
Si Si8 0.999066 0.911244 0.906016
O O1 0.847474 0.250000 0.348875
O O2 0.802283 0.009271 0.408439
O O3 0.800358 0.030043 0.276279
O O4 0.929435 0.018928 0.344637
O O5 0.884178 0.250000 0.807985
O O6 0.979698 0.078378 0.744595
O O7 0.845334 0.976871 0.781034
O O8 0.950228 0.025366 0.865109
O O9 0.332399 0.250000 0.874148
O O10 0.426488 0.474076 0.872763
O O11 0.280972 0.499909 0.835507
O O12 0.321660 0.471658 0.960817
O O13 0.020171 0.250000 0.645922
O O14 0.730923 0.750000 0.969678
O O15 0.814674 0.981923 0.989337
O O16 0.132390 0.250000 0.945704
O O17 0.082901 0.979228 0.917825
O O18 0.043335 0.110191 0.025560
O O19 0.280939 0.750000 0.772766
O O20 0.008134 0.750000 0.871912
#
# Coordination Sequence:
#
# PCOD8251021 Si02
#       8
#     8   8   8   8   8   8   8   8
#     4  10  21  36  56  82 109 139 175 218 269 320
#     4  10  20  35  55  77 103 138 178 215 260 319
#     4   9  19  37  58  78 104 141 181 218 261 317
#     4   9  20  36  52  75 104 133 172 219 262 311
#     4   9  18  35  57  77 102 140 183 223 266 320
#     4   9  18  33  51  73 104 141 178 215 262 321
#     4  10  20  35  55  80 109 137 172 220 269 317
#     4  10  19  31  50  77 109 141 175 218 265 315
#
# _framework density 19.654945999999999
#
# number of rings (size 3 to 8) (size 9 to 14) (size 15 to 20)
#    0.000    2.500    0.000    2.625    0.000    7.500 
#    0.000    5.625    0.000    0.000    0.000    0.000 
#    0.000    0.000    0.000    0.000    0.000    0.000 
#
# Total GULP energy -793334.955343 kJ/mol
# GULP energy per Si atom -12395.858677 kJ/mol
# Density = 1.961021 g / cm^3
# Si number density = 19.654946 Si / 1000 Ang^3
#
#
#
# Elastic Constant Matrix: (Units=GPa)
#
#
# Indices 1 2 3 4 5 6 
#
# 1 98.1859 27.0973 19.0251 0.0000 0.0000 0.0000
# 2 27.0973 54.0525 25.8931 0.0000 0.0000 0.0000
# 3 19.0251 25.8931 55.4105 0.0000 0.0000 0.0000
# 4 0.0000 0.0000 0.0000 22.2204 0.0000 0.0000
# 5 0.0000 0.0000 0.0000 0.0000 22.7375 0.0000
# 6 0.0000 0.0000 0.0000 0.0000 0.0000 29.0158
#
#
#
# Elastic Compliance Matrix: (Units=1/GPa)
#
#
# Indices 1 2 3 4 5 6 
#
# 1 0.011940 -0.005182 -0.001678 0.000000 0.000000 0.000000
# 2 -0.005182 0.026085 -0.010410 0.000000 0.000000 0.000000
# 3 -0.001678 -0.010410 0.023488 0.000000 0.000000 0.000000
# 4 0.000000 0.000000 0.000000 0.045004 0.000000 0.000000
# 5 0.000000 0.000000 0.000000 0.000000 0.043980 0.000000
# 6 0.000000 0.000000 0.000000 0.000000 0.000000 0.034464
#
#
# Mechanical properties :
#
#
# Convention : Reuss Voigt Hill
#
# Bulk Modulus (GPa) = 37.07461 39.07554 38.07508
# Shear Modulus (GPa) = 21.88257 23.83698 22.85978
#
# Velocity S-wave (km/s) = 3.34029 3.48627 3.41406
# Velocity P-wave (km/s) = 5.81209 6.01077 5.91226
#
# Compressibility (1/GPa) = 0.02697263
#
# Stress axis : x y z
#
# Youngs Moduli (GPa) = 83.75214 38.33593 42.57496
#
# Poissons Ratio (x) = 0.19865 0.07145
# Poissons Ratio (y) = 0.43399 0.44322
# Poissons Ratio (z) = 0.14055 0.39909
#
# Static dielectric constant tensor:
#      x y z
#    x 3.549140 0.000000 0.000000 
#    y 0.000000 3.618590 0.000000 
#    z 0.000000 0.000000 3.619590 
# 
# 
# High freq. dielectric constant tensor:
#      x y z
#    x 1.764260 0.000000 0.000000 
#    y 0.000000 1.752630 0.000000 
#    z 0.000000 0.000000 1.759140 
# 
# From -- ./inp_files/27634.got.cif
#   From: 2010.03.12/outbox.cif.g09.slc.cpg/sg62_14_cif.got.tgz:27634.got - 2010.04.10 19:12:36.
