data_PCOD8251887
_publ_section_title
;
Structure prediction by ZEFSAII (Michael W. Deem and Ramdas Pophale) SiO2 
 PCOD8251887
Probable space group: P N M A
;
_chemical_formula_sum "Si O2"
_cell_formula_units_Z 64
_cell_length_a 12.653445
_cell_length_b 9.313490
_cell_length_c 28.025606
_cell_angle_alpha 90.000000
_cell_angle_beta 90.000000
_cell_angle_gamma 90.000000
_cell_volume 3302.754146
_symmetry_space_group_name_H-M "P N M A"
_symmetry_group_IT_number 62
_symmetry_cell_setting 'orthorhombic'
loop_
_space_group_symop_operation_xyz
x,y,z
1/2-x,-y,1/2+z
1/2+x,1/2-y,1/2-z
-x,1/2+y,-z
-x,-y,-z
1/2+x,y,1/2-z
1/2-x,1/2+y,1/2+z
x,1/2-y,z
loop_
_atom_site_type_symbol
_atom_site_label
_atom_site_fract_x
_atom_site_fract_y
_atom_site_fract_z
Si Si1 0.570006 0.594330 0.195380
Si Si2 0.138977 0.593267 0.406547
Si Si3 0.746615 0.416232 0.407182
Si Si4 0.636731 0.916475 0.814639
Si Si5 0.170711 0.584448 0.889192
Si Si6 0.755301 0.412961 0.215519
Si Si7 0.467126 0.417955 0.046814
Si Si8 0.969870 0.580693 0.951277
O O1 0.542571 0.750000 0.218816
O O2 0.641190 0.623020 0.149206
O O3 0.466329 0.511031 0.179895
O O4 0.648853 0.501548 0.227924
O O5 0.132433 0.750000 0.433479
O O6 0.247142 0.511254 0.420176
O O7 0.038833 0.490002 0.413142
O O8 0.721631 0.250000 0.402470
O O9 0.776717 0.471962 0.353673
O O10 0.844363 0.446981 0.442499
O O11 0.640513 0.484414 0.430142
O O12 0.609893 0.750000 0.826213
O O13 0.670511 0.938426 0.760460
O O14 0.200095 0.750000 0.897977
O O15 0.179046 0.547044 0.832575
O O16 0.054909 0.549827 0.909522
O O17 0.716766 0.250000 0.211926
O O18 0.492128 0.250000 0.043274
O O19 0.500000 0.500000 0.000000
O O20 0.962268 0.750000 0.962867
O O21 0.000000 0.500000 0.000000
#
# Coordination Sequence:
#
# PCOD8251887 Si02
#       8
#     8   8   8   8   8   8   8   8
#     4  10  20  34  53  79 114 150 182 230 288 345
#     4  10  20  35  56  81 110 147 187 230 283 342
#     4   9  20  38  59  84 116 149 184 235 293 343
#     4  10  19  35  60  86 112 148 191 236 287 349
#     4   9  19  36  57  83 114 148 188 242 293 340
#     4   9  19  34  57  86 112 147 195 239 286 348
#     4  11  22  36  56  84 116 148 183 233 290 347
#     4  10  22  40  59  81 113 154 197 239 290 344
#
# _framework density 19.377766000000001
#
# number of rings (size 3 to 8) (size 9 to 14) (size 15 to 20)
#    0.000    2.250    1.250    1.125    1.750    3.000 
#    0.000    5.000    0.000    1.500    0.000    0.000 
#    0.000    0.000    0.000    0.000    0.000    0.000 
#
# Total GULP energy -792974.612693 kJ/mol
# GULP energy per Si atom -12390.228323 kJ/mol
# Density = 1.933366 g / cm^3
# Si number density = 19.377766 Si / 1000 Ang^3
#
#
#
# Elastic Constant Matrix: (Units=GPa)
#
#
# Indices 1 2 3 4 5 6 
#
# 1 144.0350 67.6329 47.8419 0.0000 0.0000 0.0000
# 2 67.6329 97.9796 43.4648 0.0000 0.0000 0.0000
# 3 47.8419 43.4648 91.8445 0.0000 0.0000 0.0000
# 4 0.0000 0.0000 0.0000 20.6372 0.0000 0.0000
# 5 0.0000 0.0000 0.0000 0.0000 21.9018 0.0000
# 6 0.0000 0.0000 0.0000 0.0000 0.0000 20.6974
#
#
#
# Elastic Compliance Matrix: (Units=1/GPa)
#
#
# Indices 1 2 3 4 5 6 
#
# 1 0.010757 -0.006252 -0.002645 0.000000 0.000000 0.000000
# 2 -0.006252 0.016552 -0.004576 0.000000 0.000000 0.000000
# 3 -0.002645 -0.004576 0.014431 0.000000 0.000000 0.000000
# 4 0.000000 0.000000 0.000000 0.048456 0.000000 0.000000
# 5 0.000000 0.000000 0.000000 0.000000 0.045658 0.000000
# 6 0.000000 0.000000 0.000000 0.000000 0.000000 0.048315
#
#
# Mechanical properties :
#
#
# Convention : Reuss Voigt Hill
#
# Bulk Modulus (GPa) = 67.59441 72.41538 70.00489
# Shear Modulus (GPa) = 23.14311 24.30860 23.72585
#
# Velocity S-wave (km/s) = 3.45963 3.54568 3.50292
# Velocity P-wave (km/s) = 7.13561 7.36301 7.25020
#
# Compressibility (1/GPa) = 0.01479412
#
# Stress axis : x y z
#
# Youngs Moduli (GPa) = 92.96406 60.41572 69.29406
#
# Poissons Ratio (x) = 0.37772 0.18325
# Poissons Ratio (y) = 0.58122 0.31712
# Poissons Ratio (z) = 0.24584 0.27649
#
# Static dielectric constant tensor:
#      x y z
#    x 2.968240 0.000000 0.000000 
#    y 0.000000 10.674350 0.000000 
#    z 0.000000 0.000000 3.026340 
# 
# 
# High freq. dielectric constant tensor:
#      x y z
#    x 1.753560 0.000000 0.000000 
#    y 0.000000 1.745600 0.000000 
#    z 0.000000 0.000000 1.747480 
# 
# From -- ./inp_files/32541.got.cif
#   From: 2010.03.12/outbox.cif.g09.slc.cpg/sg62_17_cif.got.tgz:32541.got - 2010.04.10 19:12:36.
