data_PCOD8251416
_publ_section_title
;
Structure prediction by ZEFSAII (Michael W. Deem and Ramdas Pophale) SiO2 
 PCOD8251416
Probable space group: P N M A
;
_chemical_formula_sum "Si O2"
_cell_formula_units_Z 64
_cell_length_a 29.451027
_cell_length_b 8.963931
_cell_length_c 12.694466
_cell_angle_alpha 90.000000
_cell_angle_beta 90.000000
_cell_angle_gamma 90.000000
_cell_volume 3351.300609
_symmetry_space_group_name_H-M "P N M A"
_symmetry_group_IT_number 62
_symmetry_cell_setting 'orthorhombic'
loop_
_space_group_symop_operation_xyz
x,y,z
1/2-x,-y,1/2+z
1/2+x,1/2-y,1/2-z
-x,1/2+y,-z
-x,-y,-z
1/2+x,y,1/2-z
1/2-x,1/2+y,1/2+z
x,1/2-y,z
loop_
_atom_site_type_symbol
_atom_site_label
_atom_site_fract_x
_atom_site_fract_y
_atom_site_fract_z
Si Si1 0.081144 0.425058 0.097688
Si Si2 0.198230 0.077697 0.364031
Si Si3 0.795320 0.081451 0.057792
Si Si4 0.116539 0.426847 0.874379
Si Si5 0.667851 0.919484 0.332262
Si Si6 0.964175 0.426642 0.721662
Si Si7 0.600464 0.076244 0.053740
Si Si8 0.564692 0.426812 0.830088
O O1 0.072212 0.250000 0.103697
O O2 0.126144 0.466335 0.162722
O O3 0.040552 0.509679 0.158780
O O4 0.087405 0.480906 0.976879
O O5 0.199606 0.250000 0.328262
O O6 0.243797 0.030022 0.424226
O O7 0.154373 0.048723 0.437404
O O8 0.198448 0.969088 0.264598
O O9 0.803341 0.250000 0.095943
O O10 0.831732 0.982793 0.120982
O O11 0.800970 0.065188 0.933700
O O12 0.117983 0.250000 0.874486
O O13 0.092957 0.491523 0.769259
O O14 0.649887 0.750000 0.318180
O O15 0.960847 0.250000 0.727126
O O16 0.925208 0.487554 0.645174
O O17 0.012736 0.480324 0.677858
O O18 0.587885 0.250000 0.065446
O O19 0.585263 0.013217 0.939721
O O20 0.567956 0.250000 0.826257
#
# Coordination Sequence:
#
# PCOD8251416 Si02
#       8
#     8   8   8   8   8   8   8   8
#     4  10  19  33  55  80 107 141 182 226 271 324
#     4  10  20  34  54  79 108 141 179 222 271 329
#     4   9  20  36  53  79 111 142 177 222 279 327
#     4   9  19  37  58  79 107 145 187 226 270 331
#     4  10  19  33  54  78 106 139 178 225 270 319
#     4  11  21  34  55  82 111 142 182 233 277 322
#     4  10  20  36  57  78 107 147 186 223 271 331
#     4   9  20  37  56  80 111 146 183 226 278 329
#
# _framework density 19.097064
#
# number of rings (size 3 to 8) (size 9 to 14) (size 15 to 20)
#    0.000    2.250    1.250    1.500    0.000    3.000 
#    0.000    5.000    0.000    0.000    0.000    0.000 
#    0.000    0.000    0.000    0.000    0.000    0.000 
#
# Total GULP energy -793540.905814 kJ/mol
# GULP energy per Si atom -12399.076653 kJ/mol
# Density = 1.905360 g / cm^3
# Si number density = 19.097064 Si / 1000 Ang^3
#
#
#
# Elastic Constant Matrix: (Units=GPa)
#
#
# Indices 1 2 3 4 5 6 
#
# 1 103.4603 22.9702 46.6827 0.0000 0.0000 0.0000
# 2 22.9702 44.5520 28.0394 0.0000 0.0000 0.0000
# 3 46.6827 28.0394 105.3663 0.0000 0.0000 0.0000
# 4 0.0000 0.0000 0.0000 21.4664 0.0000 0.0000
# 5 0.0000 0.0000 0.0000 0.0000 28.1135 0.0000
# 6 0.0000 0.0000 0.0000 0.0000 0.0000 25.2127
#
#
#
# Elastic Compliance Matrix: (Units=1/GPa)
#
#
# Indices 1 2 3 4 5 6 
#
# 1 0.012535 -0.003564 -0.004605 0.000000 0.000000 0.000000
# 2 -0.003564 0.027975 -0.005865 0.000000 0.000000 0.000000
# 3 -0.004605 -0.005865 0.013092 0.000000 0.000000 0.000000
# 4 0.000000 0.000000 0.000000 0.046584 0.000000 0.000000
# 5 0.000000 0.000000 0.000000 0.000000 0.035570 0.000000
# 6 0.000000 0.000000 0.000000 0.000000 0.000000 0.039663
#
#
# Mechanical properties :
#
#
# Convention : Reuss Voigt Hill
#
# Bulk Modulus (GPa) = 39.16664 49.86259 44.51462
# Shear Modulus (GPa) = 23.58507 25.33760 24.46134
#
# Velocity S-wave (km/s) = 3.51808 3.64645 3.58284
# Velocity P-wave (km/s) = 6.08739 6.62537 6.36207
#
# Compressibility (1/GPa) = 0.02553193
#
# Stress axis : x y z
#
# Youngs Moduli (GPa) = 79.77817 35.74643 76.38391
#
# Poissons Ratio (x) = 0.12742 0.35175
# Poissons Ratio (y) = 0.28437 0.44801
# Poissons Ratio (z) = 0.36738 0.20966
#
# Static dielectric constant tensor:
#      x y z
#    x 3.542100 0.000000 0.000000 
#    y 0.000000 3.336570 0.000000 
#    z 0.000000 0.000000 3.729770 
# 
# 
# High freq. dielectric constant tensor:
#      x y z
#    x 1.740640 0.000000 0.000000 
#    y 0.000000 1.727010 0.000000 
#    z 0.000000 0.000000 1.748210 
# 
# From -- ./inp_files/15763.got.cif
#   From: 2010.03.12/outbox.cif.g09.slc.cpg/sg62_8_cif.got.tgz:15763.got - 2010.04.10 19:12:36.
