data_PCOD8251198
_publ_section_title
;
Structure prediction by ZEFSAII (Michael W. Deem and Ramdas Pophale) SiO2 
 PCOD8251198
Probable space group: P N M A
;
_chemical_formula_sum "Si O2"
_cell_formula_units_Z 64
_cell_length_a 17.632464
_cell_length_b 9.188765
_cell_length_c 20.947364
_cell_angle_alpha 90.000000
_cell_angle_beta 90.000000
_cell_angle_gamma 90.000000
_cell_volume 3393.903815
_symmetry_space_group_name_H-M "P N M A"
_symmetry_group_IT_number 62
_symmetry_cell_setting 'orthorhombic'
loop_
_space_group_symop_operation_xyz
x,y,z
1/2-x,-y,1/2+z
1/2+x,1/2-y,1/2-z
-x,1/2+y,-z
-x,-y,-z
1/2+x,y,1/2-z
1/2-x,1/2+y,1/2+z
x,1/2-y,z
loop_
_atom_site_type_symbol
_atom_site_label
_atom_site_fract_x
_atom_site_fract_y
_atom_site_fract_z
Si Si1 0.493564 0.089520 0.583101
Si Si2 0.667864 0.417281 0.121650
Si Si3 0.714963 0.421965 0.260526
Si Si4 0.271594 0.577377 0.011759
Si Si5 0.568598 0.586379 0.283112
Si Si6 0.879808 0.585606 0.994572
Si Si7 0.336355 0.080947 0.134223
Si Si8 0.994152 0.915529 0.670566
O O1 0.464592 0.250000 0.559521
O O2 0.488512 0.079666 0.658373
O O3 0.582522 0.073883 0.564803
O O4 0.446108 0.956658 0.554361
O O5 0.690418 0.250000 0.117953
O O6 0.710116 0.479359 0.186153
O O7 0.576823 0.439845 0.122887
O O8 0.695483 0.488776 0.055022
O O9 0.702241 0.250000 0.260334
O O10 0.644216 0.493530 0.297395
O O11 0.791301 0.464130 0.300110
O O12 0.280670 0.750000 0.016041
O O13 0.311528 0.510182 0.073262
O O14 0.184604 0.532976 0.013661
O O15 0.594381 0.750000 0.266724
O O16 0.516272 0.524606 0.228025
O O17 0.850882 0.750000 0.980062
O O18 0.320455 0.250000 0.120695
O O19 0.425552 0.047801 0.139014
O O20 0.993506 0.750000 0.696066
#
# Coordination Sequence:
#
# PCOD8251198 Si02
#       8
#     8   8   8   8   8   8   8   8
#     4   9  19  34  51  74 106 140 171 211 264 319
#     4   8  17  35  55  74 102 141 178 213 259 315
#     4   9  18  35  56  77 104 138 176 216 259 312
#     4  11  22  35  53  77 107 142 178 221 271 319
#     4  10  19  32  52  78 106 135 169 211 263 317
#     4  10  20  34  51  73 103 138 177 217 257 311
#     4  10  21  36  57  83 107 136 177 223 266 312
#     4   9  19  37  57  77 103 136 178 222 261 309
#
# _framework density 18.857340000000001
#
# number of rings (size 3 to 8) (size 9 to 14) (size 15 to 20)
#    0.000    2.500    0.000    2.625    0.000    6.000 
#    0.000    6.250    0.000    0.000    0.000    0.000 
#    0.000    0.000    0.000    0.000    0.000    0.000 
#
# Total GULP energy -793062.752477 kJ/mol
# GULP energy per Si atom -12391.605507 kJ/mol
# Density = 1.881442 g / cm^3
# Si number density = 18.857340 Si / 1000 Ang^3
#
#
#
# Elastic Constant Matrix: (Units=GPa)
#
#
# Indices 1 2 3 4 5 6 
#
# 1 61.4060 17.7788 31.6113 0.0000 0.0000 0.0000
# 2 17.7788 52.6074 31.8871 0.0000 0.0000 0.0000
# 3 31.6113 31.8871 95.8932 0.0000 0.0000 0.0000
# 4 0.0000 0.0000 0.0000 27.7163 0.0000 0.0000
# 5 0.0000 0.0000 0.0000 0.0000 21.3864 0.0000
# 6 0.0000 0.0000 0.0000 0.0000 0.0000 16.8723
#
#
#
# Elastic Compliance Matrix: (Units=1/GPa)
#
#
# Indices 1 2 3 4 5 6 
#
# 1 0.020109 -0.003479 -0.005472 0.000000 0.000000 0.000000
# 2 -0.003479 0.024409 -0.006970 0.000000 0.000000 0.000000
# 3 -0.005472 -0.006970 0.014550 0.000000 0.000000 0.000000
# 4 0.000000 0.000000 0.000000 0.036080 0.000000 0.000000
# 5 0.000000 0.000000 0.000000 0.000000 0.046759 0.000000
# 6 0.000000 0.000000 0.000000 0.000000 0.000000 0.059269
#
#
# Mechanical properties :
#
#
# Convention : Reuss Voigt Hill
#
# Bulk Modulus (GPa) = 36.72942 41.38454 39.05698
# Shear Modulus (GPa) = 20.65321 21.77030 21.21175
#
# Velocity S-wave (km/s) = 3.31302 3.40144 3.35752
# Velocity P-wave (km/s) = 5.84420 6.11720 5.98226
#
# Compressibility (1/GPa) = 0.02722613
#
# Stress axis : x y z
#
# Youngs Moduli (GPa) = 49.72804 40.96826 68.72936
#
# Poissons Ratio (x) = 0.14253 0.37610
# Poissons Ratio (y) = 0.17301 0.47903
# Poissons Ratio (z) = 0.27212 0.28554
#
# Static dielectric constant tensor:
#      x y z
#    x 3.484570 0.000000 0.000000 
#    y 0.000000 3.427980 0.000000 
#    z 0.000000 0.000000 3.598640 
# 
# 
# High freq. dielectric constant tensor:
#      x y z
#    x 1.726820 0.000000 0.000000 
#    y 0.000000 1.724200 0.000000 
#    z 0.000000 0.000000 1.730760 
# 
# From -- ./inp_files/27767.got.cif
#   From: 2010.03.12/outbox.cif.g09.slc.cpg/sg62_14_cif.got.tgz:27767.got - 2010.04.10 19:12:36.
