data_PCOD8251230
_publ_section_title
;
Structure prediction by ZEFSAII (Michael W. Deem and Ramdas Pophale) SiO2 
 PCOD8251230
Probable space group: P N M A
;
_chemical_formula_sum "Si O2"
_cell_formula_units_Z 64
_cell_length_a 17.306176
_cell_length_b 9.252450
_cell_length_c 19.819773
_cell_angle_alpha 90.000000
_cell_angle_beta 90.000000
_cell_angle_gamma 90.000000
_cell_volume 3173.631799
_symmetry_space_group_name_H-M "P N M A"
_symmetry_group_IT_number 62
_symmetry_cell_setting 'orthorhombic'
loop_
_space_group_symop_operation_xyz
x,y,z
1/2-x,-y,1/2+z
1/2+x,1/2-y,1/2-z
-x,1/2+y,-z
-x,-y,-z
1/2+x,y,1/2-z
1/2-x,1/2+y,1/2+z
x,1/2-y,z
loop_
_atom_site_type_symbol
_atom_site_label
_atom_site_fract_x
_atom_site_fract_y
_atom_site_fract_z
Si Si1 0.834090 0.083231 0.337209
Si Si2 0.923607 0.085363 0.796633
Si Si3 0.334547 0.580034 0.892631
Si Si4 0.990767 0.913769 0.681160
Si Si5 0.724727 0.920587 0.982350
Si Si6 0.110216 0.093164 0.966289
Si Si7 0.260399 0.081894 0.771285
Si Si8 0.993315 0.907100 0.906997
O O1 0.813710 0.250000 0.321676
O O2 0.792214 0.030985 0.405662
O O3 0.925282 0.062415 0.351305
O O4 0.808028 0.989226 0.272610
O O5 0.945956 0.250000 0.808464
O O6 0.836854 0.064041 0.772726
O O7 0.984538 0.020136 0.744195
O O8 0.931910 0.001414 0.866290
O O9 0.314963 0.750000 0.893835
O O10 0.423280 0.550371 0.872129
O O11 0.273737 0.500665 0.842262
O O12 0.328613 0.510887 0.966678
O O13 0.980650 0.750000 0.707176
O O14 0.708690 0.750000 0.991189
O O15 0.812687 0.964997 0.998345
O O16 0.126669 0.250000 0.932559
O O17 0.078224 0.982457 0.909895
O O18 0.041750 0.112860 0.019442
O O19 0.241652 0.250000 0.786020
O O20 0.004944 0.750000 0.872954
#
# Coordination Sequence:
#
# PCOD8251230 Si02
#       8
#     8   8   8   8   8   8   8   8
#     4  10  21  38  60  85 113 145 182 227 278 329
#     4  10  20  34  54  79 107 139 175 218 269 323
#     4  10  21  38  59  82 111 148 188 229 274 326
#     4   9  20  38  57  79 107 140 181 225 270 323
#     4  10  21  37  57  81 111 147 185 227 278 332
#     4   9  19  34  50  73 106 141 177 217 265 323
#     4  10  21  37  58  84 112 144 183 227 276 329
#     4  10  19  32  53  78 105 140 179 219 266 321
#
# _framework density 20.166170999999999
#
# number of rings (size 3 to 8) (size 9 to 14) (size 15 to 20)
#    0.000    2.250    0.000    2.250    0.000    6.500 
#    0.000    0.000    0.000    0.000    0.000    0.000 
#    0.000    0.000    0.000    0.000    0.000    0.000 
#
# Total GULP energy -793533.884883 kJ/mol
# GULP energy per Si atom -12398.966951 kJ/mol
# Density = 2.012027 g / cm^3
# Si number density = 20.166171 Si / 1000 Ang^3
#
#
#
# Elastic Constant Matrix: (Units=GPa)
#
#
# Indices 1 2 3 4 5 6 
#
# 1 74.6954 22.9855 7.9686 0.0000 0.0000 0.0000
# 2 22.9855 102.5455 26.9093 0.0000 0.0000 0.0000
# 3 7.9686 26.9093 56.3362 0.0000 0.0000 0.0000
# 4 0.0000 0.0000 0.0000 32.5493 0.0000 0.0000
# 5 0.0000 0.0000 0.0000 0.0000 22.6694 0.0000
# 6 0.0000 0.0000 0.0000 0.0000 0.0000 23.7031
#
#
#
# Elastic Compliance Matrix: (Units=1/GPa)
#
#
# Indices 1 2 3 4 5 6 
#
# 1 0.014395 -0.003078 -0.000566 0.000000 0.000000 0.000000
# 2 -0.003078 0.011807 -0.005205 0.000000 0.000000 0.000000
# 3 -0.000566 -0.005205 0.020317 0.000000 0.000000 0.000000
# 4 0.000000 0.000000 0.000000 0.030723 0.000000 0.000000
# 5 0.000000 0.000000 0.000000 0.000000 0.044112 0.000000
# 6 0.000000 0.000000 0.000000 0.000000 0.000000 0.042189
#
#
# Mechanical properties :
#
#
# Convention : Reuss Voigt Hill
#
# Bulk Modulus (GPa) = 34.69544 38.81155 36.75350
# Shear Modulus (GPa) = 26.19893 27.49861 26.84877
#
# Velocity S-wave (km/s) = 3.60829 3.69670 3.65276
# Velocity P-wave (km/s) = 5.88233 6.12442 6.00459
#
# Compressibility (1/GPa) = 0.02882223
#
# Stress axis : x y z
#
# Youngs Moduli (GPa) = 69.46713 84.69211 49.22085
#
# Poissons Ratio (x) = 0.26070 0.02785
# Poissons Ratio (y) = 0.21383 0.25617
# Poissons Ratio (z) = 0.03931 0.44078
#
# Static dielectric constant tensor:
#      x y z
#    x 3.560280 0.000000 0.000000 
#    y 0.000000 3.927340 0.000000 
#    z 0.000000 0.000000 3.495500 
# 
# 
# High freq. dielectric constant tensor:
#      x y z
#    x 1.784430 0.000000 0.000000 
#    y 0.000000 1.792820 0.000000 
#    z 0.000000 0.000000 1.775320 
# 
# From -- ./inp_files/27633.got.cif
#   From: 2010.03.12/outbox.cif.g09.slc.cpg/sg62_14_cif.got.tgz:27633.got - 2010.04.10 19:12:36.
