data_PCOD8251765
_publ_section_title
;
Structure prediction by ZEFSAII (Michael W. Deem and Ramdas Pophale) SiO2 
 PCOD8251765
Probable space group: P N M A
;
_chemical_formula_sum "Si O2"
_cell_formula_units_Z 48
_cell_length_a 12.873755
_cell_length_b 21.990368
_cell_length_c 9.543898
_cell_angle_alpha 90.000000
_cell_angle_beta 90.000000
_cell_angle_gamma 90.000000
_cell_volume 2701.864258
_symmetry_space_group_name_H-M "P N M A"
_symmetry_group_IT_number 62
_symmetry_cell_setting 'orthorhombic'
loop_
_space_group_symop_operation_xyz
x,y,z
1/2-x,-y,1/2+z
1/2+x,1/2-y,1/2-z
-x,1/2+y,-z
-x,-y,-z
1/2+x,y,1/2-z
1/2-x,1/2+y,1/2+z
x,1/2-y,z
loop_
_atom_site_type_symbol
_atom_site_label
_atom_site_fract_x
_atom_site_fract_y
_atom_site_fract_z
Si Si1 0.763481 0.182121 0.040477
Si Si2 0.628328 0.113638 0.233703
Si Si3 0.464326 0.570623 0.347308
Si Si4 0.659450 0.002383 0.429413
Si Si5 0.855303 0.921218 0.439343
Si Si6 0.508337 0.319176 0.462948
O O1 0.721873 0.250000 0.018403
O O2 0.725971 0.156554 0.192110
O O3 0.885721 0.179229 0.035017
O O4 0.713076 0.140458 0.917867
O O5 0.669711 0.060044 0.330034
O O6 0.542950 0.154149 0.312791
O O7 0.582519 0.084666 0.088164
O O8 0.386102 0.522851 0.420253
O O9 0.582694 0.548385 0.364586
O O10 0.438189 0.571650 0.183369
O O11 0.449110 0.637960 0.412482
O O12 0.774818 0.977027 0.449343
O O13 0.549315 0.250000 0.483714
#
# Coordination Sequence:
#
# PCOD8251765 Si02
#       6
#     8   8   8   8   8   8
#     4   9  19  36  56  76 104 141 184 221 269 321
#     4   9  20  33  55  82 105 142 179 225 262 322
#     4  10  20  34  55  80 110 142 181 219 264 329
#     4  10  19  35  54  79 113 143 178 213 269 331
#     4  10  20  34  54  82 106 142 174 226 272 309
#     4  10  19  36  58  76 103 147 185 220 269 328
#
# _framework density 17.765512000000001
#
# number of rings (size 3 to 8) (size 9 to 14) (size 15 to 20)
#    1.000    1.333    1.667    1.500    0.000    1.333 
#    0.000    3.333    0.000    0.000    0.000    0.000 
#    0.000    0.000    0.000    0.000    0.000    0.000 
#
# Total GULP energy -594793.294900 kJ/mol
# GULP energy per Si atom -12391.526977 kJ/mol
# Density = 1.772508 g / cm^3
# Si number density = 17.765512 Si / 1000 Ang^3
#
#
#
# Elastic Constant Matrix: (Units=GPa)
#
#
# Indices 1 2 3 4 5 6 
#
# 1 20.2506 6.7192 -3.1253 0.0000 0.0000 0.0000
# 2 6.7192 90.7959 -10.0004 0.0000 0.0000 0.0000
# 3 -3.1253 -10.0004 18.3032 0.0000 0.0000 0.0000
# 4 0.0000 0.0000 0.0000 21.9385 0.0000 0.0000
# 5 0.0000 0.0000 0.0000 0.0000 24.2980 0.0000
# 6 0.0000 0.0000 0.0000 0.0000 0.0000 25.9303
#
#
#
# Elastic Compliance Matrix: (Units=1/GPa)
#
#
# Indices 1 2 3 4 5 6 
#
# 1 0.051486 -0.003024 0.007139 0.000000 0.000000 0.000000
# 2 -0.003024 0.011897 0.005984 0.000000 0.000000 0.000000
# 3 0.007139 0.005984 0.059124 0.000000 0.000000 0.000000
# 4 0.000000 0.000000 0.000000 0.045582 0.000000 0.000000
# 5 0.000000 0.000000 0.000000 0.000000 0.041156 0.000000
# 6 0.000000 0.000000 0.000000 0.000000 0.000000 0.038565
#
#
# Mechanical properties :
#
#
# Convention : Reuss Voigt Hill
#
# Bulk Modulus (GPa) = 7.00747 12.94851 9.97799
# Shear Modulus (GPa) = 18.16997 23.48378 20.82687
#
# Velocity S-wave (km/s) = 3.20154 3.63970 3.42763
# Velocity P-wave (km/s) = 4.19756 4.99676 4.61449
#
# Compressibility (1/GPa) = 0.14270487
#
# Stress axis : x y z
#
# Youngs Moduli (GPa) = 19.42257 84.05808 16.91368
#
# Poissons Ratio (x) = 0.25418 -0.12075
# Poissons Ratio (y) = 0.05873 -0.10121
# Poissons Ratio (z) = -0.13866 -0.50298
#
# Static dielectric constant tensor:
#      x y z
#    x 2.983090 0.000000 0.000000 
#    y 0.000000 3.658670 0.000000 
#    z 0.000000 0.000000 3.164900 
# 
# 
# High freq. dielectric constant tensor:
#      x y z
#    x 1.666140 0.000000 0.000000 
#    y 0.000000 1.702770 0.000000 
#    z 0.000000 0.000000 1.673230 
# 
# From -- ./inp_files/6624.got.cif
#   From: 2010.03.12/outbox.cif.g09.slc.cpg/sg62_4_cif.got.tgz:6624.got - 2010.04.10 19:12:36.
