data_PCOD8251777
_publ_section_title
;
Structure prediction by ZEFSAII (Michael W. Deem and Ramdas Pophale) SiO2 
 PCOD8251777
Probable space group: P N M A
;
_chemical_formula_sum "Si O2"
_cell_formula_units_Z 56
_cell_length_a 7.484789
_cell_length_b 16.619104
_cell_length_c 22.227854
_cell_angle_alpha 90.000000
_cell_angle_beta 90.000000
_cell_angle_gamma 90.000000
_cell_volume 2764.933580
_symmetry_space_group_name_H-M "P N M A"
_symmetry_group_IT_number 62
_symmetry_cell_setting 'orthorhombic'
loop_
_space_group_symop_operation_xyz
x,y,z
1/2-x,-y,1/2+z
1/2+x,1/2-y,1/2-z
-x,1/2+y,-z
-x,-y,-z
1/2+x,y,1/2-z
1/2-x,1/2+y,1/2+z
x,1/2-y,z
loop_
_atom_site_type_symbol
_atom_site_label
_atom_site_fract_x
_atom_site_fract_y
_atom_site_fract_z
Si Si1 0.161218 0.431329 0.291314
Si Si2 0.894134 0.575062 0.938309
Si Si3 0.686942 0.447936 0.564532
Si Si4 0.326333 0.602413 0.310829
Si Si5 0.069254 0.013826 0.617604
Si Si6 0.001958 0.342874 0.178210
Si Si7 0.956499 0.838085 0.307880
O O1 0.258110 0.517149 0.283853
O O2 0.101590 0.399211 0.226405
O O3 0.293503 0.366895 0.322301
O O4 0.988952 0.444383 0.334470
O O5 0.733486 0.514342 0.922178
O O6 0.911866 0.644096 0.887915
O O7 0.085834 0.532344 0.945447
O O8 0.839886 0.607934 0.004996
O O9 0.588295 0.409468 0.623039
O O10 0.896527 0.464143 0.576876
O O11 0.459683 0.641143 0.263408
O O12 0.164831 0.663736 0.322989
O O13 0.140287 0.093784 0.652414
O O14 0.024475 0.250000 0.196102
O O15 0.872171 0.750000 0.320529
#
# Coordination Sequence:
#
# PCOD8251777 Si02
#       7
#     8   8   8   8   8   8   8
#     4  10  20  37  54  85 116 149 194 238 290 355
#     4  11  20  38  62  83 113 152 200 238 276 343
#     4   9  21  37  59  88 107 148 203 236 274 330
#     4  10  19  35  56  81 112 149 186 238 277 338
#     4  10  21  36  64  86 113 149 195 246 283 339
#     4  12  22  35  56  86 122 152 188 245 298 347
#     4  10  20  32  52  86 118 143 178 233 298 341
#
# _framework density 20.253651999999999
#
# number of rings (size 3 to 8) (size 9 to 14) (size 15 to 20)
#    0.000    2.000    2.857    4.714    2.000    0.000 
#    0.000    4.286    0.000    3.429    0.000    0.000 
#    0.000    0.000    0.000    0.000    0.000    0.000 
#
# Total GULP energy -693874.063655 kJ/mol
# GULP energy per Si atom -12390.608280 kJ/mol
# Density = 2.020755 g / cm^3
# Si number density = 20.253652 Si / 1000 Ang^3
#
#
#
# Elastic Constant Matrix: (Units=GPa)
#
#
# Indices 1 2 3 4 5 6 
#
# 1 48.1413 21.0114 24.3511 0.0000 0.0000 0.0000
# 2 21.0114 95.9644 52.5336 0.0000 0.0000 0.0000
# 3 24.3511 52.5336 126.7232 0.0000 0.0000 0.0000
# 4 0.0000 0.0000 0.0000 14.5830 0.0000 0.0000
# 5 0.0000 0.0000 0.0000 0.0000 28.8398 0.0000
# 6 0.0000 0.0000 0.0000 0.0000 0.0000 15.4412
#
#
#
# Elastic Compliance Matrix: (Units=1/GPa)
#
#
# Indices 1 2 3 4 5 6 
#
# 1 0.023892 -0.003516 -0.003134 0.000000 0.000000 0.000000
# 2 -0.003516 0.013997 -0.005127 0.000000 0.000000 0.000000
# 3 -0.003134 -0.005127 0.010619 0.000000 0.000000 0.000000
# 4 0.000000 0.000000 0.000000 0.068573 0.000000 0.000000
# 5 0.000000 0.000000 0.000000 0.000000 0.034674 0.000000
# 6 0.000000 0.000000 0.000000 0.000000 0.000000 0.064762
#
#
# Mechanical properties :
#
#
# Convention : Reuss Voigt Hill
#
# Bulk Modulus (GPa) = 40.07216 51.84681 45.95948
# Shear Modulus (GPa) = 20.12988 23.30165 21.71576
#
# Velocity S-wave (km/s) = 3.15602 3.39557 3.27798
# Velocity P-wave (km/s) = 5.75402 6.40527 6.08836
#
# Compressibility (1/GPa) = 0.02495498
#
# Stress axis : x y z
#
# Youngs Moduli (GPa) = 41.85565 71.44443 94.17307
#
# Poissons Ratio (x) = 0.25117 0.29510
# Poissons Ratio (y) = 0.14715 0.48282
# Poissons Ratio (z) = 0.13116 0.36629
#
# Static dielectric constant tensor:
#      x y z
#    x 3.634850 0.000000 0.000000 
#    y 0.000000 3.403550 0.000000 
#    z 0.000000 0.000000 4.010360 
# 
# 
# High freq. dielectric constant tensor:
#      x y z
#    x 1.788340 0.000000 0.000000 
#    y 0.000000 1.752800 0.000000 
#    z 0.000000 0.000000 1.798100 
# 
# From -- ./inp_files/26134.got.cif
#   From: 2010.03.12/outbox.cif.g09.slc.cpg/sg62_14_cif.got.tgz:26134.got - 2010.04.10 19:12:36.
