data_PCOD8251530
_publ_section_title
;
Structure prediction by ZEFSAII (Michael W. Deem and Ramdas Pophale) SiO2 
 PCOD8251530
Probable space group: P N M A
;
_chemical_formula_sum "Si O2"
_cell_formula_units_Z 64
_cell_length_a 25.069384
_cell_length_b 14.497609
_cell_length_c 9.403455
_cell_angle_alpha 90.000000
_cell_angle_beta 90.000000
_cell_angle_gamma 90.000000
_cell_volume 3417.649301
_symmetry_space_group_name_H-M "P N M A"
_symmetry_group_IT_number 62
_symmetry_cell_setting 'orthorhombic'
loop_
_space_group_symop_operation_xyz
x,y,z
1/2-x,-y,1/2+z
1/2+x,1/2-y,1/2-z
-x,1/2+y,-z
-x,-y,-z
1/2+x,y,1/2-z
1/2-x,1/2+y,1/2+z
x,1/2-y,z
loop_
_atom_site_type_symbol
_atom_site_label
_atom_site_fract_x
_atom_site_fract_y
_atom_site_fract_z
Si Si1 0.011545 0.576102 0.111619
Si Si2 0.549751 0.997582 0.101019
Si Si3 0.361305 0.140780 0.889994
Si Si4 0.375259 0.353293 0.568098
Si Si5 0.289444 0.008823 0.056863
Si Si6 0.816403 0.004761 0.112626
Si Si7 0.627350 0.357071 0.998375
Si Si8 0.398210 0.648419 0.324395
O O1 0.026667 0.514048 0.244556
O O2 0.060559 0.641245 0.067618
O O3 0.959206 0.637494 0.129645
O O4 0.000000 0.500000 0.000000
O O5 0.585098 0.909072 0.054976
O O6 0.500000 0.000000 0.000000
O O7 0.584931 0.091772 0.100482
O O8 0.366490 0.250000 0.914216
O O9 0.352457 0.116064 0.723051
O O10 0.313444 0.100230 0.983711
O O11 0.357422 0.250000 0.538803
O O12 0.351076 0.408267 0.435809
O O13 0.293074 0.017402 0.228341
O O14 0.317187 0.914180 0.001783
O O15 0.228760 0.007074 0.006343
O O16 0.856586 0.919076 0.100451
O O17 0.636866 0.250000 0.044732
O O18 0.601833 0.364592 0.843865
O O19 0.378810 0.750000 0.367699
#
# Coordination Sequence:
#
# PCOD8251530 Si02
#       8
#     8   8   8   8   8   8   8   8
#     4  11  20  35  58  83 122 152 183 232 287 340
#     4  10  19  33  57  85 116 151 190 227 279 337
#     4   9  20  37  58  84 113 150 194 234 281 345
#     4  10  21  37  59  84 114 154 194 233 286 346
#     4  10  22  38  61  84 115 151 191 245 297 341
#     4  11  22  39  60  85 114 150 195 244 294 345
#     4   9  19  37  59  85 113 149 195 236 280 341
#     4  10  20  36  60  85 112 151 193 234 284 347
#
# _framework density 18.726320999999999
#
# number of rings (size 3 to 8) (size 9 to 14) (size 15 to 20)
#    0.000    2.000    2.500    1.125    0.000    2.500 
#    0.000    3.750    0.000    0.000    0.000    0.000 
#    0.000    0.000    0.000    0.000    0.000    0.000 
#
# Total GULP energy -793379.352680 kJ/mol
# GULP energy per Si atom -12396.552386 kJ/mol
# Density = 1.868370 g / cm^3
# Si number density = 18.726321 Si / 1000 Ang^3
#
#
#
# Elastic Constant Matrix: (Units=GPa)
#
#
# Indices 1 2 3 4 5 6 
#
# 1 118.7773 47.0073 50.7784 0.0000 0.0000 0.0000
# 2 47.0073 131.5686 43.0989 0.0000 0.0000 0.0000
# 3 50.7784 43.0989 71.4998 0.0000 0.0000 0.0000
# 4 0.0000 0.0000 0.0000 28.8710 0.0000 0.0000
# 5 0.0000 0.0000 0.0000 0.0000 35.5921 0.0000
# 6 0.0000 0.0000 0.0000 0.0000 0.0000 10.4243
#
#
#
# Elastic Compliance Matrix: (Units=1/GPa)
#
#
# Indices 1 2 3 4 5 6 
#
# 1 0.012474 -0.001937 -0.007691 0.000000 0.000000 0.000000
# 2 -0.001937 0.009772 -0.004514 0.000000 0.000000 0.000000
# 3 -0.007691 -0.004514 0.022169 0.000000 0.000000 0.000000
# 4 0.000000 0.000000 0.000000 0.034637 0.000000 0.000000
# 5 0.000000 0.000000 0.000000 0.000000 0.028096 0.000000
# 6 0.000000 0.000000 0.000000 0.000000 0.000000 0.095930
#
#
# Mechanical properties :
#
#
# Convention : Reuss Voigt Hill
#
# Bulk Modulus (GPa) = 61.99839 67.06835 64.53337
# Shear Modulus (GPa) = 21.12028 27.04154 24.08091
#
# Velocity S-wave (km/s) = 3.36198 3.80417 3.58989
# Velocity P-wave (km/s) = 6.94622 7.42889 7.19161
#
# Compressibility (1/GPa) = 0.01612945
#
# Stress axis : x y z
#
# Youngs Moduli (GPa) = 80.16812 102.33805 45.10754
#
# Poissons Ratio (x) = 0.19826 0.34692
# Poissons Ratio (y) = 0.15531 0.20363
# Poissons Ratio (z) = 0.61657 0.46198
#
# Static dielectric constant tensor:
#      x y z
#    x 3.594380 0.000000 0.000000 
#    y 0.000000 3.477480 0.000000 
#    z 0.000000 0.000000 3.443410 
# 
# 
# High freq. dielectric constant tensor:
#      x y z
#    x 1.733610 0.000000 0.000000 
#    y 0.000000 1.728530 0.000000 
#    z 0.000000 0.000000 1.720080 
# 
# From -- ./inp_files/9470.got.cif
#   From: 2010.03.12/outbox.cif.g09.slc.cpg/sg62_5_cif.got.tgz:9470.got - 2010.04.10 19:12:36.
