data_PCOD8251303
_publ_section_title
;
Structure prediction by ZEFSAII (Michael W. Deem and Ramdas Pophale) SiO2 
 PCOD8251303
Probable space group: P N M A
;
_chemical_formula_sum "Si O2"
_cell_formula_units_Z 40
_cell_length_a 14.521870
_cell_length_b 9.430217
_cell_length_c 14.114715
_cell_angle_alpha 90.000000
_cell_angle_beta 90.000000
_cell_angle_gamma 90.000000
_cell_volume 1932.930970
_symmetry_space_group_name_H-M "P N M A"
_symmetry_group_IT_number 62
_symmetry_cell_setting 'orthorhombic'
loop_
_space_group_symop_operation_xyz
x,y,z
1/2-x,-y,1/2+z
1/2+x,1/2-y,1/2-z
-x,1/2+y,-z
-x,-y,-z
1/2+x,y,1/2-z
1/2-x,1/2+y,1/2+z
x,1/2-y,z
loop_
_atom_site_type_symbol
_atom_site_label
_atom_site_fract_x
_atom_site_fract_y
_atom_site_fract_z
Si Si1 0.727079 0.585179 0.852230
Si Si2 0.421208 0.902592 0.400115
Si Si3 0.095641 0.417533 0.511944
Si Si4 0.744891 0.910452 0.630006
Si Si5 0.571656 0.097214 0.388943
O O1 0.705951 0.750000 0.876861
O O2 0.649465 0.485081 0.898197
O O3 0.737713 0.560017 0.740951
O O4 0.825770 0.534621 0.891469
O O5 0.406450 0.750000 0.349569
O O6 0.462719 0.876539 0.504221
O O7 0.325504 0.981494 0.416769
O O8 0.496731 0.992949 0.339639
O O9 0.078648 0.250000 0.530769
O O10 0.154421 0.439830 0.415036
O O11 0.000000 0.500000 0.500000
O O12 0.714714 0.750000 0.606598
O O13 0.571370 0.250000 0.334418
#
# Coordination Sequence:
#
# PCOD8251303 Si02
#       5
#     8   8   8   8   8
#     4  10  21  40  63  87 117 160 208 253 302 365
#     4  10  19  32  55  85 115 146 186 237 293 351
#     4  11  24  42  64  92 127 167 210 258 314 375
#     4  10  22  39  61  87 119 159 204 251 307 370
#     4   9  18  33  55  82 113 148 187 233 291 354
#
# _framework density 20.693961000000002
#
# number of rings (size 3 to 8) (size 9 to 14) (size 15 to 20)
#    0.000    2.000    2.000    1.200    0.000    4.800 
#    0.000    4.000    0.000    0.000    0.000    0.000 
#    0.000    0.000    0.000    0.000    0.000    0.000 
#
# Total GULP energy -495606.042293 kJ/mol
# GULP energy per Si atom -12390.151057 kJ/mol
# Density = 2.064686 g / cm^3
# Si number density = 20.693961 Si / 1000 Ang^3
#
#
#
# Elastic Constant Matrix: (Units=GPa)
#
#
# Indices 1 2 3 4 5 6 
#
# 1 159.7217 104.0678 31.3067 0.0000 0.0000 0.0000
# 2 104.0678 161.6504 40.1933 0.0000 0.0000 0.0000
# 3 31.3067 40.1933 72.2164 0.0000 0.0000 0.0000
# 4 0.0000 0.0000 0.0000 19.3651 0.0000 0.0000
# 5 0.0000 0.0000 0.0000 0.0000 9.1037 0.0000
# 6 0.0000 0.0000 0.0000 0.0000 0.0000 39.0458
#
#
#
# Elastic Compliance Matrix: (Units=1/GPa)
#
#
# Indices 1 2 3 4 5 6 
#
# 1 0.010840 -0.006743 -0.000946 0.000000 0.000000 0.000000
# 2 -0.006743 0.011375 -0.003407 0.000000 0.000000 0.000000
# 3 -0.000946 -0.003407 0.016154 0.000000 0.000000 0.000000
# 4 0.000000 0.000000 0.000000 0.051639 0.000000 0.000000
# 5 0.000000 0.000000 0.000000 0.000000 0.109846 0.000000
# 6 0.000000 0.000000 0.000000 0.000000 0.000000 0.025611
#
#
# Mechanical properties :
#
#
# Convention : Reuss Voigt Hill
#
# Bulk Modulus (GPa) = 61.82494 82.74712 72.28603
# Shear Modulus (GPa) = 19.75890 28.03762 23.89826
#
# Velocity S-wave (km/s) = 3.09336 3.68485 3.40198
# Velocity P-wave (km/s) = 6.53446 7.62739 7.10198
#
# Compressibility (1/GPa) = 0.01617470
#
# Stress axis : x y z
#
# Youngs Moduli (GPa) = 92.25059 87.91437 61.90451
#
# Poissons Ratio (x) = 0.59284 0.05857
# Poissons Ratio (y) = 0.62208 0.21094
# Poissons Ratio (z) = 0.08728 0.29956
#
# Static dielectric constant tensor:
#      x y z
#    x 3.717730 0.000000 0.000000 
#    y 0.000000 4.264060 0.000000 
#    z 0.000000 0.000000 3.633380 
# 
# 
# High freq. dielectric constant tensor:
#      x y z
#    x 1.811830 0.000000 0.000000 
#    y 0.000000 1.819990 0.000000 
#    z 0.000000 0.000000 1.779780 
# 
# From -- ./inp_files/18600.got.cif
#   From: 2010.03.12/outbox.cif.g09.slc.cpg/sg62_10_cif.got.tgz:18600.got - 2010.04.10 19:12:36.
