data_PCOD8251590
_publ_section_title
;
Structure prediction by ZEFSAII (Michael W. Deem and Ramdas Pophale) SiO2 
 PCOD8251590
Probable space group: P N M A
;
_chemical_formula_sum "Si O2"
_cell_formula_units_Z 48
_cell_length_a 10.374797
_cell_length_b 13.527587
_cell_length_c 17.612190
_cell_angle_alpha 90.000000
_cell_angle_beta 90.000000
_cell_angle_gamma 90.000000
_cell_volume 2471.799872
_symmetry_space_group_name_H-M "P N M A"
_symmetry_group_IT_number 62
_symmetry_cell_setting 'orthorhombic'
loop_
_space_group_symop_operation_xyz
x,y,z
1/2-x,-y,1/2+z
1/2+x,1/2-y,1/2-z
-x,1/2+y,-z
-x,-y,-z
1/2+x,y,1/2-z
1/2-x,1/2+y,1/2+z
x,1/2-y,z
loop_
_atom_site_type_symbol
_atom_site_label
_atom_site_fract_x
_atom_site_fract_y
_atom_site_fract_z
Si Si1 0.581217 0.362370 0.820802
Si Si2 0.324402 0.360388 0.902133
Si Si3 0.708385 0.142364 0.440288
Si Si4 0.179250 0.567652 0.095788
Si Si5 0.415473 0.964881 0.334085
Si Si6 0.082479 0.638816 0.941442
O O1 0.563344 0.250000 0.789219
O O2 0.468557 0.392275 0.879326
O O3 0.716605 0.362452 0.865232
O O4 0.578082 0.446148 0.755797
O O5 0.297043 0.250000 0.873682
O O6 0.221462 0.426689 0.860501
O O7 0.311933 0.367743 0.992667
O O8 0.728353 0.250000 0.398808
O O9 0.563180 0.138873 0.474404
O O10 0.723390 0.046351 0.386731
O O11 0.038900 0.591039 0.130315
O O12 0.172930 0.587314 0.004941
O O13 0.416599 0.079663 0.361203
O O14 0.131517 0.750000 0.925636
#
# Coordination Sequence:
#
# PCOD8251590 Si02
#       6
#     8   8   8   8   8   8
#     4  11  25  36  52  84 119 149 177 227 293 340
#     4  10  19  34  54  80 113 146 178 221 280 334
#     4   9  17  33  58  85 110 141 184 228 274 326
#     4  11  20  37  60  86 111 143 190 235 273 323
#     4  11  20  37  56  82 110 149 188 226 274 331
#     4  10  19  34  60  87 107 140 193 241 271 314
#
# _framework density 19.419046999999999
#
# number of rings (size 3 to 8) (size 9 to 14) (size 15 to 20)
#    0.000    1.667    3.333    3.000    0.000    4.000 
#    0.000    0.833    0.000    3.000    0.000    0.000 
#    0.000    0.000    0.000    0.000    0.000    0.000 
#
# Total GULP energy -594823.153475 kJ/mol
# GULP energy per Si atom -12392.149031 kJ/mol
# Density = 1.937485 g / cm^3
# Si number density = 19.419047 Si / 1000 Ang^3
#
#
#
# Elastic Constant Matrix: (Units=GPa)
#
#
# Indices 1 2 3 4 5 6 
#
# 1 88.4600 31.0272 22.3764 0.0000 0.0000 0.0000
# 2 31.0272 98.9640 32.5337 0.0000 0.0000 0.0000
# 3 22.3764 32.5337 69.8748 0.0000 0.0000 0.0000
# 4 0.0000 0.0000 0.0000 23.8557 0.0000 0.0000
# 5 0.0000 0.0000 0.0000 0.0000 17.6628 0.0000
# 6 0.0000 0.0000 0.0000 0.0000 0.0000 21.6873
#
#
#
# Elastic Compliance Matrix: (Units=1/GPa)
#
#
# Indices 1 2 3 4 5 6 
#
# 1 0.013119 -0.003226 -0.002699 0.000000 0.000000 0.000000
# 2 -0.003226 0.012724 -0.004891 0.000000 0.000000 0.000000
# 3 -0.002699 -0.004891 0.017453 0.000000 0.000000 0.000000
# 4 0.000000 0.000000 0.000000 0.041919 0.000000 0.000000
# 5 0.000000 0.000000 0.000000 0.000000 0.056616 0.000000
# 6 0.000000 0.000000 0.000000 0.000000 0.000000 0.046110
#
#
# Mechanical properties :
#
#
# Convention : Reuss Voigt Hill
#
# Bulk Modulus (GPa) = 46.16071 47.68590 46.92331
# Shear Modulus (GPa) = 23.06334 24.06524 23.56429
#
# Velocity S-wave (km/s) = 3.44999 3.52413 3.48726
# Velocity P-wave (km/s) = 6.30019 6.41630 6.35851
#
# Compressibility (1/GPa) = 0.02166345
#
# Stress axis : x y z
#
# Youngs Moduli (GPa) = 76.22699 78.59187 57.29640
#
# Poissons Ratio (x) = 0.25351 0.15466
# Poissons Ratio (y) = 0.24588 0.28025
# Poissons Ratio (z) = 0.20575 0.38442
#
# Static dielectric constant tensor:
#      x y z
#    x 3.486190 0.000000 0.000000 
#    y 0.000000 3.766090 0.000000 
#    z 0.000000 0.000000 3.307980 
# 
# 
# High freq. dielectric constant tensor:
#      x y z
#    x 1.750660 0.000000 0.000000 
#    y 0.000000 1.758990 0.000000 
#    z 0.000000 0.000000 1.717780 
# 
# From -- ./inp_files/17966.got.cif
#   From: 2010.03.12/outbox.cif.g09.slc.cpg/sg62_9_cif.got.tgz:17966.got - 2010.04.10 19:12:36.
