data_PCOD8251124
_publ_section_title
;
Structure prediction by ZEFSAII (Michael W. Deem and Ramdas Pophale) SiO2 
 PCOD8251124
Probable space group: P N M A
;
_chemical_formula_sum "Si O2"
_cell_formula_units_Z 64
_cell_length_a 13.855111
_cell_length_b 8.941214
_cell_length_c 29.512137
_cell_angle_alpha 90.000000
_cell_angle_beta 90.000000
_cell_angle_gamma 90.000000
_cell_volume 3656.008167
_symmetry_space_group_name_H-M "P N M A"
_symmetry_group_IT_number 62
_symmetry_cell_setting 'orthorhombic'
loop_
_space_group_symop_operation_xyz
x,y,z
1/2-x,-y,1/2+z
1/2+x,1/2-y,1/2-z
-x,1/2+y,-z
-x,-y,-z
1/2+x,y,1/2-z
1/2-x,1/2+y,1/2+z
x,1/2-y,z
loop_
_atom_site_type_symbol
_atom_site_label
_atom_site_fract_x
_atom_site_fract_y
_atom_site_fract_z
Si Si1 0.513550 0.078692 0.815514
Si Si2 0.900581 0.421345 0.490323
Si Si3 0.663661 0.426557 0.152535
Si Si4 0.246401 0.077408 0.932329
Si Si5 0.229154 0.427246 0.673340
Si Si6 0.158091 0.578264 0.258856
Si Si7 0.745247 0.425725 0.927857
Si Si8 0.603031 0.573669 0.503041
O O1 0.516037 0.250000 0.832622
O O2 0.621857 0.013167 0.813497
O O3 0.459249 0.068145 0.766041
O O4 0.447751 0.985408 0.851342
O O5 0.919429 0.250000 0.478390
O O6 0.836744 0.441837 0.534805
O O7 0.849811 0.495721 0.447135
O O8 0.000000 0.500000 0.500000
O O9 0.666272 0.250000 0.147376
O O10 0.730189 0.500408 0.114890
O O11 0.707044 0.479472 0.201205
O O12 0.219787 0.250000 0.924537
O O13 0.154592 0.993604 0.953050
O O14 0.228915 0.250000 0.673951
O O15 0.307010 0.486256 0.710296
O O16 0.260720 0.483823 0.623604
O O17 0.192499 0.750000 0.264328
O O18 0.725534 0.250000 0.929373
O O19 0.838716 0.468957 0.957344
O O20 0.500000 0.500000 0.500000
O O21 0.593504 0.750000 0.508956
#
# Coordination Sequence:
#
# PCOD8251124 Si02
#       8
#     8   8   8   8   8   8   8   8
#     4   8  16  30  50  73 100 134 171 210 256 306
#     4  10  21  33  48  73 107 141 173 214 263 316
#     4  10  19  32  50  74 105 134 167 214 264 314
#     4  10  20  35  54  75 101 137 179 219 261 313
#     4   9  16  31  55  78 102 136 177 219 259 305
#     4   8  16  31  50  73 100 132 174 214 253 309
#     4   9  19  34  53  79 106 137 180 222 261 312
#     4  10  20  36  56  78 106 139 177 221 271 322
#
# _framework density 17.505431999999999
#
# number of rings (size 3 to 8) (size 9 to 14) (size 15 to 20)
#    0.750    2.000    0.000    1.875    1.750    2.000 
#    0.000    2.500    0.000    4.500    0.000    0.000 
#    0.000    0.000    0.000    0.000    0.000    0.000 
#
# Total GULP energy -793112.520122 kJ/mol
# GULP energy per Si atom -12392.383127 kJ/mol
# Density = 1.746559 g / cm^3
# Si number density = 17.505432 Si / 1000 Ang^3
#
#
#
# Elastic Constant Matrix: (Units=GPa)
#
#
# Indices 1 2 3 4 5 6 
#
# 1 106.9789 37.9751 47.2397 0.0000 0.0000 0.0000
# 2 37.9751 73.0155 33.5171 0.0000 0.0000 0.0000
# 3 47.2397 33.5171 119.3172 0.0000 0.0000 0.0000
# 4 0.0000 0.0000 0.0000 22.8458 0.0000 0.0000
# 5 0.0000 0.0000 0.0000 0.0000 20.2526 0.0000
# 6 0.0000 0.0000 0.0000 0.0000 0.0000 22.5883
#
#
#
# Elastic Compliance Matrix: (Units=1/GPa)
#
#
# Indices 1 2 3 4 5 6 
#
# 1 0.012710 -0.004937 -0.003645 0.000000 0.000000 0.000000
# 2 -0.004937 0.017641 -0.003001 0.000000 0.000000 0.000000
# 3 -0.003645 -0.003001 0.010667 0.000000 0.000000 0.000000
# 4 0.000000 0.000000 0.000000 0.043772 0.000000 0.000000
# 5 0.000000 0.000000 0.000000 0.000000 0.049376 0.000000
# 6 0.000000 0.000000 0.000000 0.000000 0.000000 0.044271
#
#
# Mechanical properties :
#
#
# Convention : Reuss Voigt Hill
#
# Bulk Modulus (GPa) = 56.01658 59.64171 57.82915
# Shear Modulus (GPa) = 24.09019 25.17599 24.63309
#
# Velocity S-wave (km/s) = 3.71368 3.79645 3.75529
# Velocity P-wave (km/s) = 7.10335 7.30491 7.20484
#
# Compressibility (1/GPa) = 0.01785186
#
# Stress axis : x y z
#
# Youngs Moduli (GPa) = 78.67942 56.68620 93.74566
#
# Poissons Ratio (x) = 0.27986 0.34172
# Poissons Ratio (y) = 0.38844 0.28131
# Poissons Ratio (z) = 0.28680 0.17011
#
# Static dielectric constant tensor:
#      x y z
#    x 3.135420 0.000000 0.000000 
#    y 0.000000 3.149620 0.000000 
#    z 0.000000 0.000000 3.389480 
# 
# 
# High freq. dielectric constant tensor:
#      x y z
#    x 1.662860 0.000000 0.000000 
#    y 0.000000 1.667920 0.000000 
#    z 0.000000 0.000000 1.669880 
# 
# From -- ./inp_files/32694.got.cif
#   From: 2010.03.12/outbox.cif.g09.slc.cpg/sg62_17_cif.got.tgz:32694.got - 2010.04.10 19:12:36.
