data_PCOD8251121
_publ_section_title
;
Structure prediction by ZEFSAII (Michael W. Deem and Ramdas Pophale) SiO2 
 PCOD8251121
Probable space group: P N M A
;
_chemical_formula_sum "Si O2"
_cell_formula_units_Z 64
_cell_length_a 22.922613
_cell_length_b 9.043747
_cell_length_c 17.616947
_cell_angle_alpha 90.000000
_cell_angle_beta 90.000000
_cell_angle_gamma 90.000000
_cell_volume 3652.104321
_symmetry_space_group_name_H-M "P N M A"
_symmetry_group_IT_number 62
_symmetry_cell_setting 'orthorhombic'
loop_
_space_group_symop_operation_xyz
x,y,z
1/2-x,-y,1/2+z
1/2+x,1/2-y,1/2-z
-x,1/2+y,-z
-x,-y,-z
1/2+x,y,1/2-z
1/2-x,1/2+y,1/2+z
x,1/2-y,z
loop_
_atom_site_type_symbol
_atom_site_label
_atom_site_fract_x
_atom_site_fract_y
_atom_site_fract_z
Si Si1 0.611593 0.577547 0.324892
Si Si2 0.117324 0.078937 0.325154
Si Si3 0.769427 0.419390 0.893472
Si Si4 0.943872 0.920004 0.968633
Si Si5 0.676080 0.417691 0.528162
Si Si6 0.780931 0.087591 0.613810
Si Si7 0.561115 0.423581 0.013974
Si Si8 0.834164 0.084508 0.446972
O O1 0.596094 0.750000 0.331343
O O2 0.590254 0.514012 0.244105
O O3 0.681968 0.550903 0.328592
O O4 0.577359 0.492130 0.390427
O O5 0.114995 0.250000 0.304200
O O6 0.080616 0.040329 0.400118
O O7 0.185211 0.034523 0.337784
O O8 0.749656 0.250000 0.895201
O O9 0.710215 0.515550 0.884155
O O10 0.801868 0.457257 0.971361
O O11 0.958990 0.750000 0.952137
O O12 0.893851 0.934788 0.033990
O O13 0.000000 0.000000 0.000000
O O14 0.690223 0.250000 0.498154
O O15 0.710535 0.441519 0.608690
O O16 0.793887 0.250000 0.649303
O O17 0.801439 0.083611 0.526847
O O18 0.555827 0.250000 0.000061
O O19 0.500000 0.500000 0.000000
O O20 0.607117 0.488290 0.953423
O O21 0.851095 0.250000 0.421520
#
# Coordination Sequence:
#
# PCOD8251121 Si02
#       8
#     8   8   8   8   8   8   8   8
#     4  10  20  33  50  72  98 130 165 203 251 303
#     4  10  20  32  48  72  99 127 160 202 251 300
#     4   9  16  26  43  68  94 118 149 190 235 284
#     4  10  19  32  50  73 101 132 170 213 252 296
#     4   8  15  27  44  66  92 122 153 188 233 282
#     4   8  14  26  44  66  91 119 150 185 230 283
#     4  10  20  33  50  73 100 131 170 212 251 295
#     4   9  16  27  45  68  94 123 153 189 235 283
#
# _framework density 17.524142999999999
#
# number of rings (size 3 to 8) (size 9 to 14) (size 15 to 20)
#    0.000    2.750    0.000    3.000    0.000    6.500 
#    0.000    0.000    0.000    1.500    0.000    5.250 
#    0.000    0.000    0.000    0.000    0.000    0.000 
#
# Total GULP energy -793054.706063 kJ/mol
# GULP energy per Si atom -12391.479782 kJ/mol
# Density = 1.748426 g / cm^3
# Si number density = 17.524143 Si / 1000 Ang^3
#
#
#
# Elastic Constant Matrix: (Units=GPa)
#
#
# Indices 1 2 3 4 5 6 
#
# 1 121.9348 61.0053 35.3798 0.0000 0.0000 0.0000
# 2 61.0053 120.6149 41.2175 0.0000 0.0000 0.0000
# 3 35.3798 41.2175 50.4033 0.0000 0.0000 0.0000
# 4 0.0000 0.0000 0.0000 23.1935 0.0000 0.0000
# 5 0.0000 0.0000 0.0000 0.0000 15.3017 0.0000
# 6 0.0000 0.0000 0.0000 0.0000 0.0000 33.1022
#
#
#
# Elastic Compliance Matrix: (Units=1/GPa)
#
#
# Indices 1 2 3 4 5 6 
#
# 1 0.011728 -0.004328 -0.004693 0.000000 0.000000 0.000000
# 2 -0.004328 0.013104 -0.007677 0.000000 0.000000 0.000000
# 3 -0.004693 -0.007677 0.029412 0.000000 0.000000 0.000000
# 4 0.000000 0.000000 0.000000 0.043115 0.000000 0.000000
# 5 0.000000 0.000000 0.000000 0.000000 0.065352 0.000000
# 6 0.000000 0.000000 0.000000 0.000000 0.000000 0.030209
#
#
# Mechanical properties :
#
#
# Convention : Reuss Voigt Hill
#
# Bulk Modulus (GPa) = 47.96869 63.12869 55.54869
# Shear Modulus (GPa) = 21.43458 24.67616 23.05537
#
# Velocity S-wave (km/s) = 3.50114 3.75657 3.63110
# Velocity P-wave (km/s) = 6.61637 7.41065 7.02475
#
# Compressibility (1/GPa) = 0.02084693
#
# Stress axis : x y z
#
# Youngs Moduli (GPa) = 85.26398 76.31494 33.99928
#
# Poissons Ratio (x) = 0.33031 0.15956
# Poissons Ratio (y) = 0.36904 0.26103
# Poissons Ratio (z) = 0.40015 0.58590
#
# Static dielectric constant tensor:
#      x y z
#    x 3.417520 0.000000 0.000000 
#    y 0.000000 3.409920 0.000000 
#    z 0.000000 0.000000 2.966020 
# 
# 
# High freq. dielectric constant tensor:
#      x y z
#    x 1.670840 0.000000 0.000000 
#    y 0.000000 1.693250 0.000000 
#    z 0.000000 0.000000 1.629480 
# 
# From -- ./inp_files/24921.got.cif
#   From: 2010.03.12/outbox.cif.g09.slc.cpg/sg62_13_cif.got.tgz:24921.got - 2010.04.10 19:12:36.
