data_PCOD8251518
_publ_section_title
;
Structure prediction by ZEFSAII (Michael W. Deem and Ramdas Pophale) SiO2 
 PCOD8251518
Probable space group: P N M A
;
_chemical_formula_sum "Si O2"
_cell_formula_units_Z 48
_cell_length_a 15.675844
_cell_length_b 15.803669
_cell_length_c 9.282359
_cell_angle_alpha 90.000000
_cell_angle_beta 90.000000
_cell_angle_gamma 90.000000
_cell_volume 2299.573096
_symmetry_space_group_name_H-M "P N M A"
_symmetry_group_IT_number 62
_symmetry_cell_setting 'orthorhombic'
loop_
_space_group_symop_operation_xyz
x,y,z
1/2-x,-y,1/2+z
1/2+x,1/2-y,1/2-z
-x,1/2+y,-z
-x,-y,-z
1/2+x,y,1/2-z
1/2-x,1/2+y,1/2+z
x,1/2-y,z
loop_
_atom_site_type_symbol
_atom_site_label
_atom_site_fract_x
_atom_site_fract_y
_atom_site_fract_z
Si Si1 0.991530 0.907625 0.567287
Si Si2 0.170139 0.397766 0.594554
Si Si3 0.663267 0.100323 0.578135
Si Si4 0.512882 0.154263 0.376672
Si Si5 0.824001 0.099070 0.407284
Si Si6 0.830147 0.400119 0.082361
O O1 0.912684 0.860339 0.489614
O O2 0.974720 0.909411 0.740621
O O3 0.083827 0.862010 0.545509
O O4 0.000000 0.000000 0.500000
O O5 0.163193 0.367340 0.758295
O O6 0.170292 0.498305 0.579582
O O7 0.257827 0.363020 0.524299
O O8 0.582707 0.138558 0.497820
O O9 0.750189 0.136193 0.507840
O O10 0.659919 0.000086 0.565261
O O11 0.520090 0.250000 0.319203
O O12 0.421453 0.140760 0.453507
O O13 0.801929 0.124409 0.243870
#
# Coordination Sequence:
#
# PCOD8251518 Si02
#       6
#     8   8   8   8   8   8
#     4   9  18  35  57  80 107 144 188 231 274 332
#     4   9  17  30  55  85 108 139 188 236 273 319
#     4  10  19  33  56  85 114 147 186 231 280 332
#     4  11  23  38  55  82 116 151 188 233 286 337
#     4   8  16  30  52  82 111 140 182 231 275 325
#     4   9  18  34  55  80 111 149 190 230 272 329
#
# _framework density 20.873439000000001
#
# number of rings (size 3 to 8) (size 9 to 14) (size 15 to 20)
#    0.000    2.667    0.000    2.500    0.000    5.333 
#    0.000    9.167    0.000    0.000    0.000    0.000 
#    0.000    0.000    0.000    0.000    0.000    0.000 
#
# Total GULP energy -594934.367333 kJ/mol
# GULP energy per Si atom -12394.465986 kJ/mol
# Density = 2.082593 g / cm^3
# Si number density = 20.873439 Si / 1000 Ang^3
#
#
#
# Elastic Constant Matrix: (Units=GPa)
#
#
# Indices 1 2 3 4 5 6 
#
# 1 213.9958 17.2518 122.2456 0.0000 0.0000 0.0000
# 2 17.2518 35.2183 23.9407 0.0000 0.0000 0.0000
# 3 122.2456 23.9407 155.8658 0.0000 0.0000 0.0000
# 4 0.0000 0.0000 0.0000 5.1801 0.0000 0.0000
# 5 0.0000 0.0000 0.0000 0.0000 28.8168 0.0000
# 6 0.0000 0.0000 0.0000 0.0000 0.0000 -1.2765
#
#
#
# Elastic Compliance Matrix: (Units=1/GPa)
#
#
# Indices 1 2 3 4 5 6 
#
# 1 0.008471 0.000410 -0.006707 0.000000 0.000000 0.000000
# 2 0.000410 0.031725 -0.005194 0.000000 0.000000 0.000000
# 3 -0.006707 -0.005194 0.012474 0.000000 0.000000 0.000000
# 4 0.000000 0.000000 0.000000 0.193048 0.000000 0.000000
# 5 0.000000 0.000000 0.000000 0.000000 0.034702 0.000000
# 6 0.000000 0.000000 0.000000 0.000000 0.000000 -0.783399
#
#
# Mechanical properties :
#
#
# Convention : Reuss Voigt Hill
#
# Bulk Modulus (GPa) = 33.68500 81.32845 57.50672
# Shear Modulus (GPa) = -10.63603 22.65353 6.00875
#
# Velocity S-wave (km/s) = -2.25977 3.29793 1.69850
# Velocity P-wave (km/s) = 3.06007 7.31772 5.60861
#
# Compressibility (1/GPa) = 0.02968680
#
# Stress axis : x y z
#
# Youngs Moduli (GPa) = 118.04486 31.52133 80.16759
#
# Poissons Ratio (x) = -0.01291 0.53768
# Poissons Ratio (y) = -0.04835 0.41640
# Poissons Ratio (z) = 0.79173 0.16372
#
# Static dielectric constant tensor:
#      x y z
#    x 4.355120 0.000000 0.000000 
#    y 0.000000 3.244670 0.000000 
#    z 0.000000 0.000000 3.810710 
# 
# 
# High freq. dielectric constant tensor:
#      x y z
#    x 1.841920 0.000000 0.000000 
#    y 0.000000 1.764700 0.000000 
#    z 0.000000 0.000000 1.813670 
# 
# From -- ./inp_files/6605.got.cif
#   From: 2010.03.12/outbox.cif.g09.slc.cpg/sg62_4_cif.got.tgz:6605.got - 2010.04.10 19:12:36.
