data_PCOD8251574
_publ_section_title
;
Structure prediction by ZEFSAII (Michael W. Deem and Ramdas Pophale) SiO2 
 PCOD8251574
Probable space group: P N M A
;
_chemical_formula_sum "Si O2"
_cell_formula_units_Z 48
_cell_length_a 13.931082
_cell_length_b 9.692279
_cell_length_c 18.797881
_cell_angle_alpha 90.000000
_cell_angle_beta 90.000000
_cell_angle_gamma 90.000000
_cell_volume 2538.163834
_symmetry_space_group_name_H-M "P N M A"
_symmetry_group_IT_number 62
_symmetry_cell_setting 'orthorhombic'
loop_
_space_group_symop_operation_xyz
x,y,z
1/2-x,-y,1/2+z
1/2+x,1/2-y,1/2-z
-x,1/2+y,-z
-x,-y,-z
1/2+x,y,1/2-z
1/2-x,1/2+y,1/2+z
x,1/2-y,z
loop_
_atom_site_type_symbol
_atom_site_label
_atom_site_fract_x
_atom_site_fract_y
_atom_site_fract_z
Si Si1 0.159053 0.089257 0.479456
Si Si2 0.677047 0.914063 0.279117
Si Si3 0.530246 0.908833 0.396046
Si Si4 0.123459 0.905457 0.952967
Si Si5 0.858840 0.589643 0.360586
Si Si6 0.925120 0.088778 0.639501
O O1 0.128499 0.250000 0.476682
O O2 0.264156 0.066178 0.447182
O O3 0.153833 0.030000 0.559692
O O4 0.087123 0.999554 0.431778
O O5 0.677523 0.750000 0.280594
O O6 0.594001 0.967216 0.331799
O O7 0.780412 0.974320 0.305290
O O8 0.649737 0.963629 0.199657
O O9 0.502137 0.750000 0.384822
O O10 0.592334 0.933078 0.466386
O O11 0.431032 0.993042 0.399075
O O12 0.097892 0.750000 0.930592
O O13 0.834372 0.750000 0.366347
O O14 0.966292 0.563322 0.332046
O O15 0.910404 0.250000 0.621300
#
# Coordination Sequence:
#
# PCOD8251574 Si02
#       6
#     8   8   8   8   8   8
#     4  10  19  34  54  72 101 144 175 201 251 316
#     4   9  17  32  53  76 104 137 170 207 260 314
#     4   9  16  29  50  74 100 132 169 206 247 298
#     4   9  17  29  48  74 100 132 168 204 248 299
#     4   9  17  33  54  74 101 138 172 205 253 310
#     4  10  21  33  52  81 104 126 170 224 257 289
#
# _framework density 18.911308999999999
#
# number of rings (size 3 to 8) (size 9 to 14) (size 15 to 20)
#    0.000    2.667    1.667    0.500    0.000    2.000 
#    0.000    4.167    0.000    3.000    0.000    0.000 
#    0.000    0.000    0.000    0.000    0.000    0.000 
#
# Total GULP energy -595048.177203 kJ/mol
# GULP energy per Si atom -12396.837025 kJ/mol
# Density = 1.886827 g / cm^3
# Si number density = 18.911309 Si / 1000 Ang^3
#
#
#
# Elastic Constant Matrix: (Units=GPa)
#
#
# Indices 1 2 3 4 5 6 
#
# 1 88.1038 26.8070 51.2425 0.0000 0.0000 0.0000
# 2 26.8070 39.2093 21.6189 0.0000 0.0000 0.0000
# 3 51.2425 21.6189 92.5863 0.0000 0.0000 0.0000
# 4 0.0000 0.0000 0.0000 19.5905 0.0000 0.0000
# 5 0.0000 0.0000 0.0000 0.0000 30.4917 0.0000
# 6 0.0000 0.0000 0.0000 0.0000 0.0000 23.1007
#
#
#
# Elastic Compliance Matrix: (Units=1/GPa)
#
#
# Indices 1 2 3 4 5 6 
#
# 1 0.018763 -0.008152 -0.008481 0.000000 0.000000 0.000000
# 2 -0.008152 0.032815 -0.003150 0.000000 0.000000 0.000000
# 3 -0.008481 -0.003150 0.016230 0.000000 0.000000 0.000000
# 4 0.000000 0.000000 0.000000 0.051045 0.000000 0.000000
# 5 0.000000 0.000000 0.000000 0.000000 0.032796 0.000000
# 6 0.000000 0.000000 0.000000 0.000000 0.000000 0.043289
#
#
# Mechanical properties :
#
#
# Convention : Reuss Voigt Hill
#
# Bulk Modulus (GPa) = 35.40944 46.58179 40.99561
# Shear Modulus (GPa) = 20.49855 22.65196 21.57525
#
# Velocity S-wave (km/s) = 3.29588 3.46468 3.38133
# Velocity P-wave (km/s) = 5.76614 6.37891 6.08025
#
# Compressibility (1/GPa) = 0.02824106
#
# Stress axis : x y z
#
# Youngs Moduli (GPa) = 53.29502 30.47411 61.61288
#
# Poissons Ratio (x) = 0.24843 0.52255
# Poissons Ratio (y) = 0.43447 0.19411
# Poissons Ratio (z) = 0.45201 0.09601
#
# Static dielectric constant tensor:
#      x y z
#    x 3.610880 0.000000 0.000000 
#    y 0.000000 3.085840 0.000000 
#    z 0.000000 0.000000 3.463540 
# 
# 
# High freq. dielectric constant tensor:
#      x y z
#    x 1.746190 0.000000 0.000000 
#    y 0.000000 1.685500 0.000000 
#    z 0.000000 0.000000 1.728520 
# 
# From -- ./inp_files/23018.got.cif
#   From: 2010.03.12/outbox.cif.g09.slc.cpg/sg62_12_cif.got.tgz:23018.got - 2010.04.10 19:12:36.
