data_PCOD8251604
_publ_section_title
;
Structure prediction by ZEFSAII (Michael W. Deem and Ramdas Pophale) SiO2 
 PCOD8251604
Probable space group: P N M A
;
_chemical_formula_sum "Si O2"
_cell_formula_units_Z 64
_cell_length_a 19.508442
_cell_length_b 9.090034
_cell_length_c 19.927844
_cell_angle_alpha 90.000000
_cell_angle_beta 90.000000
_cell_angle_gamma 90.000000
_cell_volume 3533.852425
_symmetry_space_group_name_H-M "P N M A"
_symmetry_group_IT_number 62
_symmetry_cell_setting 'orthorhombic'
loop_
_space_group_symop_operation_xyz
x,y,z
1/2-x,-y,1/2+z
1/2+x,1/2-y,1/2-z
-x,1/2+y,-z
-x,-y,-z
1/2+x,y,1/2-z
1/2-x,1/2+y,1/2+z
x,1/2-y,z
loop_
_atom_site_type_symbol
_atom_site_label
_atom_site_fract_x
_atom_site_fract_y
_atom_site_fract_z
Si Si1 0.096576 0.577381 0.186095
Si Si2 0.234091 0.082637 0.208049
Si Si3 0.062675 0.922741 0.036283
Si Si4 0.709998 0.575007 0.512884
Si Si5 0.720503 0.421510 0.145395
Si Si6 0.069594 0.075938 0.319381
Si Si7 0.530501 0.576382 0.935697
Si Si8 0.185033 0.581868 0.581408
O O1 0.097254 0.750000 0.199678
O O2 0.174540 0.522515 0.181335
O O3 0.060119 0.539687 0.115518
O O4 0.056607 0.498499 0.247046
O O5 0.205052 0.250000 0.208580
O O6 0.256933 0.040073 0.283769
O O7 0.300000 0.068365 0.160803
O O8 0.056220 0.750000 0.024194
O O9 0.133647 0.982485 0.003639
O O10 0.000000 0.000000 0.000000
O O11 0.710512 0.750000 0.510800
O O12 0.735630 0.508405 0.584541
O O13 0.762533 0.519988 0.457378
O O14 0.718577 0.250000 0.130748
O O15 0.641989 0.479173 0.149087
O O16 0.069973 0.250000 0.308362
O O17 0.009917 0.024549 0.369419
O O18 0.523853 0.750000 0.944511
O O19 0.608525 0.523980 0.929245
O O20 0.500000 0.500000 0.000000
O O21 0.193277 0.750000 0.556977
#
# Coordination Sequence:
#
# PCOD8251604 Si02
#       8
#     8   8   8   8   8   8   8   8
#     4  10  19  34  55  79 105 135 177 223 262 316
#     4   9  17  32  53  76 102 135 171 212 263 317
#     4  10  22  37  54  78 106 137 177 221 271 327
#     4  10  19  35  56  80 106 136 175 217 265 323
#     4   8  15  29  52  76 100 132 173 213 253 304
#     4   9  18  34  54  79 108 145 184 217 260 318
#     4  10  21  36  53  80 114 147 186 226 269 322
#     4  10  20  33  53  80 108 138 175 221 266 314
#
# _framework density 18.110547
#
# number of rings (size 3 to 8) (size 9 to 14) (size 15 to 20)
#    0.000    2.500    1.250    1.875    0.000    3.500 
#    2.250    3.750    0.000    0.000    0.000    0.000 
#    0.000    0.000    0.000    0.000    0.000    0.000 
#
# Total GULP energy -793420.519854 kJ/mol
# GULP energy per Si atom -12397.195623 kJ/mol
# Density = 1.806933 g / cm^3
# Si number density = 18.110547 Si / 1000 Ang^3
#
#
#
# Elastic Constant Matrix: (Units=GPa)
#
#
# Indices 1 2 3 4 5 6 
#
# 1 137.1368 33.4263 86.3807 0.0000 0.0000 0.0000
# 2 33.4263 36.0936 42.8366 0.0000 0.0000 0.0000
# 3 86.3807 42.8366 152.6287 0.0000 0.0000 0.0000
# 4 0.0000 0.0000 0.0000 29.3424 0.0000 0.0000
# 5 0.0000 0.0000 0.0000 0.0000 35.8775 0.0000
# 6 0.0000 0.0000 0.0000 0.0000 0.0000 22.6744
#
#
#
# Elastic Compliance Matrix: (Units=1/GPa)
#
#
# Indices 1 2 3 4 5 6 
#
# 1 0.011800 -0.004502 -0.005415 0.000000 0.000000 0.000000
# 2 -0.004502 0.043261 -0.009594 0.000000 0.000000 0.000000
# 3 -0.005415 -0.009594 0.012309 0.000000 0.000000 0.000000
# 4 0.000000 0.000000 0.000000 0.034080 0.000000 0.000000
# 5 0.000000 0.000000 0.000000 0.000000 0.027873 0.000000
# 6 0.000000 0.000000 0.000000 0.000000 0.000000 0.044103
#
#
# Mechanical properties :
#
#
# Convention : Reuss Voigt Hill
#
# Bulk Modulus (GPa) = 35.27429 72.34960 53.81194
# Shear Modulus (GPa) = 22.53315 28.45990 25.49652
#
# Velocity S-wave (km/s) = 3.53115 3.96846 3.75617
# Velocity P-wave (km/s) = 6.01206 7.81241 6.97060
#
# Compressibility (1/GPa) = 0.02834926
#
# Stress axis : x y z
#
# Youngs Moduli (GPa) = 84.74615 23.11566 81.24145
#
# Poissons Ratio (x) = 0.10406 0.43991
# Poissons Ratio (y) = 0.38149 0.77942
# Poissons Ratio (z) = 0.45889 0.22177
#
# Static dielectric constant tensor:
#      x y z
#    x 3.353560 0.000000 0.000000 
#    y 0.000000 3.147490 0.000000 
#    z 0.000000 0.000000 3.623950 
# 
# 
# High freq. dielectric constant tensor:
#      x y z
#    x 1.688870 0.000000 0.000000 
#    y 0.000000 1.681150 0.000000 
#    z 0.000000 0.000000 1.717910 
# 
# From -- ./inp_files/24708.got.cif
#   From: 2010.03.12/outbox.cif.g09.slc.cpg/sg62_13_cif.got.tgz:24708.got - 2010.04.10 19:12:36.
