data_PCOD8251999
_publ_section_title
;
Structure prediction by ZEFSAII (Michael W. Deem and Ramdas Pophale) SiO2 
 PCOD8251999
Probable space group: P N M A
;
_chemical_formula_sum "Si O2"
_cell_formula_units_Z 32
_cell_length_a 17.757670
_cell_length_b 10.451514
_cell_length_c 8.428350
_cell_angle_alpha 90.000000
_cell_angle_beta 90.000000
_cell_angle_gamma 90.000000
_cell_volume 1564.255713
_symmetry_space_group_name_H-M "P N M A"
_symmetry_group_IT_number 62
_symmetry_cell_setting 'orthorhombic'
loop_
_space_group_symop_operation_xyz
x,y,z
1/2-x,-y,1/2+z
1/2+x,1/2-y,1/2-z
-x,1/2+y,-z
-x,-y,-z
1/2+x,y,1/2-z
1/2-x,1/2+y,1/2+z
x,1/2-y,z
loop_
_atom_site_type_symbol
_atom_site_label
_atom_site_fract_x
_atom_site_fract_y
_atom_site_fract_z
Si Si1 0.908665 0.750000 0.258005
Si Si2 0.844800 0.480195 0.867525
Si Si3 0.814205 0.250000 0.427036
Si Si4 0.139183 0.250000 0.083857
Si Si5 0.578000 0.750000 0.225090
Si Si6 0.814904 0.992407 0.239452
O O1 0.866397 0.879456 0.312604
O O2 0.991925 0.750000 0.332240
O O3 0.915499 0.750000 0.067173
O O4 0.875003 0.621487 0.813566
O O5 0.907924 0.375381 0.832459
O O6 0.770770 0.447489 0.766667
O O7 0.827123 0.486970 0.053519
O O8 0.726554 0.250000 0.478465
O O9 0.867568 0.250000 0.576895
O O10 0.833751 0.375412 0.325696
#
# Coordination Sequence:
#
# PCOD8251999 Si02
#       6
#     4   8   4   4   4   8
#     4  10  22  36  54  82 118 152 184 230 285 342
#     4  10  19  36  61  84 109 144 187 238 287 335
#     4  10  21  38  57  82 112 146 196 242 278 332
#     4   8  18  35  55  79 106 137 185 240 281 324
#     4  12  23  35  54  83 120 157 187 220 280 350
#     4  10  20  38  62  86 111 143 191 244 288 329
#
# _framework density 20.457013
#
# number of rings (size 3 to 8) (size 9 to 14) (size 15 to 20)
#    0.000    2.000    0.000    6.000    0.000    5.000 
#    0.000    5.000    0.000    3.000    0.000    0.000 
#    0.000    0.000    0.000    0.000    0.000    0.000 
#
# Total GULP energy -396752.003500 kJ/mol
# GULP energy per Si atom -12398.500109 kJ/mol
# Density = 2.041045 g / cm^3
# Si number density = 20.457013 Si / 1000 Ang^3
#
#
#
# Elastic Constant Matrix: (Units=GPa)
#
#
# Indices 1 2 3 4 5 6 
#
# 1 50.3864 44.7035 -5.7176 0.0000 0.0000 0.0000
# 2 44.7035 180.9223 15.7586 0.0000 0.0000 0.0000
# 3 -5.7176 15.7586 46.0802 0.0000 0.0000 0.0000
# 4 0.0000 0.0000 0.0000 27.4955 0.0000 0.0000
# 5 0.0000 0.0000 0.0000 0.0000 17.8532 0.0000
# 6 0.0000 0.0000 0.0000 0.0000 0.0000 16.1978
#
#
#
# Elastic Compliance Matrix: (Units=1/GPa)
#
#
# Indices 1 2 3 4 5 6 
#
# 1 0.026828 -0.007131 0.005768 0.000000 0.000000 0.000000
# 2 -0.007131 0.007592 -0.003481 0.000000 0.000000 0.000000
# 3 0.005768 -0.003481 0.023607 0.000000 0.000000 0.000000
# 4 0.000000 0.000000 0.000000 0.036370 0.000000 0.000000
# 5 0.000000 0.000000 0.000000 0.000000 0.056012 0.000000
# 6 0.000000 0.000000 0.000000 0.000000 0.000000 0.061737
#
#
# Mechanical properties :
#
#
# Convention : Reuss Voigt Hill
#
# Bulk Modulus (GPa) = 20.68768 42.98643 31.83705
# Shear Modulus (GPa) = 21.01289 27.15228 24.08258
#
# Velocity S-wave (km/s) = 3.20843 3.64714 3.43480
# Velocity P-wave (km/s) = 4.88468 6.22850 5.59707
#
# Compressibility (1/GPa) = 0.04833796
#
# Stress axis : x y z
#
# Youngs Moduli (GPa) = 37.27449 131.70908 42.35947
#
# Poissons Ratio (x) = 0.93924 -0.24431
# Poissons Ratio (y) = 0.26581 0.14747
# Poissons Ratio (z) = -0.21498 0.45852
#
# Static dielectric constant tensor:
#      x y z
#    x 3.414510 0.000000 0.000000 
#    y 0.000000 4.794560 0.000000 
#    z 0.000000 0.000000 3.391810 
# 
# 
# High freq. dielectric constant tensor:
#      x y z
#    x 1.772530 0.000000 0.000000 
#    y 0.000000 1.834990 0.000000 
#    z 0.000000 0.000000 1.777790 
# 
# From -- ./inp_files/5817.got.cif
#   From: 2010.03.12/outbox.cif.g09.slc.cpg/sg62_3_cif.got.tgz:5817.got - 2010.04.10 19:12:36.
