data_PCOD8251529
_publ_section_title
;
Structure prediction by ZEFSAII (Michael W. Deem and Ramdas Pophale) SiO2 
 PCOD8251529
Probable space group: P N M A
;
_chemical_formula_sum "Si O2"
_cell_formula_units_Z 48
_cell_length_a 8.639191
_cell_length_b 15.797337
_cell_length_c 16.732677
_cell_angle_alpha 90.000000
_cell_angle_beta 90.000000
_cell_angle_gamma 90.000000
_cell_volume 2283.612367
_symmetry_space_group_name_H-M "P N M A"
_symmetry_group_IT_number 62
_symmetry_cell_setting 'orthorhombic'
loop_
_space_group_symop_operation_xyz
x,y,z
1/2-x,-y,1/2+z
1/2+x,1/2-y,1/2-z
-x,1/2+y,-z
-x,-y,-z
1/2+x,y,1/2-z
1/2-x,1/2+y,1/2+z
x,1/2-y,z
loop_
_atom_site_type_symbol
_atom_site_label
_atom_site_fract_x
_atom_site_fract_y
_atom_site_fract_z
Si Si1 0.725482 0.153696 0.864839
Si Si2 0.262339 0.344360 0.136240
Si Si3 0.680682 0.000603 0.980233
Si Si4 0.766108 0.993768 0.154599
Si Si5 0.011984 0.408913 0.247171
Si Si6 0.407379 0.345149 0.783458
O O1 0.714838 0.250000 0.898904
O O2 0.726792 0.086174 0.934938
O O3 0.880122 0.140863 0.811739
O O4 0.582641 0.132261 0.805968
O O5 0.271510 0.250000 0.097948
O O6 0.278267 0.416166 0.068925
O O7 0.395164 0.351097 0.203091
O O8 0.098095 0.352818 0.180861
O O9 0.783351 0.007126 0.059901
O O10 0.500000 0.000000 0.000000
O O11 0.628894 0.050924 0.189935
O O12 0.924516 0.015452 0.200258
O O13 0.717239 0.897107 0.165787
O O14 0.366737 0.250000 0.807131
#
# Coordination Sequence:
#
# PCOD8251529 Si02
#       6
#     8   8   8   8   8   8
#     4  10  21  38  60  87 120 155 202 250 298 361
#     4  11  23  41  65  92 125 162 209 260 307 368
#     4  12  23  38  59  95 126 162 202 248 318 365
#     4  11  21  39  63  88 122 161 206 255 306 374
#     4  10  22  41  65  87 117 164 212 255 304 363
#     4  10  19  33  57  85 114 154 199 247 295 353
#
# _framework density 21.019328999999999
#
# number of rings (size 3 to 8) (size 9 to 14) (size 15 to 20)
#    0.000    1.333    3.333    3.500    0.000    2.000 
#    0.000    1.667    0.000    4.000    0.000    0.000 
#    0.000    0.000    0.000    0.000    0.000    0.000 
#
# Total GULP energy -595140.075260 kJ/mol
# GULP energy per Si atom -12398.751568 kJ/mol
# Density = 2.097149 g / cm^3
# Si number density = 21.019329 Si / 1000 Ang^3
#
#
#
# Elastic Constant Matrix: (Units=GPa)
#
#
# Indices 1 2 3 4 5 6 
#
# 1 31.8467 -1.3420 5.2901 0.0000 0.0000 0.0000
# 2 -1.3420 120.6154 47.6379 0.0000 0.0000 0.0000
# 3 5.2901 47.6379 117.4046 0.0000 0.0000 0.0000
# 4 0.0000 0.0000 0.0000 26.6941 0.0000 0.0000
# 5 0.0000 0.0000 0.0000 0.0000 29.2332 0.0000
# 6 0.0000 0.0000 0.0000 0.0000 0.0000 21.6502
#
#
#
# Elastic Compliance Matrix: (Units=1/GPa)
#
#
# Indices 1 2 3 4 5 6 
#
# 1 0.031758 0.001094 -0.001875 0.000000 0.000000 0.000000
# 2 0.001094 0.009911 -0.004071 0.000000 0.000000 0.000000
# 3 -0.001875 -0.004071 0.010254 0.000000 0.000000 0.000000
# 4 0.000000 0.000000 0.000000 0.037461 0.000000 0.000000
# 5 0.000000 0.000000 0.000000 0.000000 0.034208 0.000000
# 6 0.000000 0.000000 0.000000 0.000000 0.000000 0.046189
#
#
# Mechanical properties :
#
#
# Convention : Reuss Voigt Hill
#
# Bulk Modulus (GPa) = 23.68596 41.44877 32.56736
# Shear Modulus (GPa) = 25.83220 30.06754 27.94987
#
# Velocity S-wave (km/s) = 3.50948 3.78626 3.65049
# Velocity P-wave (km/s) = 5.26450 6.23510 5.77025
#
# Compressibility (1/GPa) = 0.04221910
#
# Stress axis : x y z
#
# Youngs Moduli (GPa) = 31.48819 100.90088 97.52546
#
# Poissons Ratio (x) = -0.11037 0.18284
# Poissons Ratio (y) = -0.03444 0.39699
# Poissons Ratio (z) = 0.05903 0.41073
#
# Static dielectric constant tensor:
#      x y z
#    x 3.954400 0.000000 0.000000 
#    y 0.000000 3.843400 0.000000 
#    z 0.000000 0.000000 3.799020 
# 
# 
# High freq. dielectric constant tensor:
#      x y z
#    x 1.823970 0.000000 0.000000 
#    y 0.000000 1.832770 0.000000 
#    z 0.000000 0.000000 1.811080 
# 
# From -- ./inp_files/22215.got.cif
#   From: 2010.03.12/outbox.cif.g09.slc.cpg/sg62_12_cif.got.tgz:22215.got - 2010.04.10 19:12:36.
