data_PCOD8251825
_publ_section_title
;
Structure prediction by ZEFSAII (Michael W. Deem and Ramdas Pophale) SiO2 
 PCOD8251825
Probable space group: P N M A
;
_chemical_formula_sum "Si O2"
_cell_formula_units_Z 64
_cell_length_a 18.036766
_cell_length_b 17.133032
_cell_length_c 10.400586
_cell_angle_alpha 90.000000
_cell_angle_beta 90.000000
_cell_angle_gamma 90.000000
_cell_volume 3214.035775
_symmetry_space_group_name_H-M "P N M A"
_symmetry_group_IT_number 62
_symmetry_cell_setting 'orthorhombic'
loop_
_space_group_symop_operation_xyz
x,y,z
1/2-x,-y,1/2+z
1/2+x,1/2-y,1/2-z
-x,1/2+y,-z
-x,-y,-z
1/2+x,y,1/2-z
1/2-x,1/2+y,1/2+z
x,1/2-y,z
loop_
_atom_site_type_symbol
_atom_site_label
_atom_site_fract_x
_atom_site_fract_y
_atom_site_fract_z
Si Si1 0.252643 0.657201 0.748408
Si Si2 0.998225 0.157274 0.012348
Si Si3 0.997816 0.408174 0.509097
Si Si4 0.078531 0.157214 0.754660
Si Si5 0.168413 0.656807 0.998363
Si Si6 0.080373 0.342850 0.264473
Si Si7 0.253044 0.657225 0.248112
Si Si8 0.833978 0.157124 0.502104
O O1 0.253530 0.750000 0.750540
O O2 0.209013 0.624372 0.871798
O O3 0.336170 0.624804 0.751409
O O4 0.211894 0.627254 0.620773
O O5 0.996803 0.250000 0.017718
O O6 0.915139 0.124074 0.999553
O O7 0.033993 0.124294 0.143450
O O8 0.046257 0.129246 0.891187
O O9 0.914313 0.379822 0.496490
O O10 0.000000 0.500000 0.500000
O O11 0.030073 0.381749 0.644749
O O12 0.046586 0.371833 0.396694
O O13 0.073612 0.250000 0.738645
O O14 0.162770 0.126590 0.747333
O O15 0.168313 0.750000 0.999374
O O16 0.211559 0.624358 0.122576
O O17 0.079738 0.250000 0.265352
O O18 0.253468 0.750000 0.249138
O O19 0.209742 0.626370 0.373005
O O20 0.842414 0.250000 0.503014
#
# Coordination Sequence:
#
# PCOD8251825 Si02
#       8
#     8   8   8   8   8   8   8   8
#     4   9  17  29  52  82 106 129 168 220 278 333
#     4   9  17  29  52  82 106 129 168 220 278 333
#     4  12  25  38  52  78 115 158 199 228 262 326
#     4  10  19  35  58  83 108 138 178 232 288 334
#     4   9  15  24  39  69 105 129 153 198 256 317
#     4  10  19  35  58  83 108 138 178 232 288 334
#     4   9  17  29  52  82 106 129 168 220 278 333
#     4  10  19  35  58  83 108 138 178 232 288 334
#
# _framework density 19.912659999999999
#
# number of rings (size 3 to 8) (size 9 to 14) (size 15 to 20)
#    0.000    2.250    0.000    4.125    0.000    9.000 
#    0.000    1.875    0.000    0.000    0.000    0.000 
#    0.000    0.000    0.000    0.000    0.000    0.000 
#
# Total GULP energy -793691.030660 kJ/mol
# GULP energy per Si atom -12401.422354 kJ/mol
# Density = 1.986734 g / cm^3
# Si number density = 19.912660 Si / 1000 Ang^3
#
#
#
# Elastic Constant Matrix: (Units=GPa)
#
#
# Indices 1 2 3 4 5 6 
#
# 1 160.8844 6.8568 47.8622 0.0000 0.0000 0.0000
# 2 6.8568 19.7199 3.9529 0.0000 0.0000 0.0000
# 3 47.8622 3.9529 135.2447 0.0000 0.0000 0.0000
# 4 0.0000 0.0000 0.0000 -7.0315 0.0000 0.0000
# 5 0.0000 0.0000 0.0000 0.0000 50.5110 0.0000
# 6 0.0000 0.0000 0.0000 0.0000 0.0000 -10.3825
#
#
#
# Elastic Compliance Matrix: (Units=1/GPa)
#
#
# Indices 1 2 3 4 5 6 
#
# 1 0.007021 -0.001955 -0.002428 0.000000 0.000000 0.000000
# 2 -0.001955 0.051553 -0.000815 0.000000 0.000000 0.000000
# 3 -0.002428 -0.000815 0.008277 0.000000 0.000000 0.000000
# 4 0.000000 0.000000 0.000000 -0.142218 0.000000 0.000000
# 5 0.000000 0.000000 0.000000 0.000000 0.019798 0.000000
# 6 0.000000 0.000000 0.000000 0.000000 0.000000 -0.096316
#
#
# Mechanical properties :
#
#
# Convention : Reuss Voigt Hill
#
# Bulk Modulus (GPa) = 17.71269 48.13254 32.92261
# Shear Modulus (GPa) = -40.75931 23.76454 -8.49739
#
# Velocity S-wave (km/s) = -4.52918 3.45837 -2.06799
# Velocity P-wave (km/s) = 4.29381 6.33809 3.29656
#
# Compressibility (1/GPa) = 0.05645670
#
# Stress axis : x y z
#
# Youngs Moduli (GPa) = 142.42676 19.39740 120.81756
#
# Poissons Ratio (x) = 0.03792 0.29330
# Poissons Ratio (y) = 0.27840 0.09847
# Poissons Ratio (z) = 0.34576 0.01581
#
# Static dielectric constant tensor:
#      x y z
#    x 3.939810 0.000000 0.000000 
#    y 0.000000 2.871430 0.000000 
#    z 0.000000 0.000000 3.757250 
# 
# 
# High freq. dielectric constant tensor:
#      x y z
#    x 1.799580 0.000000 0.000000 
#    y 0.000000 1.706870 0.000000 
#    z 0.000000 0.000000 1.798990 
# 
# From -- ./inp_files/8133.got.cif
#   From: 2010.03.12/outbox.cif.g09.slc.cpg/sg62_5_cif.got.tgz:8133.got - 2010.04.10 19:12:36.
