data_PCOD8251128
_publ_section_title
;
Structure prediction by ZEFSAII (Michael W. Deem and Ramdas Pophale) SiO2 
 PCOD8251128
Probable space group: P N M A
;
_chemical_formula_sum "Si O2"
_cell_formula_units_Z 64
_cell_length_a 29.955782
_cell_length_b 8.713490
_cell_length_c 14.137672
_cell_angle_alpha 90.000000
_cell_angle_beta 90.000000
_cell_angle_gamma 90.000000
_cell_volume 3690.206760
_symmetry_space_group_name_H-M "P N M A"
_symmetry_group_IT_number 62
_symmetry_cell_setting 'orthorhombic'
loop_
_space_group_symop_operation_xyz
x,y,z
1/2-x,-y,1/2+z
1/2+x,1/2-y,1/2-z
-x,1/2+y,-z
-x,-y,-z
1/2+x,y,1/2-z
1/2-x,1/2+y,1/2+z
x,1/2-y,z
loop_
_atom_site_type_symbol
_atom_site_label
_atom_site_fract_x
_atom_site_fract_y
_atom_site_fract_z
Si Si1 0.685426 0.422643 0.020470
Si Si2 0.634703 0.928445 0.861756
Si Si3 0.453303 0.570012 0.110444
Si Si4 0.719569 0.571238 0.737691
Si Si5 0.044909 0.431363 0.392126
Si Si6 0.133919 0.076027 0.290355
Si Si7 0.697676 0.929648 0.348549
Si Si8 0.775739 0.571600 0.034981
O O1 0.700530 0.250000 0.993524
O O2 0.671342 0.428483 0.128873
O O3 0.725139 0.541682 0.001159
O O4 0.644335 0.473727 0.956000
O O5 0.633754 0.750000 0.886377
O O6 0.671640 0.966495 0.783104
O O7 0.585684 0.985588 0.829288
O O8 0.449004 0.750000 0.125622
O O9 0.500989 0.513115 0.149688
O O10 0.448242 0.519911 0.000898
O O11 0.731737 0.750000 0.744652
O O12 0.758532 0.479772 0.790450
O O13 0.714718 0.524087 0.628986
O O14 0.039181 0.250000 0.384924
O O15 0.086978 0.487865 0.329898
O O16 0.128211 0.250000 0.253701
O O17 0.152030 0.969531 0.206510
O O18 0.700407 0.750000 0.366038
O O19 0.693230 0.014626 0.449366
O O20 0.783615 0.750000 0.054604
#
# Coordination Sequence:
#
# PCOD8251128 Si02
#       8
#     8   8   8   8   8   8   8   8
#     4  11  20  32  52  75 106 141 178 220 262 305
#     4  11  22  34  52  76 106 143 180 217 262 317
#     4  10  19  32  50  75 106 139 175 217 262 312
#     4  11  23  38  54  76 106 139 180 224 264 311
#     4   9  18  33  50  73 104 140 175 214 264 311
#     4  10  20  35  53  75 107 143 179 220 263 312
#     4  12  24  36  54  78 106 141 180 220 264 315
#     4  12  24  38  54  75 104 141 182 222 267 312
#
# _framework density 17.343202000000002
#
# number of rings (size 3 to 8) (size 9 to 14) (size 15 to 20)
#    0.000    1.250    3.750    3.750    0.000    3.000 
#    0.000    0.000    0.000    0.000    0.000    0.875 
#    0.000    0.000    0.000    0.000    0.000    0.000 
#
# Total GULP energy -793755.656219 kJ/mol
# GULP energy per Si atom -12402.432128 kJ/mol
# Density = 1.730373 g / cm^3
# Si number density = 17.343202 Si / 1000 Ang^3
#
#
#
# Elastic Constant Matrix: (Units=GPa)
#
#
# Indices 1 2 3 4 5 6 
#
# 1 93.3002 25.5027 13.6778 0.0000 0.0000 0.0000
# 2 25.5027 63.2895 7.9384 0.0000 0.0000 0.0000
# 3 13.6778 7.9384 49.2700 0.0000 0.0000 0.0000
# 4 0.0000 0.0000 0.0000 23.1103 0.0000 0.0000
# 5 0.0000 0.0000 0.0000 0.0000 23.4273 0.0000
# 6 0.0000 0.0000 0.0000 0.0000 0.0000 29.5891
#
#
#
# Elastic Compliance Matrix: (Units=1/GPa)
#
#
# Indices 1 2 3 4 5 6 
#
# 1 0.012384 -0.004653 -0.002688 0.000000 0.000000 0.000000
# 2 -0.004653 0.017875 -0.001588 0.000000 0.000000 0.000000
# 3 -0.002688 -0.001588 0.021298 0.000000 0.000000 0.000000
# 4 0.000000 0.000000 0.000000 0.043271 0.000000 0.000000
# 5 0.000000 0.000000 0.000000 0.000000 0.042685 0.000000
# 6 0.000000 0.000000 0.000000 0.000000 0.000000 0.033796
#
#
# Mechanical properties :
#
#
# Convention : Reuss Voigt Hill
#
# Bulk Modulus (GPa) = 29.67521 33.34418 31.50970
# Shear Modulus (GPa) = 24.94999 25.80808 25.37903
#
# Velocity S-wave (km/s) = 3.79701 3.86175 3.82952
# Velocity P-wave (km/s) = 6.03082 6.25715 6.14503
#
# Compressibility (1/GPa) = 0.03369816
#
# Stress axis : x y z
#
# Youngs Moduli (GPa) = 80.74910 55.94544 46.95168
#
# Poissons Ratio (x) = 0.26031 0.12622
# Poissons Ratio (y) = 0.37573 0.07457
# Poissons Ratio (z) = 0.21707 0.08885
#
# Static dielectric constant tensor:
#      x y z
#    x 3.292400 0.000000 0.000000 
#    y 0.000000 3.235140 0.000000 
#    z 0.000000 0.000000 3.075820 
# 
# 
# High freq. dielectric constant tensor:
#      x y z
#    x 1.663760 0.000000 0.000000 
#    y 0.000000 1.680850 0.000000 
#    z 0.000000 0.000000 1.638920 
# 
# From -- ./inp_files/21270.got.cif
#   From: 2010.03.12/outbox.cif.g09.slc.cpg/sg62_11_cif.got.tgz:21270.got - 2010.04.10 19:12:36.
