data_PCOD8251484
_publ_section_title
;
Structure prediction by ZEFSAII (Michael W. Deem and Ramdas Pophale) SiO2 
 PCOD8251484
Probable space group: P N M A
;
_chemical_formula_sum "Si O2"
_cell_formula_units_Z 64
_cell_length_a 19.535646
_cell_length_b 8.854481
_cell_length_c 19.695689
_cell_angle_alpha 90.000000
_cell_angle_beta 90.000000
_cell_angle_gamma 90.000000
_cell_volume 3406.921017
_symmetry_space_group_name_H-M "P N M A"
_symmetry_group_IT_number 62
_symmetry_cell_setting 'orthorhombic'
loop_
_space_group_symop_operation_xyz
x,y,z
1/2-x,-y,1/2+z
1/2+x,1/2-y,1/2-z
-x,1/2+y,-z
-x,-y,-z
1/2+x,y,1/2-z
1/2-x,1/2+y,1/2+z
x,1/2-y,z
loop_
_atom_site_type_symbol
_atom_site_label
_atom_site_fract_x
_atom_site_fract_y
_atom_site_fract_z
Si Si1 0.798330 0.926856 0.511881
Si Si2 0.215778 0.575346 0.858926
Si Si3 0.236670 0.924639 0.705880
Si Si4 0.467393 0.072816 0.564984
Si Si5 0.597416 0.427952 0.823195
Si Si6 0.316779 0.425965 0.598381
Si Si7 0.936802 0.070773 0.460507
Si Si8 0.423567 0.572775 0.327818
O O1 0.817007 0.750000 0.512549
O O2 0.769155 0.983224 0.584568
O O3 0.740318 0.963569 0.457066
O O4 0.866227 0.019598 0.495284
O O5 0.201123 0.750000 0.872543
O O6 0.248909 0.544766 0.785392
O O7 0.142473 0.496240 0.864753
O O8 0.218817 0.750000 0.692387
O O9 0.177061 0.028779 0.675017
O O10 0.304346 0.976583 0.666376
O O11 0.472067 0.250000 0.555602
O O12 0.389517 0.018243 0.570411
O O13 0.508803 0.021792 0.632137
O O14 0.500000 0.000000 0.500000
O O15 0.589951 0.250000 0.835843
O O16 0.557991 0.515301 0.882639
O O17 0.567652 0.481270 0.750271
O O18 0.318883 0.250000 0.617479
O O19 0.941925 0.250000 0.462794
O O20 0.000000 0.000000 0.500000
O O21 0.411954 0.750000 0.328496
#
# Coordination Sequence:
#
# PCOD8251484 Si02
#       8
#     8   8   8   8   8   8   8   8
#     4  10  20  37  59  83 113 150 188 231 283 338
#     4   9  19  35  57  84 116 150 187 232 281 331
#     4  10  19  33  55  83 112 142 186 233 275 331
#     4  10  21  37  55  82 116 154 193 234 283 335
#     4  10  19  36  60  83 112 150 190 233 282 335
#     4  10  20  34  56  80 111 152 190 229 283 338
#     4  12  25  41  61  85 112 146 188 237 290 347
#     4   9  19  35  57  84 118 155 196 237 277 334
#
# _framework density 18.785288999999999
#
# number of rings (size 3 to 8) (size 9 to 14) (size 15 to 20)
#    0.000    2.000    1.250    2.625    0.000    3.500 
#    2.250    0.000    0.000    0.000    0.000    0.000 
#    0.000    0.000    0.000    0.000    0.000    0.000 
#
# Total GULP energy -793694.153383 kJ/mol
# GULP energy per Si atom -12401.471147 kJ/mol
# Density = 1.874253 g / cm^3
# Si number density = 18.785289 Si / 1000 Ang^3
#
#
#
# Elastic Constant Matrix: (Units=GPa)
#
#
# Indices 1 2 3 4 5 6 
#
# 1 137.1727 50.8541 78.6083 0.0000 0.0000 0.0000
# 2 50.8541 69.8217 50.4523 0.0000 0.0000 0.0000
# 3 78.6083 50.4523 136.2552 0.0000 0.0000 0.0000
# 4 0.0000 0.0000 0.0000 25.5830 0.0000 0.0000
# 5 0.0000 0.0000 0.0000 0.0000 30.8433 0.0000
# 6 0.0000 0.0000 0.0000 0.0000 0.0000 28.7368
#
#
#
# Elastic Compliance Matrix: (Units=1/GPa)
#
#
# Indices 1 2 3 4 5 6 
#
# 1 0.012110 -0.005150 -0.005080 0.000000 0.000000 0.000000
# 2 -0.005150 0.021744 -0.005080 0.000000 0.000000 0.000000
# 3 -0.005080 -0.005080 0.012151 0.000000 0.000000 0.000000
# 4 0.000000 0.000000 0.000000 0.039089 0.000000 0.000000
# 5 0.000000 0.000000 0.000000 0.000000 0.032422 0.000000
# 6 0.000000 0.000000 0.000000 0.000000 0.000000 0.034799
#
#
# Mechanical properties :
#
#
# Convention : Reuss Voigt Hill
#
# Bulk Modulus (GPa) = 64.99676 78.11989 71.55833
# Shear Modulus (GPa) = 26.58688 27.92160 27.25424
#
# Velocity S-wave (km/s) = 3.76613 3.85951 3.81311
# Velocity P-wave (km/s) = 7.32029 7.84455 7.58695
#
# Compressibility (1/GPa) = 0.01538538
#
# Stress axis : x y z
#
# Youngs Moduli (GPa) = 82.57407 45.98968 82.29831
#
# Poissons Ratio (x) = 0.23684 0.41806
# Poissons Ratio (y) = 0.42525 0.41810
# Poissons Ratio (z) = 0.41946 0.23364
#
# Static dielectric constant tensor:
#      x y z
#    x 3.429750 0.000000 0.000000 
#    y 0.000000 3.391220 0.000000 
#    z 0.000000 0.000000 3.781060 
# 
# 
# High freq. dielectric constant tensor:
#      x y z
#    x 1.718300 0.000000 0.000000 
#    y 0.000000 1.725830 0.000000 
#    z 0.000000 0.000000 1.744780 
# 
# From -- ./inp_files/24809.got.cif
#   From: 2010.03.12/outbox.cif.g09.slc.cpg/sg62_13_cif.got.tgz:24809.got - 2010.04.10 19:12:36.
