data_PCOD8251944
_publ_section_title
;
Structure prediction by ZEFSAII (Michael W. Deem and Ramdas Pophale) SiO2 
 PCOD8251944
Probable space group: P N M A
;
_chemical_formula_sum "Si O2"
_cell_formula_units_Z 56
_cell_length_a 18.480058
_cell_length_b 9.007159
_cell_length_c 17.222242
_cell_angle_alpha 90.000000
_cell_angle_beta 90.000000
_cell_angle_gamma 90.000000
_cell_volume 2866.690760
_symmetry_space_group_name_H-M "P N M A"
_symmetry_group_IT_number 62
_symmetry_cell_setting 'orthorhombic'
loop_
_space_group_symop_operation_xyz
x,y,z
1/2-x,-y,1/2+z
1/2+x,1/2-y,1/2-z
-x,1/2+y,-z
-x,-y,-z
1/2+x,y,1/2-z
1/2-x,1/2+y,1/2+z
x,1/2-y,z
loop_
_atom_site_type_symbol
_atom_site_label
_atom_site_fract_x
_atom_site_fract_y
_atom_site_fract_z
Si Si1 0.424883 0.423559 0.485863
Si Si2 0.184979 0.573482 0.584639
Si Si3 0.655818 0.420440 0.645921
Si Si4 0.811766 0.425275 0.590981
Si Si5 0.418506 0.073529 0.779923
Si Si6 0.670974 0.574592 0.368409
Si Si7 0.080558 0.078587 0.694049
O O1 0.500000 0.500000 0.500000
O O2 0.438002 0.250000 0.485854
O O3 0.396104 0.475171 0.403197
O O4 0.368762 0.470617 0.552382
O O5 0.189560 0.750000 0.587445
O O6 0.185339 0.511111 0.496333
O O7 0.251896 0.506081 0.632502
O O8 0.110302 0.518371 0.622837
O O9 0.644824 0.250000 0.619256
O O10 0.737892 0.473212 0.633363
O O11 0.635947 0.441174 0.735266
O O12 0.817645 0.250000 0.586772
O O13 0.877621 0.487621 0.643270
O O14 0.416936 0.250000 0.776992
O O15 0.377805 0.014675 0.702921
O O16 0.501287 0.017443 0.782074
O O17 0.684623 0.750000 0.361652
O O18 0.075548 0.250000 0.668124
#
# Coordination Sequence:
#
# PCOD8251944 Si02
#       7
#     8   8   8   8   8   8   8
#     4  11  22  34  54  85 119 152 186 233 286 343
#     4  11  22  36  56  83 115 151 187 230 287 344
#     4  10  19  36  58  80 110 150 193 235 287 343
#     4   9  18  33  55  80 110 148 186 229 283 339
#     4   9  18  35  58  83 109 144 192 236 278 330
#     4  10  20  37  60  84 110 144 192 239 279 334
#     4  10  21  37  60  85 111 148 193 239 282 336
#
# _framework density 19.534718000000002
#
# number of rings (size 3 to 8) (size 9 to 14) (size 15 to 20)
#    0.000    2.000    1.429    2.571    0.000    6.286 
#    0.000    0.714    0.000    2.571    0.000    0.000 
#    0.000    0.000    0.000    0.000    0.000    0.000 
#
# Total GULP energy -694518.314405 kJ/mol
# GULP energy per Si atom -12402.112757 kJ/mol
# Density = 1.949026 g / cm^3
# Si number density = 19.534718 Si / 1000 Ang^3
#
#
#
# Elastic Constant Matrix: (Units=GPa)
#
#
# Indices 1 2 3 4 5 6 
#
# 1 99.7032 29.1544 46.6735 0.0000 0.0000 0.0000
# 2 29.1544 36.9260 27.0934 0.0000 0.0000 0.0000
# 3 46.6735 27.0934 100.1984 0.0000 0.0000 0.0000
# 4 0.0000 0.0000 0.0000 22.1327 0.0000 0.0000
# 5 0.0000 0.0000 0.0000 0.0000 34.3678 0.0000
# 6 0.0000 0.0000 0.0000 0.0000 0.0000 29.4736
#
#
#
# Elastic Compliance Matrix: (Units=1/GPa)
#
#
# Indices 1 2 3 4 5 6 
#
# 1 0.014550 -0.008128 -0.004580 0.000000 0.000000 0.000000
# 2 -0.008128 0.038324 -0.006577 0.000000 0.000000 0.000000
# 3 -0.004580 -0.006577 0.013892 0.000000 0.000000 0.000000
# 4 0.000000 0.000000 0.000000 0.045182 0.000000 0.000000
# 5 0.000000 0.000000 0.000000 0.000000 0.029097 0.000000
# 6 0.000000 0.000000 0.000000 0.000000 0.000000 0.033929
#
#
# Mechanical properties :
#
#
# Convention : Reuss Voigt Hill
#
# Bulk Modulus (GPa) = 35.46429 49.18555 42.32492
# Shear Modulus (GPa) = 22.42740 26.12192 24.27466
#
# Velocity S-wave (km/s) = 3.39201 3.66075 3.52894
# Velocity P-wave (km/s) = 5.79093 6.56516 6.19016
#
# Compressibility (1/GPa) = 0.02819738
#
# Stress axis : x y z
#
# Youngs Moduli (GPa) = 68.72667 26.09351 71.98401
#
# Poissons Ratio (x) = 0.21208 0.32969
# Poissons Ratio (y) = 0.55858 0.47342
# Poissons Ratio (z) = 0.31477 0.17161
#
# Static dielectric constant tensor:
#      x y z
#    x 3.606620 0.000000 0.000000 
#    y 0.000000 3.185920 0.000000 
#    z 0.000000 0.000000 3.679000 
# 
# 
# High freq. dielectric constant tensor:
#      x y z
#    x 1.772710 0.000000 0.000000 
#    y 0.000000 1.723300 0.000000 
#    z 0.000000 0.000000 1.770280 
# 
# From -- ./inp_files/20372.got.cif
#   From: 2010.03.12/outbox.cif.g09.slc.cpg/sg62_11_cif.got.tgz:20372.got - 2010.04.10 19:12:36.
