data_PCOD8251551
_publ_section_title
;
Structure prediction by ZEFSAII (Michael W. Deem and Ramdas Pophale) SiO2 
 PCOD8251551
Probable space group: P N M A
;
_chemical_formula_sum "Si O2"
_cell_formula_units_Z 56
_cell_length_a 13.967306
_cell_length_b 16.940463
_cell_length_c 12.432493
_cell_angle_alpha 90.000000
_cell_angle_beta 90.000000
_cell_angle_gamma 90.000000
_cell_volume 2941.684872
_symmetry_space_group_name_H-M "P N M A"
_symmetry_group_IT_number 62
_symmetry_cell_setting 'orthorhombic'
loop_
_space_group_symop_operation_xyz
x,y,z
1/2-x,-y,1/2+z
1/2+x,1/2-y,1/2-z
-x,1/2+y,-z
-x,-y,-z
1/2+x,y,1/2-z
1/2-x,1/2+y,1/2+z
x,1/2-y,z
loop_
_atom_site_type_symbol
_atom_site_label
_atom_site_fract_x
_atom_site_fract_y
_atom_site_fract_z
Si Si1 0.507749 0.035588 0.671783
Si Si2 0.807381 0.663528 0.882500
Si Si3 0.077503 0.102933 0.306208
Si Si4 0.519443 0.158764 0.858115
Si Si5 0.138554 0.007793 0.005834
Si Si6 0.651366 0.045145 0.979744
Si Si7 0.094164 0.626386 0.561756
O O1 0.501764 0.113098 0.746017
O O2 0.613267 0.017068 0.621182
O O3 0.476902 0.957502 0.731182
O O4 0.438748 0.046114 0.568226
O O5 0.839672 0.750000 0.922749
O O6 0.844735 0.654038 0.759569
O O7 0.856627 0.598289 0.955435
O O8 0.691990 0.660840 0.891273
O O9 0.135001 0.053245 0.393963
O O10 0.994673 0.155754 0.363863
O O11 0.540435 0.250000 0.831125
O O12 0.612994 0.120885 0.914792
O O13 0.427432 0.152844 0.938368
O O14 0.236010 0.963434 0.033557
O O15 0.595534 0.968935 0.934440
#
# Coordination Sequence:
#
# PCOD8251551 Si02
#       7
#     8   8   8   8   8   8   8
#     4  10  19  38  57  86 107 150 198 229 287 341
#     4  10  22  36  53  85 115 146 188 235 293 339
#     4  10  19  33  62  82 109 148 192 237 274 343
#     4  11  21  35  60  87 119 151 188 245 302 343
#     4   9  22  36  61  78 112 152 194 239 274 357
#     4  10  19  37  59  87 110 148 195 236 280 349
#     4  10  19  38  59  82 115 152 192 238 279 353
#
# _framework density 19.036708999999998
#
# number of rings (size 3 to 8) (size 9 to 14) (size 15 to 20)
#    0.000    2.000    2.857    1.286    2.000    4.571 
#    0.000    0.714    0.000    0.857    0.000    0.000 
#    0.000    0.000    0.000    0.000    0.000    0.000 
#
# Total GULP energy -694004.969123 kJ/mol
# GULP energy per Si atom -12392.945877 kJ/mol
# Density = 1.899338 g / cm^3
# Si number density = 19.036709 Si / 1000 Ang^3
#
#
#
# Elastic Constant Matrix: (Units=GPa)
#
#
# Indices 1 2 3 4 5 6 
#
# 1 93.7924 47.9002 53.6496 0.0000 0.0000 0.0000
# 2 47.9002 108.9584 39.4679 0.0000 0.0000 0.0000
# 3 53.6496 39.4679 113.6098 0.0000 0.0000 0.0000
# 4 0.0000 0.0000 0.0000 14.8546 0.0000 0.0000
# 5 0.0000 0.0000 0.0000 0.0000 31.0181 0.0000
# 6 0.0000 0.0000 0.0000 0.0000 0.0000 7.5135
#
#
#
# Elastic Compliance Matrix: (Units=1/GPa)
#
#
# Indices 1 2 3 4 5 6 
#
# 1 0.016816 -0.005166 -0.006146 0.000000 0.000000 0.000000
# 2 -0.005166 0.012086 -0.001759 0.000000 0.000000 0.000000
# 3 -0.006146 -0.001759 0.012316 0.000000 0.000000 0.000000
# 4 0.000000 0.000000 0.000000 0.067319 0.000000 0.000000
# 5 0.000000 0.000000 0.000000 0.000000 0.032239 0.000000
# 6 0.000000 0.000000 0.000000 0.000000 0.000000 0.133094
#
#
# Mechanical properties :
#
#
# Convention : Reuss Voigt Hill
#
# Bulk Modulus (GPa) = 66.33668 66.48844 66.41256
# Shear Modulus (GPa) = 16.39141 22.36676 19.37909
#
# Velocity S-wave (km/s) = 2.93754 3.43144 3.19405
# Velocity P-wave (km/s) = 6.81380 7.12053 6.96885
#
# Compressibility (1/GPa) = 0.01507462
#
# Stress axis : x y z
#
# Youngs Moduli (GPa) = 59.46755 82.73898 81.19824
#
# Poissons Ratio (x) = 0.42745 0.49906
# Poissons Ratio (y) = 0.30723 0.14283
# Poissons Ratio (z) = 0.36550 0.14554
#
# Static dielectric constant tensor:
#      x y z
#    x 3.534760 0.000000 0.000000 
#    y 0.000000 3.309830 0.000000 
#    z 0.000000 0.000000 3.715110 
# 
# 
# High freq. dielectric constant tensor:
#      x y z
#    x 1.739480 0.000000 0.000000 
#    y 0.000000 1.723590 0.000000 
#    z 0.000000 0.000000 1.742500 
# 
# From -- ./inp_files/13398.got.cif
#   From: 2010.03.12/outbox.cif.g09.slc.cpg/sg62_7_cif.got.tgz:13398.got - 2010.04.10 19:12:36.
