data_PCOD8251586
_publ_section_title
;
Structure prediction by ZEFSAII (Michael W. Deem and Ramdas Pophale) SiO2 
 PCOD8251586
Probable space group: P N M A
;
_chemical_formula_sum "Si O2"
_cell_formula_units_Z 40
_cell_length_a 25.833998
_cell_length_b 8.392605
_cell_length_c 9.689748
_cell_angle_alpha 90.000000
_cell_angle_beta 90.000000
_cell_angle_gamma 90.000000
_cell_volume 2100.878263
_symmetry_space_group_name_H-M "P N M A"
_symmetry_group_IT_number 62
_symmetry_cell_setting 'orthorhombic'
loop_
_space_group_symop_operation_xyz
x,y,z
1/2-x,-y,1/2+z
1/2+x,1/2-y,1/2-z
-x,1/2+y,-z
-x,-y,-z
1/2+x,y,1/2-z
1/2-x,1/2+y,1/2+z
x,1/2-y,z
loop_
_atom_site_type_symbol
_atom_site_label
_atom_site_fract_x
_atom_site_fract_y
_atom_site_fract_z
Si Si1 0.137855 0.438357 0.282389
Si Si2 0.858342 0.434438 0.301533
Si Si3 0.942265 0.561429 0.495932
Si Si4 0.165298 0.064367 0.985507
Si Si5 0.777873 0.564014 0.504143
O O1 0.140331 0.250000 0.279260
O O2 0.086174 0.494437 0.362693
O O3 0.188322 0.497481 0.366018
O O4 0.138876 0.503288 0.126121
O O5 0.848133 0.250000 0.330579
O O6 0.913266 0.485785 0.365028
O O7 0.860166 0.466420 0.138494
O O8 0.811096 0.535315 0.365625
O O9 0.940586 0.750000 0.479870
O O10 0.000000 0.500000 0.500000
O O11 0.153502 0.250000 0.964409
O O12 0.226558 0.040133 0.997309
O O13 0.763626 0.750000 0.515119
#
# Coordination Sequence:
#
# PCOD8251586 Si02
#       5
#     8   8   8   8   8
#     4   8  18  34  53  76 106 138 174 217 266 317
#     4  11  22  36  53  79 111 146 184 222 262 316
#     4  10  20  39  62  82 102 133 176 226 278 331
#     4  11  20  33  53  80 112 146 178 219 269 318
#     4  10  19  34  54  79 110 147 184 222 265 318
#
# _framework density 19.039656999999998
#
# number of rings (size 3 to 8) (size 9 to 14) (size 15 to 20)
#    0.000    2.000    0.000    6.000    0.000    1.600 
#    0.000   12.000    0.000    0.000    0.000    0.000 
#    0.000    0.000    0.000    0.000    0.000    0.000 
#
# Total GULP energy -496048.203832 kJ/mol
# GULP energy per Si atom -12401.205096 kJ/mol
# Density = 1.899632 g / cm^3
# Si number density = 19.039657 Si / 1000 Ang^3
#
#
#
# Elastic Constant Matrix: (Units=GPa)
#
#
# Indices 1 2 3 4 5 6 
#
# 1 121.8155 11.8649 62.8290 0.0000 0.0000 0.0000
# 2 11.8649 57.5414 19.3695 0.0000 0.0000 0.0000
# 3 62.8290 19.3695 158.2535 0.0000 0.0000 0.0000
# 4 0.0000 0.0000 0.0000 23.2997 0.0000 0.0000
# 5 0.0000 0.0000 0.0000 0.0000 10.8787 0.0000
# 6 0.0000 0.0000 0.0000 0.0000 0.0000 30.1470
#
#
#
# Elastic Compliance Matrix: (Units=1/GPa)
#
#
# Indices 1 2 3 4 5 6 
#
# 1 0.010357 -0.000784 -0.004016 0.000000 0.000000 0.000000
# 2 -0.000784 0.018185 -0.001915 0.000000 0.000000 0.000000
# 3 -0.004016 -0.001915 0.008148 0.000000 0.000000 0.000000
# 4 0.000000 0.000000 0.000000 0.042919 0.000000 0.000000
# 5 0.000000 0.000000 0.000000 0.000000 0.091923 0.000000
# 6 0.000000 0.000000 0.000000 0.000000 0.000000 0.033171
#
#
# Mechanical properties :
#
#
# Convention : Reuss Voigt Hill
#
# Bulk Modulus (GPa) = 42.99053 58.41524 50.70289
# Shear Modulus (GPa) = 22.13528 29.10157 25.61842
#
# Velocity S-wave (km/s) = 3.41337 3.91381 3.67213
# Velocity P-wave (km/s) = 6.17765 7.15341 6.68336
#
# Compressibility (1/GPa) = 0.02326094
#
# Stress axis : x y z
#
# Youngs Moduli (GPa) = 96.55550 54.99079 122.73456
#
# Poissons Ratio (x) = 0.04310 0.49288
# Poissons Ratio (y) = 0.07567 0.23499
# Poissons Ratio (z) = 0.38775 0.10528
#
# Static dielectric constant tensor:
#      x y z
#    x 3.285450 0.000000 0.000000 
#    y 0.000000 3.411330 0.000000 
#    z 0.000000 0.000000 3.802450 
# 
# 
# High freq. dielectric constant tensor:
#      x y z
#    x 1.721200 0.000000 0.000000 
#    y 0.000000 1.735770 0.000000 
#    z 0.000000 0.000000 1.748410 
# 
# From -- ./inp_files/9096.got.cif
#   From: 2010.03.12/outbox.cif.g09.slc.cpg/sg62_5_cif.got.tgz:9096.got - 2010.04.10 19:12:36.
