data_PCOD8251425
_publ_section_title
;
Structure prediction by ZEFSAII (Michael W. Deem and Ramdas Pophale) SiO2 
 PCOD8251425
Probable space group: P N M A
;
_chemical_formula_sum "Si O2"
_cell_formula_units_Z 48
_cell_length_a 30.545589
_cell_length_b 9.092876
_cell_length_c 8.874544
_cell_angle_alpha 90.000000
_cell_angle_beta 90.000000
_cell_angle_gamma 90.000000
_cell_volume 2464.880219
_symmetry_space_group_name_H-M "P N M A"
_symmetry_group_IT_number 62
_symmetry_cell_setting 'orthorhombic'
loop_
_space_group_symop_operation_xyz
x,y,z
1/2-x,-y,1/2+z
1/2+x,1/2-y,1/2-z
-x,1/2+y,-z
-x,-y,-z
1/2+x,y,1/2-z
1/2-x,1/2+y,1/2+z
x,1/2-y,z
loop_
_atom_site_type_symbol
_atom_site_label
_atom_site_fract_x
_atom_site_fract_y
_atom_site_fract_z
Si Si1 0.287266 0.580669 0.728337
Si Si2 0.533682 0.415742 0.799958
Si Si3 0.296725 0.081834 0.422373
Si Si4 0.381401 0.420314 0.236607
Si Si5 0.364352 0.422758 0.894465
Si Si6 0.950032 0.583723 0.654684
O O1 0.302077 0.750000 0.734398
O O2 0.238599 0.559469 0.791339
O O3 0.286318 0.527504 0.557188
O O4 0.319825 0.484183 0.827139
O O5 0.528383 0.250000 0.740799
O O6 0.575513 0.488192 0.718621
O O7 0.489907 0.505374 0.757539
O O8 0.540733 0.419763 0.977935
O O9 0.296321 0.250000 0.480628
O O10 0.343951 0.040241 0.355600
O O11 0.394360 0.250000 0.240670
O O12 0.364417 0.462677 0.070629
O O13 0.367028 0.250000 0.865030
O O14 0.405392 0.497083 0.809695
O O15 0.945739 0.750000 0.714127
#
# Coordination Sequence:
#
# PCOD8251425 Si02
#       6
#     8   8   8   8   8   8
#     4  11  23  38  57  81 107 137 176 219 264 316
#     4   9  16  26  44  73 106 139 176 218 263 308
#     4  10  22  39  57  78 106 139 175 216 263 315
#     4   9  18  33  53  77 106 141 179 218 262 312
#     4  10  19  33  54  79 109 143 178 219 266 313
#     4   9  16  27  45  72 106 141 178 219 260 306
#
# _framework density 19.473562999999999
#
# number of rings (size 3 to 8) (size 9 to 14) (size 15 to 20)
#    0.000    2.333    0.000    3.000    0.000    8.000 
#    0.000    0.000    0.000    1.000    0.000    0.000 
#    0.000    0.000    0.000    0.000    0.000    0.000 
#
# Total GULP energy -595332.829355 kJ/mol
# GULP energy per Si atom -12402.767278 kJ/mol
# Density = 1.942924 g / cm^3
# Si number density = 19.473563 Si / 1000 Ang^3
#
#
#
# Elastic Constant Matrix: (Units=GPa)
#
#
# Indices 1 2 3 4 5 6 
#
# 1 55.1322 26.1219 -10.7640 0.0000 0.0000 0.0000
# 2 26.1219 103.1322 13.1939 0.0000 0.0000 0.0000
# 3 -10.7640 13.1939 34.8972 0.0000 0.0000 0.0000
# 4 0.0000 0.0000 0.0000 23.3912 0.0000 0.0000
# 5 0.0000 0.0000 0.0000 0.0000 21.5206 0.0000
# 6 0.0000 0.0000 0.0000 0.0000 0.0000 38.8806
#
#
#
# Elastic Compliance Matrix: (Units=1/GPa)
#
#
# Indices 1 2 3 4 5 6 
#
# 1 0.023516 -0.007234 0.009989 0.000000 0.000000 0.000000
# 2 -0.007234 0.012415 -0.006925 0.000000 0.000000 0.000000
# 3 0.009989 -0.006925 0.034355 0.000000 0.000000 0.000000
# 4 0.000000 0.000000 0.000000 0.042751 0.000000 0.000000
# 5 0.000000 0.000000 0.000000 0.000000 0.046467 0.000000
# 6 0.000000 0.000000 0.000000 0.000000 0.000000 0.025720
#
#
# Mechanical properties :
#
#
# Convention : Reuss Voigt Hill
#
# Bulk Modulus (GPa) = 16.14360 27.80725 21.97542
# Shear Modulus (GPa) = 23.34132 27.73247 25.53689
#
# Velocity S-wave (km/s) = 3.46586 3.77783 3.62520
# Velocity P-wave (km/s) = 4.93196 5.77406 5.36955
#
# Compressibility (1/GPa) = 0.06194407
#
# Stress axis : x y z
#
# Youngs Moduli (GPa) = 42.52437 80.55087 29.10802
#
# Poissons Ratio (x) = 0.58271 -0.29075
# Poissons Ratio (y) = 0.30763 0.20157
# Poissons Ratio (z) = -0.42476 0.55782
#
# Static dielectric constant tensor:
#      x y z
#    x 3.710750 0.000000 0.000000 
#    y 0.000000 3.699600 0.000000 
#    z 0.000000 0.000000 3.111380 
# 
# 
# High freq. dielectric constant tensor:
#      x y z
#    x 1.773750 0.000000 0.000000 
#    y 0.000000 1.768030 0.000000 
#    z 0.000000 0.000000 1.715350 
# 
# From -- ./inp_files/10137.got.cif
#   From: 2010.03.12/outbox.cif.g09.slc.cpg/sg62_6_cif.got.tgz:10137.got - 2010.04.10 19:12:36.
