data_PCOD8251259
_publ_section_title
;
Structure prediction by ZEFSAII (Michael W. Deem and Ramdas Pophale) SiO2 
 PCOD8251259
Probable space group: P N M A
;
_chemical_formula_sum "Si O2"
_cell_formula_units_Z 60
_cell_length_a 5.355472
_cell_length_b 26.996930
_cell_length_c 19.587653
_cell_angle_alpha 90.000000
_cell_angle_beta 90.000000
_cell_angle_gamma 90.000000
_cell_volume 2832.008388
_symmetry_space_group_name_H-M "P N M A"
_symmetry_group_IT_number 62
_symmetry_cell_setting 'orthorhombic'
loop_
_space_group_symop_operation_xyz
x,y,z
1/2-x,-y,1/2+z
1/2+x,1/2-y,1/2-z
-x,1/2+y,-z
-x,-y,-z
1/2+x,y,1/2-z
1/2-x,1/2+y,1/2+z
x,1/2-y,z
loop_
_atom_site_type_symbol
_atom_site_label
_atom_site_fract_x
_atom_site_fract_y
_atom_site_fract_z
Si Si1 0.880748 0.074868 0.532991
Si Si2 0.713838 0.027851 0.073291
Si Si3 0.130112 0.804346 0.009762
Si Si4 0.602333 0.149021 0.271463
Si Si5 0.376866 0.174449 0.910112
Si Si6 0.446875 0.615513 0.581395
Si Si7 0.531611 0.459550 0.216439
Si Si8 0.591471 0.750000 0.207058
O O1 0.927549 0.114507 0.593826
O O2 0.770366 0.108246 0.472717
O O3 0.126274 0.049726 0.500135
O O4 0.707252 0.029611 0.560432
O O5 0.511662 0.029493 0.134969
O O6 0.941565 0.061488 0.099102
O O7 0.088816 0.750000 0.976981
O O8 0.396168 0.802772 0.046870
O O9 0.898109 0.814740 0.060137
O O10 0.145557 0.845799 0.950434
O O11 0.338341 0.178467 0.261663
O O12 0.663682 0.138348 0.350008
O O13 0.537491 0.099391 0.228249
O O14 0.384682 0.199447 0.836238
O O15 0.284843 0.483287 0.251491
O O16 0.317107 0.750000 0.239587
#
# Coordination Sequence:
#
# PCOD8251259 Si02
#       8
#     8   8   8   8   8   8   8   4
#     4  10  23  36  56  88 124 158 195 258 313 362
#     4  11  20  36  56  87 121 163 202 245 304 370
#     4  11  21  38  64  93 118 152 194 258 305 361
#     4  10  19  32  54  78 108 150 201 238 272 343
#     4  11  22  42  63  91 122 155 198 253 311 365
#     4  11  21  34  60  84 120 156 205 248 310 366
#     4  10  19  33  53  76 106 149 205 233 269 338
#     4  12  24  42  72  92 120 164 212 256 318 390
#
# _framework density 21.186378999999999
#
# number of rings (size 3 to 8) (size 9 to 14) (size 15 to 20)
#    0.000    1.333    5.333    2.800    0.000    0.000 
#    0.000    1.333    0.000    0.800    0.000    0.000 
#    0.000    0.000    0.000    0.000    0.000    0.000 
#
# Total GULP energy -743407.286905 kJ/mol
# GULP energy per Si atom -12390.121448 kJ/mol
# Density = 2.113816 g / cm^3
# Si number density = 21.186379 Si / 1000 Ang^3
#
#
#
# Elastic Constant Matrix: (Units=GPa)
#
#
# Indices 1 2 3 4 5 6 
#
# 1 109.8914 7.9104 13.2970 0.0000 0.0000 0.0000
# 2 7.9104 114.1364 27.0126 0.0000 0.0000 0.0000
# 3 13.2970 27.0126 83.4180 0.0000 0.0000 0.0000
# 4 0.0000 0.0000 0.0000 19.0673 0.0000 0.0000
# 5 0.0000 0.0000 0.0000 0.0000 30.8871 0.0000
# 6 0.0000 0.0000 0.0000 0.0000 0.0000 15.0759
#
#
#
# Elastic Compliance Matrix: (Units=1/GPa)
#
#
# Indices 1 2 3 4 5 6 
#
# 1 0.009289 -0.000318 -0.001378 0.000000 0.000000 0.000000
# 2 -0.000318 0.009500 -0.003026 0.000000 0.000000 0.000000
# 3 -0.001378 -0.003026 0.013187 0.000000 0.000000 0.000000
# 4 0.000000 0.000000 0.000000 0.052446 0.000000 0.000000
# 5 0.000000 0.000000 0.000000 0.000000 0.032376 0.000000
# 6 0.000000 0.000000 0.000000 0.000000 0.000000 0.066331
#
#
# Mechanical properties :
#
#
# Convention : Reuss Voigt Hill
#
# Bulk Modulus (GPa) = 44.37743 44.87618 44.62681
# Shear Modulus (GPa) = 24.98973 30.28780 27.63876
#
# Velocity S-wave (km/s) = 3.43814 3.78509 3.61578
# Velocity P-wave (km/s) = 6.06240 6.35060 6.20818
#
# Compressibility (1/GPa) = 0.02253398
#
# Stress axis : x y z
#
# Youngs Moduli (GPa) = 107.64858 105.26854 75.83122
#
# Poissons Ratio (x) = 0.03345 0.10449
# Poissons Ratio (y) = 0.03420 0.22943
# Poissons Ratio (z) = 0.14833 0.31849
#
# Static dielectric constant tensor:
#      x y z
#    x 4.193150 0.000000 0.000000 
#    y 0.000000 3.974890 0.000000 
#    z 0.000000 0.000000 3.805490 
# 
# 
# High freq. dielectric constant tensor:
#      x y z
#    x 1.839360 0.000000 0.000000 
#    y 0.000000 1.802120 0.000000 
#    z 0.000000 0.000000 1.816150 
# 
# From -- ./inp_files/21653.got.cif
#   From: 2010.03.12/outbox.cif.g09.slc.cpg/sg62_11_cif.got.tgz:21653.got - 2010.04.10 19:12:36.
