data_PCOD8251443
_publ_section_title
;
Structure prediction by ZEFSAII (Michael W. Deem and Ramdas Pophale) SiO2 
 PCOD8251443
Probable space group: P N M A
;
_chemical_formula_sum "Si O2"
_cell_formula_units_Z 64
_cell_length_a 24.640872
_cell_length_b 8.913788
_cell_length_c 14.394745
_cell_angle_alpha 90.000000
_cell_angle_beta 90.000000
_cell_angle_gamma 90.000000
_cell_volume 3161.712305
_symmetry_space_group_name_H-M "P N M A"
_symmetry_group_IT_number 62
_symmetry_cell_setting 'orthorhombic'
loop_
_space_group_symop_operation_xyz
x,y,z
1/2-x,-y,1/2+z
1/2+x,1/2-y,1/2-z
-x,1/2+y,-z
-x,-y,-z
1/2+x,y,1/2-z
1/2-x,1/2+y,1/2+z
x,1/2-y,z
loop_
_atom_site_type_symbol
_atom_site_label
_atom_site_fract_x
_atom_site_fract_y
_atom_site_fract_z
Si Si1 0.799295 0.571880 0.790730
Si Si2 0.835498 0.925806 0.993147
Si Si3 0.942775 0.928118 0.476592
Si Si4 0.582915 0.075229 0.769231
Si Si5 0.299440 0.576896 0.307357
Si Si6 0.388844 0.580685 0.846329
Si Si7 0.521039 0.419521 0.293182
Si Si8 0.444858 0.073287 0.535835
O O1 0.803072 0.750000 0.793044
O O2 0.741485 0.522996 0.751779
O O3 0.844803 0.500340 0.720799
O O4 0.808257 0.514458 0.897084
O O5 0.848938 0.750000 0.986796
O O6 0.796297 0.957824 0.081736
O O7 0.891683 0.010653 0.015526
O O8 0.949295 0.750000 0.485701
O O9 0.921114 0.975872 0.376095
O O10 0.896706 0.987376 0.550210
O O11 0.000000 0.000000 0.500000
O O12 0.569157 0.250000 0.757477
O O13 0.641472 0.034827 0.730427
O O14 0.539697 0.982264 0.709596
O O15 0.285861 0.750000 0.288019
O O16 0.367941 0.750000 0.854968
O O17 0.450001 0.574465 0.806096
O O18 0.518712 0.250000 0.332421
O O19 0.559448 0.522214 0.357339
O O20 0.447373 0.250000 0.524278
O O21 0.500000 0.000000 0.500000
#
# Coordination Sequence:
#
# PCOD8251443 Si02
#       8
#     8   8   8   8   8   8   8   8
#     4  10  21  40  64  86 114 156 204 248 294 355
#     4  10  21  41  64  87 121 161 199 248 306 360
#     4  10  19  33  54  82 116 156 198 241 297 356
#     4  10  21  36  55  84 122 159 199 251 308 364
#     4  10  23  41  60  86 121 156 195 250 304 349
#     4   9  18  34  56  82 113 152 194 243 298 351
#     4  11  20  35  59  85 118 156 196 241 300 364
#     4  12  24  37  58  90 124 158 198 244 298 362
#
# _framework density 20.242196
#
# number of rings (size 3 to 8) (size 9 to 14) (size 15 to 20)
#    0.000    1.750    2.500    2.250    0.000    3.500 
#    0.000    1.875    0.000    0.000    0.000    0.000 
#    0.000    0.000    0.000    0.000    0.000    0.000 
#
# Total GULP energy -793339.304702 kJ/mol
# GULP energy per Si atom -12395.926636 kJ/mol
# Density = 2.019612 g / cm^3
# Si number density = 20.242196 Si / 1000 Ang^3
#
#
#
# Elastic Constant Matrix: (Units=GPa)
#
#
# Indices 1 2 3 4 5 6 
#
# 1 90.4205 25.3980 34.1394 0.0000 0.0000 0.0000
# 2 25.3980 56.7539 19.4708 0.0000 0.0000 0.0000
# 3 34.1394 19.4708 105.5770 0.0000 0.0000 0.0000
# 4 0.0000 0.0000 0.0000 23.5241 0.0000 0.0000
# 5 0.0000 0.0000 0.0000 0.0000 33.8498 0.0000
# 6 0.0000 0.0000 0.0000 0.0000 0.0000 34.0503
#
#
#
# Elastic Compliance Matrix: (Units=1/GPa)
#
#
# Indices 1 2 3 4 5 6 
#
# 1 0.013790 -0.004955 -0.003545 0.000000 0.000000 0.000000
# 2 -0.004955 0.020590 -0.002195 0.000000 0.000000 0.000000
# 3 -0.003545 -0.002195 0.011023 0.000000 0.000000 0.000000
# 4 0.000000 0.000000 0.000000 0.042510 0.000000 0.000000
# 5 0.000000 0.000000 0.000000 0.000000 0.029542 0.000000
# 6 0.000000 0.000000 0.000000 0.000000 0.000000 0.029368
#
#
# Mechanical properties :
#
#
# Convention : Reuss Voigt Hill
#
# Bulk Modulus (GPa) = 41.64464 45.64086 43.64275
# Shear Modulus (GPa) = 28.37394 29.86770 29.12082
#
# Velocity S-wave (km/s) = 3.74802 3.84541 3.79703
# Velocity P-wave (km/s) = 6.27280 6.50481 6.38986
#
# Compressibility (1/GPa) = 0.02401269
#
# Stress axis : x y z
#
# Youngs Moduli (GPa) = 72.51772 48.56641 90.71936
#
# Poissons Ratio (x) = 0.24063 0.32163
# Poissons Ratio (y) = 0.35931 0.19914
# Poissons Ratio (z) = 0.25710 0.10661
#
# Static dielectric constant tensor:
#      x y z
#    x 3.533640 0.000000 0.000000 
#    y 0.000000 3.476640 0.000000 
#    z 0.000000 0.000000 4.177830 
# 
# 
# High freq. dielectric constant tensor:
#      x y z
#    x 1.779850 0.000000 0.000000 
#    y 0.000000 1.764250 0.000000 
#    z 0.000000 0.000000 1.812520 
# 
# From -- ./inp_files/21000.got.cif
#   From: 2010.03.12/outbox.cif.g09.slc.cpg/sg62_11_cif.got.tgz:21000.got - 2010.04.10 19:12:36.
