data_PCOD8251606
_publ_section_title
;
Structure prediction by ZEFSAII (Michael W. Deem and Ramdas Pophale) SiO2 
 PCOD8251606
Probable space group: P N M A
;
_chemical_formula_sum "Si O2"
_cell_formula_units_Z 48
_cell_length_a 17.040893
_cell_length_b 17.370920
_cell_length_c 8.337672
_cell_angle_alpha 90.000000
_cell_angle_beta 90.000000
_cell_angle_gamma 90.000000
_cell_volume 2468.084223
_symmetry_space_group_name_H-M "P N M A"
_symmetry_group_IT_number 62
_symmetry_cell_setting 'orthorhombic'
loop_
_space_group_symop_operation_xyz
x,y,z
1/2-x,-y,1/2+z
1/2+x,1/2-y,1/2-z
-x,1/2+y,-z
-x,-y,-z
1/2+x,y,1/2-z
1/2-x,1/2+y,1/2+z
x,1/2-y,z
loop_
_atom_site_type_symbol
_atom_site_label
_atom_site_fract_x
_atom_site_fract_y
_atom_site_fract_z
Si Si1 0.495012 0.446694 0.655337
Si Si2 0.128487 0.070568 0.613342
Si Si3 0.623112 0.923440 0.076008
Si Si4 0.982230 0.840787 0.598583
Si Si5 0.220617 0.159991 0.865921
Si Si6 0.428760 0.661540 0.560838
O O1 0.500000 0.500000 0.500000
O O2 0.563217 0.471386 0.777160
O O3 0.411881 0.442689 0.746974
O O4 0.515062 0.361689 0.586899
O O5 0.090020 0.142031 0.519117
O O6 0.199791 0.106620 0.713440
O O7 0.158067 0.002986 0.495335
O O8 0.691797 0.861067 0.083873
O O9 0.557979 0.886739 0.960804
O O10 0.999625 0.750000 0.601003
O O11 0.956534 0.876942 0.771468
O O12 0.215826 0.250000 0.819816
O O13 0.161320 0.141627 0.013624
O O14 0.439863 0.750000 0.591736
#
# Coordination Sequence:
#
# PCOD8251606 Si02
#       6
#     8   8   8   8   8   8
#     4  10  19  34  55  79 109 140 178 227 276 334
#     4  10  21  35  54  79 108 147 189 227 282 349
#     4  11  22  35  57  87 112 141 190 245 287 326
#     4  10  19  36  60  83 111 148 189 233 281 340
#     4  10  22  39  56  80 115 153 190 234 287 341
#     4   9  19  35  56  78 106 147 185 218 274 344
#
# _framework density 19.448284999999998
#
# number of rings (size 3 to 8) (size 9 to 14) (size 15 to 20)
#    0.000    2.000    0.000    5.000    0.000    8.667 
#    0.000    1.667    0.000    2.000    0.000    0.000 
#    0.000    0.000    0.000    0.000    0.000    0.000 
#
# Total GULP energy -594976.286788 kJ/mol
# GULP energy per Si atom -12395.339308 kJ/mol
# Density = 1.940402 g / cm^3
# Si number density = 19.448285 Si / 1000 Ang^3
#
#
#
# Elastic Constant Matrix: (Units=GPa)
#
#
# Indices 1 2 3 4 5 6 
#
# 1 92.8891 41.1268 50.4267 0.0000 0.0000 0.0000
# 2 41.1268 67.8096 40.9342 0.0000 0.0000 0.0000
# 3 50.4267 40.9342 119.7350 0.0000 0.0000 0.0000
# 4 0.0000 0.0000 0.0000 36.9523 0.0000 0.0000
# 5 0.0000 0.0000 0.0000 0.0000 23.3317 0.0000
# 6 0.0000 0.0000 0.0000 0.0000 0.0000 25.5200
#
#
#
# Elastic Compliance Matrix: (Units=1/GPa)
#
#
# Indices 1 2 3 4 5 6 
#
# 1 0.016380 -0.007271 -0.004413 0.000000 0.000000 0.000000
# 2 -0.007271 0.021809 -0.004394 0.000000 0.000000 0.000000
# 3 -0.004413 -0.004394 0.011712 0.000000 0.000000 0.000000
# 4 0.000000 0.000000 0.000000 0.027062 0.000000 0.000000
# 5 0.000000 0.000000 0.000000 0.000000 0.042860 0.000000
# 6 0.000000 0.000000 0.000000 0.000000 0.000000 0.039185
#
#
# Mechanical properties :
#
#
# Convention : Reuss Voigt Hill
#
# Bulk Modulus (GPa) = 56.34801 60.60104 58.47452
# Shear Modulus (GPa) = 25.37039 27.02388 26.19713
#
# Velocity S-wave (km/s) = 3.61571 3.73168 3.67415
# Velocity P-wave (km/s) = 6.81669 7.05655 6.93766
#
# Compressibility (1/GPa) = 0.01774686
#
# Stress axis : x y z
#
# Youngs Moduli (GPa) = 61.04886 45.85179 85.37915
#
# Poissons Ratio (x) = 0.33338 0.37677
# Poissons Ratio (y) = 0.44387 0.37515
# Poissons Ratio (z) = 0.26940 0.20147
#
# Static dielectric constant tensor:
#      x y z
#    x 3.370290 0.000000 0.000000 
#    y 0.000000 3.566610 0.000000 
#    z 0.000000 0.000000 3.940540 
# 
# 
# High freq. dielectric constant tensor:
#      x y z
#    x 1.732310 0.000000 0.000000 
#    y 0.000000 1.768430 0.000000 
#    z 0.000000 0.000000 1.768250 
# 
# From -- ./inp_files/6449.got.cif
#   From: 2010.03.12/outbox.cif.g09.slc.cpg/sg62_4_cif.got.tgz:6449.got - 2010.04.10 19:12:36.
