data_PCOD8251169
_publ_section_title
;
Structure prediction by ZEFSAII (Michael W. Deem and Ramdas Pophale) SiO2 
 PCOD8251169
Probable space group: P N M A
;
_chemical_formula_sum "Si O2"
_cell_formula_units_Z 56
_cell_length_a 21.914329
_cell_length_b 8.837357
_cell_length_c 14.661070
_cell_angle_alpha 90.000000
_cell_angle_beta 90.000000
_cell_angle_gamma 90.000000
_cell_volume 2839.332439
_symmetry_space_group_name_H-M "P N M A"
_symmetry_group_IT_number 62
_symmetry_cell_setting 'orthorhombic'
loop_
_space_group_symop_operation_xyz
x,y,z
1/2-x,-y,1/2+z
1/2+x,1/2-y,1/2-z
-x,1/2+y,-z
-x,-y,-z
1/2+x,y,1/2-z
1/2-x,1/2+y,1/2+z
x,1/2-y,z
loop_
_atom_site_type_symbol
_atom_site_label
_atom_site_fract_x
_atom_site_fract_y
_atom_site_fract_z
Si Si1 0.279017 0.572507 0.823107
Si Si2 0.614192 0.071057 0.307585
Si Si3 0.432642 0.430366 0.508899
Si Si4 0.851826 0.080992 0.529590
Si Si5 0.356535 0.428996 0.334687
Si Si6 0.585042 0.573259 0.852025
Si Si7 0.962540 0.079440 0.659736
O O1 0.275936 0.750000 0.811896
O O2 0.322898 0.511715 0.741048
O O3 0.306236 0.534660 0.922313
O O4 0.211351 0.500679 0.821972
O O5 0.615106 0.250000 0.324867
O O6 0.603913 0.985953 0.402440
O O7 0.558156 0.030986 0.241303
O O8 0.500000 0.500000 0.500000
O O9 0.438985 0.250000 0.510270
O O10 0.391671 0.488257 0.424063
O O11 0.824739 0.250000 0.540267
O O12 0.860226 0.038726 0.423299
O O13 0.918210 0.070840 0.574051
O O14 0.350243 0.250000 0.339998
O O15 0.394698 0.480488 0.247517
O O16 0.568208 0.750000 0.855197
O O17 0.526904 0.474965 0.878809
O O18 0.966479 0.250000 0.698328
#
# Coordination Sequence:
#
# PCOD8251169 Si02
#       7
#     8   8   8   8   8   8   8
#     4   9  19  37  57  76 102 139 181 220 265 325
#     4  10  20  35  57  81 106 141 183 224 269 323
#     4  11  22  37  58  83 113 147 186 231 279 329
#     4   9  19  33  52  79 108 138 170 213 265 314
#     4   9  20  37  55  76 104 139 178 223 271 320
#     4  10  19  33  53  76 105 139 173 211 262 318
#     4  10  19  32  51  79 112 139 171 214 261 315
#
# _framework density 19.722944999999999
#
# number of rings (size 3 to 8) (size 9 to 14) (size 15 to 20)
#    0.000    2.286    0.000    2.571    0.000    4.000 
#    0.000    4.286    0.000    0.000    0.000    0.000 
#    0.000    0.000    0.000    0.000    0.000    0.000 
#
# Total GULP energy -694300.003938 kJ/mol
# GULP energy per Si atom -12398.214356 kJ/mol
# Density = 1.967806 g / cm^3
# Si number density = 19.722945 Si / 1000 Ang^3
#
#
#
# Elastic Constant Matrix: (Units=GPa)
#
#
# Indices 1 2 3 4 5 6 
#
# 1 106.7065 27.7684 29.6323 0.0000 0.0000 0.0000
# 2 27.7684 46.5420 24.6955 0.0000 0.0000 0.0000
# 3 29.6323 24.6955 121.7703 0.0000 0.0000 0.0000
# 4 0.0000 0.0000 0.0000 29.8888 0.0000 0.0000
# 5 0.0000 0.0000 0.0000 0.0000 19.5294 0.0000
# 6 0.0000 0.0000 0.0000 0.0000 0.0000 22.1916
#
#
#
# Elastic Compliance Matrix: (Units=1/GPa)
#
#
# Indices 1 2 3 4 5 6 
#
# 1 0.011351 -0.005947 -0.001556 0.000000 0.000000 0.000000
# 2 -0.005947 0.027192 -0.004068 0.000000 0.000000 0.000000
# 3 -0.001556 -0.004068 0.009416 0.000000 0.000000 0.000000
# 4 0.000000 0.000000 0.000000 0.033457 0.000000 0.000000
# 5 0.000000 0.000000 0.000000 0.000000 0.051205 0.000000
# 6 0.000000 0.000000 0.000000 0.000000 0.000000 0.045062
#
#
# Mechanical properties :
#
#
# Convention : Reuss Voigt Hill
#
# Bulk Modulus (GPa) = 40.29310 48.80125 44.54717
# Shear Modulus (GPa) = 23.91231 27.18347 25.54789
#
# Velocity S-wave (km/s) = 3.48575 3.71653 3.60299
# Velocity P-wave (km/s) = 6.05595 6.57373 6.32014
#
# Compressibility (1/GPa) = 0.02481815
#
# Stress axis : x y z
#
# Youngs Moduli (GPa) = 88.09655 36.77522 106.20431
#
# Poissons Ratio (x) = 0.21869 0.16528
# Poissons Ratio (y) = 0.52388 0.43200
# Poissons Ratio (z) = 0.13710 0.14959
#
# Static dielectric constant tensor:
#      x y z
#    x 3.707180 0.000000 0.000000 
#    y 0.000000 3.434380 0.000000 
#    z 0.000000 0.000000 3.695620 
# 
# 
# High freq. dielectric constant tensor:
#      x y z
#    x 1.766840 0.000000 0.000000 
#    y 0.000000 1.750200 0.000000 
#    z 0.000000 0.000000 1.775850 
# 
# From -- ./inp_files/20225.got.cif
#   From: 2010.03.12/outbox.cif.g09.slc.cpg/sg62_11_cif.got.tgz:20225.got - 2010.04.10 19:12:36.
