data_PCOD8251286
_publ_section_title
;
Structure prediction by ZEFSAII (Michael W. Deem and Ramdas Pophale) SiO2 
 PCOD8251286
Probable space group: P N M A
;
_chemical_formula_sum "Si O2"
_cell_formula_units_Z 64
_cell_length_a 12.179431
_cell_length_b 13.456353
_cell_length_c 21.204362
_cell_angle_alpha 90.000000
_cell_angle_beta 90.000000
_cell_angle_gamma 90.000000
_cell_volume 3475.198216
_symmetry_space_group_name_H-M "P N M A"
_symmetry_group_IT_number 62
_symmetry_cell_setting 'orthorhombic'
loop_
_space_group_symop_operation_xyz
x,y,z
1/2-x,-y,1/2+z
1/2+x,1/2-y,1/2-z
-x,1/2+y,-z
-x,-y,-z
1/2+x,y,1/2-z
1/2-x,1/2+y,1/2+z
x,1/2-y,z
loop_
_atom_site_type_symbol
_atom_site_label
_atom_site_fract_x
_atom_site_fract_y
_atom_site_fract_z
Si Si1 0.733439 0.362622 0.062459
Si Si2 0.813593 0.052914 0.933100
Si Si3 0.727014 0.443028 0.628384
Si Si4 0.082144 0.864946 0.289473
Si Si5 0.264513 0.364501 0.008813
Si Si6 0.005594 0.135861 0.491304
Si Si7 0.492222 0.366442 0.652032
Si Si8 0.106180 0.367237 0.618277
O O1 0.758991 0.250000 0.084095
O O2 0.782240 0.439641 0.112626
O O3 0.601320 0.381292 0.059814
O O4 0.785823 0.379343 0.993683
O O5 0.933084 0.079953 0.906648
O O6 0.723596 0.077153 0.878826
O O7 0.817250 0.936245 0.952452
O O8 0.821667 0.429441 0.679993
O O9 0.751577 0.378326 0.566099
O O10 0.613759 0.409155 0.659192
O O11 0.110438 0.750000 0.301863
O O12 0.074592 0.889274 0.215728
O O13 0.963779 0.891163 0.319583
O O14 0.240647 0.250000 0.026998
O O15 0.386151 0.404164 0.029352
O O16 0.985402 0.250000 0.505691
O O17 0.039623 0.088009 0.558222
O O18 0.498128 0.250000 0.638342
O O19 0.129572 0.250000 0.610890
#
# Coordination Sequence:
#
# PCOD8251286 Si02
#       8
#     8   8   8   8   8   8   8   8
#     4   9  19  34  56  84 115 147 182 224 274 329
#     4  10  21  33  54  80 112 148 181 219 277 328
#     4  11  22  36  58  81 111 146 186 225 277 331
#     4  10  21  35  55  80 106 139 178 229 281 324
#     4  10  19  32  54  84 117 146 181 226 276 330
#     4   8  14  27  48  79 113 137 166 216 266 313
#     4  11  24  39  54  77 112 147 186 228 272 334
#     4   9  16  29  51  77 105 135 172 216 269 320
#
# _framework density 18.416215999999999
#
# number of rings (size 3 to 8) (size 9 to 14) (size 15 to 20)
#    0.000    2.250    1.250    3.000    3.500    3.500 
#    0.000    1.875    0.000    1.500    0.000    0.000 
#    0.000    0.000    0.000    0.000    0.000    0.000 
#
# Total GULP energy -793453.296879 kJ/mol
# GULP energy per Si atom -12397.707764 kJ/mol
# Density = 1.837430 g / cm^3
# Si number density = 18.416216 Si / 1000 Ang^3
#
#
#
# Elastic Constant Matrix: (Units=GPa)
#
#
# Indices 1 2 3 4 5 6 
#
# 1 69.6933 32.2742 32.2065 0.0000 0.0000 0.0000
# 2 32.2742 115.4082 37.8018 0.0000 0.0000 0.0000
# 3 32.2065 37.8018 61.0646 0.0000 0.0000 0.0000
# 4 0.0000 0.0000 0.0000 20.3018 0.0000 0.0000
# 5 0.0000 0.0000 0.0000 0.0000 18.0447 0.0000
# 6 0.0000 0.0000 0.0000 0.0000 0.0000 24.5146
#
#
#
# Elastic Compliance Matrix: (Units=1/GPa)
#
#
# Indices 1 2 3 4 5 6 
#
# 1 0.019588 -0.002626 -0.008705 0.000000 0.000000 0.000000
# 2 -0.002626 0.011221 -0.005561 0.000000 0.000000 0.000000
# 3 -0.008705 -0.005561 0.024410 0.000000 0.000000 0.000000
# 4 0.000000 0.000000 0.000000 0.049257 0.000000 0.000000
# 5 0.000000 0.000000 0.000000 0.000000 0.055418 0.000000
# 6 0.000000 0.000000 0.000000 0.000000 0.000000 0.040792
#
#
# Mechanical properties :
#
#
# Convention : Reuss Voigt Hill
#
# Bulk Modulus (GPa) = 46.65609 50.08126 48.36868
# Shear Modulus (GPa) = 20.69416 22.16446 21.42931
#
# Velocity S-wave (km/s) = 3.35579 3.47296 3.41488
# Velocity P-wave (km/s) = 6.35644 6.58294 6.47068
#
# Compressibility (1/GPa) = 0.02143343
#
# Stress axis : x y z
#
# Youngs Moduli (GPa) = 51.05285 89.11957 40.96726
#
# Poissons Ratio (x) = 0.23407 0.35662
# Poissons Ratio (y) = 0.13409 0.22782
# Poissons Ratio (z) = 0.44441 0.49559
#
# Static dielectric constant tensor:
#      x y z
#    x 3.406670 0.000000 0.000000 
#    y 0.000000 3.310860 0.000000 
#    z 0.000000 0.000000 3.072230 
# 
# 
# High freq. dielectric constant tensor:
#      x y z
#    x 1.714020 0.000000 0.000000 
#    y 0.000000 1.707980 0.000000 
#    z 0.000000 0.000000 1.677740 
# 
# From -- ./inp_files/23234.got.cif
#   From: 2010.03.12/outbox.cif.g09.slc.cpg/sg62_12_cif.got.tgz:23234.got - 2010.04.10 19:12:36.
