data_PCOD8251334
_publ_section_title
;
Structure prediction by ZEFSAII (Michael W. Deem and Ramdas Pophale) SiO2 
 PCOD8251334
Probable space group: P N M A
;
_chemical_formula_sum "Si O2"
_cell_formula_units_Z 64
_cell_length_a 29.989601
_cell_length_b 8.877588
_cell_length_c 14.171400
_cell_angle_alpha 90.000000
_cell_angle_beta 90.000000
_cell_angle_gamma 90.000000
_cell_volume 3772.927242
_symmetry_space_group_name_H-M "P N M A"
_symmetry_group_IT_number 62
_symmetry_cell_setting 'orthorhombic'
loop_
_space_group_symop_operation_xyz
x,y,z
1/2-x,-y,1/2+z
1/2+x,1/2-y,1/2-z
-x,1/2+y,-z
-x,-y,-z
1/2+x,y,1/2-z
1/2-x,1/2+y,1/2+z
x,1/2-y,z
loop_
_atom_site_type_symbol
_atom_site_label
_atom_site_fract_x
_atom_site_fract_y
_atom_site_fract_z
Si Si1 0.952277 0.073829 0.390801
Si Si2 0.229452 0.573553 0.977347
Si Si3 0.456828 0.073363 0.891187
Si Si4 0.195807 0.073123 0.152202
Si Si5 0.365278 0.573113 0.149975
Si Si6 0.214374 0.574351 0.761523
Si Si7 0.821575 0.077651 0.516088
Si Si8 0.133032 0.922465 0.290173
O O1 0.949083 0.250000 0.373647
O O2 0.945913 0.030475 0.500793
O O3 0.914035 0.995049 0.327544
O O4 0.000049 0.015548 0.354441
O O5 0.239984 0.750000 0.987876
O O6 0.214415 0.534145 0.872003
O O7 0.193145 0.518726 0.053669
O O8 0.272146 0.476208 0.005556
O O9 0.466240 0.250000 0.883702
O O10 0.415633 0.024851 0.824922
O O11 0.195533 0.250000 0.132202
O O12 0.239271 0.023199 0.212955
O O13 0.150598 0.029139 0.207122
O O14 0.367490 0.750000 0.160342
O O15 0.327477 0.512591 0.219473
O O16 0.355070 0.525137 0.042949
O O17 0.206964 0.750000 0.744437
O O18 0.827247 0.250000 0.482301
O O19 0.831833 0.059388 0.625457
O O20 0.131620 0.750000 0.255386
#
# Coordination Sequence:
#
# PCOD8251334 Si02
#       8
#     8   8   8   8   8   8   8   8
#     4  10  19  33  51  74 105 138 170 212 261 306
#     4  11  22  37  53  73 101 137 178 217 258 303
#     4   9  18  33  50  74 104 137 174 212 256 306
#     4  11  22  35  52  76 105 136 174 216 258 304
#     4  12  23  33  51  76 103 140 179 213 255 311
#     4  10  22  37  52  73 103 137 175 218 258 302
#     4  11  20  32  50  73 104 139 174 214 257 299
#     4  10  20  34  52  74 104 141 177 213 255 304
#
# _framework density 16.962956999999999
#
# number of rings (size 3 to 8) (size 9 to 14) (size 15 to 20)
#    0.000    1.500    3.750    2.625    0.000    3.000 
#    0.000    0.000    0.000    0.000    0.000    0.875 
#    0.000    0.000    0.000    0.000    0.000    0.000 
#
# Total GULP energy -793685.916679 kJ/mol
# GULP energy per Si atom -12401.342448 kJ/mol
# Density = 1.692435 g / cm^3
# Si number density = 16.962957 Si / 1000 Ang^3
#
#
#
# Elastic Constant Matrix: (Units=GPa)
#
#
# Indices 1 2 3 4 5 6 
#
# 1 100.3633 45.6654 23.6316 0.0000 0.0000 0.0000
# 2 45.6654 71.9444 33.7026 0.0000 0.0000 0.0000
# 3 23.6316 33.7026 60.4289 0.0000 0.0000 0.0000
# 4 0.0000 0.0000 0.0000 24.5189 0.0000 0.0000
# 5 0.0000 0.0000 0.0000 0.0000 24.2939 0.0000
# 6 0.0000 0.0000 0.0000 0.0000 0.0000 30.6104
#
#
#
# Elastic Compliance Matrix: (Units=1/GPa)
#
#
# Indices 1 2 3 4 5 6 
#
# 1 0.014032 -0.008577 -0.000704 0.000000 0.000000 0.000000
# 2 -0.008577 0.024058 -0.010064 0.000000 0.000000 0.000000
# 3 -0.000704 -0.010064 0.022436 0.000000 0.000000 0.000000
# 4 0.000000 0.000000 0.000000 0.040785 0.000000 0.000000
# 5 0.000000 0.000000 0.000000 0.000000 0.041163 0.000000
# 6 0.000000 0.000000 0.000000 0.000000 0.000000 0.032669
#
#
# Mechanical properties :
#
#
# Convention : Reuss Voigt Hill
#
# Bulk Modulus (GPa) = 45.79249 48.74842 47.27046
# Shear Modulus (GPa) = 22.61317 24.53378 23.57348
#
# Velocity S-wave (km/s) = 3.65511 3.80717 3.73192
# Velocity P-wave (km/s) = 6.69831 6.93733 6.81887
#
# Compressibility (1/GPa) = 0.02183764
#
# Stress axis : x y z
#
# Youngs Moduli (GPa) = 71.26566 41.56638 44.57057
#
# Poissons Ratio (x) = 0.35651 0.03138
# Poissons Ratio (y) = 0.61123 0.44854
# Poissons Ratio (z) = 0.05017 0.41831
#
# Static dielectric constant tensor:
#      x y z
#    x 3.239930 0.000000 0.000000 
#    y 0.000000 3.199640 0.000000 
#    z 0.000000 0.000000 3.017760 
# 
# 
# High freq. dielectric constant tensor:
#      x y z
#    x 1.647720 0.000000 0.000000 
#    y 0.000000 1.662630 0.000000 
#    z 0.000000 0.000000 1.625570 
# 
# From -- ./inp_files/21258.got.cif
#   From: 2010.03.12/outbox.cif.g09.slc.cpg/sg62_11_cif.got.tgz:21258.got - 2010.04.10 19:12:36.
