data_PCOD8251851
_publ_section_title
;
Structure prediction by ZEFSAII (Michael W. Deem and Ramdas Pophale) SiO2 
 PCOD8251851
Probable space group: P N M A
;
_chemical_formula_sum "Si O2"
_cell_formula_units_Z 64
_cell_length_a 11.519264
_cell_length_b 8.561431
_cell_length_c 33.127362
_cell_angle_alpha 90.000000
_cell_angle_beta 90.000000
_cell_angle_gamma 90.000000
_cell_volume 3267.066286
_symmetry_space_group_name_H-M "P N M A"
_symmetry_group_IT_number 62
_symmetry_cell_setting 'orthorhombic'
loop_
_space_group_symop_operation_xyz
x,y,z
1/2-x,-y,1/2+z
1/2+x,1/2-y,1/2-z
-x,1/2+y,-z
-x,-y,-z
1/2+x,y,1/2-z
1/2-x,1/2+y,1/2+z
x,1/2-y,z
loop_
_atom_site_type_symbol
_atom_site_label
_atom_site_fract_x
_atom_site_fract_y
_atom_site_fract_z
Si Si1 0.591206 0.432485 0.051924
Si Si2 0.303938 0.067393 0.596224
Si Si3 0.693537 0.931633 0.827528
Si Si4 0.165640 0.567986 0.527984
Si Si5 0.967381 0.566367 0.138423
Si Si6 0.290023 0.066904 0.871291
Si Si7 0.435716 0.568803 0.803427
Si Si8 0.098224 0.932846 0.217160
O O1 0.604225 0.250000 0.043870
O O2 0.457330 0.483941 0.047187
O O3 0.633181 0.475205 0.096339
O O4 0.669643 0.522528 0.019093
O O5 0.286635 0.250000 0.604829
O O6 0.438494 0.020003 0.604123
O O7 0.220983 0.971025 0.626089
O O8 0.268694 0.023847 0.550727
O O9 0.716737 0.750000 0.818987
O O10 0.561290 0.977728 0.819969
O O11 0.770791 0.034604 0.797265
O O12 0.188915 0.750000 0.532864
O O13 0.954714 0.750000 0.141745
O O14 0.841268 0.497959 0.127278
O O15 0.011321 0.506284 0.182061
O O16 0.293842 0.250000 0.880896
O O17 0.340921 0.033873 0.827018
O O18 0.408748 0.750000 0.810767
O O19 0.430252 0.532126 0.756353
O O20 0.083769 0.750000 0.226229
#
# Coordination Sequence:
#
# PCOD8251851 Si02
#       8
#     8   8   8   8   8   8   8   8
#     4  10  21  37  56  84 119 151 184 231 284 335
#     4  10  19  35  59  84 110 145 188 232 279 332
#     4  10  21  37  55  79 112 144 181 230 279 333
#     4  10  20  35  58  86 116 148 186 233 282 335
#     4   8  19  38  57  80 110 145 186 233 279 330
#     4  11  22  38  59  83 112 150 190 230 280 339
#     4  11  24  38  54  81 113 146 184 230 283 338
#     4  10  21  38  59  81 107 142 188 236 282 331
#
# _framework density 19.589441000000001
#
# number of rings (size 3 to 8) (size 9 to 14) (size 15 to 20)
#    0.000    2.000    0.000    4.125    1.750    6.500 
#    0.000    7.500    0.000    0.000    0.000    0.000 
#    0.000    0.000    0.000    0.000    0.000    0.000 
#
# Total GULP energy -793824.991650 kJ/mol
# GULP energy per Si atom -12403.515495 kJ/mol
# Density = 1.954485 g / cm^3
# Si number density = 19.589441 Si / 1000 Ang^3
#
#
#
# Elastic Constant Matrix: (Units=GPa)
#
#
# Indices 1 2 3 4 5 6 
#
# 1 87.2597 29.6483 25.9405 0.0000 0.0000 0.0000
# 2 29.6483 39.8316 12.3756 0.0000 0.0000 0.0000
# 3 25.9405 12.3756 75.3709 0.0000 0.0000 0.0000
# 4 0.0000 0.0000 0.0000 36.4711 0.0000 0.0000
# 5 0.0000 0.0000 0.0000 0.0000 23.3951 0.0000
# 6 0.0000 0.0000 0.0000 0.0000 0.0000 24.5409
#
#
#
# Elastic Compliance Matrix: (Units=1/GPa)
#
#
# Indices 1 2 3 4 5 6 
#
# 1 0.016319 -0.010961 -0.003817 0.000000 0.000000 0.000000
# 2 -0.010961 0.033817 -0.001780 0.000000 0.000000 0.000000
# 3 -0.003817 -0.001780 0.014874 0.000000 0.000000 0.000000
# 4 0.000000 0.000000 0.000000 0.027419 0.000000 0.000000
# 5 0.000000 0.000000 0.000000 0.000000 0.042744 0.000000
# 6 0.000000 0.000000 0.000000 0.000000 0.000000 0.040748
#
#
# Mechanical properties :
#
#
# Convention : Reuss Voigt Hill
#
# Bulk Modulus (GPa) = 31.35377 37.59901 34.47639
# Shear Modulus (GPa) = 22.76155 25.84794 24.30475
#
# Velocity S-wave (km/s) = 3.41241 3.63641 3.52619
# Velocity P-wave (km/s) = 5.61838 6.07178 5.84947
#
# Compressibility (1/GPa) = 0.03189410
#
# Stress axis : x y z
#
# Youngs Moduli (GPa) = 61.27857 29.57049 67.23305
#
# Poissons Ratio (x) = 0.32412 0.25661
# Poissons Ratio (y) = 0.67167 0.11969
# Poissons Ratio (z) = 0.23388 0.05264
#
# Static dielectric constant tensor:
#      x y z
#    x 3.727130 0.000000 0.000000 
#    y 0.000000 3.450970 0.000000 
#    z 0.000000 0.000000 3.533630 
# 
# 
# High freq. dielectric constant tensor:
#      x y z
#    x 1.759050 0.000000 0.000000 
#    y 0.000000 1.761500 0.000000 
#    z 0.000000 0.000000 1.762050 
# 
# From -- ./inp_files/32472.got.cif
#   From: 2010.03.12/outbox.cif.g09.slc.cpg/sg62_17_cif.got.tgz:32472.got - 2010.04.10 19:12:36.
