data_PCOD8251839
_publ_section_title
;
Structure prediction by ZEFSAII (Michael W. Deem and Ramdas Pophale) SiO2 
 PCOD8251839
Probable space group: P N M A
;
_chemical_formula_sum "Si O2"
_cell_formula_units_Z 64
_cell_length_a 12.481221
_cell_length_b 8.756453
_cell_length_c 28.825409
_cell_angle_alpha 90.000000
_cell_angle_beta 90.000000
_cell_angle_gamma 90.000000
_cell_volume 3150.364263
_symmetry_space_group_name_H-M "P N M A"
_symmetry_group_IT_number 62
_symmetry_cell_setting 'orthorhombic'
loop_
_space_group_symop_operation_xyz
x,y,z
1/2-x,-y,1/2+z
1/2+x,1/2-y,1/2-z
-x,1/2+y,-z
-x,-y,-z
1/2+x,y,1/2-z
1/2-x,1/2+y,1/2+z
x,1/2-y,z
loop_
_atom_site_type_symbol
_atom_site_label
_atom_site_fract_x
_atom_site_fract_y
_atom_site_fract_z
Si Si1 0.565730 0.431688 0.294208
Si Si2 0.012524 0.078424 0.048435
Si Si3 0.281394 0.428426 0.161094
Si Si4 0.609752 0.429837 0.018283
Si Si5 0.615307 0.932334 0.635618
Si Si6 0.740575 0.576169 0.940092
Si Si7 0.838607 0.069936 0.617631
Si Si8 0.487979 0.928949 0.807958
O O1 0.569062 0.250000 0.295548
O O2 0.675683 0.502370 0.315297
O O3 0.462431 0.488409 0.323019
O O4 0.556398 0.487387 0.241235
O O5 0.975485 0.250000 0.040722
O O6 0.935341 0.006570 0.087395
O O7 0.132739 0.067806 0.066295
O O8 0.000000 0.000000 0.000000
O O9 0.257953 0.250000 0.155980
O O10 0.304777 0.488265 0.108786
O O11 0.384756 0.461879 0.192412
O O12 0.596542 0.250000 0.023057
O O13 0.642972 0.495355 0.067755
O O14 0.500000 0.500000 0.000000
O O15 0.702816 0.468290 0.981668
O O16 0.627364 0.750000 0.636216
O O17 0.730523 0.008864 0.641626
O O18 0.702431 0.750000 0.950332
O O19 0.832787 0.250000 0.611136
O O20 0.935612 0.026128 0.651195
O O21 0.464415 0.750000 0.816362
#
# Coordination Sequence:
#
# PCOD8251839 Si02
#       8
#     8   8   8   8   8   8   8   8
#     4   9  18  34  61  95 123 154 202 259 312 367
#     4  10  20  33  53  82 116 156 198 249 303 357
#     4   9  17  33  58  91 124 153 195 251 308 367
#     4  12  25  42  64  91 123 162 209 259 313 372
#     4  10  20  38  62  90 124 161 205 256 307 367
#     4  10  19  35  58  85 121 161 201 248 309 369
#     4  12  26  43  61  88 128 170 211 257 311 373
#     4  10  21  36  63  94 120 158 208 260 315 374
#
# _framework density 20.315110000000001
#
# number of rings (size 3 to 8) (size 9 to 14) (size 15 to 20)
#    0.000    1.750    1.250    3.750    1.750    4.000 
#    0.000    0.625    0.000    1.500    0.000    0.000 
#    0.000    0.000    0.000    0.000    0.000    0.000 
#
# Total GULP energy -793653.587734 kJ/mol
# GULP energy per Si atom -12400.837308 kJ/mol
# Density = 2.026887 g / cm^3
# Si number density = 20.315110 Si / 1000 Ang^3
#
#
#
# Elastic Constant Matrix: (Units=GPa)
#
#
# Indices 1 2 3 4 5 6 
#
# 1 108.6812 32.8353 49.9365 0.0000 0.0000 0.0000
# 2 32.8353 75.2194 35.1412 0.0000 0.0000 0.0000
# 3 49.9365 35.1412 145.5860 0.0000 0.0000 0.0000
# 4 0.0000 0.0000 0.0000 23.6763 0.0000 0.0000
# 5 0.0000 0.0000 0.0000 0.0000 38.7375 0.0000
# 6 0.0000 0.0000 0.0000 0.0000 0.0000 23.5979
#
#
#
# Elastic Compliance Matrix: (Units=1/GPa)
#
#
# Indices 1 2 3 4 5 6 
#
# 1 0.011753 -0.003660 -0.003148 0.000000 0.000000 0.000000
# 2 -0.003660 0.016124 -0.002637 0.000000 0.000000 0.000000
# 3 -0.003148 -0.002637 0.008585 0.000000 0.000000 0.000000
# 4 0.000000 0.000000 0.000000 0.042236 0.000000 0.000000
# 5 0.000000 0.000000 0.000000 0.000000 0.025815 0.000000
# 6 0.000000 0.000000 0.000000 0.000000 0.000000 0.042377
#
#
# Mechanical properties :
#
#
# Convention : Reuss Voigt Hill
#
# Bulk Modulus (GPa) = 56.90497 62.81250 59.85874
# Shear Modulus (GPa) = 29.13127 31.30727 30.21927
#
# Velocity S-wave (km/s) = 3.79089 3.92992 3.86103
# Velocity P-wave (km/s) = 6.87263 7.18182 7.02893
#
# Compressibility (1/GPa) = 0.01757316
#
# Stress axis : x y z
#
# Youngs Moduli (GPa) = 85.08145 62.01984 116.48252
#
# Poissons Ratio (x) = 0.22699 0.36669
# Poissons Ratio (y) = 0.31140 0.30711
# Poissons Ratio (z) = 0.26784 0.16352
#
# Static dielectric constant tensor:
#      x y z
#    x 3.762720 0.000000 0.000000 
#    y 0.000000 2.711460 0.000000 
#    z 0.000000 0.000000 3.909260 
# 
# 
# High freq. dielectric constant tensor:
#      x y z
#    x 1.808120 0.000000 0.000000 
#    y 0.000000 1.750920 0.000000 
#    z 0.000000 0.000000 1.808700 
# 
# From -- ./inp_files/32444.got.cif
#   From: 2010.03.12/outbox.cif.g09.slc.cpg/sg62_17_cif.got.tgz:32444.got - 2010.04.10 19:12:36.
