data_PCOD8251203
_publ_section_title
;
Structure prediction by ZEFSAII (Michael W. Deem and Ramdas Pophale) SiO2 
 PCOD8251203
Probable space group: P N M A
;
_chemical_formula_sum "Si O2"
_cell_formula_units_Z 48
_cell_length_a 11.795394
_cell_length_b 13.202916
_cell_length_c 17.362380
_cell_angle_alpha 90.000000
_cell_angle_beta 90.000000
_cell_angle_gamma 90.000000
_cell_volume 2703.905875
_symmetry_space_group_name_H-M "P N M A"
_symmetry_group_IT_number 62
_symmetry_cell_setting 'orthorhombic'
loop_
_space_group_symop_operation_xyz
x,y,z
1/2-x,-y,1/2+z
1/2+x,1/2-y,1/2-z
-x,1/2+y,-z
-x,-y,-z
1/2+x,y,1/2-z
1/2-x,1/2+y,1/2+z
x,1/2-y,z
loop_
_atom_site_type_symbol
_atom_site_label
_atom_site_fract_x
_atom_site_fract_y
_atom_site_fract_z
Si Si1 0.195755 0.944758 0.880727
Si Si2 0.284804 0.863947 0.470762
Si Si3 0.621559 0.133735 0.012614
Si Si4 0.550628 0.366576 0.393653
Si Si5 0.243785 0.630375 0.714768
Si Si6 0.599822 0.942010 0.918124
O O1 0.255679 0.878042 0.947279
O O2 0.248544 0.916169 0.799187
O O3 0.061442 0.931302 0.882824
O O4 0.219375 0.063070 0.897097
O O5 0.290866 0.750000 0.439317
O O6 0.393472 0.890094 0.523741
O O7 0.172591 0.875569 0.522123
O O8 0.604034 0.250000 0.987268
O O9 0.528956 0.096471 0.075025
O O10 0.611556 0.061932 0.937350
O O11 0.516394 0.250000 0.386767
O O12 0.637834 0.395744 0.326039
O O13 0.221188 0.750000 0.718046
O O14 0.140762 0.577896 0.668588
#
# Coordination Sequence:
#
# PCOD8251203 Si02
#       6
#     8   8   8   8   8   8
#     4  11  21  31  51  80 104 127 168 212 252 295
#     4   9  18  35  55  72  97 137 172 203 243 299
#     4  10  19  32  52  79 102 128 168 212 247 286
#     4   9  18  33  51  73 101 132 164 202 251 300
#     4  10  20  33  50  73 103 135 163 202 254 302
#     4   9  19  34  53  74 101 136 168 199 247 305
#
# _framework density 17.752098
#
# number of rings (size 3 to 8) (size 9 to 14) (size 15 to 20)
#    0.000    2.333    0.000    4.500    2.333    0.000 
#    0.000    0.833    0.000    1.000    0.000    0.000 
#    0.000    0.000    0.000    0.000    0.000    0.000 
#
# Total GULP energy -595256.119986 kJ/mol
# GULP energy per Si atom -12401.169166 kJ/mol
# Density = 1.771169 g / cm^3
# Si number density = 17.752098 Si / 1000 Ang^3
#
#
#
# Elastic Constant Matrix: (Units=GPa)
#
#
# Indices 1 2 3 4 5 6 
#
# 1 72.1892 24.0741 10.4216 0.0000 0.0000 0.0000
# 2 24.0741 124.5311 48.1294 0.0000 0.0000 0.0000
# 3 10.4216 48.1294 57.6552 0.0000 0.0000 0.0000
# 4 0.0000 0.0000 0.0000 26.9340 0.0000 0.0000
# 5 0.0000 0.0000 0.0000 0.0000 17.4347 0.0000
# 6 0.0000 0.0000 0.0000 0.0000 0.0000 19.2244
#
#
#
# Elastic Compliance Matrix: (Units=1/GPa)
#
#
# Indices 1 2 3 4 5 6 
#
# 1 0.014814 -0.002700 -0.000424 0.000000 0.000000 0.000000
# 2 -0.002700 0.012347 -0.009819 0.000000 0.000000 0.000000
# 3 -0.000424 -0.009819 0.025618 0.000000 0.000000 0.000000
# 4 0.000000 0.000000 0.000000 0.037128 0.000000 0.000000
# 5 0.000000 0.000000 0.000000 0.000000 0.057357 0.000000
# 6 0.000000 0.000000 0.000000 0.000000 0.000000 0.052017
#
#
# Mechanical properties :
#
#
# Convention : Reuss Voigt Hill
#
# Bulk Modulus (GPa) = 37.18410 46.62507 41.90458
# Shear Modulus (GPa) = 21.35560 24.16866 22.76213
#
# Velocity S-wave (km/s) = 3.47218 3.69379 3.58470
# Velocity P-wave (km/s) = 6.08822 6.67186 6.38671
#
# Compressibility (1/GPa) = 0.02689322
#
# Stress axis : x y z
#
# Youngs Moduli (GPa) = 67.50326 80.99151 39.03535
#
# Poissons Ratio (x) = 0.21868 0.01654
# Poissons Ratio (y) = 0.18226 0.38329
# Poissons Ratio (z) = 0.02861 0.79525
#
# Static dielectric constant tensor:
#      x y z
#    x 3.373790 0.000000 0.000000 
#    y 0.000000 3.300750 0.000000 
#    z 0.000000 0.000000 3.097510 
# 
# 
# High freq. dielectric constant tensor:
#      x y z
#    x 1.699780 0.000000 0.000000 
#    y 0.000000 1.680980 0.000000 
#    z 0.000000 0.000000 1.659230 
# 
# From -- ./inp_files/23002.got.cif
#   From: 2010.03.12/outbox.cif.g09.slc.cpg/sg62_12_cif.got.tgz:23002.got - 2010.04.10 19:12:36.
