data_PCOD8251442
_publ_section_title
;
Structure prediction by ZEFSAII (Michael W. Deem and Ramdas Pophale) SiO2 
 PCOD8251442
Probable space group: P N M A
;
_chemical_formula_sum "Si O2"
_cell_formula_units_Z 64
_cell_length_a 15.249414
_cell_length_b 8.986356
_cell_length_c 24.461823
_cell_angle_alpha 90.000000
_cell_angle_beta 90.000000
_cell_angle_gamma 90.000000
_cell_volume 3352.166595
_symmetry_space_group_name_H-M "P N M A"
_symmetry_group_IT_number 62
_symmetry_cell_setting 'orthorhombic'
loop_
_space_group_symop_operation_xyz
x,y,z
1/2-x,-y,1/2+z
1/2+x,1/2-y,1/2-z
-x,1/2+y,-z
-x,-y,-z
1/2+x,y,1/2-z
1/2-x,1/2+y,1/2+z
x,1/2-y,z
loop_
_atom_site_type_symbol
_atom_site_label
_atom_site_fract_x
_atom_site_fract_y
_atom_site_fract_z
Si Si1 0.684554 0.425041 0.140290
Si Si2 0.322085 0.075267 0.450271
Si Si3 0.683526 0.075940 0.852967
Si Si4 0.504194 0.923362 0.613478
Si Si5 0.221250 0.426377 0.238180
Si Si6 0.817039 0.574472 0.934898
Si Si7 0.011757 0.579758 0.339664
Si Si8 0.544525 0.924235 0.283351
O O1 0.676865 0.250000 0.140771
O O2 0.750308 0.479532 0.093618
O O3 0.721793 0.479755 0.198873
O O4 0.587023 0.486895 0.129834
O O5 0.312686 0.250000 0.462899
O O6 0.418347 0.036276 0.428099
O O7 0.303951 0.981513 0.503950
O O8 0.704926 0.250000 0.849620
O O9 0.581582 0.048144 0.868037
O O10 0.698403 0.002709 0.793398
O O11 0.742587 0.000490 0.898598
O O12 0.506538 0.750000 0.628699
O O13 0.413422 0.972144 0.585358
O O14 0.519897 0.016623 0.669119
O O15 0.227263 0.250000 0.232009
O O16 0.133992 0.484100 0.208168
O O17 0.803877 0.750000 0.932371
O O18 0.039679 0.750000 0.345581
O O19 0.003781 0.537863 0.275561
O O20 0.562808 0.750000 0.290814
#
# Coordination Sequence:
#
# PCOD8251442 Si02
#       8
#     8   8   8   8   8   8   8   8
#     4   9  20  38  59  84 114 149 192 238 288 342
#     4  10  22  40  60  83 113 153 195 238 292 345
#     4  11  22  37  58  84 116 154 192 235 287 341
#     4  10  21  36  56  83 118 153 189 234 282 341
#     4  10  19  33  54  83 116 149 187 232 282 339
#     4  11  23  39  58  85 116 150 197 241 283 341
#     4   9  21  38  56  83 118 152 191 237 286 340
#     4  10  19  33  54  82 116 153 189 227 280 339
#
# _framework density 19.092129
#
# number of rings (size 3 to 8) (size 9 to 14) (size 15 to 20)
#    0.000    2.000    1.250    1.875    1.750    3.500 
#    0.000    0.625    0.000    0.000    0.000    0.000 
#    0.000    0.000    0.000    0.000    0.000    0.000 
#
# Total GULP energy -793748.110989 kJ/mol
# GULP energy per Si atom -12402.314234 kJ/mol
# Density = 1.904867 g / cm^3
# Si number density = 19.092129 Si / 1000 Ang^3
#
#
#
# Elastic Constant Matrix: (Units=GPa)
#
#
# Indices 1 2 3 4 5 6 
#
# 1 118.9491 44.9914 66.5981 0.0000 0.0000 0.0000
# 2 44.9914 64.7105 44.6387 0.0000 0.0000 0.0000
# 3 66.5981 44.6387 103.8146 0.0000 0.0000 0.0000
# 4 0.0000 0.0000 0.0000 32.8074 0.0000 0.0000
# 5 0.0000 0.0000 0.0000 0.0000 25.4430 0.0000
# 6 0.0000 0.0000 0.0000 0.0000 0.0000 27.9444
#
#
#
# Elastic Compliance Matrix: (Units=1/GPa)
#
#
# Indices 1 2 3 4 5 6 
#
# 1 0.014215 -0.005108 -0.006923 0.000000 0.000000 0.000000
# 2 -0.005108 0.023805 -0.006959 0.000000 0.000000 0.000000
# 3 -0.006923 -0.006959 0.017066 0.000000 0.000000 0.000000
# 4 0.000000 0.000000 0.000000 0.030481 0.000000 0.000000
# 5 0.000000 0.000000 0.000000 0.000000 0.039304 0.000000
# 6 0.000000 0.000000 0.000000 0.000000 0.000000 0.035785
#
#
# Mechanical properties :
#
#
# Convention : Reuss Voigt Hill
#
# Bulk Modulus (GPa) = 58.45670 66.65896 62.55783
# Shear Modulus (GPa) = 24.46928 25.98869 25.22899
#
# Velocity S-wave (km/s) = 3.58389 3.69348 3.63910
# Velocity P-wave (km/s) = 6.91450 7.29241 7.10597
#
# Compressibility (1/GPa) = 0.01710668
#
# Stress axis : x y z
#
# Youngs Moduli (GPa) = 70.34887 42.00723 58.59619
#
# Poissons Ratio (x) = 0.21456 0.40565
# Poissons Ratio (y) = 0.35933 0.40779
# Poissons Ratio (z) = 0.48701 0.29234
#
# Static dielectric constant tensor:
#      x y z
#    x 3.524350 0.000000 0.000000 
#    y 0.000000 3.445210 0.000000 
#    z 0.000000 0.000000 3.495530 
# 
# 
# High freq. dielectric constant tensor:
#      x y z
#    x 1.741020 0.000000 0.000000 
#    y 0.000000 1.743620 0.000000 
#    z 0.000000 0.000000 1.735870 
# 
# From -- ./inp_files/29749.got.cif
#   From: 2010.03.12/outbox.cif.g09.slc.cpg/sg62_15_cif.got.tgz:29749.got - 2010.04.10 19:12:36.
