data_PCOD8251701
_publ_section_title
;
Structure prediction by ZEFSAII (Michael W. Deem and Ramdas Pophale) SiO2 
 PCOD8251701
Probable space group: P N M A
;
_chemical_formula_sum "Si O2"
_cell_formula_units_Z 56
_cell_length_a 13.291883
_cell_length_b 13.601184
_cell_length_c 16.440961
_cell_angle_alpha 90.000000
_cell_angle_beta 90.000000
_cell_angle_gamma 90.000000
_cell_volume 2972.284829
_symmetry_space_group_name_H-M "P N M A"
_symmetry_group_IT_number 62
_symmetry_cell_setting 'orthorhombic'
loop_
_space_group_symop_operation_xyz
x,y,z
1/2-x,-y,1/2+z
1/2+x,1/2-y,1/2-z
-x,1/2+y,-z
-x,-y,-z
1/2+x,y,1/2-z
1/2-x,1/2+y,1/2+z
x,1/2-y,z
loop_
_atom_site_type_symbol
_atom_site_label
_atom_site_fract_x
_atom_site_fract_y
_atom_site_fract_z
Si Si1 0.727658 0.551306 0.394335
Si Si2 0.962195 0.138864 0.412434
Si Si3 0.769814 0.965368 0.147071
Si Si4 0.608714 0.865343 0.257748
Si Si5 0.184869 0.137366 0.445689
Si Si6 0.086274 0.475754 0.712988
Si Si7 0.749275 0.636696 0.981335
O O1 0.628963 0.590571 0.347984
O O2 0.746714 0.609370 0.477577
O O3 0.825969 0.572442 0.340480
O O4 0.708184 0.434539 0.410249
O O5 0.960287 0.250000 0.379899
O O6 0.872354 0.122357 0.477835
O O7 0.065880 0.117238 0.460963
O O8 0.951552 0.074971 0.330575
O O9 0.698033 0.896922 0.199341
O O10 0.871302 0.992946 0.195848
O O11 0.717511 0.069617 0.129401
O O12 0.793341 0.901955 0.066385
O O13 0.605723 0.750000 0.265262
O O14 0.504353 0.899898 0.219856
O O15 0.204904 0.250000 0.422121
O O16 0.781236 0.750000 0.966193
#
# Coordination Sequence:
#
# PCOD8251701 Si02
#       7
#     8   8   8   8   8   8   8
#     4   9  21  36  55  81 112 140 182 231 271 324
#     4   9  18  33  57  84 107 139 184 229 277 320
#     4  10  21  35  54  82 112 143 180 225 272 328
#     4  11  22  36  53  77 111 146 179 222 277 327
#     4  10  19  34  58  83 108 142 183 227 275 319
#     4  10  21  36  54  79 112 144 180 219 273 327
#     4   9  18  34  56  80 108 143 182 227 269 318
#
# _framework density 18.840724000000002
#
# number of rings (size 3 to 8) (size 9 to 14) (size 15 to 20)
#    0.000    2.286    1.429    0.857    2.000    5.714 
#    0.000    5.714    0.000    1.714    0.000    0.000 
#    0.000    0.000    0.000    0.000    0.000    0.000 
#
# Total GULP energy -694167.213796 kJ/mol
# GULP energy per Si atom -12395.843103 kJ/mol
# Density = 1.879784 g / cm^3
# Si number density = 18.840724 Si / 1000 Ang^3
#
#
#
# Elastic Constant Matrix: (Units=GPa)
#
#
# Indices 1 2 3 4 5 6 
#
# 1 29.8842 16.7697 21.1697 0.0000 0.0000 0.0000
# 2 16.7697 124.6117 37.9865 0.0000 0.0000 0.0000
# 3 21.1697 37.9865 82.9322 0.0000 0.0000 0.0000
# 4 0.0000 0.0000 0.0000 25.8607 0.0000 0.0000
# 5 0.0000 0.0000 0.0000 0.0000 30.6682 0.0000
# 6 0.0000 0.0000 0.0000 0.0000 0.0000 14.1750
#
#
#
# Elastic Compliance Matrix: (Units=1/GPa)
#
#
# Indices 1 2 3 4 5 6 
#
# 1 0.041643 -0.002747 -0.009372 0.000000 0.000000 0.000000
# 2 -0.002747 0.009509 -0.003654 0.000000 0.000000 0.000000
# 3 -0.009372 -0.003654 0.016124 0.000000 0.000000 0.000000
# 4 0.000000 0.000000 0.000000 0.038669 0.000000 0.000000
# 5 0.000000 0.000000 0.000000 0.000000 0.032607 0.000000
# 6 0.000000 0.000000 0.000000 0.000000 0.000000 0.070547
#
#
# Mechanical properties :
#
#
# Convention : Reuss Voigt Hill
#
# Bulk Modulus (GPa) = 27.98799 43.25334 35.62067
# Shear Modulus (GPa) = 19.79776 24.90758 22.35267
#
# Velocity S-wave (km/s) = 3.24512 3.63989 3.44816
# Velocity P-wave (km/s) = 5.37851 6.37748 5.89918
#
# Compressibility (1/GPa) = 0.03572961
#
# Stress axis : x y z
#
# Youngs Moduli (GPa) = 24.01368 105.16865 62.01945
#
# Poissons Ratio (x) = 0.28893 0.58122
# Poissons Ratio (y) = 0.06597 0.22662
# Poissons Ratio (z) = 0.22505 0.38429
#
# Static dielectric constant tensor:
#      x y z
#    x 3.408300 0.000000 0.000000 
#    y 0.000000 3.563530 0.000000 
#    z 0.000000 0.000000 3.518880 
# 
# 
# High freq. dielectric constant tensor:
#      x y z
#    x 1.709370 0.000000 0.000000 
#    y 0.000000 1.741360 0.000000 
#    z 0.000000 0.000000 1.726220 
# 
# From -- ./inp_files/18066.got.cif
#   From: 2010.03.12/outbox.cif.g09.slc.cpg/sg62_10_cif.got.tgz:18066.got - 2010.04.10 19:12:36.
