data_PCOD8251782
_publ_section_title
;
Structure prediction by ZEFSAII (Michael W. Deem and Ramdas Pophale) SiO2 
 PCOD8251782
Probable space group: P N M A
;
_chemical_formula_sum "Si O2"
_cell_formula_units_Z 64
_cell_length_a 29.418768
_cell_length_b 9.072956
_cell_length_c 12.752759
_cell_angle_alpha 90.000000
_cell_angle_beta 90.000000
_cell_angle_gamma 90.000000
_cell_volume 3403.905061
_symmetry_space_group_name_H-M "P N M A"
_symmetry_group_IT_number 62
_symmetry_cell_setting 'orthorhombic'
loop_
_space_group_symop_operation_xyz
x,y,z
1/2-x,-y,1/2+z
1/2+x,1/2-y,1/2-z
-x,1/2+y,-z
-x,-y,-z
1/2+x,y,1/2-z
1/2-x,1/2+y,1/2+z
x,1/2-y,z
loop_
_atom_site_type_symbol
_atom_site_label
_atom_site_fract_x
_atom_site_fract_y
_atom_site_fract_z
Si Si1 0.896665 0.925631 0.548934
Si Si2 0.113413 0.075062 0.882677
Si Si3 0.801458 0.577367 0.632303
Si Si4 0.678063 0.587911 0.332325
Si Si5 0.434720 0.924674 0.172126
Si Si6 0.794449 0.079970 0.060105
Si Si7 0.079051 0.583433 0.077902
Si Si8 0.463826 0.075630 0.788815
O O1 0.900617 0.750000 0.557218
O O2 0.844578 0.979942 0.564874
O O3 0.912489 0.984596 0.435250
O O4 0.927273 0.993525 0.640055
O O5 0.115689 0.250000 0.888253
O O6 0.093361 0.017555 0.772332
O O7 0.164013 0.011632 0.892015
O O8 0.079931 0.020997 0.976067
O O9 0.797907 0.750000 0.618379
O O10 0.808131 0.539054 0.753188
O O11 0.753289 0.509092 0.596874
O O12 0.686839 0.750000 0.282900
O O13 0.708106 0.566753 0.435303
O O14 0.625855 0.570906 0.360433
O O15 0.434182 0.750000 0.173175
O O16 0.486506 0.981014 0.177617
O O17 0.801165 0.250000 0.094667
O O18 0.070813 0.750000 0.037999
O O19 0.041723 0.535974 0.164759
O O20 0.457430 0.250000 0.804982
#
# Coordination Sequence:
#
# PCOD8251782 Si02
#       8
#     8   8   8   8   8   8   8   8
#     4  10  20  35  54  79 110 141 177 224 271 315
#     4  10  20  35  55  79 106 140 182 225 266 319
#     4  10  20  33  53  78 104 134 173 219 265 314
#     4   9  17  32  52  73 100 135 173 212 258 313
#     4   9  20  36  54  78 111 145 176 217 273 323
#     4   9  20  37  53  74 105 142 176 214 273 326
#     4   9  18  33  54  77 105 140 174 216 267 314
#     4  10  19  35  57  79 106 143 181 218 265 324
#
# _framework density 18.801933999999999
#
# number of rings (size 3 to 8) (size 9 to 14) (size 15 to 20)
#    0.000    2.500    1.250    1.500    0.000    4.500 
#    0.000    5.000    0.000    0.000    0.000    0.000 
#    0.000    0.000    0.000    0.000    0.000    0.000 
#
# Total GULP energy -793402.345228 kJ/mol
# GULP energy per Si atom -12396.911644 kJ/mol
# Density = 1.875914 g / cm^3
# Si number density = 18.801934 Si / 1000 Ang^3
#
#
#
# Elastic Constant Matrix: (Units=GPa)
#
#
# Indices 1 2 3 4 5 6 
#
# 1 89.2338 27.6011 47.6188 0.0000 0.0000 0.0000
# 2 27.6011 38.6625 32.1579 0.0000 0.0000 0.0000
# 3 47.6188 32.1579 103.6040 0.0000 0.0000 0.0000
# 4 0.0000 0.0000 0.0000 27.7341 0.0000 0.0000
# 5 0.0000 0.0000 0.0000 0.0000 11.9061 0.0000
# 6 0.0000 0.0000 0.0000 0.0000 0.0000 17.4899
#
#
#
# Elastic Compliance Matrix: (Units=1/GPa)
#
#
# Indices 1 2 3 4 5 6 
#
# 1 0.016230 -0.007255 -0.005208 0.000000 0.000000 0.000000
# 2 -0.007255 0.038109 -0.008494 0.000000 0.000000 0.000000
# 3 -0.005208 -0.008494 0.014682 0.000000 0.000000 0.000000
# 4 0.000000 0.000000 0.000000 0.036057 0.000000 0.000000
# 5 0.000000 0.000000 0.000000 0.000000 0.083991 0.000000
# 6 0.000000 0.000000 0.000000 0.000000 0.000000 0.057176
#
#
# Mechanical properties :
#
#
# Convention : Reuss Voigt Hill
#
# Bulk Modulus (GPa) = 36.89008 49.58401 43.23705
# Shear Modulus (GPa) = 16.82404 19.70084 18.26244
#
# Velocity S-wave (km/s) = 2.99457 3.24050 3.11996
# Velocity P-wave (km/s) = 5.62313 6.35847 6.00207
#
# Compressibility (1/GPa) = 0.02710756
#
# Stress axis : x y z
#
# Youngs Moduli (GPa) = 61.61618 26.24031 68.10923
#
# Poissons Ratio (x) = 0.19037 0.35469
# Poissons Ratio (y) = 0.44701 0.57855
# Poissons Ratio (z) = 0.32088 0.22290
#
# Static dielectric constant tensor:
#      x y z
#    x 3.690090 0.000000 0.000000 
#    y 0.000000 3.235680 0.000000 
#    z 0.000000 0.000000 3.587430 
# 
# 
# High freq. dielectric constant tensor:
#      x y z
#    x 1.735250 0.000000 0.000000 
#    y 0.000000 1.707310 0.000000 
#    z 0.000000 0.000000 1.733510 
# 
# From -- ./inp_files/15844.got.cif
#   From: 2010.03.12/outbox.cif.g09.slc.cpg/sg62_8_cif.got.tgz:15844.got - 2010.04.10 19:12:36.
