data_PCOD8251239
_publ_section_title
;
Structure prediction by ZEFSAII (Michael W. Deem and Ramdas Pophale) SiO2 
 PCOD8251239
Probable space group: P N M A
;
_chemical_formula_sum "Si O2"
_cell_formula_units_Z 48
_cell_length_a 17.840357
_cell_length_b 9.232087
_cell_length_c 16.498639
_cell_angle_alpha 90.000000
_cell_angle_beta 90.000000
_cell_angle_gamma 90.000000
_cell_volume 2717.387349
_symmetry_space_group_name_H-M "P N M A"
_symmetry_group_IT_number 62
_symmetry_cell_setting 'orthorhombic'
loop_
_space_group_symop_operation_xyz
x,y,z
1/2-x,-y,1/2+z
1/2+x,1/2-y,1/2-z
-x,1/2+y,-z
-x,-y,-z
1/2+x,y,1/2-z
1/2-x,1/2+y,1/2+z
x,1/2-y,z
loop_
_atom_site_type_symbol
_atom_site_label
_atom_site_fract_x
_atom_site_fract_y
_atom_site_fract_z
Si Si1 0.077257 0.418203 0.001271
Si Si2 0.825074 0.578158 0.150614
Si Si3 0.939366 0.079300 0.254986
Si Si4 0.173703 0.419509 0.333186
Si Si5 0.980937 0.583051 0.581080
Si Si6 0.909321 0.918588 0.820303
O O1 0.058643 0.250000 0.992932
O O2 0.131369 0.471041 0.930375
O O3 0.116603 0.451586 0.088112
O O4 0.000000 0.500000 0.000000
O O5 0.822121 0.750000 0.161032
O O6 0.864968 0.507866 0.229080
O O7 0.742502 0.516092 0.138002
O O8 0.923989 0.250000 0.244142
O O9 0.960606 0.041146 0.347675
O O10 0.007091 0.020849 0.197574
O O11 0.195701 0.250000 0.334145
O O12 0.103838 0.451499 0.391946
O O13 0.152347 0.477176 0.242778
O O14 0.989569 0.750000 0.560604
O O15 0.000000 0.500000 0.500000
O O16 0.916551 0.750000 0.800059
#
# Coordination Sequence:
#
# PCOD8251239 Si02
#       6
#     8   8   8   8   8   8
#     4  10  19  32  53  80 107 135 171 214 261 311
#     4  11  22  33  49  81 116 138 167 219 274 311
#     4   9  17  33  57  77  98 137 180 210 253 318
#     4   9  19  37  57  74 101 143 183 214 255 315
#     4   9  19  36  59  83 103 135 183 226 266 314
#     4   8  15  32  56  75  94 131 179 213 240 299
#
# _framework density 17.664026
#
# number of rings (size 3 to 8) (size 9 to 14) (size 15 to 20)
#    0.000    2.667    1.667    2.500    0.000    2.000 
#    3.000    3.333    0.000    0.000    0.000    0.000 
#    0.000    0.000    0.000    0.000    0.000    0.000 
#
# Total GULP energy -595015.936651 kJ/mol
# GULP energy per Si atom -12396.165347 kJ/mol
# Density = 1.762382 g / cm^3
# Si number density = 17.664026 Si / 1000 Ang^3
#
#
#
# Elastic Constant Matrix: (Units=GPa)
#
#
# Indices 1 2 3 4 5 6 
#
# 1 107.7984 50.6801 64.7915 0.0000 0.0000 0.0000
# 2 50.6801 60.8364 54.7171 0.0000 0.0000 0.0000
# 3 64.7915 54.7171 133.3659 0.0000 0.0000 0.0000
# 4 0.0000 0.0000 0.0000 28.1487 0.0000 0.0000
# 5 0.0000 0.0000 0.0000 0.0000 24.5918 0.0000
# 6 0.0000 0.0000 0.0000 0.0000 0.0000 30.1765
#
#
#
# Elastic Compliance Matrix: (Units=1/GPa)
#
#
# Indices 1 2 3 4 5 6 
#
# 1 0.016341 -0.010258 -0.003730 0.000000 0.000000 0.000000
# 2 -0.010258 0.032490 -0.008346 0.000000 0.000000 0.000000
# 3 -0.003730 -0.008346 0.012735 0.000000 0.000000 0.000000
# 4 0.000000 0.000000 0.000000 0.035526 0.000000 0.000000
# 5 0.000000 0.000000 0.000000 0.000000 0.040664 0.000000
# 6 0.000000 0.000000 0.000000 0.000000 0.000000 0.033138
#
#
# Mechanical properties :
#
#
# Convention : Reuss Voigt Hill
#
# Bulk Modulus (GPa) = 59.18370 71.37534 65.27952
# Shear Modulus (GPa) = 22.60441 25.37087 23.98764
#
# Velocity S-wave (km/s) = 3.58115 3.79397 3.68909
# Velocity P-wave (km/s) = 7.11881 7.72575 7.42848
#
# Compressibility (1/GPa) = 0.01689655
#
# Stress axis : x y z
#
# Youngs Moduli (GPa) = 61.19436 30.77865 78.52586
#
# Poissons Ratio (x) = 0.31574 0.29291
# Poissons Ratio (y) = 0.62775 0.65540
# Poissons Ratio (z) = 0.22827 0.25689
#
# Static dielectric constant tensor:
#      x y z
#    x 3.227130 0.000000 0.000000 
#    y 0.000000 3.048160 0.000000 
#    z 0.000000 0.000000 3.669780 
# 
# 
# High freq. dielectric constant tensor:
#      x y z
#    x 1.672680 0.000000 0.000000 
#    y 0.000000 1.664060 0.000000 
#    z 0.000000 0.000000 1.690930 
# 
# From -- ./inp_files/24201.got.cif
#   From: 2010.03.12/outbox.cif.g09.slc.cpg/sg62_13_cif.got.tgz:24201.got - 2010.04.10 19:12:36.
