data_PCOD8251142
_publ_section_title
;
Structure prediction by ZEFSAII (Michael W. Deem and Ramdas Pophale) SiO2 
 PCOD8251142
Probable space group: P N M A
;
_chemical_formula_sum "Si O2"
_cell_formula_units_Z 60
_cell_length_a 5.001931
_cell_length_b 34.804929
_cell_length_c 18.291249
_cell_angle_alpha 90.000000
_cell_angle_beta 90.000000
_cell_angle_gamma 90.000000
_cell_volume 3184.357438
_symmetry_space_group_name_H-M "P N M A"
_symmetry_group_IT_number 62
_symmetry_cell_setting 'orthorhombic'
loop_
_space_group_symop_operation_xyz
x,y,z
1/2-x,-y,1/2+z
1/2+x,1/2-y,1/2-z
-x,1/2+y,-z
-x,-y,-z
1/2+x,y,1/2-z
1/2-x,1/2+y,1/2+z
x,1/2-y,z
loop_
_atom_site_type_symbol
_atom_site_label
_atom_site_fract_x
_atom_site_fract_y
_atom_site_fract_z
Si Si1 0.520946 0.684354 0.600744
Si Si2 0.072963 0.904686 0.299945
Si Si3 0.475685 0.793401 0.440435
Si Si4 0.447486 0.929994 0.801550
Si Si5 0.461478 0.986554 0.204095
Si Si6 0.011235 0.863626 0.585613
Si Si7 0.146644 0.250000 0.205833
Si Si8 0.036393 0.156744 0.576780
O O1 0.538896 0.708535 0.526453
O O2 0.812183 0.667789 0.621282
O O3 0.423382 0.711508 0.664151
O O4 0.317253 0.648897 0.593604
O O5 0.368347 0.900124 0.267354
O O6 0.035179 0.946952 0.338304
O O7 0.032466 0.872791 0.360366
O O8 0.492991 0.750000 0.408909
O O9 0.688436 0.821754 0.402230
O O10 0.181713 0.809711 0.427305
O O11 0.669370 0.922506 0.739524
O O12 0.474001 0.903563 0.872651
O O13 0.467669 0.973259 0.835709
O O14 0.146729 0.986030 0.222608
O O15 0.938359 0.866812 0.499395
O O16 0.462358 0.250000 0.221758
#
# Coordination Sequence:
#
# PCOD8251142 Si02
#       8
#     8   8   8   8   8   8   4   8
#     4  10  21  36  49  69  96 135 174 211 262 302
#     4  10  19  35  58  80 108 136 165 208 258 311
#     4  10  19  36  58  73  99 134 176 211 246 309
#     4  10  19  32  51  74 103 140 180 212 252 303
#     4   8  16  30  50  75 100 136 175 203 241 309
#     4  10  21  34  52  74 105 133 172 222 255 305
#     4  12  24  34  48  70 100 130 172 224 260 302
#     4  10  21  34  55  84 102 131 176 215 256 311
#
# _framework density 18.842103999999999
#
# number of rings (size 3 to 8) (size 9 to 14) (size 15 to 20)
#    0.000    2.133    0.667    2.800    0.000    3.200 
#    0.000    0.667    0.000    8.000    0.000   16.800 
#    0.000    0.000    0.000    0.000    0.000    0.000 
#
# Total GULP energy -743744.354689 kJ/mol
# GULP energy per Si atom -12395.739245 kJ/mol
# Density = 1.879922 g / cm^3
# Si number density = 18.842104 Si / 1000 Ang^3
#
#
#
# Elastic Constant Matrix: (Units=GPa)
#
#
# Indices 1 2 3 4 5 6 
#
# 1 72.8397 2.5804 -0.9654 0.0000 0.0000 0.0000
# 2 2.5804 118.0212 41.2880 0.0000 0.0000 0.0000
# 3 -0.9654 41.2880 43.7875 0.0000 0.0000 0.0000
# 4 0.0000 0.0000 0.0000 18.4671 0.0000 0.0000
# 5 0.0000 0.0000 0.0000 0.0000 19.5421 0.0000
# 6 0.0000 0.0000 0.0000 0.0000 0.0000 21.0852
#
#
#
# Elastic Compliance Matrix: (Units=1/GPa)
#
#
# Indices 1 2 3 4 5 6 
#
# 1 0.013762 -0.000607 0.000876 0.000000 0.000000 0.000000
# 2 -0.000607 0.012671 -0.011961 0.000000 0.000000 0.000000
# 3 0.000876 -0.011961 0.034135 0.000000 0.000000 0.000000
# 4 0.000000 0.000000 0.000000 0.054150 0.000000 0.000000
# 5 0.000000 0.000000 0.000000 0.000000 0.051171 0.000000
# 6 0.000000 0.000000 0.000000 0.000000 0.000000 0.047427
#
#
# Mechanical properties :
#
#
# Convention : Reuss Voigt Hill
#
# Bulk Modulus (GPa) = 26.89372 35.60604 31.24988
# Shear Modulus (GPa) = 20.07271 24.60191 22.33731
#
# Velocity S-wave (km/s) = 3.26745 3.61735 3.44684
# Velocity P-wave (km/s) = 5.34221 6.03200 5.69755
#
# Compressibility (1/GPa) = 0.03718341
#
# Stress axis : x y z
#
# Youngs Moduli (GPa) = 72.66434 78.92267 29.29551
#
# Poissons Ratio (x) = 0.04794 -0.02567
# Poissons Ratio (y) = 0.04413 0.35040
# Poissons Ratio (z) = -0.06366 0.94398
#
# Static dielectric constant tensor:
#      x y z
#    x 3.702930 0.000000 0.000000 
#    y 0.000000 3.572860 0.000000 
#    z 0.000000 0.000000 3.010680 
# 
# 
# High freq. dielectric constant tensor:
#      x y z
#    x 1.756830 0.000000 0.000000 
#    y 0.000000 1.741480 0.000000 
#    z 0.000000 0.000000 1.679270 
# 
# From -- ./inp_files/21676.got.cif
#   From: 2010.03.12/outbox.cif.g09.slc.cpg/sg62_11_cif.got.tgz:21676.got - 2010.04.10 19:12:36.
