data_PCOD8251363
_publ_section_title
;
Structure prediction by ZEFSAII (Michael W. Deem and Ramdas Pophale) SiO2 
 PCOD8251363
Probable space group: P N M A
;
_chemical_formula_sum "Si O2"
_cell_formula_units_Z 56
_cell_length_a 18.998790
_cell_length_b 9.187712
_cell_length_c 19.116634
_cell_angle_alpha 90.000000
_cell_angle_beta 90.000000
_cell_angle_gamma 90.000000
_cell_volume 3336.911902
_symmetry_space_group_name_H-M "P N M A"
_symmetry_group_IT_number 62
_symmetry_cell_setting 'orthorhombic'
loop_
_space_group_symop_operation_xyz
x,y,z
1/2-x,-y,1/2+z
1/2+x,1/2-y,1/2-z
-x,1/2+y,-z
-x,-y,-z
1/2+x,y,1/2-z
1/2-x,1/2+y,1/2+z
x,1/2-y,z
loop_
_atom_site_type_symbol
_atom_site_label
_atom_site_fract_x
_atom_site_fract_y
_atom_site_fract_z
Si Si1 0.268266 0.581256 0.866840
Si Si2 0.710609 0.418892 0.973529
Si Si3 0.978019 0.919266 0.290469
Si Si4 0.148695 0.916399 0.763580
Si Si5 0.232046 0.420661 0.153896
Si Si6 0.050244 0.421186 0.553749
Si Si7 0.362358 0.078852 0.760227
O O1 0.288003 0.750000 0.852937
O O2 0.264798 0.544664 0.948295
O O3 0.191993 0.546033 0.833903
O O4 0.327704 0.483293 0.830796
O O5 0.721507 0.250000 0.954841
O O6 0.759587 0.514840 0.923402
O O7 0.629741 0.464057 0.964809
O O8 0.961824 0.750000 0.290687
O O9 0.968051 0.980051 0.368969
O O10 0.055168 0.955570 0.262613
O O11 0.922076 0.990330 0.237883
O O12 0.125386 0.750000 0.762421
O O13 0.197051 0.953962 0.696846
O O14 0.215674 0.250000 0.150179
O O15 0.167063 0.499799 0.191517
O O16 0.037046 0.250000 0.547314
O O17 0.000000 0.500000 0.500000
O O18 0.346750 0.250000 0.756068
#
# Coordination Sequence:
#
# PCOD8251363 Si02
#       7
#     8   8   8   8   8   8   8
#     4   9  19  34  51  76 105 133 171 211 252 305
#     4  10  19  33  53  74 103 139 169 208 259 305
#     4  10  20  33  49  73 102 131 170 210 247 301
#     4   9  18  32  50  72  98 131 169 209 251 297
#     4  10  20  34  52  75 101 131 174 217 252 306
#     4  10  20  31  46  72 105 138 167 198 245 305
#     4  10  20  33  51  74 102 135 169 211 256 300
#
# _framework density 16.781984000000001
#
# number of rings (size 3 to 8) (size 9 to 14) (size 15 to 20)
#    0.000    2.286    1.429    2.571    0.000    5.143 
#    0.000    0.000    0.000    0.857    0.000    0.000 
#    0.000    0.000    0.000    0.000    0.000    0.000 
#
# Total GULP energy -694561.548067 kJ/mol
# GULP energy per Si atom -12402.884787 kJ/mol
# Density = 1.674379 g / cm^3
# Si number density = 16.781984 Si / 1000 Ang^3
#
#
#
# Elastic Constant Matrix: (Units=GPa)
#
#
# Indices 1 2 3 4 5 6 
#
# 1 114.3481 66.4509 71.1528 0.0000 0.0000 0.0000
# 2 66.4509 72.8551 56.7120 0.0000 0.0000 0.0000
# 3 71.1528 56.7120 121.6900 0.0000 0.0000 0.0000
# 4 0.0000 0.0000 0.0000 28.3728 0.0000 0.0000
# 5 0.0000 0.0000 0.0000 0.0000 23.9143 0.0000
# 6 0.0000 0.0000 0.0000 0.0000 0.0000 29.7542
#
#
#
# Elastic Compliance Matrix: (Units=1/GPa)
#
#
# Indices 1 2 3 4 5 6 
#
# 1 0.020462 -0.014673 -0.005126 0.000000 0.000000 0.000000
# 2 -0.014673 0.032062 -0.006363 0.000000 0.000000 0.000000
# 3 -0.005126 -0.006363 0.014180 0.000000 0.000000 0.000000
# 4 0.000000 0.000000 0.000000 0.035245 0.000000 0.000000
# 5 0.000000 0.000000 0.000000 0.000000 0.041816 0.000000
# 6 0.000000 0.000000 0.000000 0.000000 0.000000 0.033609
#
#
# Mechanical properties :
#
#
# Convention : Reuss Voigt Hill
#
# Bulk Modulus (GPa) = 69.53865 77.50274 73.52069
# Shear Modulus (GPa) = 21.32291 24.04675 22.68483
#
# Velocity S-wave (km/s) = 3.56839 3.78946 3.68059
# Velocity P-wave (km/s) = 7.64881 8.08882 7.87189
#
# Compressibility (1/GPa) = 0.01438049
#
# Stress axis : x y z
#
# Youngs Moduli (GPa) = 48.87192 31.18980 70.52185
#
# Poissons Ratio (x) = 0.45764 0.36149
# Poissons Ratio (y) = 0.71709 0.44871
# Poissons Ratio (z) = 0.25051 0.19845
#
# Static dielectric constant tensor:
#      x y z
#    x 3.042370 0.000000 0.000000 
#    y 0.000000 3.143930 0.000000 
#    z 0.000000 0.000000 3.167380 
# 
# 
# High freq. dielectric constant tensor:
#      x y z
#    x 1.637080 0.000000 0.000000 
#    y 0.000000 1.650320 0.000000 
#    z 0.000000 0.000000 1.640940 
# 
# From -- ./inp_files/27555.got.cif
#   From: 2010.03.12/outbox.cif.g09.slc.cpg/sg62_14_cif.got.tgz:27555.got - 2010.04.10 19:12:36.
