data_PCOD8251467
_publ_section_title
;
Structure prediction by ZEFSAII (Michael W. Deem and Ramdas Pophale) SiO2 
 PCOD8251467
Probable space group: P N M A
;
_chemical_formula_sum "Si O2"
_cell_formula_units_Z 56
_cell_length_a 25.124381
_cell_length_b 9.386772
_cell_length_c 12.606343
_cell_angle_alpha 90.000000
_cell_angle_beta 90.000000
_cell_angle_gamma 90.000000
_cell_volume 2973.040048
_symmetry_space_group_name_H-M "P N M A"
_symmetry_group_IT_number 62
_symmetry_cell_setting 'orthorhombic'
loop_
_space_group_symop_operation_xyz
x,y,z
1/2-x,-y,1/2+z
1/2+x,1/2-y,1/2-z
-x,1/2+y,-z
-x,-y,-z
1/2+x,y,1/2-z
1/2-x,1/2+y,1/2+z
x,1/2-y,z
loop_
_atom_site_type_symbol
_atom_site_label
_atom_site_fract_x
_atom_site_fract_y
_atom_site_fract_z
Si Si1 0.403652 0.085504 0.858818
Si Si2 0.508093 0.914300 0.820788
Si Si3 0.682373 0.581008 0.313911
Si Si4 0.152435 0.918130 0.952994
Si Si5 0.881116 0.084919 0.406658
Si Si6 0.534822 0.913757 0.580611
Si Si7 0.788182 0.080608 0.255446
O O1 0.419412 0.250000 0.846923
O O2 0.366785 0.036527 0.761369
O O3 0.457861 0.998295 0.865287
O O4 0.371496 0.059138 0.968450
O O5 0.501333 0.750000 0.854021
O O6 0.562094 0.980824 0.870893
O O7 0.509664 0.933263 0.695300
O O8 0.692335 0.750000 0.309343
O O9 0.670210 0.524434 0.432201
O O10 0.733719 0.499817 0.273877
O O11 0.149206 0.750000 0.956882
O O12 0.193673 0.965203 0.862454
O O13 0.094395 0.977533 0.922245
O O14 0.884155 0.250000 0.375511
O O15 0.831575 0.021813 0.340376
O O16 0.534955 0.750000 0.544784
O O17 0.500000 0.000000 0.500000
O O18 0.779656 0.250000 0.265960
#
# Coordination Sequence:
#
# PCOD8251467 Si02
#       7
#     8   8   8   8   8   8   8
#     4  10  21  36  55  80 114 146 174 217 274 324
#     4  10  19  34  56  82 110 140 182 225 262 318
#     4  10  22  37  54  80 112 142 175 222 275 319
#     4   9  18  36  57  76 105 145 179 210 264 329
#     4   9  18  35  57  80 106 142 182 221 266 317
#     4  10  19  33  55  80 108 143 180 219 264 319
#     4  10  20  37  60  79 100 140 188 223 260 317
#
# _framework density 18.835937999999999
#
# number of rings (size 3 to 8) (size 9 to 14) (size 15 to 20)
#    0.000    2.286    1.429    1.286    2.000    2.286 
#    0.000    2.857    0.000    0.000    0.000    0.000 
#    0.000    0.000    0.000    0.000    0.000    0.000 
#
# Total GULP energy -694394.614978 kJ/mol
# GULP energy per Si atom -12399.903839 kJ/mol
# Density = 1.879307 g / cm^3
# Si number density = 18.835938 Si / 1000 Ang^3
#
#
#
# Elastic Constant Matrix: (Units=GPa)
#
#
# Indices 1 2 3 4 5 6 
#
# 1 92.2808 25.8125 23.2570 0.0000 0.0000 0.0000
# 2 25.8125 31.2580 18.8294 0.0000 0.0000 0.0000
# 3 23.2570 18.8294 99.2123 0.0000 0.0000 0.0000
# 4 0.0000 0.0000 0.0000 18.5823 0.0000 0.0000
# 5 0.0000 0.0000 0.0000 0.0000 34.0796 0.0000
# 6 0.0000 0.0000 0.0000 0.0000 0.0000 30.1728
#
#
#
# Elastic Compliance Matrix: (Units=1/GPa)
#
#
# Indices 1 2 3 4 5 6 
#
# 1 0.014227 -0.010997 -0.001248 0.000000 0.000000 0.000000
# 2 -0.010997 0.044621 -0.005891 0.000000 0.000000 0.000000
# 3 -0.001248 -0.005891 0.011490 0.000000 0.000000 0.000000
# 4 0.000000 0.000000 0.000000 0.053815 0.000000 0.000000
# 5 0.000000 0.000000 0.000000 0.000000 0.029343 0.000000
# 6 0.000000 0.000000 0.000000 0.000000 0.000000 0.033142
#
#
# Mechanical properties :
#
#
# Convention : Reuss Voigt Hill
#
# Bulk Modulus (GPa) = 29.35371 39.83877 34.59624
# Shear Modulus (GPa) = 21.34332 26.89043 24.11688
#
# Velocity S-wave (km/s) = 3.36983 3.78248 3.58210
# Velocity P-wave (km/s) = 5.54606 6.34606 5.95950
#
# Compressibility (1/GPa) = 0.03406725
#
# Stress axis : x y z
#
# Youngs Moduli (GPa) = 70.28888 22.41075 87.03258
#
# Poissons Ratio (x) = 0.24645 0.10861
# Poissons Ratio (y) = 0.77295 0.51269
# Poissons Ratio (z) = 0.08772 0.13202
#
# Static dielectric constant tensor:
#      x y z
#    x 3.697350 0.000000 0.000000 
#    y 0.000000 3.107000 0.000000 
#    z 0.000000 0.000000 4.049190 
# 
# 
# High freq. dielectric constant tensor:
#      x y z
#    x 1.738820 0.000000 0.000000 
#    y 0.000000 1.690460 0.000000 
#    z 0.000000 0.000000 1.751500 
# 
# From -- ./inp_files/14778.got.cif
#   From: 2010.03.12/outbox.cif.g09.slc.cpg/sg62_8_cif.got.tgz:14778.got - 2010.04.10 19:12:36.
