data_PCOD8251878
_publ_section_title
;
Structure prediction by ZEFSAII (Michael W. Deem and Ramdas Pophale) SiO2 
 PCOD8251878
Probable space group: P N M A
;
_chemical_formula_sum "Si O2"
_cell_formula_units_Z 32
_cell_length_a 10.640684
_cell_length_b 5.177922
_cell_length_c 29.542593
_cell_angle_alpha 90.000000
_cell_angle_beta 90.000000
_cell_angle_gamma 90.000000
_cell_volume 1627.697368
_symmetry_space_group_name_H-M "P N M A"
_symmetry_group_IT_number 62
_symmetry_cell_setting 'orthorhombic'
loop_
_space_group_symop_operation_xyz
x,y,z
1/2-x,-y,1/2+z
1/2+x,1/2-y,1/2-z
-x,1/2+y,-z
-x,-y,-z
1/2+x,y,1/2-z
1/2-x,1/2+y,1/2+z
x,1/2-y,z
loop_
_atom_site_type_symbol
_atom_site_label
_atom_site_fract_x
_atom_site_fract_y
_atom_site_fract_z
Si Si1 0.778386 0.250000 0.598086
Si Si2 0.695475 0.750000 0.354404
Si Si3 0.428952 0.750000 0.795408
Si Si4 0.914947 0.750000 0.811174
Si Si5 0.611119 0.750000 0.454759
Si Si6 0.518826 0.250000 0.844474
Si Si7 0.334426 0.750000 0.493880
Si Si8 0.311670 0.250000 0.353064
O O1 0.923207 0.250000 0.613329
O O2 0.775753 0.250000 0.543540
O O3 0.706339 0.500341 0.616047
O O4 0.662667 0.500818 0.325023
O O5 0.618832 0.750000 0.400887
O O6 0.843030 0.750000 0.365635
O O7 0.434188 0.750000 0.741997
O O8 0.500342 0.499277 0.813384
O O9 0.284120 0.750000 0.811065
O O10 0.048966 0.750000 0.834722
O O11 0.465294 0.750000 0.467129
O O12 0.680192 0.499071 0.474514
#
# Coordination Sequence:
#
# PCOD8251878 Si02
#       8
#     4   4   4   4   4   4   4   4
#     4  10  20  39  61  86 112 163 198 240 295 345
#     4  12  25  40  60  89 124 158 192 242 308 355
#     4  10  23  41  59  86 113 156 204 238 295 342
#     4  12  24  38  62  88 114 160 194 250 293 354
#     4  10  21  35  55  90 118 151 190 246 297 343
#     4  10  23  42  61  82 124 159 193 247 291 358
#     4  10  19  35  60  82 119 151 195 247 287 346
#     4  10  21  36  60  85 118 144 204 252 280 351
#
# _framework density 19.659673000000002
#
# number of rings (size 3 to 8) (size 9 to 14) (size 15 to 20)
#    0.000    1.500    0.000    5.250    3.500    2.000 
#    0.000    1.250    0.000    0.000    0.000    0.000 
#    0.000    0.000    0.000    0.000    0.000    0.000 
#
# Total GULP energy -397002.349213 kJ/mol
# GULP energy per Si atom -12406.323413 kJ/mol
# Density = 1.961493 g / cm^3
# Si number density = 19.659673 Si / 1000 Ang^3
#
#
#
# Elastic Constant Matrix: (Units=GPa)
#
#
# Indices 1 2 3 4 5 6 
#
# 1 78.3367 21.5626 -0.8281 0.0000 0.0000 0.0000
# 2 21.5626 168.6157 27.1592 0.0000 0.0000 0.0000
# 3 -0.8281 27.1592 71.0299 0.0000 0.0000 0.0000
# 4 0.0000 0.0000 0.0000 -5.4049 0.0000 0.0000
# 5 0.0000 0.0000 0.0000 0.0000 -7.1506 0.0000
# 6 0.0000 0.0000 0.0000 0.0000 0.0000 28.4463
#
#
#
# Elastic Compliance Matrix: (Units=1/GPa)
#
#
# Indices 1 2 3 4 5 6 
#
# 1 0.013280 -0.001836 0.000857 0.000000 0.000000 0.000000
# 2 -0.001836 0.006574 -0.002535 0.000000 0.000000 0.000000
# 3 0.000857 -0.002535 0.015058 0.000000 0.000000 0.000000
# 4 0.000000 0.000000 0.000000 -0.185017 0.000000 0.000000
# 5 0.000000 0.000000 0.000000 0.000000 -0.139849 0.000000
# 6 0.000000 0.000000 0.000000 0.000000 0.000000 0.035154
#
#
# Mechanical properties :
#
#
# Convention : Reuss Voigt Hill
#
# Bulk Modulus (GPa) = 35.86422 45.97441 40.91931
# Shear Modulus (GPa) = -20.96636 21.18406 0.10885
#
# Velocity S-wave (km/s) = -3.26922 3.28615 0.23556
# Velocity P-wave (km/s) = 2.00792 6.15096 4.57526
#
# Compressibility (1/GPa) = 0.02788295
#
# Stress axis : x y z
#
# Youngs Moduli (GPa) = 75.30171 152.11945 66.41052
#
# Poissons Ratio (x) = 0.27933 -0.05691
# Poissons Ratio (y) = 0.13827 0.16835
# Poissons Ratio (z) = -0.06453 0.38562
#
# Static dielectric constant tensor:
#      x y z
#    x 3.483710 0.000000 0.000000 
#    y 0.000000 3.924280 0.000000 
#    z 0.000000 0.000000 3.567950 
# 
# 
# High freq. dielectric constant tensor:
#      x y z
#    x 1.756810 0.000000 0.000000 
#    y 0.000000 1.792350 0.000000 
#    z 0.000000 0.000000 1.766850 
# 
# From -- ./inp_files/30614.got.cif
#   From: 2010.03.12/outbox.cif.g09.slc.cpg/sg62_16_cif.got.tgz:30614.got - 2010.04.10 19:12:36.
