data_PCOD8251520
_publ_section_title
;
Structure prediction by ZEFSAII (Michael W. Deem and Ramdas Pophale) SiO2 
 PCOD8251520
Probable space group: P N M A
;
_chemical_formula_sum "Si O2"
_cell_formula_units_Z 64
_cell_length_a 20.509361
_cell_length_b 8.863642
_cell_length_c 19.063962
_cell_angle_alpha 90.000000
_cell_angle_beta 90.000000
_cell_angle_gamma 90.000000
_cell_volume 3465.592538
_symmetry_space_group_name_H-M "P N M A"
_symmetry_group_IT_number 62
_symmetry_cell_setting 'orthorhombic'
loop_
_space_group_symop_operation_xyz
x,y,z
1/2-x,-y,1/2+z
1/2+x,1/2-y,1/2-z
-x,1/2+y,-z
-x,-y,-z
1/2+x,y,1/2-z
1/2-x,1/2+y,1/2+z
x,1/2-y,z
loop_
_atom_site_type_symbol
_atom_site_label
_atom_site_fract_x
_atom_site_fract_y
_atom_site_fract_z
Si Si1 0.761228 0.572992 0.324252
Si Si2 0.438963 0.927781 0.538090
Si Si3 0.610592 0.573077 0.325303
Si Si4 0.684724 0.926085 0.956675
Si Si5 0.689215 0.074769 0.546849
Si Si6 0.737937 0.574792 0.680887
Si Si7 0.388124 0.575389 0.818190
Si Si8 0.563737 0.072484 0.032018
O O1 0.771823 0.750000 0.333884
O O2 0.685905 0.526750 0.336017
O O3 0.806615 0.482896 0.377673
O O4 0.784136 0.522712 0.247460
O O5 0.448125 0.750000 0.542430
O O6 0.375293 0.973560 0.494295
O O7 0.500000 0.000000 0.500000
O O8 0.433248 0.990999 0.616772
O O9 0.599711 0.750000 0.332266
O O10 0.587446 0.521349 0.248066
O O11 0.668614 0.750000 0.956720
O O12 0.750121 0.965609 0.998077
O O13 0.625920 0.014175 0.991003
O O14 0.688771 0.250000 0.567646
O O15 0.692673 0.975380 0.616709
O O16 0.726711 0.750000 0.697040
O O17 0.813127 0.539358 0.662699
O O18 0.396571 0.750000 0.798594
O O19 0.430961 0.529523 0.885695
O O20 0.560216 0.250000 0.022481
O O21 0.500000 0.000000 0.000000
#
# Coordination Sequence:
#
# PCOD8251520 Si02
#       8
#     8   8   8   8   8   8   8   8
#     4  10  20  34  55  85 119 151 189 238 289 344
#     4  11  23  40  59  84 118 155 193 237 287 343
#     4  10  20  34  57  86 114 148 191 235 284 341
#     4  11  21  36  59  86 115 150 191 238 289 342
#     4  10  21  36  57  84 115 148 187 234 286 339
#     4  10  19  33  56  85 116 149 189 237 288 342
#     4   9  19  35  56  82 114 149 188 233 283 340
#     4  11  23  40  59  86 119 156 196 240 290 346
#
# _framework density 18.46726
#
# number of rings (size 3 to 8) (size 9 to 14) (size 15 to 20)
#    0.000    1.750    2.500    2.250    0.000    4.000 
#    0.000    1.250    0.000    6.000    0.000    0.000 
#    0.000    0.000    0.000    0.000    0.000    0.000 
#
# Total GULP energy -793901.665922 kJ/mol
# GULP energy per Si atom -12404.713530 kJ/mol
# Density = 1.842523 g / cm^3
# Si number density = 18.467260 Si / 1000 Ang^3
#
#
#
# Elastic Constant Matrix: (Units=GPa)
#
#
# Indices 1 2 3 4 5 6 
#
# 1 99.6446 46.6553 62.2605 0.0000 0.0000 0.0000
# 2 46.6553 71.5570 64.0017 0.0000 0.0000 0.0000
# 3 62.2605 64.0017 146.5267 0.0000 0.0000 0.0000
# 4 0.0000 0.0000 0.0000 39.0278 0.0000 0.0000
# 5 0.0000 0.0000 0.0000 0.0000 29.1522 0.0000
# 6 0.0000 0.0000 0.0000 0.0000 0.0000 30.2412
#
#
#
# Elastic Compliance Matrix: (Units=1/GPa)
#
#
# Indices 1 2 3 4 5 6 
#
# 1 0.015503 -0.006919 -0.003565 0.000000 0.000000 0.000000
# 2 -0.006919 0.026023 -0.008427 0.000000 0.000000 0.000000
# 3 -0.003565 -0.008427 0.012020 0.000000 0.000000 0.000000
# 4 0.000000 0.000000 0.000000 0.025623 0.000000 0.000000
# 5 0.000000 0.000000 0.000000 0.000000 0.034303 0.000000
# 6 0.000000 0.000000 0.000000 0.000000 0.000000 0.033067
#
#
# Mechanical properties :
#
#
# Convention : Reuss Voigt Hill
#
# Bulk Modulus (GPa) = 63.59566 73.72925 68.66246
# Shear Modulus (GPa) = 26.37091 29.33828 27.85460
#
# Velocity S-wave (km/s) = 3.78296 3.99013 3.88793
# Velocity P-wave (km/s) = 7.32071 7.82555 7.57733
#
# Compressibility (1/GPa) = 0.01572434
#
# Stress axis : x y z
#
# Youngs Moduli (GPa) = 64.50386 38.42718 83.19320
#
# Poissons Ratio (x) = 0.26589 0.29659
# Poissons Ratio (y) = 0.44632 0.70104
# Poissons Ratio (z) = 0.22996 0.32381
#
# Static dielectric constant tensor:
#      x y z
#    x 3.196790 0.000000 0.000000 
#    y 0.000000 3.423100 0.000000 
#    z 0.000000 0.000000 3.503770 
# 
# 
# High freq. dielectric constant tensor:
#      x y z
#    x 1.688900 0.000000 0.000000 
#    y 0.000000 1.727660 0.000000 
#    z 0.000000 0.000000 1.730650 
# 
# From -- ./inp_files/24734.got.cif
#   From: 2010.03.12/outbox.cif.g09.slc.cpg/sg62_13_cif.got.tgz:24734.got - 2010.04.10 19:12:36.
