data_PCOD8251562
_publ_section_title
;
Structure prediction by ZEFSAII (Michael W. Deem and Ramdas Pophale) SiO2 
 PCOD8251562
Probable space group: P N M A
;
_chemical_formula_sum "Si O2"
_cell_formula_units_Z 64
_cell_length_a 11.133586
_cell_length_b 9.315141
_cell_length_c 35.179837
_cell_angle_alpha 90.000000
_cell_angle_beta 90.000000
_cell_angle_gamma 90.000000
_cell_volume 3648.533381
_symmetry_space_group_name_H-M "P N M A"
_symmetry_group_IT_number 62
_symmetry_cell_setting 'orthorhombic'
loop_
_space_group_symop_operation_xyz
x,y,z
1/2-x,-y,1/2+z
1/2+x,1/2-y,1/2-z
-x,1/2+y,-z
-x,-y,-z
1/2+x,y,1/2-z
1/2-x,1/2+y,1/2+z
x,1/2-y,z
loop_
_atom_site_type_symbol
_atom_site_label
_atom_site_fract_x
_atom_site_fract_y
_atom_site_fract_z
Si Si1 0.370318 0.419481 0.224570
Si Si2 0.354265 0.580837 0.777104
Si Si3 0.741168 0.580962 0.426430
Si Si4 0.864258 0.586097 0.351954
Si Si5 0.743433 0.586994 0.067597
Si Si6 0.877006 0.920235 0.501323
Si Si7 0.859664 0.088072 0.647060
Si Si8 0.003211 0.588231 0.038431
O O1 0.365172 0.250000 0.219447
O O2 0.259833 0.471092 0.251644
O O3 0.508877 0.463511 0.237502
O O4 0.339046 0.491175 0.184712
O O5 0.349891 0.750000 0.781408
O O6 0.328808 0.514587 0.818139
O O7 0.758005 0.750000 0.422736
O O8 0.790138 0.515684 0.386966
O O9 0.810877 0.526188 0.463471
O O10 0.604524 0.530994 0.432657
O O11 0.825735 0.750000 0.342924
O O12 0.001865 0.579019 0.364534
O O13 0.694617 0.750000 0.060278
O O14 0.714421 0.537219 0.110297
O O15 0.885189 0.581674 0.063327
O O16 0.691567 0.472711 0.038488
O O17 0.892422 0.750000 0.503286
O O18 0.000000 0.000000 0.500000
O O19 0.824531 0.250000 0.658888
O O20 0.035290 0.750000 0.025680
O O21 0.000000 0.500000 0.000000
#
# Coordination Sequence:
#
# PCOD8251562 Si02
#       8
#     8   8   8   8   8   8   8   8
#     4   9  18  34  54  76 103 132 164 203 252 302
#     4   9  18  34  55  76 102 135 167 203 251 308
#     4   9  18  33  51  71  99 134 168 205 254 302
#     4   9  17  32  53  73  99 133 167 203 247 298
#     4  10  20  34  52  74 102 134 170 212 257 303
#     4  11  21  33  51  74 101 132 170 214 257 304
#     4   9  18  33  52  75 104 134 166 208 252 295
#     4  10  19  34  53  71  99 137 174 210 255 306
#
# _framework density 17.541295000000002
#
# number of rings (size 3 to 8) (size 9 to 14) (size 15 to 20)
#    0.000    2.500    1.250    1.125    0.000    3.000 
#    2.250    4.375    0.000    0.000    0.000    0.000 
#    0.000    0.000    0.000    0.000    0.000    0.000 
#
# Total GULP energy -793140.768679 kJ/mol
# GULP energy per Si atom -12392.824511 kJ/mol
# Density = 1.750137 g / cm^3
# Si number density = 17.541295 Si / 1000 Ang^3
#
#
#
# Elastic Constant Matrix: (Units=GPa)
#
#
# Indices 1 2 3 4 5 6 
#
# 1 109.6078 27.5330 72.7918 0.0000 0.0000 0.0000
# 2 27.5330 32.9622 32.7549 0.0000 0.0000 0.0000
# 3 72.7918 32.7549 129.6694 0.0000 0.0000 0.0000
# 4 0.0000 0.0000 0.0000 31.3347 0.0000 0.0000
# 5 0.0000 0.0000 0.0000 0.0000 37.0547 0.0000
# 6 0.0000 0.0000 0.0000 0.0000 0.0000 20.6191
#
#
#
# Elastic Compliance Matrix: (Units=1/GPa)
#
#
# Indices 1 2 3 4 5 6 
#
# 1 0.015301 -0.005668 -0.007157 0.000000 0.000000 0.000000
# 2 -0.005668 0.042605 -0.007580 0.000000 0.000000 0.000000
# 3 -0.007157 -0.007580 0.013645 0.000000 0.000000 0.000000
# 4 0.000000 0.000000 0.000000 0.031914 0.000000 0.000000
# 5 0.000000 0.000000 0.000000 0.000000 0.026987 0.000000
# 6 0.000000 0.000000 0.000000 0.000000 0.000000 0.048499
#
#
# Mechanical properties :
#
#
# Convention : Reuss Voigt Hill
#
# Bulk Modulus (GPa) = 32.53239 59.82211 46.17725
# Shear Modulus (GPa) = 21.73846 27.07901 24.40874
#
# Velocity S-wave (km/s) = 3.52415 3.93329 3.73433
# Velocity P-wave (km/s) = 5.92840 7.40306 6.70639
#
# Compressibility (1/GPa) = 0.03073860
#
# Stress axis : x y z
#
# Youngs Moduli (GPa) = 65.35716 23.47149 73.28875
#
# Poissons Ratio (x) = 0.13304 0.52456
# Poissons Ratio (y) = 0.37044 0.55555
# Poissons Ratio (z) = 0.46779 0.17792
#
# Static dielectric constant tensor:
#      x y z
#    x 3.523660 0.000000 0.000000 
#    y 0.000000 3.180550 0.000000 
#    z 0.000000 0.000000 3.243780 
# 
# 
# High freq. dielectric constant tensor:
#      x y z
#    x 1.688320 0.000000 0.000000 
#    y 0.000000 1.663180 0.000000 
#    z 0.000000 0.000000 1.673140 
# 
# From -- ./inp_files/32605.got.cif
#   From: 2010.03.12/outbox.cif.g09.slc.cpg/sg62_17_cif.got.tgz:32605.got - 2010.04.10 19:12:36.
