data_PCOD8251635
_publ_section_title
;
Structure prediction by ZEFSAII (Michael W. Deem and Ramdas Pophale) SiO2 
 PCOD8251635
Probable space group: P N M A
;
_chemical_formula_sum "Si O2"
_cell_formula_units_Z 64
_cell_length_a 12.606405
_cell_length_b 9.359314
_cell_length_c 29.110784
_cell_angle_alpha 90.000000
_cell_angle_beta 90.000000
_cell_angle_gamma 90.000000
_cell_volume 3434.702887
_symmetry_space_group_name_H-M "P N M A"
_symmetry_group_IT_number 62
_symmetry_cell_setting 'orthorhombic'
loop_
_space_group_symop_operation_xyz
x,y,z
1/2-x,-y,1/2+z
1/2+x,1/2-y,1/2-z
-x,1/2+y,-z
-x,-y,-z
1/2+x,y,1/2-z
1/2-x,1/2+y,1/2+z
x,1/2-y,z
loop_
_atom_site_type_symbol
_atom_site_label
_atom_site_fract_x
_atom_site_fract_y
_atom_site_fract_z
Si Si1 0.945509 0.918049 0.400218
Si Si2 0.289032 0.085351 0.033300
Si Si3 0.819376 0.418244 0.569977
Si Si4 0.405179 0.587026 0.592150
Si Si5 0.135149 0.913376 0.883142
Si Si6 0.379087 0.591411 0.200688
Si Si7 0.360663 0.091153 0.677791
Si Si8 0.958313 0.083871 0.215913
O O1 0.926398 0.750000 0.406892
O O2 0.927099 0.963220 0.347526
O O3 0.064248 0.964120 0.413510
O O4 0.862879 0.997566 0.432660
O O5 0.324558 0.250000 0.036543
O O6 0.163724 0.068759 0.045823
O O7 0.303663 0.026354 0.981952
O O8 0.802469 0.250000 0.573307
O O9 0.732369 0.488607 0.602587
O O10 0.397951 0.750000 0.610936
O O11 0.530095 0.549817 0.586179
O O12 0.351467 0.482212 0.628402
O O13 0.169009 0.750000 0.890642
O O14 0.110637 0.944847 0.829756
O O15 0.425214 0.750000 0.212286
O O16 0.253865 0.602379 0.199246
O O17 0.401614 0.476107 0.239436
O O18 0.409777 0.250000 0.672113
O O19 0.430448 0.997015 0.712061
O O20 0.980563 0.250000 0.222981
#
# Coordination Sequence:
#
# PCOD8251635 Si02
#       8
#     8   8   8   8   8   8   8   8
#     4  10  21  38  56  80 115 148 187 234 281 334
#     4  10  20  35  57  85 112 145 190 234 282 336
#     4  10  22  37  55  81 116 153 186 230 283 336
#     4   9  18  34  56  80 110 143 183 234 279 327
#     4   9  20  38  55  76 109 147 184 229 282 337
#     4  10  21  36  56  83 110 142 187 233 279 337
#     4  10  19  34  56  80 108 142 182 228 278 331
#     4  10  22  38  57  82 112 145 184 232 287 341
#
# _framework density 18.633341999999999
#
# number of rings (size 3 to 8) (size 9 to 14) (size 15 to 20)
#    0.000    2.250    1.250    1.875    0.000    6.500 
#    0.000    3.750    0.000    0.000    0.000    0.000 
#    0.000    0.000    0.000    0.000    0.000    0.000 
#
# Total GULP energy -793562.878588 kJ/mol
# GULP energy per Si atom -12399.419978 kJ/mol
# Density = 1.859093 g / cm^3
# Si number density = 18.633342 Si / 1000 Ang^3
#
#
#
# Elastic Constant Matrix: (Units=GPa)
#
#
# Indices 1 2 3 4 5 6 
#
# 1 83.5669 36.9695 45.4342 0.0000 0.0000 0.0000
# 2 36.9695 80.7210 44.5087 0.0000 0.0000 0.0000
# 3 45.4342 44.5087 94.4601 0.0000 0.0000 0.0000
# 4 0.0000 0.0000 0.0000 29.8296 0.0000 0.0000
# 5 0.0000 0.0000 0.0000 0.0000 20.8088 0.0000
# 6 0.0000 0.0000 0.0000 0.0000 0.0000 27.9306
#
#
#
# Elastic Compliance Matrix: (Units=1/GPa)
#
#
# Indices 1 2 3 4 5 6 
#
# 1 0.017343 -0.004517 -0.006213 0.000000 0.000000 0.000000
# 2 -0.004517 0.017913 -0.006268 0.000000 0.000000 0.000000
# 3 -0.006213 -0.006268 0.016528 0.000000 0.000000 0.000000
# 4 0.000000 0.000000 0.000000 0.033524 0.000000 0.000000
# 5 0.000000 0.000000 0.000000 0.000000 0.048057 0.000000
# 6 0.000000 0.000000 0.000000 0.000000 0.000000 0.035803
#
#
# Mechanical properties :
#
#
# Convention : Reuss Voigt Hill
#
# Bulk Modulus (GPa) = 56.21766 56.95253 56.58509
# Shear Modulus (GPa) = 23.91275 24.50283 24.20779
#
# Velocity S-wave (km/s) = 3.58625 3.63023 3.60830
# Velocity P-wave (km/s) = 6.88362 6.94281 6.91328
#
# Compressibility (1/GPa) = 0.01778800
#
# Stress axis : x y z
#
# Youngs Moduli (GPa) = 57.66068 55.82501 60.50177
#
# Poissons Ratio (x) = 0.25215 0.37592
# Poissons Ratio (y) = 0.26045 0.37922
# Poissons Ratio (z) = 0.35827 0.34991
#
# Static dielectric constant tensor:
#      x y z
#    x 3.422840 0.000000 0.000000 
#    y 0.000000 3.507990 0.000000 
#    z 0.000000 0.000000 3.406510 
# 
# 
# High freq. dielectric constant tensor:
#      x y z
#    x 1.726000 0.000000 0.000000 
#    y 0.000000 1.726570 0.000000 
#    z 0.000000 0.000000 1.716690 
# 
# From -- ./inp_files/32591.got.cif
#   From: 2010.03.12/outbox.cif.g09.slc.cpg/sg62_17_cif.got.tgz:32591.got - 2010.04.10 19:12:36.
