data_PCOD8251074
_publ_section_title
;
Structure prediction by ZEFSAII (Michael W. Deem and Ramdas Pophale) SiO2 
 PCOD8251074
Probable space group: P N M A
;
_chemical_formula_sum "Si O2"
_cell_formula_units_Z 64
_cell_length_a 13.916043
_cell_length_b 9.422880
_cell_length_c 25.517700
_cell_angle_alpha 90.000000
_cell_angle_beta 90.000000
_cell_angle_gamma 90.000000
_cell_volume 3346.115670
_symmetry_space_group_name_H-M "P N M A"
_symmetry_group_IT_number 62
_symmetry_cell_setting 'orthorhombic'
loop_
_space_group_symop_operation_xyz
x,y,z
1/2-x,-y,1/2+z
1/2+x,1/2-y,1/2-z
-x,1/2+y,-z
-x,-y,-z
1/2+x,y,1/2-z
1/2-x,1/2+y,1/2+z
x,1/2-y,z
loop_
_atom_site_type_symbol
_atom_site_label
_atom_site_fract_x
_atom_site_fract_y
_atom_site_fract_z
Si Si1 0.545122 0.914715 0.452130
Si Si2 0.249891 0.590070 0.083138
Si Si3 0.690330 0.410922 0.728720
Si Si4 0.088337 0.912082 0.267304
Si Si5 0.007066 0.405920 0.357317
Si Si6 0.201882 0.903611 0.672242
Si Si7 0.035436 0.084007 0.549478
Si Si8 0.511006 0.415245 0.661985
O O1 0.515509 0.750000 0.457997
O O2 0.660801 0.933376 0.456237
O O3 0.509691 0.980528 0.395763
O O4 0.500000 0.000000 0.500000
O O5 0.249921 0.750000 0.104957
O O6 0.229282 0.494847 0.134642
O O7 0.350128 0.558452 0.054322
O O8 0.665600 0.250000 0.746004
O O9 0.801724 0.424599 0.714318
O O10 0.670104 0.515229 0.776001
O O11 0.619659 0.454970 0.680859
O O12 0.051504 0.750000 0.275407
O O13 0.067064 0.960079 0.207034
O O14 0.032301 0.023009 0.302455
O O15 0.058025 0.250000 0.364104
O O16 0.894287 0.377905 0.360226
O O17 0.028587 0.517830 0.403480
O O18 0.249434 0.750000 0.685413
O O19 0.010734 0.250000 0.545198
O O20 0.000000 0.000000 0.500000
O O21 0.499338 0.250000 0.653206
#
# Coordination Sequence:
#
# PCOD8251074 Si02
#       8
#     8   8   8   8   8   8   8   8
#     4  10  21  40  61  82 110 150 197 244 290 336
#     4   9  19  36  59  82 109 148 194 233 279 339
#     4  10  19  32  53  79 109 145 183 221 272 337
#     4  10  19  33  55  81 108 144 187 225 276 341
#     4  10  20  34  52  77 112 147 178 221 275 335
#     4  10  19  31  52  82 113 142 179 225 274 326
#     4  10  20  36  58  83 111 146 187 234 284 340
#     4   9  18  34  56  80 109 144 186 234 277 332
#
# _framework density 19.126653999999998
#
# number of rings (size 3 to 8) (size 9 to 14) (size 15 to 20)
#    0.000    2.250    1.250    1.875    0.000    4.500 
#    2.250    1.250    0.000    0.000    0.000    0.000 
#    0.000    0.000    0.000    0.000    0.000    0.000 
#
# Total GULP energy -792956.944876 kJ/mol
# GULP energy per Si atom -12389.952264 kJ/mol
# Density = 1.908312 g / cm^3
# Si number density = 19.126654 Si / 1000 Ang^3
#
#
#
# Elastic Constant Matrix: (Units=GPa)
#
#
# Indices 1 2 3 4 5 6 
#
# 1 84.5553 32.6270 42.7711 0.0000 0.0000 0.0000
# 2 32.6270 123.3374 70.0377 0.0000 0.0000 0.0000
# 3 42.7711 70.0377 141.6532 0.0000 0.0000 0.0000
# 4 0.0000 0.0000 0.0000 29.2386 0.0000 0.0000
# 5 0.0000 0.0000 0.0000 0.0000 28.6086 0.0000
# 6 0.0000 0.0000 0.0000 0.0000 0.0000 17.7466
#
#
#
# Elastic Compliance Matrix: (Units=1/GPa)
#
#
# Indices 1 2 3 4 5 6 
#
# 1 0.014254 -0.001845 -0.003392 0.000000 0.000000 0.000000
# 2 -0.001845 0.011512 -0.005135 0.000000 0.000000 0.000000
# 3 -0.003392 -0.005135 0.010622 0.000000 0.000000 0.000000
# 4 0.000000 0.000000 0.000000 0.034201 0.000000 0.000000
# 5 0.000000 0.000000 0.000000 0.000000 0.034955 0.000000
# 6 0.000000 0.000000 0.000000 0.000000 0.000000 0.056349
#
#
# Mechanical properties :
#
#
# Convention : Reuss Voigt Hill
#
# Bulk Modulus (GPa) = 63.91546 71.15749 67.53648
# Shear Modulus (GPa) = 26.61692 28.72610 27.67151
#
# Velocity S-wave (km/s) = 3.73448 3.87963 3.80774
# Velocity P-wave (km/s) = 7.21697 7.57316 7.39721
#
# Compressibility (1/GPa) = 0.01564567
#
# Stress axis : x y z
#
# Youngs Moduli (GPa) = 70.15538 86.86914 94.14061
#
# Poissons Ratio (x) = 0.16024 0.31931
# Poissons Ratio (y) = 0.12941 0.48338
# Poissons Ratio (z) = 0.23796 0.44605
#
# Static dielectric constant tensor:
#      x y z
#    x 3.583680 0.000000 0.000000 
#    y 0.000000 3.721080 0.000000 
#    z 0.000000 0.000000 3.416750 
# 
# 
# High freq. dielectric constant tensor:
#      x y z
#    x 1.736110 0.000000 0.000000 
#    y 0.000000 1.737920 0.000000 
#    z 0.000000 0.000000 1.729700 
# 
# From -- ./inp_files/29791.got.cif
#   From: 2010.03.12/outbox.cif.g09.slc.cpg/sg62_15_cif.got.tgz:29791.got - 2010.04.10 19:12:36.
