data_PCOD8251307
_publ_section_title
;
Structure prediction by ZEFSAII (Michael W. Deem and Ramdas Pophale) SiO2 
 PCOD8251307
Probable space group: P N M A
;
_chemical_formula_sum "Si O2"
_cell_formula_units_Z 64
_cell_length_a 9.807115
_cell_length_b 13.085226
_cell_length_c 24.897102
_cell_angle_alpha 90.000000
_cell_angle_beta 90.000000
_cell_angle_gamma 90.000000
_cell_volume 3195.003177
_symmetry_space_group_name_H-M "P N M A"
_symmetry_group_IT_number 62
_symmetry_cell_setting 'orthorhombic'
loop_
_space_group_symop_operation_xyz
x,y,z
1/2-x,-y,1/2+z
1/2+x,1/2-y,1/2-z
-x,1/2+y,-z
-x,-y,-z
1/2+x,y,1/2-z
1/2-x,1/2+y,1/2+z
x,1/2-y,z
loop_
_atom_site_type_symbol
_atom_site_label
_atom_site_fract_x
_atom_site_fract_y
_atom_site_fract_z
Si Si1 0.757555 0.136622 0.869287
Si Si2 0.880379 0.630771 0.259089
Si Si3 0.069640 0.871772 0.537165
Si Si4 0.963831 0.134466 0.581839
Si Si5 0.384213 0.367403 0.461391
Si Si6 0.159848 0.019097 0.054971
Si Si7 0.149270 0.953106 0.311226
Si Si8 0.346449 0.866161 0.879153
O O1 0.821900 0.250000 0.874572
O O2 0.722249 0.113466 0.808085
O O3 0.622161 0.127106 0.904609
O O4 0.861363 0.051082 0.891607
O O5 0.910986 0.750000 0.249177
O O6 0.798429 0.582863 0.209117
O O7 0.026943 0.578176 0.270623
O O8 0.057344 0.750000 0.535375
O O9 0.053037 0.917502 0.476804
O O10 0.955321 0.913980 0.578430
O O11 0.211798 0.907393 0.561618
O O12 0.914102 0.250000 0.577465
O O13 0.868946 0.089847 0.628635
O O14 0.383065 0.250000 0.482372
O O15 0.536381 0.403729 0.450809
O O16 0.318709 0.440770 0.505875
O O17 0.301876 0.375563 0.406019
O O18 0.150472 0.075040 0.321780
O O19 0.383859 0.750000 0.865297
#
# Coordination Sequence:
#
# PCOD8251307 Si02
#       8
#     8   8   8   8   8   8   8   8
#     4   9  18  32  51  76 104 137 180 226 272 325
#     4  10  21  37  58  84 112 140 175 227 289 343
#     4  10  19  32  55  87 116 144 186 233 272 322
#     4   9  17  30  52  83 116 147 182 228 280 335
#     4  10  22  37  51  75 115 153 182 220 274 332
#     4  11  20  32  54  81 110 147 184 222 272 329
#     4  11  21  37  59  82 111 148 190 234 285 341
#     4  10  22  40  60  82 112 152 193 232 276 330
#
# _framework density 20.031278
#
# number of rings (size 3 to 8) (size 9 to 14) (size 15 to 20)
#    0.000    2.000    0.000    5.625    0.000    4.500 
#    0.000    0.625    0.000    9.000    0.000    0.000 
#    0.000    0.000    0.000    0.000    0.000    0.000 
#
# Total GULP energy -793418.323197 kJ/mol
# GULP energy per Si atom -12397.161300 kJ/mol
# Density = 1.998569 g / cm^3
# Si number density = 20.031278 Si / 1000 Ang^3
#
#
#
# Elastic Constant Matrix: (Units=GPa)
#
#
# Indices 1 2 3 4 5 6 
#
# 1 65.2439 43.7424 41.1298 0.0000 0.0000 0.0000
# 2 43.7424 68.5982 37.3739 0.0000 0.0000 0.0000
# 3 41.1298 37.3739 64.5897 0.0000 0.0000 0.0000
# 4 0.0000 0.0000 0.0000 35.2706 0.0000 0.0000
# 5 0.0000 0.0000 0.0000 0.0000 27.3561 0.0000
# 6 0.0000 0.0000 0.0000 0.0000 0.0000 25.5059
#
#
#
# Elastic Compliance Matrix: (Units=1/GPa)
#
#
# Indices 1 2 3 4 5 6 
#
# 1 0.032695 -0.013881 -0.012787 0.000000 0.000000 0.000000
# 2 -0.013881 0.027183 -0.006889 0.000000 0.000000 0.000000
# 3 -0.012787 -0.006889 0.027612 0.000000 0.000000 0.000000
# 4 0.000000 0.000000 0.000000 0.028352 0.000000 0.000000
# 5 0.000000 0.000000 0.000000 0.000000 0.036555 0.000000
# 6 0.000000 0.000000 0.000000 0.000000 0.000000 0.039207
#
#
# Mechanical properties :
#
#
# Convention : Reuss Voigt Hill
#
# Bulk Modulus (GPa) = 49.08483 49.21377 49.14930
# Shear Modulus (GPa) = 18.83161 22.70556 20.76859
#
# Velocity S-wave (km/s) = 3.06945 3.37041 3.22344
# Velocity P-wave (km/s) = 6.09256 6.30619 6.20030
#
# Compressibility (1/GPa) = 0.02037289
#
# Stress axis : x y z
#
# Youngs Moduli (GPa) = 30.58569 36.78786 36.21659
#
# Poissons Ratio (x) = 0.51067 0.46312
# Poissons Ratio (y) = 0.42457 0.24951
# Poissons Ratio (z) = 0.39111 0.25345
#
# Static dielectric constant tensor:
#      x y z
#    x 3.404010 0.000000 0.000000 
#    y 0.000000 3.859330 0.000000 
#    z 0.000000 0.000000 3.552520 
# 
# 
# High freq. dielectric constant tensor:
#      x y z
#    x 1.768460 0.000000 0.000000 
#    y 0.000000 1.796840 0.000000 
#    z 0.000000 0.000000 1.764320 
# 
# From -- ./inp_files/28985.got.cif
#   From: 2010.03.12/outbox.cif.g09.slc.cpg/sg62_15_cif.got.tgz:28985.got - 2010.04.10 19:12:36.
