data_PCOD8251516
_publ_section_title
;
Structure prediction by ZEFSAII (Michael W. Deem and Ramdas Pophale) SiO2 
 PCOD8251516
Probable space group: P N M A
;
_chemical_formula_sum "Si O2"
_cell_formula_units_Z 64
_cell_length_a 20.476631
_cell_length_b 8.844111
_cell_length_c 19.442770
_cell_angle_alpha 90.000000
_cell_angle_beta 90.000000
_cell_angle_gamma 90.000000
_cell_volume 3521.038935
_symmetry_space_group_name_H-M "P N M A"
_symmetry_group_IT_number 62
_symmetry_cell_setting 'orthorhombic'
loop_
_space_group_symop_operation_xyz
x,y,z
1/2-x,-y,1/2+z
1/2+x,1/2-y,1/2-z
-x,1/2+y,-z
-x,-y,-z
1/2+x,y,1/2-z
1/2-x,1/2+y,1/2+z
x,1/2-y,z
loop_
_atom_site_type_symbol
_atom_site_label
_atom_site_fract_x
_atom_site_fract_y
_atom_site_fract_z
Si Si1 0.681342 0.570991 0.201768
Si Si2 0.565108 0.427191 0.283052
Si Si3 0.227007 0.574069 0.575045
Si Si4 0.120668 0.926426 0.932479
Si Si5 0.932038 0.927329 0.199541
Si Si6 0.622350 0.075888 0.428714
Si Si7 0.805987 0.572573 0.287861
Si Si8 0.228052 0.427570 0.433766
O O1 0.681875 0.750000 0.196219
O O2 0.614269 0.515623 0.234232
O O3 0.742184 0.512994 0.247452
O O4 0.685792 0.503257 0.125732
O O5 0.571584 0.250000 0.268042
O O6 0.492707 0.485420 0.266505
O O7 0.579863 0.465322 0.362448
O O8 0.212959 0.750000 0.566253
O O9 0.302809 0.538335 0.588964
O O10 0.186783 0.511495 0.639631
O O11 0.202541 0.490726 0.506402
O O12 0.108053 0.750000 0.921057
O O13 0.196283 0.971376 0.923253
O O14 0.078053 0.018939 0.878401
O O15 0.097166 0.972708 0.008683
O O16 0.946130 0.750000 0.200235
O O17 0.868781 0.971139 0.243435
O O18 0.614432 0.250000 0.450380
O O19 0.800981 0.750000 0.301684
O O20 0.217165 0.250000 0.432289
#
# Coordination Sequence:
#
# PCOD8251516 Si02
#       8
#     8   8   8   8   8   8   8   8
#     4  11  21  36  59  85 112 147 188 232 281 333
#     4  11  23  39  56  81 113 149 190 234 281 333
#     4  10  19  33  56  84 113 144 183 230 280 330
#     4  10  20  33  53  80 110 147 189 230 273 326
#     4  11  23  39  56  79 112 152 190 231 280 334
#     4   9  19  34  52  76 110 148 185 226 272 328
#     4  10  21  36  57  83 112 145 186 231 278 329
#     4  10  20  34  55  84 116 146 183 231 280 330
#
# _framework density 18.176452999999999
#
# number of rings (size 3 to 8) (size 9 to 14) (size 15 to 20)
#    0.000    1.750    2.500    2.250    0.000    4.500 
#    0.000    0.000    0.000    0.750    0.000    0.000 
#    0.000    0.000    0.000    0.000    0.000    0.000 
#
# Total GULP energy -793970.585003 kJ/mol
# GULP energy per Si atom -12405.790391 kJ/mol
# Density = 1.813508 g / cm^3
# Si number density = 18.176453 Si / 1000 Ang^3
#
#
#
# Elastic Constant Matrix: (Units=GPa)
#
#
# Indices 1 2 3 4 5 6 
#
# 1 64.7383 23.6800 33.8267 0.0000 0.0000 0.0000
# 2 23.6800 66.3531 41.9418 0.0000 0.0000 0.0000
# 3 33.8267 41.9418 105.9062 0.0000 0.0000 0.0000
# 4 0.0000 0.0000 0.0000 36.7270 0.0000 0.0000
# 5 0.0000 0.0000 0.0000 0.0000 20.1425 0.0000
# 6 0.0000 0.0000 0.0000 0.0000 0.0000 27.9130
#
#
#
# Elastic Compliance Matrix: (Units=1/GPa)
#
#
# Indices 1 2 3 4 5 6 
#
# 1 0.019302 -0.003990 -0.004585 0.000000 0.000000 0.000000
# 2 -0.003990 0.020928 -0.007014 0.000000 0.000000 0.000000
# 3 -0.004585 -0.007014 0.013684 0.000000 0.000000 0.000000
# 4 0.000000 0.000000 0.000000 0.027228 0.000000 0.000000
# 5 0.000000 0.000000 0.000000 0.000000 0.049646 0.000000
# 6 0.000000 0.000000 0.000000 0.000000 0.000000 0.035826
#
#
# Mechanical properties :
#
#
# Convention : Reuss Voigt Hill
#
# Bulk Modulus (GPa) = 43.98133 48.43275 46.20704
# Shear Modulus (GPa) = 24.34618 26.12645 25.23632
#
# Velocity S-wave (km/s) = 3.66380 3.79539 3.73018
# Velocity P-wave (km/s) = 6.49210 6.77572 6.63542
#
# Compressibility (1/GPa) = 0.02273692
#
# Stress axis : x y z
#
# Youngs Moduli (GPa) = 51.80802 47.78221 73.07640
#
# Poissons Ratio (x) = 0.19067 0.33504
# Poissons Ratio (y) = 0.20674 0.51253
# Poissons Ratio (z) = 0.23753 0.33513
#
# Static dielectric constant tensor:
#      x y z
#    x 3.181820 0.000000 0.000000 
#    y 0.000000 3.349520 0.000000 
#    z 0.000000 0.000000 3.353610 
# 
# 
# High freq. dielectric constant tensor:
#      x y z
#    x 1.679640 0.000000 0.000000 
#    y 0.000000 1.714890 0.000000 
#    z 0.000000 0.000000 1.706920 
# 
# From -- ./inp_files/24800.got.cif
#   From: 2010.03.12/outbox.cif.g09.slc.cpg/sg62_13_cif.got.tgz:24800.got - 2010.04.10 19:12:36.
