data_PCOD8251217
_publ_section_title
;
Structure prediction by ZEFSAII (Michael W. Deem and Ramdas Pophale) SiO2 
 PCOD8251217
Probable space group: P N M A
;
_chemical_formula_sum "Si O2"
_cell_formula_units_Z 48
_cell_length_a 14.171481
_cell_length_b 8.915960
_cell_length_c 18.849493
_cell_angle_alpha 90.000000
_cell_angle_beta 90.000000
_cell_angle_gamma 90.000000
_cell_volume 2381.677883
_symmetry_space_group_name_H-M "P N M A"
_symmetry_group_IT_number 62
_symmetry_cell_setting 'orthorhombic'
loop_
_space_group_symop_operation_xyz
x,y,z
1/2-x,-y,1/2+z
1/2+x,1/2-y,1/2-z
-x,1/2+y,-z
-x,-y,-z
1/2+x,y,1/2-z
1/2-x,1/2+y,1/2+z
x,1/2-y,z
loop_
_atom_site_type_symbol
_atom_site_label
_atom_site_fract_x
_atom_site_fract_y
_atom_site_fract_z
Si Si1 0.639678 0.571661 0.639978
Si Si2 0.320300 0.571474 0.779205
Si Si3 0.180590 0.425846 0.009491
Si Si4 0.966220 0.919379 0.605153
Si Si5 0.929480 0.927336 0.854741
Si Si6 0.866336 0.581140 0.454596
O O1 0.641347 0.750000 0.635886
O O2 0.715940 0.512428 0.698109
O O3 0.667040 0.515554 0.562356
O O4 0.535385 0.511837 0.660743
O O5 0.317924 0.750000 0.780445
O O6 0.396575 0.513000 0.835985
O O7 0.354048 0.507984 0.702678
O O8 0.179753 0.250000 0.993178
O O9 0.099212 0.472590 0.065488
O O10 0.278138 0.470126 0.046805
O O11 0.997166 0.750000 0.624312
O O12 0.912231 0.923155 0.531448
O O13 0.059301 0.021783 0.603463
O O14 0.928888 0.750000 0.846472
O O15 0.835626 0.750000 0.434668
#
# Coordination Sequence:
#
# PCOD8251217 Si02
#       6
#     8   8   8   8   8   8
#     4  10  19  36  59  80 107 145 183 225 279 332
#     4   9  17  33  56  82 108 140 184 230 277 327
#     4  11  21  34  54  83 113 145 188 233 275 323
#     4   9  17  31  52  80 108 138 178 222 269 322
#     4   9  20  34  54  84 111 140 185 235 277 322
#     4  10  19  32  52  81 110 142 180 221 273 324
#
# _framework density 20.153860000000002
#
# number of rings (size 3 to 8) (size 9 to 14) (size 15 to 20)
#    0.000    2.333    1.667    1.500    0.000    2.000 
#    0.000    5.833    0.000    8.000    0.000    0.000 
#    0.000    0.000    0.000    0.000    0.000    0.000 
#
# Total GULP energy -595030.068005 kJ/mol
# GULP energy per Si atom -12396.459750 kJ/mol
# Density = 2.010799 g / cm^3
# Si number density = 20.153860 Si / 1000 Ang^3
#
#
#
# Elastic Constant Matrix: (Units=GPa)
#
#
# Indices 1 2 3 4 5 6 
#
# 1 142.3707 12.8539 52.9124 0.0000 0.0000 0.0000
# 2 12.8539 26.0512 9.5989 0.0000 0.0000 0.0000
# 3 52.9124 9.5989 72.1986 0.0000 0.0000 0.0000
# 4 0.0000 0.0000 0.0000 19.3703 0.0000 0.0000
# 5 0.0000 0.0000 0.0000 0.0000 28.2033 0.0000
# 6 0.0000 0.0000 0.0000 0.0000 0.0000 22.4993
#
#
#
# Elastic Compliance Matrix: (Units=1/GPa)
#
#
# Indices 1 2 3 4 5 6 
#
# 1 0.009782 -0.002298 -0.006864 0.000000 0.000000 0.000000
# 2 -0.002298 0.040903 -0.003754 0.000000 0.000000 0.000000
# 3 -0.006864 -0.003754 0.019380 0.000000 0.000000 0.000000
# 4 0.000000 0.000000 0.000000 0.051625 0.000000 0.000000
# 5 0.000000 0.000000 0.000000 0.000000 0.035457 0.000000
# 6 0.000000 0.000000 0.000000 0.000000 0.000000 0.044446
#
#
# Mechanical properties :
#
#
# Convention : Reuss Voigt Hill
#
# Bulk Modulus (GPa) = 22.60699 43.48342 33.04521
# Shear Modulus (GPa) = 20.64674 25.03161 22.83918
#
# Velocity S-wave (km/s) = 3.20418 3.52806 3.37002
# Velocity P-wave (km/s) = 4.99306 6.18214 5.61914
#
# Compressibility (1/GPa) = 0.04423411
#
# Stress axis : x y z
#
# Youngs Moduli (GPa) = 102.22596 24.44816 51.59961
#
# Poissons Ratio (x) = 0.05617 0.35416
# Poissons Ratio (y) = 0.23488 0.19371
# Poissons Ratio (z) = 0.70164 0.09178
#
# Static dielectric constant tensor:
#      x y z
#    x 4.064810 0.000000 0.000000 
#    y 0.000000 3.331800 0.000000 
#    z 0.000000 0.000000 3.685940 
# 
# 
# High freq. dielectric constant tensor:
#      x y z
#    x 1.801120 0.000000 0.000000 
#    y 0.000000 1.743680 0.000000 
#    z 0.000000 0.000000 1.779180 
# 
# From -- ./inp_files/26867.got.cif
#   From: 2010.03.12/outbox.cif.g09.slc.cpg/sg62_14_cif.got.tgz:26867.got - 2010.04.10 19:12:36.
