data_PCOD8251575
_publ_section_title
;
Structure prediction by ZEFSAII (Michael W. Deem and Ramdas Pophale) SiO2 
 PCOD8251575
Probable space group: P N M A
;
_chemical_formula_sum "Si O2"
_cell_formula_units_Z 64
_cell_length_a 14.475392
_cell_length_b 8.553631
_cell_length_c 30.207518
_cell_angle_alpha 90.000000
_cell_angle_beta 90.000000
_cell_angle_gamma 90.000000
_cell_volume 3740.209142
_symmetry_space_group_name_H-M "P N M A"
_symmetry_group_IT_number 62
_symmetry_cell_setting 'orthorhombic'
loop_
_space_group_symop_operation_xyz
x,y,z
1/2-x,-y,1/2+z
1/2+x,1/2-y,1/2-z
-x,1/2+y,-z
-x,-y,-z
1/2+x,y,1/2-z
1/2-x,1/2+y,1/2+z
x,1/2-y,z
loop_
_atom_site_type_symbol
_atom_site_label
_atom_site_fract_x
_atom_site_fract_y
_atom_site_fract_z
Si Si1 0.606737 0.431239 0.451182
Si Si2 0.715191 0.064510 0.210720
Si Si3 0.999376 0.931912 0.825362
Si Si4 0.831170 0.930816 0.130850
Si Si5 0.185077 0.934864 0.698355
Si Si6 0.823974 0.068710 0.865645
Si Si7 0.893209 0.068055 0.044637
Si Si8 0.487783 0.566150 0.773508
O O1 0.625740 0.250000 0.442874
O O2 0.671512 0.529491 0.417770
O O3 0.499136 0.472409 0.442329
O O4 0.635599 0.474799 0.500804
O O5 0.719156 0.250000 0.208315
O O6 0.767442 0.008853 0.255488
O O7 0.610090 0.997006 0.209893
O O8 0.761559 0.999735 0.166649
O O9 0.027734 0.750000 0.831305
O O10 0.009818 0.992090 0.775622
O O11 0.064310 0.042181 0.853989
O O12 0.895064 0.955912 0.840476
O O13 0.810282 0.750000 0.124097
O O14 0.822713 0.016226 0.083316
O O15 0.198723 0.750000 0.692859
O O16 0.076212 0.980963 0.697098
O O17 0.225679 0.025776 0.656072
O O18 0.846105 0.250000 0.858007
O O19 0.882321 0.250000 0.034769
O O20 0.474839 0.750000 0.771425
#
# Coordination Sequence:
#
# PCOD8251575 Si02
#       8
#     8   8   8   8   8   8   8   8
#     4  10  20  34  53  75 103 137 171 210 256 307
#     4  10  19  34  54  74 100 137 181 219 256 306
#     4  11  19  33  52  72  99 138 180 217 256 303
#     4  12  23  33  48  76 108 140 175 213 259 310
#     4  10  19  34  54  74 100 137 181 219 256 306
#     4  12  23  33  48  76 108 140 175 213 259 310
#     4  10  20  34  53  75 103 137 171 210 256 307
#     4   9  18  33  53  74  97 134 181 223 257 299
#
# _framework density 17.111343000000002
#
# number of rings (size 3 to 8) (size 9 to 14) (size 15 to 20)
#    0.000    1.500    3.750    3.375    0.000    1.500 
#    0.000    0.625    0.000    0.000    0.000    0.875 
#    0.000    0.000    0.000    0.000    0.000    0.000 
#
# Total GULP energy -793532.617960 kJ/mol
# GULP energy per Si atom -12398.947156 kJ/mol
# Density = 1.707240 g / cm^3
# Si number density = 17.111343 Si / 1000 Ang^3
#
#
#
# Elastic Constant Matrix: (Units=GPa)
#
#
# Indices 1 2 3 4 5 6 
#
# 1 77.4887 21.7348 37.6088 0.0000 0.0000 0.0000
# 2 21.7348 49.8271 29.9233 0.0000 0.0000 0.0000
# 3 37.6088 29.9233 103.6496 0.0000 0.0000 0.0000
# 4 0.0000 0.0000 0.0000 25.9255 0.0000 0.0000
# 5 0.0000 0.0000 0.0000 0.0000 24.7321 0.0000
# 6 0.0000 0.0000 0.0000 0.0000 0.0000 17.8328
#
#
#
# Elastic Compliance Matrix: (Units=1/GPa)
#
#
# Indices 1 2 3 4 5 6 
#
# 1 0.016402 -0.004331 -0.004701 0.000000 0.000000 0.000000
# 2 -0.004331 0.025423 -0.005768 0.000000 0.000000 0.000000
# 3 -0.004701 -0.005768 0.013019 0.000000 0.000000 0.000000
# 4 0.000000 0.000000 0.000000 0.038572 0.000000 0.000000
# 5 0.000000 0.000000 0.000000 0.000000 0.040433 0.000000
# 6 0.000000 0.000000 0.000000 0.000000 0.000000 0.056076
#
#
# Mechanical properties :
#
#
# Convention : Reuss Voigt Hill
#
# Bulk Modulus (GPa) = 39.61513 45.49990 42.55752
# Shear Modulus (GPa) = 21.93574 23.14466 22.54020
#
# Velocity S-wave (km/s) = 3.58431 3.68175 3.63335
# Velocity P-wave (km/s) = 6.35069 6.68745 6.52124
#
# Compressibility (1/GPa) = 0.02524288
#
# Stress axis : x y z
#
# Youngs Moduli (GPa) = 60.96999 39.33517 76.81273
#
# Poissons Ratio (x) = 0.17038 0.36108
# Poissons Ratio (y) = 0.26409 0.44304
# Poissons Ratio (z) = 0.28661 0.22688
#
# Static dielectric constant tensor:
#      x y z
#    x 3.187270 0.000000 0.000000 
#    y 0.000000 3.028550 0.000000 
#    z 0.000000 0.000000 3.311390 
# 
# 
# High freq. dielectric constant tensor:
#      x y z
#    x 1.631270 0.000000 0.000000 
#    y 0.000000 1.654640 0.000000 
#    z 0.000000 0.000000 1.656870 
# 
# From -- ./inp_files/32710.got.cif
#   From: 2010.03.12/outbox.cif.g09.slc.cpg/sg62_17_cif.got.tgz:32710.got - 2010.04.10 19:12:36.
