data_PCOD8251694
_publ_section_title
;
Structure prediction by ZEFSAII (Michael W. Deem and Ramdas Pophale) SiO2 
 PCOD8251694
Probable space group: P N M A
;
_chemical_formula_sum "Si O2"
_cell_formula_units_Z 64
_cell_length_a 25.178960
_cell_length_b 14.668760
_cell_length_c 8.979500
_cell_angle_alpha 90.000000
_cell_angle_beta 90.000000
_cell_angle_gamma 90.000000
_cell_volume 3316.525537
_symmetry_space_group_name_H-M "P N M A"
_symmetry_group_IT_number 62
_symmetry_cell_setting 'orthorhombic'
loop_
_space_group_symop_operation_xyz
x,y,z
1/2-x,-y,1/2+z
1/2+x,1/2-y,1/2-z
-x,1/2+y,-z
-x,-y,-z
1/2+x,y,1/2-z
1/2-x,1/2+y,1/2+z
x,1/2-y,z
loop_
_atom_site_type_symbol
_atom_site_label
_atom_site_fract_x
_atom_site_fract_y
_atom_site_fract_z
Si Si1 0.109329 0.345839 0.560398
Si Si2 0.993471 0.927418 0.376103
Si Si3 0.361679 0.852441 0.401467
Si Si4 0.820864 0.009184 0.500390
Si Si5 0.390349 0.354277 0.831213
Si Si6 0.713039 0.990876 0.655893
Si Si7 0.136003 0.856496 0.994128
Si Si8 0.054500 0.494905 0.916572
O O1 0.124945 0.250000 0.482721
O O2 0.128862 0.342764 0.728384
O O3 0.138227 0.426587 0.473949
O O4 0.045006 0.349848 0.557468
O O5 0.049371 0.890415 0.316924
O O6 0.958277 0.979345 0.254314
O O7 0.000000 0.000000 0.500000
O O8 0.355324 0.750000 0.472247
O O9 0.410246 0.909221 0.477460
O O10 0.309461 0.915562 0.417688
O O11 0.854909 0.098320 0.541856
O O12 0.798047 0.015726 0.332976
O O13 0.775255 0.992605 0.622280
O O14 0.393131 0.250000 0.879190
O O15 0.362160 0.367582 0.672221
O O16 0.688514 0.901803 0.575861
O O17 0.132671 0.750000 0.949028
O O18 0.085013 0.909241 0.928994
O O19 0.000000 0.500000 0.000000
#
# Coordination Sequence:
#
# PCOD8251694 Si02
#       8
#     8   8   8   8   8   8   8   8
#     4   9  18  34  57  83 111 149 193 234 283 346
#     4  11  20  36  58  85 122 156 191 237 294 356
#     4   8  17  33  56  81 108 144 189 231 278 340
#     4  11  22  40  61  87 118 152 202 249 304 359
#     4  11  23  38  61  88 119 160 203 246 296 363
#     4  10  22  39  62  85 115 155 192 252 303 350
#     4  10  22  40  60  88 121 160 204 245 299 358
#     4  10  19  34  57  85 118 154 193 236 285 342
#
# _framework density 19.297304
#
# number of rings (size 3 to 8) (size 9 to 14) (size 15 to 20)
#    0.000    2.000    2.500    1.875    0.000    2.500 
#    0.000    3.125    0.000    7.500    0.000    0.000 
#    0.000    0.000    0.000    0.000    0.000    0.000 
#
# Total GULP energy -793135.833762 kJ/mol
# GULP energy per Si atom -12392.747403 kJ/mol
# Density = 1.925338 g / cm^3
# Si number density = 19.297304 Si / 1000 Ang^3
#
#
#
# Elastic Constant Matrix: (Units=GPa)
#
#
# Indices 1 2 3 4 5 6 
#
# 1 104.4935 44.0207 26.6440 0.0000 0.0000 0.0000
# 2 44.0207 158.4761 38.2315 0.0000 0.0000 0.0000
# 3 26.6440 38.2315 54.9699 0.0000 0.0000 0.0000
# 4 0.0000 0.0000 0.0000 24.1622 0.0000 0.0000
# 5 0.0000 0.0000 0.0000 0.0000 35.1096 0.0000
# 6 0.0000 0.0000 0.0000 0.0000 0.0000 15.1350
#
#
#
# Elastic Compliance Matrix: (Units=1/GPa)
#
#
# Indices 1 2 3 4 5 6 
#
# 1 0.011540 -0.002230 -0.004042 0.000000 0.000000 0.000000
# 2 -0.002230 0.008013 -0.004492 0.000000 0.000000 0.000000
# 3 -0.004042 -0.004492 0.023275 0.000000 0.000000 0.000000
# 4 0.000000 0.000000 0.000000 0.041387 0.000000 0.000000
# 5 0.000000 0.000000 0.000000 0.000000 0.028482 0.000000
# 6 0.000000 0.000000 0.000000 0.000000 0.000000 0.066072
#
#
# Mechanical properties :
#
#
# Convention : Reuss Voigt Hill
#
# Bulk Modulus (GPa) = 46.95016 59.52577 53.23797
# Shear Modulus (GPa) = 24.10799 28.81757 26.46278
#
# Velocity S-wave (km/s) = 3.53837 3.86858 3.70715
# Velocity P-wave (km/s) = 6.40907 7.13219 6.78028
#
# Compressibility (1/GPa) = 0.02129918
#
# Stress axis : x y z
#
# Youngs Moduli (GPa) = 86.65264 124.79132 42.96371
#
# Poissons Ratio (x) = 0.27834 0.17367
# Poissons Ratio (y) = 0.19327 0.19300
# Poissons Ratio (z) = 0.35028 0.56059
#
# Static dielectric constant tensor:
#      x y z
#    x 3.541250 0.000000 0.000000 
#    y 0.000000 3.901910 0.000000 
#    z 0.000000 0.000000 3.245760 
# 
# 
# High freq. dielectric constant tensor:
#      x y z
#    x 1.758820 0.000000 0.000000 
#    y 0.000000 1.758550 0.000000 
#    z 0.000000 0.000000 1.728270 
# 
# From -- ./inp_files/9482.got.cif
#   From: 2010.03.12/outbox.cif.g09.slc.cpg/sg62_5_cif.got.tgz:9482.got - 2010.04.10 19:12:36.
