data_PCOD8251170
_publ_section_title
;
Structure prediction by ZEFSAII (Michael W. Deem and Ramdas Pophale) SiO2 
 PCOD8251170
Probable space group: P N M A
;
_chemical_formula_sum "Si O2"
_cell_formula_units_Z 56
_cell_length_a 14.743969
_cell_length_b 8.964389
_cell_length_c 20.851265
_cell_angle_alpha 90.000000
_cell_angle_beta 90.000000
_cell_angle_gamma 90.000000
_cell_volume 2755.925739
_symmetry_space_group_name_H-M "P N M A"
_symmetry_group_IT_number 62
_symmetry_cell_setting 'orthorhombic'
loop_
_space_group_symop_operation_xyz
x,y,z
1/2-x,-y,1/2+z
1/2+x,1/2-y,1/2-z
-x,1/2+y,-z
-x,-y,-z
1/2+x,y,1/2-z
1/2-x,1/2+y,1/2+z
x,1/2-y,z
loop_
_atom_site_type_symbol
_atom_site_label
_atom_site_fract_x
_atom_site_fract_y
_atom_site_fract_z
Si Si1 0.512464 0.421900 0.264288
Si Si2 0.303182 0.426627 0.265485
Si Si3 0.570014 0.416086 0.957389
Si Si4 0.242589 0.421824 0.899322
Si Si5 0.769994 0.074004 0.972089
Si Si6 0.336807 0.073745 0.665514
Si Si7 0.066929 0.914282 0.352952
O O1 0.523322 0.250000 0.282353
O O2 0.408415 0.466107 0.251917
O O3 0.560955 0.519187 0.319436
O O4 0.570501 0.457832 0.200432
O O5 0.286374 0.250000 0.265575
O O6 0.285991 0.492030 0.335656
O O7 0.239116 0.498451 0.211182
O O8 0.577019 0.250000 0.984976
O O9 0.669174 0.487106 0.957043
O O10 0.531299 0.418940 0.885554
O O11 0.500000 0.500000 0.000000
O O12 0.212145 0.250000 0.894770
O O13 0.352181 0.439612 0.904376
O O14 0.196145 0.492909 0.962813
O O15 0.774559 0.250000 0.983967
O O16 0.826208 0.028122 0.909156
O O17 0.326451 0.250000 0.674504
O O18 0.080953 0.750000 0.320801
#
# Coordination Sequence:
#
# PCOD8251170 Si02
#       7
#     8   8   8   8   8   8   8
#     4  11  24  40  62  91 120 157 203 256 310 361
#     4  11  24  42  64  91 124 162 207 256 308 366
#     4  10  19  32  51  79 115 151 188 231 286 354
#     4  11  22  37  61  90 120 159 202 246 301 362
#     4  10  22  38  58  85 122 163 199 247 305 362
#     4  11  23  41  65  92 123 163 206 253 310 366
#     4  10  20  35  56  85 119 155 195 244 298 361
#
# _framework density 20.319851
#
# number of rings (size 3 to 8) (size 9 to 14) (size 15 to 20)
#    0.000    1.429    2.857    2.571    0.000    5.714 
#    0.000    0.714    0.000    0.000    0.000    0.000 
#    0.000    0.000    0.000    0.000    0.000    0.000 
#
# Total GULP energy -694133.357504 kJ/mol
# GULP energy per Si atom -12395.238527 kJ/mol
# Density = 2.027360 g / cm^3
# Si number density = 20.319851 Si / 1000 Ang^3
#
#
#
# Elastic Constant Matrix: (Units=GPa)
#
#
# Indices 1 2 3 4 5 6 
#
# 1 49.2101 29.3597 11.5624 0.0000 0.0000 0.0000
# 2 29.3597 89.3728 47.5295 0.0000 0.0000 0.0000
# 3 11.5624 47.5295 120.0605 0.0000 0.0000 0.0000
# 4 0.0000 0.0000 0.0000 35.3613 0.0000 0.0000
# 5 0.0000 0.0000 0.0000 0.0000 26.4125 0.0000
# 6 0.0000 0.0000 0.0000 0.0000 0.0000 28.5200
#
#
#
# Elastic Compliance Matrix: (Units=1/GPa)
#
#
# Indices 1 2 3 4 5 6 
#
# 1 0.025386 -0.008917 0.001085 0.000000 0.000000 0.000000
# 2 -0.008917 0.017305 -0.005992 0.000000 0.000000 0.000000
# 3 0.001085 -0.005992 0.010597 0.000000 0.000000 0.000000
# 4 0.000000 0.000000 0.000000 0.028280 0.000000 0.000000
# 5 0.000000 0.000000 0.000000 0.000000 0.037861 0.000000
# 6 0.000000 0.000000 0.000000 0.000000 0.000000 0.035063
#
#
# Mechanical properties :
#
#
# Convention : Reuss Voigt Hill
#
# Bulk Modulus (GPa) = 39.00056 48.39408 43.69732
# Shear Modulus (GPa) = 26.22134 29.40489 27.81312
#
# Velocity S-wave (km/s) = 3.59615 3.80821 3.70370
# Velocity P-wave (km/s) = 6.03971 6.57301 6.31199
#
# Compressibility (1/GPa) = 0.02564066
#
# Stress axis : x y z
#
# Youngs Moduli (GPa) = 39.39201 57.78736 94.36893
#
# Poissons Ratio (x) = 0.51526 -0.10240
# Poissons Ratio (y) = 0.35124 0.56545
# Poissons Ratio (z) = -0.04274 0.34626
#
# Static dielectric constant tensor:
#      x y z
#    x 3.849940 0.000000 0.000000 
#    y 0.000000 3.687110 0.000000 
#    z 0.000000 0.000000 3.558090 
# 
# 
# High freq. dielectric constant tensor:
#      x y z
#    x 1.783800 0.000000 0.000000 
#    y 0.000000 1.795350 0.000000 
#    z 0.000000 0.000000 1.793630 
# 
# From -- ./inp_files/27295.got.cif
#   From: 2010.03.12/outbox.cif.g09.slc.cpg/sg62_14_cif.got.tgz:27295.got - 2010.04.10 19:12:36.
