data_PCOD8251556
_publ_section_title
;
Structure prediction by ZEFSAII (Michael W. Deem and Ramdas Pophale) SiO2 
 PCOD8251556
Probable space group: P N M A
;
_chemical_formula_sum "Si O2"
_cell_formula_units_Z 56
_cell_length_a 19.126729
_cell_length_b 8.856720
_cell_length_c 19.307989
_cell_angle_alpha 90.000000
_cell_angle_beta 90.000000
_cell_angle_gamma 90.000000
_cell_volume 3270.774944
_symmetry_space_group_name_H-M "P N M A"
_symmetry_group_IT_number 62
_symmetry_cell_setting 'orthorhombic'
loop_
_space_group_symop_operation_xyz
x,y,z
1/2-x,-y,1/2+z
1/2+x,1/2-y,1/2-z
-x,1/2+y,-z
-x,-y,-z
1/2+x,y,1/2-z
1/2-x,1/2+y,1/2+z
x,1/2-y,z
loop_
_atom_site_type_symbol
_atom_site_label
_atom_site_fract_x
_atom_site_fract_y
_atom_site_fract_z
Si Si1 0.633381 0.070565 0.776623
Si Si2 0.266921 0.923762 0.337262
Si Si3 0.846739 0.078066 0.776815
Si Si4 0.558341 0.428914 0.048398
Si Si5 0.704655 0.926722 0.023982
Si Si6 0.022187 0.927532 0.307116
Si Si7 0.255636 0.076303 0.128314
O O1 0.638290 0.250000 0.777253
O O2 0.666861 0.005699 0.704619
O O3 0.554112 0.014978 0.783934
O O4 0.678740 0.013952 0.841150
O O5 0.283750 0.750000 0.348401
O O6 0.197485 0.950146 0.292510
O O7 0.252656 0.993511 0.413309
O O8 0.839408 0.250000 0.801674
O O9 0.926611 0.038054 0.757632
O O10 0.818356 0.975588 0.839368
O O11 0.553504 0.250000 0.043595
O O12 0.632814 0.482501 0.020138
O O13 0.547187 0.479869 0.126938
O O14 0.500000 0.500000 0.000000
O O15 0.687127 0.750000 0.036324
O O16 0.747720 0.952370 0.953722
O O17 0.022890 0.750000 0.325662
O O18 0.267703 0.250000 0.146116
#
# Coordination Sequence:
#
# PCOD8251556 Si02
#       7
#     8   8   8   8   8   8   8
#     4   9  18  32  52  74  96 127 168 210 250 299
#     4   8  14  29  51  71  92 124 166 205 245 294
#     4   9  17  32  53  71  95 132 169 209 251 300
#     4  12  24  34  48  73 106 139 169 203 250 311
#     4  10  19  34  52  71 100 135 169 208 255 300
#     4  10  19  34  54  75 100 132 170 211 255 303
#     4  10  20  31  48  73 101 131 165 208 253 300
#
# _framework density 17.121324999999999
#
# number of rings (size 3 to 8) (size 9 to 14) (size 15 to 20)
#    0.000    2.286    1.429    3.429    0.000    4.571 
#    0.000    0.000    0.000    0.857    0.000    0.000 
#    0.000    0.000    0.000    0.000    0.000    0.143 
#
# Total GULP energy -694218.124043 kJ/mol
# GULP energy per Si atom -12396.752215 kJ/mol
# Density = 1.708236 g / cm^3
# Si number density = 17.121325 Si / 1000 Ang^3
#
#
#
# Elastic Constant Matrix: (Units=GPa)
#
#
# Indices 1 2 3 4 5 6 
#
# 1 59.2854 14.0285 33.8027 0.0000 0.0000 0.0000
# 2 14.0285 45.0654 29.6949 0.0000 0.0000 0.0000
# 3 33.8027 29.6949 103.6771 0.0000 0.0000 0.0000
# 4 0.0000 0.0000 0.0000 21.8478 0.0000 0.0000
# 5 0.0000 0.0000 0.0000 0.0000 27.0141 0.0000
# 6 0.0000 0.0000 0.0000 0.0000 0.0000 19.7299
#
#
#
# Elastic Compliance Matrix: (Units=1/GPa)
#
#
# Indices 1 2 3 4 5 6 
#
# 1 0.020943 -0.002490 -0.006115 0.000000 0.000000 0.000000
# 2 -0.002490 0.027648 -0.007107 0.000000 0.000000 0.000000
# 3 -0.006115 -0.007107 0.013675 0.000000 0.000000 0.000000
# 4 0.000000 0.000000 0.000000 0.045771 0.000000 0.000000
# 5 0.000000 0.000000 0.000000 0.000000 0.037018 0.000000
# 6 0.000000 0.000000 0.000000 0.000000 0.000000 0.050684
#
#
# Mechanical properties :
#
#
# Convention : Reuss Voigt Hill
#
# Bulk Modulus (GPa) = 32.42359 40.34223 36.38291
# Shear Modulus (GPa) = 21.05752 22.41848 21.73800
#
# Velocity S-wave (km/s) = 3.51080 3.62247 3.56707
# Velocity P-wave (km/s) = 5.95088 6.41172 6.18559
#
# Compressibility (1/GPa) = 0.03084174
#
# Stress axis : x y z
#
# Youngs Moduli (GPa) = 47.74761 36.16879 73.12778
#
# Poissons Ratio (x) = 0.09006 0.44719
# Poissons Ratio (y) = 0.11889 0.51972
# Poissons Ratio (z) = 0.29199 0.25705
#
# Static dielectric constant tensor:
#      x y z
#    x 3.523630 0.000000 0.000000 
#    y 0.000000 3.103880 0.000000 
#    z 0.000000 0.000000 3.363990 
# 
# 
# High freq. dielectric constant tensor:
#      x y z
#    x 1.652110 0.000000 0.000000 
#    y 0.000000 1.644950 0.000000 
#    z 0.000000 0.000000 1.656770 
# 
# From -- ./inp_files/24606.got.cif
#   From: 2010.03.12/outbox.cif.g09.slc.cpg/sg62_13_cif.got.tgz:24606.got - 2010.04.10 19:12:36.
