data_PCOD8251756
_publ_section_title
;
Structure prediction by ZEFSAII (Michael W. Deem and Ramdas Pophale) SiO2 
 PCOD8251756
Probable space group: P N M A
;
_chemical_formula_sum "Si O2"
_cell_formula_units_Z 64
_cell_length_a 9.234443
_cell_length_b 25.445934
_cell_length_c 14.532799
_cell_angle_alpha 90.000000
_cell_angle_beta 90.000000
_cell_angle_gamma 90.000000
_cell_volume 3414.902970
_symmetry_space_group_name_H-M "P N M A"
_symmetry_group_IT_number 62
_symmetry_cell_setting 'orthorhombic'
loop_
_space_group_symop_operation_xyz
x,y,z
1/2-x,-y,1/2+z
1/2+x,1/2-y,1/2-z
-x,1/2+y,-z
-x,-y,-z
1/2+x,y,1/2-z
1/2-x,1/2+y,1/2+z
x,1/2-y,z
loop_
_atom_site_type_symbol
_atom_site_label
_atom_site_fract_x
_atom_site_fract_y
_atom_site_fract_z
Si Si1 0.296234 0.110346 0.972960
Si Si2 0.582254 0.937029 0.648245
Si Si3 0.544633 0.811934 0.154040
Si Si4 0.159584 0.990348 0.360343
Si Si5 0.290057 0.311600 0.661426
Si Si6 0.953386 0.112147 0.965152
Si Si7 0.155416 0.515788 0.154221
Si Si8 0.101155 0.940712 0.645516
O O1 0.382322 0.159988 0.932890
O O2 0.125952 0.117960 0.954440
O O3 0.360804 0.056880 0.930716
O O4 0.336242 0.105239 0.080586
O O5 0.679270 0.988086 0.628179
O O6 0.595899 0.891137 0.572158
O O7 0.612025 0.916019 0.751408
O O8 0.421692 0.959895 0.636609
O O9 0.556748 0.750000 0.137177
O O10 0.632245 0.829364 0.244690
O O11 0.377403 0.829545 0.165106
O O12 0.061614 0.041937 0.379843
O O13 0.129758 0.965886 0.259139
O O14 0.303711 0.250000 0.646373
O O15 0.373616 0.337497 0.576267
O O16 0.895563 0.060418 0.914420
O O17 0.320524 0.498013 0.137882
#
# Coordination Sequence:
#
# PCOD8251756 Si02
#       8
#     8   8   8   8   8   8   8   8
#     4  12  22  35  55  86 111 146 192 228 277 332
#     4  10  20  37  51  76 115 156 187 224 273 319
#     4  10  23  42  62  85 114 141 176 227 280 332
#     4  10  21  32  52  79 115 150 186 232 271 326
#     4  10  23  42  62  86 112 142 178 225 281 333
#     4  12  22  34  59  81 111 150 189 229 275 334
#     4  10  19  35  51  78 116 150 184 227 274 325
#     4  10  22  34  52  79 116 152 191 231 270 324
#
# _framework density 18.741381000000001
#
# number of rings (size 3 to 8) (size 9 to 14) (size 15 to 20)
#    0.000    1.500    2.500    3.000    3.500    1.500 
#    0.000    0.000    0.000    0.750    0.000    0.000 
#    0.000    0.000    0.000    0.000    0.000    0.000 
#
# Total GULP energy -793530.694739 kJ/mol
# GULP energy per Si atom -12398.917105 kJ/mol
# Density = 1.869872 g / cm^3
# Si number density = 18.741381 Si / 1000 Ang^3
#
#
#
# Elastic Constant Matrix: (Units=GPa)
#
#
# Indices 1 2 3 4 5 6 
#
# 1 97.4277 31.8511 51.8021 0.0000 0.0000 0.0000
# 2 31.8511 50.7940 46.0330 0.0000 0.0000 0.0000
# 3 51.8021 46.0330 121.2312 0.0000 0.0000 0.0000
# 4 0.0000 0.0000 0.0000 28.6434 0.0000 0.0000
# 5 0.0000 0.0000 0.0000 0.0000 29.1420 0.0000
# 6 0.0000 0.0000 0.0000 0.0000 0.0000 25.7743
#
#
#
# Elastic Compliance Matrix: (Units=1/GPa)
#
#
# Indices 1 2 3 4 5 6 
#
# 1 0.014117 -0.005162 -0.004072 0.000000 0.000000 0.000000
# 2 -0.005162 0.031904 -0.009909 0.000000 0.000000 0.000000
# 3 -0.004072 -0.009909 0.013751 0.000000 0.000000 0.000000
# 4 0.000000 0.000000 0.000000 0.034912 0.000000 0.000000
# 5 0.000000 0.000000 0.000000 0.000000 0.034315 0.000000
# 6 0.000000 0.000000 0.000000 0.000000 0.000000 0.038798
#
#
# Mechanical properties :
#
#
# Convention : Reuss Voigt Hill
#
# Bulk Modulus (GPa) = 46.54013 58.75836 52.64924
# Shear Modulus (GPa) = 23.44732 26.02975 24.73853
#
# Velocity S-wave (km/s) = 3.54092 3.73083 3.63712
# Velocity P-wave (km/s) = 6.45014 7.06958 6.76695
#
# Compressibility (1/GPa) = 0.02148683
#
# Stress axis : x y z
#
# Youngs Moduli (GPa) = 70.83881 31.34402 72.72089
#
# Poissons Ratio (x) = 0.16178 0.29613
# Poissons Ratio (y) = 0.36564 0.72058
# Poissons Ratio (z) = 0.28846 0.31058
#
# Static dielectric constant tensor:
#      x y z
#    x 3.656220 0.000000 0.000000 
#    y 0.000000 3.015940 0.000000 
#    z 0.000000 0.000000 3.618990 
# 
# 
# High freq. dielectric constant tensor:
#      x y z
#    x 1.751400 0.000000 0.000000 
#    y 0.000000 1.680430 0.000000 
#    z 0.000000 0.000000 1.733190 
# 
# From -- ./inp_files/17360.got.cif
#   From: 2010.03.12/outbox.cif.g09.slc.cpg/sg62_9_cif.got.tgz:17360.got - 2010.04.10 19:12:36.
