data_PCOD8251266
_publ_section_title
;
Structure prediction by ZEFSAII (Michael W. Deem and Ramdas Pophale) SiO2 
 PCOD8251266
Probable space group: P N M A
;
_chemical_formula_sum "Si O2"
_cell_formula_units_Z 64
_cell_length_a 19.903734
_cell_length_b 9.027483
_cell_length_c 18.909810
_cell_angle_alpha 90.000000
_cell_angle_beta 90.000000
_cell_angle_gamma 90.000000
_cell_volume 3397.726391
_symmetry_space_group_name_H-M "P N M A"
_symmetry_group_IT_number 62
_symmetry_cell_setting 'orthorhombic'
loop_
_space_group_symop_operation_xyz
x,y,z
1/2-x,-y,1/2+z
1/2+x,1/2-y,1/2-z
-x,1/2+y,-z
-x,-y,-z
1/2+x,y,1/2-z
1/2-x,1/2+y,1/2+z
x,1/2-y,z
loop_
_atom_site_type_symbol
_atom_site_label
_atom_site_fract_x
_atom_site_fract_y
_atom_site_fract_z
Si Si1 0.050067 0.575202 0.054071
Si Si2 0.913258 0.923668 0.313602
Si Si3 0.345244 0.073422 0.798033
Si Si4 0.029170 0.923543 0.211362
Si Si5 0.703944 0.924421 0.460820
Si Si6 0.313732 0.075754 0.953823
Si Si7 0.057946 0.575571 0.544021
Si Si8 0.261649 0.925567 0.187080
O O1 0.038302 0.750000 0.051734
O O2 0.034877 0.510304 0.132490
O O3 0.125897 0.533555 0.032608
O O4 0.000000 0.500000 0.000000
O O5 0.915855 0.750000 0.332769
O O6 0.837666 0.979740 0.300446
O O7 0.955806 0.958525 0.243086
O O8 0.946179 0.013941 0.377128
O O9 0.347293 0.250000 0.799482
O O10 0.413739 0.009850 0.763380
O O11 0.336963 0.013095 0.877606
O O12 0.283004 0.013475 0.751507
O O13 0.042877 0.750000 0.205502
O O14 0.715181 0.750000 0.465545
O O15 0.732749 0.987535 0.386731
O O16 0.743665 0.000331 0.524955
O O17 0.301502 0.250000 0.950205
O O18 0.370326 0.032727 0.010671
O O19 0.046185 0.750000 0.543557
O O20 0.000000 0.500000 0.500000
O O21 0.257495 0.750000 0.185644
#
# Coordination Sequence:
#
# PCOD8251266 Si02
#       8
#     8   8   8   8   8   8   8   8
#     4  10  21  37  59  85 112 148 189 231 278 330
#     4  10  19  32  54  81 104 136 182 230 274 323
#     4   9  16  30  52  78 105 136 179 227 270 318
#     4   9  17  32  54  79 108 141 185 232 273 323
#     4  10  19  35  57  79 108 147 184 221 274 337
#     4  10  21  34  54  84 112 138 178 233 280 318
#     4  11  22  35  51  77 112 149 183 221 273 330
#     4   9  16  29  52  77 101 136 178 219 266 322
#
# _framework density 18.836124000000002
#
# number of rings (size 3 to 8) (size 9 to 14) (size 15 to 20)
#    0.000    2.250    2.500    1.125    0.000    4.000 
#    0.000    3.125    0.000    2.250    0.000    0.000 
#    0.000    0.000    0.000    0.000    0.000    0.000 
#
# Total GULP energy -793625.255097 kJ/mol
# GULP energy per Si atom -12400.394611 kJ/mol
# Density = 1.879325 g / cm^3
# Si number density = 18.836124 Si / 1000 Ang^3
#
#
#
# Elastic Constant Matrix: (Units=GPa)
#
#
# Indices 1 2 3 4 5 6 
#
# 1 148.8959 37.6361 66.8068 0.0000 0.0000 0.0000
# 2 37.6361 29.8450 27.3255 0.0000 0.0000 0.0000
# 3 66.8068 27.3255 135.4924 0.0000 0.0000 0.0000
# 4 0.0000 0.0000 0.0000 23.2813 0.0000 0.0000
# 5 0.0000 0.0000 0.0000 0.0000 41.1701 0.0000
# 6 0.0000 0.0000 0.0000 0.0000 0.0000 24.4554
#
#
#
# Elastic Compliance Matrix: (Units=1/GPa)
#
#
# Indices 1 2 3 4 5 6 
#
# 1 0.010874 -0.010797 -0.003184 0.000000 0.000000 0.000000
# 2 -0.010797 0.051816 -0.005126 0.000000 0.000000 0.000000
# 3 -0.003184 -0.005126 0.009984 0.000000 0.000000 0.000000
# 4 0.000000 0.000000 0.000000 0.042953 0.000000 0.000000
# 5 0.000000 0.000000 0.000000 0.000000 0.024289 0.000000
# 6 0.000000 0.000000 0.000000 0.000000 0.000000 0.040891
#
#
# Mechanical properties :
#
#
# Convention : Reuss Voigt Hill
#
# Bulk Modulus (GPa) = 29.01996 64.19668 46.60832
# Shear Modulus (GPa) = 21.69112 29.94568 25.81840
#
# Velocity S-wave (km/s) = 3.39716 3.99156 3.70629
# Velocity P-wave (km/s) = 5.55226 7.44305 6.56607
#
# Compressibility (1/GPa) = 0.03445904
#
# Stress axis : x y z
#
# Youngs Moduli (GPa) = 91.96292 19.29903 100.15784
#
# Poissons Ratio (x) = 0.20838 0.31890
# Poissons Ratio (y) = 0.99296 0.51343
# Poissons Ratio (z) = 0.29281 0.09893
#
# Static dielectric constant tensor:
#      x y z
#    x 3.690090 0.000000 0.000000 
#    y 0.000000 2.975680 0.000000 
#    z 0.000000 0.000000 3.841100 
# 
# 
# High freq. dielectric constant tensor:
#      x y z
#    x 1.745680 0.000000 0.000000 
#    y 0.000000 1.682120 0.000000 
#    z 0.000000 0.000000 1.738880 
# 
# From -- ./inp_files/24718.got.cif
#   From: 2010.03.12/outbox.cif.g09.slc.cpg/sg62_13_cif.got.tgz:24718.got - 2010.04.10 19:12:36.
