data_PCOD8251958
_publ_section_title
;
Structure prediction by ZEFSAII (Michael W. Deem and Ramdas Pophale) SiO2 
 PCOD8251958
Probable space group: P N M A
;
_chemical_formula_sum "Si O2"
_cell_formula_units_Z 48
_cell_length_a 8.960594
_cell_length_b 31.971985
_cell_length_c 9.067381
_cell_angle_alpha 90.000000
_cell_angle_beta 90.000000
_cell_angle_gamma 90.000000
_cell_volume 2597.695639
_symmetry_space_group_name_H-M "P N M A"
_symmetry_group_IT_number 62
_symmetry_cell_setting 'orthorhombic'
loop_
_space_group_symop_operation_xyz
x,y,z
1/2-x,-y,1/2+z
1/2+x,1/2-y,1/2-z
-x,1/2+y,-z
-x,-y,-z
1/2+x,y,1/2-z
1/2-x,1/2+y,1/2+z
x,1/2-y,z
loop_
_atom_site_type_symbol
_atom_site_label
_atom_site_fract_x
_atom_site_fract_y
_atom_site_fract_z
Si Si1 0.974048 0.456315 0.578289
Si Si2 0.810462 0.838359 0.359616
Si Si3 0.823932 0.920681 0.182320
Si Si4 0.850533 0.634463 0.914842
Si Si5 0.491971 0.798959 0.398691
Si Si6 0.500258 0.623730 0.893729
O O1 0.803908 0.451330 0.625658
O O2 0.000000 0.500000 0.500000
O O3 0.065708 0.450928 0.729553
O O4 0.022015 0.421995 0.460274
O O5 0.764226 0.882661 0.285097
O O6 0.662413 0.813501 0.398187
O O7 0.905981 0.843870 0.508412
O O8 0.913416 0.810803 0.253812
O O9 0.899908 0.899361 0.039134
O O10 0.673134 0.636626 0.892368
O O11 0.935877 0.621437 0.768883
O O12 0.905272 0.680115 0.964715
O O13 0.484731 0.750000 0.424667
#
# Coordination Sequence:
#
# PCOD8251958 Si02
#       6
#     8   8   8   8   8   8
#     4  10  21  36  56  84 111 139 182 230 270 315
#     4  10  19  36  59  80 108 144 183 221 270 334
#     4   9  19  37  57  78 108 146 179 215 268 331
#     4  10  20  37  57  79 109 147 185 220 271 335
#     4  11  21  35  56  84 110 141 183 231 274 319
#     4  10  21  37  58  81 108 147 186 221 272 334
#
# _framework density 18.477914999999999
#
# number of rings (size 3 to 8) (size 9 to 14) (size 15 to 20)
#    0.000    2.000    0.000    6.500    0.000    4.000 
#    0.000    6.667    0.000    0.000    0.000    0.000 
#    0.000    0.000    0.000    0.000    0.000    0.000 
#
# Total GULP energy -595229.783649 kJ/mol
# GULP energy per Si atom -12400.620493 kJ/mol
# Density = 1.843586 g / cm^3
# Si number density = 18.477915 Si / 1000 Ang^3
#
#
#
# Elastic Constant Matrix: (Units=GPa)
#
#
# Indices 1 2 3 4 5 6 
#
# 1 116.2170 62.5603 66.6162 0.0000 0.0000 0.0000
# 2 62.5603 98.7189 53.0646 0.0000 0.0000 0.0000
# 3 66.6162 53.0646 147.8328 0.0000 0.0000 0.0000
# 4 0.0000 0.0000 0.0000 27.7752 0.0000 0.0000
# 5 0.0000 0.0000 0.0000 0.0000 51.6546 0.0000
# 6 0.0000 0.0000 0.0000 0.0000 0.0000 22.2875
#
#
#
# Elastic Compliance Matrix: (Units=1/GPa)
#
#
# Indices 1 2 3 4 5 6 
#
# 1 0.014826 -0.007192 -0.004099 0.000000 0.000000 0.000000
# 2 -0.007192 0.016040 -0.002517 0.000000 0.000000 0.000000
# 3 -0.004099 -0.002517 0.009515 0.000000 0.000000 0.000000
# 4 0.000000 0.000000 0.000000 0.036003 0.000000 0.000000
# 5 0.000000 0.000000 0.000000 0.000000 0.019359 0.000000
# 6 0.000000 0.000000 0.000000 0.000000 0.000000 0.044868
#
#
# Mechanical properties :
#
#
# Convention : Reuss Voigt Hill
#
# Bulk Modulus (GPa) = 78.33872 80.80566 79.57219
# Shear Modulus (GPa) = 28.98833 32.37862 30.68348
#
# Velocity S-wave (km/s) = 3.96512 4.19057 4.07940
# Velocity P-wave (km/s) = 7.96560 8.20003 8.08366
#
# Compressibility (1/GPa) = 0.01276508
#
# Stress axis : x y z
#
# Youngs Moduli (GPa) = 67.45017 62.34276 105.09720
#
# Poissons Ratio (x) = 0.44837 0.43082
# Poissons Ratio (y) = 0.48510 0.26451
# Poissons Ratio (z) = 0.27649 0.15691
#
# Static dielectric constant tensor:
#      x y z
#    x 3.561690 0.000000 0.000000 
#    y 0.000000 3.233130 0.000000 
#    z 0.000000 0.000000 3.511320 
# 
# 
# High freq. dielectric constant tensor:
#      x y z
#    x 1.728060 0.000000 0.000000 
#    y 0.000000 1.700520 0.000000 
#    z 0.000000 0.000000 1.724570 
# 
# From -- ./inp_files/4491.got.cif
#   From: 2010.03.12/outbox.cif.g09.slc.cpg/sg62_3_cif.got.tgz:4491.got - 2010.04.10 19:12:36.
