data_PCOD8251754
_publ_section_title
;
Structure prediction by ZEFSAII (Michael W. Deem and Ramdas Pophale) SiO2 
 PCOD8251754
Probable space group: P N M A
;
_chemical_formula_sum "Si O2"
_cell_formula_units_Z 64
_cell_length_a 9.303804
_cell_length_b 24.681911
_cell_length_c 17.074991
_cell_angle_alpha 90.000000
_cell_angle_beta 90.000000
_cell_angle_gamma 90.000000
_cell_volume 3921.026867
_symmetry_space_group_name_H-M "P N M A"
_symmetry_group_IT_number 62
_symmetry_cell_setting 'orthorhombic'
loop_
_space_group_symop_operation_xyz
x,y,z
1/2-x,-y,1/2+z
1/2+x,1/2-y,1/2-z
-x,1/2+y,-z
-x,-y,-z
1/2+x,y,1/2-z
1/2-x,1/2+y,1/2+z
x,1/2-y,z
loop_
_atom_site_type_symbol
_atom_site_label
_atom_site_fract_x
_atom_site_fract_y
_atom_site_fract_z
Si Si1 0.709899 0.502507 0.833474
Si Si2 0.919290 0.912215 0.438961
Si Si3 0.335727 0.688246 0.311275
Si Si4 0.549724 0.994611 0.672753
Si Si5 0.169606 0.940545 0.970834
Si Si6 0.508540 0.812412 0.156665
Si Si7 0.075888 0.400108 0.922368
Si Si8 0.300976 0.052840 0.013807
O O1 0.663338 0.444040 0.869362
O O2 0.622948 0.515093 0.755630
O O3 0.667895 0.551559 0.893284
O O4 0.879136 0.503671 0.815747
O O5 0.820779 0.908514 0.518055
O O6 0.965708 0.851932 0.414383
O O7 0.055123 0.949245 0.462467
O O8 0.360250 0.750000 0.334926
O O9 0.167568 0.672534 0.312625
O O10 0.394628 0.676591 0.225000
O O11 0.428911 0.655288 0.374192
O O12 0.606093 0.051432 0.638893
O O13 0.602345 0.944850 0.616130
O O14 0.068661 0.908300 0.030223
O O15 0.194407 0.001508 0.001531
O O16 0.501608 0.750000 0.127815
O O17 0.207726 0.396005 0.984725
#
# Coordination Sequence:
#
# PCOD8251754 Si02
#       8
#     8   8   8   8   8   8   8   8
#     4  11  22  32  46  72 103 132 169 200 246 298
#     4  11  21  33  54  73  95 139 174 206 249 303
#     4  10  22  36  52  73 102 135 172 216 254 294
#     4  11  22  32  47  71 103 135 163 205 243 298
#     4  10  20  35  50  69 101 132 170 209 252 291
#     4  10  22  38  51  74 105 134 173 216 254 292
#     4  11  18  35  54  66  99 138 171 205 251 295
#     4  10  19  35  49  71  97 132 170 210 246 298
#
# _framework density 16.322254999999998
#
# number of rings (size 3 to 8) (size 9 to 14) (size 15 to 20)
#    0.000    1.500    5.000    3.000    7.000    2.000 
#    0.000    0.000    0.000    0.000    0.000    0.000 
#    0.000    6.000    0.000    0.000    0.000    0.000 
#
# Total GULP energy -793157.214337 kJ/mol
# GULP energy per Si atom -12393.081474 kJ/mol
# Density = 1.628511 g / cm^3
# Si number density = 16.322255 Si / 1000 Ang^3
#
#
#
# Elastic Constant Matrix: (Units=GPa)
#
#
# Indices 1 2 3 4 5 6 
#
# 1 106.2262 25.4811 36.3189 0.0000 0.0000 0.0000
# 2 25.4811 57.6333 30.5926 0.0000 0.0000 0.0000
# 3 36.3189 30.5926 85.4107 0.0000 0.0000 0.0000
# 4 0.0000 0.0000 0.0000 25.0253 0.0000 0.0000
# 5 0.0000 0.0000 0.0000 0.0000 36.1501 0.0000
# 6 0.0000 0.0000 0.0000 0.0000 0.0000 20.8943
#
#
#
# Elastic Compliance Matrix: (Units=1/GPa)
#
#
# Indices 1 2 3 4 5 6 
#
# 1 0.011435 -0.003056 -0.003768 0.000000 0.000000 0.000000
# 2 -0.003056 0.022241 -0.006667 0.000000 0.000000 0.000000
# 3 -0.003768 -0.006667 0.015698 0.000000 0.000000 0.000000
# 4 0.000000 0.000000 0.000000 0.039960 0.000000 0.000000
# 5 0.000000 0.000000 0.000000 0.000000 0.027662 0.000000
# 6 0.000000 0.000000 0.000000 0.000000 0.000000 0.047860
#
#
# Mechanical properties :
#
#
# Convention : Reuss Voigt Hill
#
# Bulk Modulus (GPa) = 44.65640 48.22836 46.44238
# Shear Modulus (GPa) = 25.08753 26.87244 25.97999
#
# Velocity S-wave (km/s) = 3.92473 4.06195 3.99393
# Velocity P-wave (km/s) = 6.92507 7.18408 7.05576
#
# Compressibility (1/GPa) = 0.02239321
#
# Stress axis : x y z
#
# Youngs Moduli (GPa) = 87.44970 44.96201 63.70079
#
# Poissons Ratio (x) = 0.13739 0.24003
# Poissons Ratio (y) = 0.26721 0.42469
# Poissons Ratio (z) = 0.32951 0.29976
#
# Static dielectric constant tensor:
#      x y z
#    x 3.320850 0.000000 0.000000 
#    y 0.000000 2.861280 0.000000 
#    z 0.000000 0.000000 3.216030 
# 
# 
# High freq. dielectric constant tensor:
#      x y z
#    x 1.655320 0.000000 0.000000 
#    y 0.000000 1.583240 0.000000 
#    z 0.000000 0.000000 1.616670 
# 
# From -- ./inp_files/22653.got.cif
#   From: 2010.03.12/outbox.cif.g09.slc.cpg/sg62_12_cif.got.tgz:22653.got - 2010.04.10 19:12:36.
