data_PCOD8251700
_publ_section_title
;
Structure prediction by ZEFSAII (Michael W. Deem and Ramdas Pophale) SiO2 
 PCOD8251700
Probable space group: P N M A
;
_chemical_formula_sum "Si O2"
_cell_formula_units_Z 64
_cell_length_a 15.253134
_cell_length_b 9.043273
_cell_length_c 24.834865
_cell_angle_alpha 90.000000
_cell_angle_beta 90.000000
_cell_angle_gamma 90.000000
_cell_volume 3425.677938
_symmetry_space_group_name_H-M "P N M A"
_symmetry_group_IT_number 62
_symmetry_cell_setting 'orthorhombic'
loop_
_space_group_symop_operation_xyz
x,y,z
1/2-x,-y,1/2+z
1/2+x,1/2-y,1/2-z
-x,1/2+y,-z
-x,-y,-z
1/2+x,y,1/2-z
1/2-x,1/2+y,1/2+z
x,1/2-y,z
loop_
_atom_site_type_symbol
_atom_site_label
_atom_site_fract_x
_atom_site_fract_y
_atom_site_fract_z
Si Si1 0.886805 0.923005 0.930719
Si Si2 0.186263 0.077410 0.183994
Si Si3 0.047743 0.077544 0.579475
Si Si4 0.498087 0.574147 0.720093
Si Si5 0.883837 0.578349 0.538110
Si Si6 0.953430 0.581063 0.113954
Si Si7 0.379602 0.425937 0.183173
Si Si8 0.292116 0.581442 0.461458
O O1 0.909566 0.750000 0.933776
O O2 0.828256 0.961691 0.878645
O O3 0.835635 0.976431 0.983422
O O4 0.977496 0.011646 0.927749
O O5 0.186582 0.250000 0.193036
O O6 0.282242 0.017556 0.201752
O O7 0.103612 0.015774 0.219250
O O8 0.039788 0.250000 0.591904
O O9 0.099488 0.044774 0.524528
O O10 0.101000 0.998835 0.626311
O O11 0.950950 0.009781 0.575818
O O12 0.501689 0.750000 0.713984
O O13 0.549680 0.507107 0.669729
O O14 0.547362 0.521472 0.774006
O O15 0.894005 0.750000 0.551726
O O16 0.787762 0.524073 0.553528
O O17 0.979868 0.750000 0.125111
O O18 0.858249 0.569209 0.087956
O O19 0.380443 0.250000 0.175896
O O20 0.259547 0.750000 0.469299
#
# Coordination Sequence:
#
# PCOD8251700 Si02
#       8
#     8   8   8   8   8   8   8   8
#     4   9  17  31  52  75 103 140 181 221 268 325
#     4   8  15  30  52  76 101 131 173 225 270 310
#     4  10  21  37  56  79 110 139 170 220 273 318
#     4   9  19  36  54  75 105 142 184 227 271 321
#     4  10  21  36  55  80 109 144 181 215 257 321
#     4  10  20  33  50  74 108 143 178 223 276 323
#     4  10  19  34  58  81 102 138 185 227 269 320
#     4  10  20  33  51  78 110 145 178 218 273 325
#
# _framework density 18.682434000000001
#
# number of rings (size 3 to 8) (size 9 to 14) (size 15 to 20)
#    0.000    2.500    0.000    3.000    0.000    4.500 
#    2.250    3.750    0.000    0.000    0.000    0.000 
#    0.000    0.000    0.000    0.000    0.000    0.000 
#
# Total GULP energy -793529.536647 kJ/mol
# GULP energy per Si atom -12398.899010 kJ/mol
# Density = 1.863991 g / cm^3
# Si number density = 18.682434 Si / 1000 Ang^3
#
#
#
# Elastic Constant Matrix: (Units=GPa)
#
#
# Indices 1 2 3 4 5 6 
#
# 1 133.8286 35.9090 49.0632 0.0000 0.0000 0.0000
# 2 35.9090 40.6355 20.4449 0.0000 0.0000 0.0000
# 3 49.0632 20.4449 60.8690 0.0000 0.0000 0.0000
# 4 0.0000 0.0000 0.0000 25.2401 0.0000 0.0000
# 5 0.0000 0.0000 0.0000 0.0000 22.3493 0.0000
# 6 0.0000 0.0000 0.0000 0.0000 0.0000 26.9559
#
#
#
# Elastic Compliance Matrix: (Units=1/GPa)
#
#
# Indices 1 2 3 4 5 6 
#
# 1 0.012033 -0.006924 -0.007374 0.000000 0.000000 0.000000
# 2 -0.006924 0.033597 -0.005704 0.000000 0.000000 0.000000
# 3 -0.007374 -0.005704 0.024288 0.000000 0.000000 0.000000
# 4 0.000000 0.000000 0.000000 0.039620 0.000000 0.000000
# 5 0.000000 0.000000 0.000000 0.000000 0.044744 0.000000
# 6 0.000000 0.000000 0.000000 0.000000 0.000000 0.037098
#
#
# Mechanical properties :
#
#
# Convention : Reuss Voigt Hill
#
# Bulk Modulus (GPa) = 33.42711 49.57414 41.50063
# Shear Modulus (GPa) = 20.71635 23.57012 22.14324
#
# Velocity S-wave (km/s) = 3.33358 3.55578 3.44647
# Velocity P-wave (km/s) = 5.72260 6.59173 6.17248
#
# Compressibility (1/GPa) = 0.02991583
#
# Stress axis : x y z
#
# Youngs Moduli (GPa) = 83.10212 29.76435 41.17215
#
# Poissons Ratio (x) = 0.20608 0.30360
# Poissons Ratio (y) = 0.57538 0.23484
# Poissons Ratio (z) = 0.61279 0.16977
#
# Static dielectric constant tensor:
#      x y z
#    x 3.757050 0.000000 0.000000 
#    y 0.000000 3.301230 0.000000 
#    z 0.000000 0.000000 3.304390 
# 
# 
# High freq. dielectric constant tensor:
#      x y z
#    x 1.734320 0.000000 0.000000 
#    y 0.000000 1.711510 0.000000 
#    z 0.000000 0.000000 1.710260 
# 
# From -- ./inp_files/29926.got.cif
#   From: 2010.03.12/outbox.cif.g09.slc.cpg/sg62_15_cif.got.tgz:29926.got - 2010.04.10 19:12:36.
