data_PCOD8251254
_publ_section_title
;
Structure prediction by ZEFSAII (Michael W. Deem and Ramdas Pophale) SiO2 
 PCOD8251254
Probable space group: P N M A
;
_chemical_formula_sum "Si O2"
_cell_formula_units_Z 64
_cell_length_a 19.120375
_cell_length_b 9.008710
_cell_length_c 20.678132
_cell_angle_alpha 90.000000
_cell_angle_beta 90.000000
_cell_angle_gamma 90.000000
_cell_volume 3561.806448
_symmetry_space_group_name_H-M "P N M A"
_symmetry_group_IT_number 62
_symmetry_cell_setting 'orthorhombic'
loop_
_space_group_symop_operation_xyz
x,y,z
1/2-x,-y,1/2+z
1/2+x,1/2-y,1/2-z
-x,1/2+y,-z
-x,-y,-z
1/2+x,y,1/2-z
1/2-x,1/2+y,1/2+z
x,1/2-y,z
loop_
_atom_site_type_symbol
_atom_site_label
_atom_site_fract_x
_atom_site_fract_y
_atom_site_fract_z
Si Si1 0.323970 0.923565 0.117612
Si Si2 0.536354 0.578200 0.687570
Si Si3 0.974380 0.422371 0.935768
Si Si4 0.177598 0.918432 0.749550
Si Si5 0.961370 0.424385 0.693014
Si Si6 0.331480 0.421665 0.625664
Si Si7 0.463623 0.576790 0.059658
Si Si8 0.833450 0.576299 0.740297
O O1 0.334131 0.750000 0.123956
O O2 0.244739 0.965599 0.096028
O O3 0.382839 0.980537 0.066898
O O4 0.341896 0.983222 0.188297
O O5 0.514821 0.750000 0.680267
O O6 0.515242 0.489135 0.624495
O O7 0.620080 0.560032 0.694758
O O8 0.499957 0.512538 0.750539
O O9 0.992651 0.250000 0.940163
O O10 0.890789 0.447697 0.928275
O O11 0.000000 0.500000 0.000000
O O12 0.179718 0.750000 0.724204
O O13 0.253381 0.961351 0.778372
O O14 0.964037 0.250000 0.707977
O O15 0.881509 0.482879 0.691170
O O16 0.995565 0.464670 0.624896
O O17 0.330946 0.250000 0.648770
O O18 0.349353 0.524997 0.686396
O O19 0.466479 0.750000 0.045809
O O20 0.500000 0.500000 0.000000
O O21 0.850457 0.750000 0.734315
#
# Coordination Sequence:
#
# PCOD8251254 Si02
#       8
#     8   8   8   8   8   8   8   8
#     4   9  17  33  55  79 105 140 181 224 273 327
#     4  11  21  35  57  83 111 143 181 228 278 326
#     4  11  23  38  56  81 113 148 187 229 277 332
#     4   9  19  33  52  82 113 141 179 228 277 323
#     4  11  21  35  54  81 112 143 182 226 273 328
#     4   9  18  33  55  79 106 139 180 226 273 325
#     4  10  22  37  55  79 110 145 184 226 273 329
#     4  10  19  32  53  82 112 143 181 225 275 327
#
# _framework density 17.968411
#
# number of rings (size 3 to 8) (size 9 to 14) (size 15 to 20)
#    0.000    2.000    2.500    1.500    0.000    3.000 
#    0.000    1.250    0.000    6.000    0.000    0.000 
#    0.000    0.000    0.000    0.000    0.000    0.000 
#
# Total GULP energy -793488.544949 kJ/mol
# GULP energy per Si atom -12398.258515 kJ/mol
# Density = 1.792751 g / cm^3
# Si number density = 17.968411 Si / 1000 Ang^3
#
#
#
# Elastic Constant Matrix: (Units=GPa)
#
#
# Indices 1 2 3 4 5 6 
#
# 1 140.9053 53.9235 69.5403 0.0000 0.0000 0.0000
# 2 53.9235 77.6807 51.6744 0.0000 0.0000 0.0000
# 3 69.5403 51.6744 105.7736 0.0000 0.0000 0.0000
# 4 0.0000 0.0000 0.0000 31.8724 0.0000 0.0000
# 5 0.0000 0.0000 0.0000 0.0000 26.6538 0.0000
# 6 0.0000 0.0000 0.0000 0.0000 0.0000 27.3804
#
#
#
# Elastic Compliance Matrix: (Units=1/GPa)
#
#
# Indices 1 2 3 4 5 6 
#
# 1 0.011416 -0.004344 -0.005383 0.000000 0.000000 0.000000
# 2 -0.004344 0.020724 -0.007269 0.000000 0.000000 0.000000
# 3 -0.005383 -0.007269 0.016544 0.000000 0.000000 0.000000
# 4 0.000000 0.000000 0.000000 0.031375 0.000000 0.000000
# 5 0.000000 0.000000 0.000000 0.000000 0.037518 0.000000
# 6 0.000000 0.000000 0.000000 0.000000 0.000000 0.036523
#
#
# Mechanical properties :
#
#
# Convention : Reuss Voigt Hill
#
# Bulk Modulus (GPa) = 68.06007 74.95955 71.50981
# Shear Modulus (GPa) = 25.90825 27.12939 26.51882
#
# Velocity S-wave (km/s) = 3.80133 3.88988 3.84586
# Velocity P-wave (km/s) = 7.56483 7.87292 7.72041
#
# Compressibility (1/GPa) = 0.01469290
#
# Stress axis : x y z
#
# Youngs Moduli (GPa) = 87.59569 48.25432 60.44310
#
# Poissons Ratio (x) = 0.20959 0.32539
# Poissons Ratio (y) = 0.38047 0.43934
# Poissons Ratio (z) = 0.47157 0.35074
#
# Static dielectric constant tensor:
#      x y z
#    x 3.948190 0.000000 0.000000 
#    y 0.000000 3.413400 0.000000 
#    z 0.000000 0.000000 2.948010 
# 
# 
# High freq. dielectric constant tensor:
#      x y z
#    x 1.719330 0.000000 0.000000 
#    y 0.000000 1.703480 0.000000 
#    z 0.000000 0.000000 1.658100 
# 
# From -- ./inp_files/24714.got.cif
#   From: 2010.03.12/outbox.cif.g09.slc.cpg/sg62_13_cif.got.tgz:24714.got - 2010.04.10 19:12:36.
