data_PCOD8251016
_publ_section_title
;
Structure prediction by ZEFSAII (Michael W. Deem and Ramdas Pophale) SiO2 
 PCOD8251016
Probable space group: P N M A
;
_chemical_formula_sum "Si O2"
_cell_formula_units_Z 64
_cell_length_a 13.066127
_cell_length_b 8.898752
_cell_length_c 28.138460
_cell_angle_alpha 90.000000
_cell_angle_beta 90.000000
_cell_angle_gamma 90.000000
_cell_volume 3271.721318
_symmetry_space_group_name_H-M "P N M A"
_symmetry_group_IT_number 62
_symmetry_cell_setting 'orthorhombic'
loop_
_space_group_symop_operation_xyz
x,y,z
1/2-x,-y,1/2+z
1/2+x,1/2-y,1/2-z
-x,1/2+y,-z
-x,-y,-z
1/2+x,y,1/2-z
1/2-x,1/2+y,1/2+z
x,1/2-y,z
loop_
_atom_site_type_symbol
_atom_site_label
_atom_site_fract_x
_atom_site_fract_y
_atom_site_fract_z
Si Si1 0.315396 0.579242 0.771459
Si Si2 0.570644 0.576465 0.564614
Si Si3 0.632265 0.576117 0.456795
Si Si4 0.501013 0.911019 0.206764
Si Si5 0.470952 0.416621 0.903368
Si Si6 0.233229 0.427891 0.376780
Si Si7 0.216428 0.420651 0.688409
Si Si8 0.823269 0.428061 0.410400
O O1 0.285968 0.750000 0.761155
O O2 0.437137 0.557672 0.777569
O O3 0.265049 0.521900 0.821136
O O4 0.299369 0.479715 0.725153
O O5 0.544662 0.750000 0.573651
O O6 0.612830 0.549395 0.512109
O O7 0.465758 0.484498 0.573028
O O8 0.658727 0.520446 0.600903
O O9 0.647380 0.750000 0.443888
O O10 0.735695 0.486961 0.445623
O O11 0.545029 0.750000 0.226124
O O12 0.495046 0.900022 0.150365
O O13 0.384070 0.932114 0.221907
O O14 0.461339 0.250000 0.926664
O O15 0.360700 0.498780 0.906249
O O16 0.565690 0.507400 0.927345
O O17 0.217508 0.250000 0.380585
O O18 0.240547 0.250000 0.672430
O O19 0.210653 0.524898 0.642410
O O20 0.829931 0.250000 0.413155
#
# Coordination Sequence:
#
# PCOD8251016 Si02
#       8
#     8   8   8   8   8   8   8   8
#     4  10  19  31  50  76 104 137 173 215 265 318
#     4   9  19  37  59  81 110 147 185 227 275 327
#     4  10  20  36  58  82 109 145 186 228 277 330
#     4   8  16  31  49  67  93 133 171 209 255 308
#     4   9  17  31  53  79 106 137 173 215 263 318
#     4   9  18  34  55  80 109 142 180 222 269 324
#     4  10  20  35  53  74 103 138 178 221 266 317
#     4  11  21  35  56  80 107 140 180 225 276 330
#
# _framework density 19.561567
#
# number of rings (size 3 to 8) (size 9 to 14) (size 15 to 20)
#    0.000    2.500    0.000    3.375    0.000    5.000 
#    2.250    0.625    0.000    0.000    0.000    0.000 
#    0.000    0.000    0.000    0.000    0.000    0.000 
#
# Total GULP energy -793065.774759 kJ/mol
# GULP energy per Si atom -12391.652731 kJ/mol
# Density = 1.951704 g / cm^3
# Si number density = 19.561567 Si / 1000 Ang^3
#
#
#
# Elastic Constant Matrix: (Units=GPa)
#
#
# Indices 1 2 3 4 5 6 
#
# 1 34.5996 12.6401 -4.8242 0.0000 0.0000 0.0000
# 2 12.6401 90.3010 7.9355 0.0000 0.0000 0.0000
# 3 -4.8242 7.9355 20.8652 0.0000 0.0000 0.0000
# 4 0.0000 0.0000 0.0000 22.5146 0.0000 0.0000
# 5 0.0000 0.0000 0.0000 0.0000 23.4836 0.0000
# 6 0.0000 0.0000 0.0000 0.0000 0.0000 36.1258
#
#
#
# Elastic Compliance Matrix: (Units=1/GPa)
#
#
# Indices 1 2 3 4 5 6 
#
# 1 0.032171 -0.005335 0.009467 0.000000 0.000000 0.000000
# 2 -0.005335 0.012342 -0.005927 0.000000 0.000000 0.000000
# 3 0.009467 -0.005927 0.052370 0.000000 0.000000 0.000000
# 4 0.000000 0.000000 0.000000 0.044416 0.000000 0.000000
# 5 0.000000 0.000000 0.000000 0.000000 0.042583 0.000000
# 6 0.000000 0.000000 0.000000 0.000000 0.000000 0.027681
#
#
# Mechanical properties :
#
#
# Convention : Reuss Voigt Hill
#
# Bulk Modulus (GPa) = 10.71899 19.69650 15.20775
# Shear Modulus (GPa) = 20.30454 25.09243 22.69849
#
# Velocity S-wave (km/s) = 3.22527 3.58542 3.41010
# Velocity P-wave (km/s) = 4.40015 5.21835 4.82662
#
# Compressibility (1/GPa) = 0.09329238
#
# Stress axis : x y z
#
# Youngs Moduli (GPa) = 31.08371 81.02566 19.09496
#
# Poissons Ratio (x) = 0.43229 -0.18078
# Poissons Ratio (y) = 0.16584 0.11318
# Poissons Ratio (z) = -0.29428 0.48027
#
# Static dielectric constant tensor:
#      x y z
#    x 3.709750 0.000000 0.000000 
#    y 0.000000 3.645800 0.000000 
#    z 0.000000 0.000000 3.278470 
# 
# 
# High freq. dielectric constant tensor:
#      x y z
#    x 1.767680 0.000000 0.000000 
#    y 0.000000 1.766720 0.000000 
#    z 0.000000 0.000000 1.728780 
# 
# From -- ./inp_files/32580.got.cif
#   From: 2010.03.12/outbox.cif.g09.slc.cpg/sg62_17_cif.got.tgz:32580.got - 2010.04.10 19:12:36.
