data_PCOD8251546
_publ_section_title
;
Structure prediction by ZEFSAII (Michael W. Deem and Ramdas Pophale) SiO2 
 PCOD8251546
Probable space group: P N M A
;
_chemical_formula_sum "Si O2"
_cell_formula_units_Z 64
_cell_length_a 11.309655
_cell_length_b 8.921563
_cell_length_c 33.019052
_cell_angle_alpha 90.000000
_cell_angle_beta 90.000000
_cell_angle_gamma 90.000000
_cell_volume 3331.615729
_symmetry_space_group_name_H-M "P N M A"
_symmetry_group_IT_number 62
_symmetry_cell_setting 'orthorhombic'
loop_
_space_group_symop_operation_xyz
x,y,z
1/2-x,-y,1/2+z
1/2+x,1/2-y,1/2-z
-x,1/2+y,-z
-x,-y,-z
1/2+x,y,1/2-z
1/2-x,1/2+y,1/2+z
x,1/2-y,z
loop_
_atom_site_type_symbol
_atom_site_label
_atom_site_fract_x
_atom_site_fract_y
_atom_site_fract_z
Si Si1 0.457367 0.578433 0.636419
Si Si2 0.592425 0.423355 0.948315
Si Si3 0.830189 0.424418 0.526409
Si Si4 0.715401 0.075108 0.865002
Si Si5 0.390409 0.076521 0.286916
Si Si6 0.313780 0.426942 0.830959
Si Si7 0.948126 0.425436 0.304422
Si Si8 0.303881 0.076175 0.406423
O O1 0.413518 0.750000 0.635737
O O2 0.350274 0.468799 0.625952
O O3 0.508183 0.536877 0.680717
O O4 0.557670 0.551097 0.602564
O O5 0.615469 0.250000 0.958487
O O6 0.453911 0.462077 0.951447
O O7 0.635432 0.465800 0.903661
O O8 0.666681 0.521226 0.980130
O O9 0.800577 0.250000 0.527213
O O10 0.725604 0.512162 0.549308
O O11 0.707818 0.250000 0.854671
O O12 0.670733 0.978701 0.826874
O O13 0.353860 0.250000 0.290914
O O14 0.437896 0.036134 0.242846
O O15 0.272797 0.981480 0.295342
O O16 0.313155 0.250000 0.833189
O O17 0.445106 0.481021 0.822451
O O18 0.275014 0.489268 0.874098
O O19 0.968396 0.250000 0.311467
O O20 0.270706 0.250000 0.403674
#
# Coordination Sequence:
#
# PCOD8251546 Si02
#       8
#     8   8   8   8   8   8   8   8
#     4   9  20  39  59  80 109 150 195 237 281 339
#     4   9  20  37  54  80 119 154 183 227 286 348
#     4  10  19  33  59  89 115 145 187 239 288 334
#     4  11  23  38  57  84 117 151 189 236 291 341
#     4   9  21  40  59  79 107 148 193 232 279 340
#     4  11  22  36  56  84 115 141 181 239 286 329
#     4  11  23  38  59  82 110 151 192 230 281 346
#     4  10  20  37  60  83 111 151 193 230 280 343
#
# _framework density 19.209897999999999
#
# number of rings (size 3 to 8) (size 9 to 14) (size 15 to 20)
#    0.000    2.000    0.000    4.125    1.750    6.000 
#    0.000    0.625    0.000    0.000    0.000    0.000 
#    0.000    0.000    0.000    0.000    0.000    0.000 
#
# Total GULP energy -793940.269036 kJ/mol
# GULP energy per Si atom -12405.316704 kJ/mol
# Density = 1.916618 g / cm^3
# Si number density = 19.209898 Si / 1000 Ang^3
#
#
#
# Elastic Constant Matrix: (Units=GPa)
#
#
# Indices 1 2 3 4 5 6 
#
# 1 64.4006 31.0791 19.8422 0.0000 0.0000 0.0000
# 2 31.0791 91.6117 32.9684 0.0000 0.0000 0.0000
# 3 19.8422 32.9684 70.3114 0.0000 0.0000 0.0000
# 4 0.0000 0.0000 0.0000 23.5134 0.0000 0.0000
# 5 0.0000 0.0000 0.0000 0.0000 19.0951 0.0000
# 6 0.0000 0.0000 0.0000 0.0000 0.0000 35.1387
#
#
#
# Elastic Compliance Matrix: (Units=1/GPa)
#
#
# Indices 1 2 3 4 5 6 
#
# 1 0.019021 -0.005439 -0.002818 0.000000 0.000000 0.000000
# 2 -0.005439 0.014687 -0.005352 0.000000 0.000000 0.000000
# 3 -0.002818 -0.005352 0.017527 0.000000 0.000000 0.000000
# 4 0.000000 0.000000 0.000000 0.042529 0.000000 0.000000
# 5 0.000000 0.000000 0.000000 0.000000 0.052370 0.000000
# 6 0.000000 0.000000 0.000000 0.000000 0.000000 0.028459
#
#
# Mechanical properties :
#
#
# Convention : Reuss Voigt Hill
#
# Bulk Modulus (GPa) = 41.63483 43.78925 42.71204
# Shear Modulus (GPa) = 23.83074 25.04503 24.43788
#
# Velocity S-wave (km/s) = 3.52596 3.61467 3.57059
# Velocity P-wave (km/s) = 6.18847 6.34553 6.26749
#
# Compressibility (1/GPa) = 0.02401835
#
# Stress axis : x y z
#
# Youngs Moduli (GPa) = 52.57460 68.08920 57.05526
#
# Poissons Ratio (x) = 0.37032 0.16075
# Poissons Ratio (y) = 0.28594 0.30534
# Poissons Ratio (z) = 0.14813 0.36438
#
# Static dielectric constant tensor:
#      x y z
#    x 3.416960 0.000000 0.000000 
#    y 0.000000 3.508640 0.000000 
#    z 0.000000 0.000000 3.564770 
# 
# 
# High freq. dielectric constant tensor:
#      x y z
#    x 1.741280 0.000000 0.000000 
#    y 0.000000 1.753710 0.000000 
#    z 0.000000 0.000000 1.747410 
# 
# From -- ./inp_files/32569.got.cif
#   From: 2010.03.12/outbox.cif.g09.slc.cpg/sg62_17_cif.got.tgz:32569.got - 2010.04.10 19:12:36.
