data_PCOD8251222
_publ_section_title
;
Structure prediction by ZEFSAII (Michael W. Deem and Ramdas Pophale) SiO2 
 PCOD8251222
Probable space group: P N M A
;
_chemical_formula_sum "Si O2"
_cell_formula_units_Z 64
_cell_length_a 16.832063
_cell_length_b 8.800335
_cell_length_c 21.825577
_cell_angle_alpha 90.000000
_cell_angle_beta 90.000000
_cell_angle_gamma 90.000000
_cell_volume 3232.974555
_symmetry_space_group_name_H-M "P N M A"
_symmetry_group_IT_number 62
_symmetry_cell_setting 'orthorhombic'
loop_
_space_group_symop_operation_xyz
x,y,z
1/2-x,-y,1/2+z
1/2+x,1/2-y,1/2-z
-x,1/2+y,-z
-x,-y,-z
1/2+x,y,1/2-z
1/2-x,1/2+y,1/2+z
x,1/2-y,z
loop_
_atom_site_type_symbol
_atom_site_label
_atom_site_fract_x
_atom_site_fract_y
_atom_site_fract_z
Si Si1 0.179136 0.422010 0.220967
Si Si2 0.227196 0.929596 0.896973
Si Si3 0.541893 0.073403 0.810735
Si Si4 0.053625 0.076463 0.115233
Si Si5 0.795741 0.924514 0.364235
Si Si6 0.409714 0.930072 0.323437
Si Si7 0.321692 0.427039 0.530654
Si Si8 0.629812 0.572607 0.159786
O O1 0.185617 0.250000 0.246311
O O2 0.105184 0.440324 0.176022
O O3 0.259238 0.463720 0.185855
O O4 0.169547 0.542228 0.274753
O O5 0.225154 0.750000 0.892267
O O6 0.175042 0.999926 0.842169
O O7 0.318295 0.986098 0.891359
O O8 0.193897 0.985887 0.962285
O O9 0.525702 0.250000 0.799788
O O10 0.609723 0.044648 0.862000
O O11 0.566642 0.006110 0.744113
O O12 0.459956 0.003609 0.837417
O O13 0.030126 0.250000 0.101765
O O14 0.102123 0.014265 0.057108
O O15 0.973780 0.981031 0.125700
O O16 0.777490 0.750000 0.345883
O O17 0.758630 0.961407 0.430551
O O18 0.401651 0.750000 0.323346
O O19 0.342227 0.250000 0.532357
O O20 0.630741 0.750000 0.144380
#
# Coordination Sequence:
#
# PCOD8251222 Si02
#       8
#     8   8   8   8   8   8   8   8
#     4  10  19  32  52  82 114 144 176 221 281 335
#     4  11  24  40  55  80 113 148 189 236 284 335
#     4   9  19  34  56  85 111 136 180 231 273 329
#     4  10  20  34  56  85 116 148 183 229 279 331
#     4   9  17  34  59  82 105 143 189 233 275 327
#     4  11  21  36  58  86 116 148 185 228 283 343
#     4   9  20  38  59  79 109 151 194 234 279 333
#     4  11  21  36  56  79 109 147 184 227 279 337
#
# _framework density 19.796011
#
# number of rings (size 3 to 8) (size 9 to 14) (size 15 to 20)
#    0.000    2.000    1.250    2.625    0.000    3.500 
#    0.000    2.500    0.000    0.000    0.000    0.000 
#    0.000    0.000    0.000    0.000    0.000    0.000 
#
# Total GULP energy -793593.915689 kJ/mol
# GULP energy per Si atom -12399.904933 kJ/mol
# Density = 1.975095 g / cm^3
# Si number density = 19.796011 Si / 1000 Ang^3
#
#
#
# Elastic Constant Matrix: (Units=GPa)
#
#
# Indices 1 2 3 4 5 6 
#
# 1 118.5095 25.8961 24.6705 0.0000 0.0000 0.0000
# 2 25.8961 56.1089 11.9271 0.0000 0.0000 0.0000
# 3 24.6705 11.9271 46.5933 0.0000 0.0000 0.0000
# 4 0.0000 0.0000 0.0000 23.4640 0.0000 0.0000
# 5 0.0000 0.0000 0.0000 0.0000 23.2248 0.0000
# 6 0.0000 0.0000 0.0000 0.0000 0.0000 27.9418
#
#
#
# Elastic Compliance Matrix: (Units=1/GPa)
#
#
# Indices 1 2 3 4 5 6 
#
# 1 0.010181 -0.003758 -0.004429 0.000000 0.000000 0.000000
# 2 -0.003758 0.020235 -0.003190 0.000000 0.000000 0.000000
# 3 -0.004429 -0.003190 0.024624 0.000000 0.000000 0.000000
# 4 0.000000 0.000000 0.000000 0.042618 0.000000 0.000000
# 5 0.000000 0.000000 0.000000 0.000000 0.043057 0.000000
# 6 0.000000 0.000000 0.000000 0.000000 0.000000 0.035789
#
#
# Mechanical properties :
#
#
# Convention : Reuss Voigt Hill
#
# Bulk Modulus (GPa) = 30.97249 38.46657 34.71953
# Shear Modulus (GPa) = 23.80724 25.50733 24.65729
#
# Velocity S-wave (km/s) = 3.47166 3.59347 3.53309
# Velocity P-wave (km/s) = 5.63468 6.05732 5.84982
#
# Compressibility (1/GPa) = 0.03228672
#
# Stress axis : x y z
#
# Youngs Moduli (GPa) = 98.22022 49.41969 40.61079
#
# Poissons Ratio (x) = 0.18569 0.17986
# Poissons Ratio (y) = 0.36906 0.12956
# Poissons Ratio (z) = 0.43501 0.15766
#
# Static dielectric constant tensor:
#      x y z
#    x 3.783530 0.000000 0.000000 
#    y 0.000000 3.494300 0.000000 
#    z 0.000000 0.000000 3.539220 
# 
# 
# High freq. dielectric constant tensor:
#      x y z
#    x 1.780450 0.000000 0.000000 
#    y 0.000000 1.760590 0.000000 
#    z 0.000000 0.000000 1.752460 
# 
# From -- ./inp_files/29880.got.cif
#   From: 2010.03.12/outbox.cif.g09.slc.cpg/sg62_15_cif.got.tgz:29880.got - 2010.04.10 19:12:36.
