data_PCOD8251499
_publ_section_title
;
Structure prediction by ZEFSAII (Michael W. Deem and Ramdas Pophale) SiO2 
 PCOD8251499
Probable space group: P N M A
;
_chemical_formula_sum "Si O2"
_cell_formula_units_Z 56
_cell_length_a 19.459399
_cell_length_b 12.950389
_cell_length_c 11.053332
_cell_angle_alpha 90.000000
_cell_angle_beta 90.000000
_cell_angle_gamma 90.000000
_cell_volume 2785.514680
_symmetry_space_group_name_H-M "P N M A"
_symmetry_group_IT_number 62
_symmetry_cell_setting 'orthorhombic'
loop_
_space_group_symop_operation_xyz
x,y,z
1/2-x,-y,1/2+z
1/2+x,1/2-y,1/2-z
-x,1/2+y,-z
-x,-y,-z
1/2+x,y,1/2-z
1/2-x,1/2+y,1/2+z
x,1/2-y,z
loop_
_atom_site_type_symbol
_atom_site_label
_atom_site_fract_x
_atom_site_fract_y
_atom_site_fract_z
Si Si1 0.635634 0.969424 0.784245
Si Si2 0.760616 0.867193 0.874432
Si Si3 0.609899 0.059304 0.245747
Si Si4 0.214024 0.956709 0.952376
Si Si5 0.860004 0.871781 0.495384
Si Si6 0.593364 0.867501 0.400182
Si Si7 0.520011 0.633209 0.633843
O O1 0.678317 0.879750 0.853363
O O2 0.690367 0.992530 0.679321
O O3 0.562830 0.935358 0.729878
O O4 0.623327 0.068819 0.870168
O O5 0.777209 0.750000 0.901862
O O6 0.811006 0.907046 0.767030
O O7 0.780081 0.931474 0.990746
O O8 0.592664 0.081668 0.104508
O O9 0.560025 0.125390 0.332972
O O10 0.595944 0.939356 0.280884
O O11 0.282753 0.890293 0.961003
O O12 0.160376 0.881959 0.017955
O O13 0.874474 0.750000 0.477183
O O14 0.587777 0.750000 0.353695
O O15 0.530630 0.897914 0.491924
O O16 0.546407 0.750000 0.648350
#
# Coordination Sequence:
#
# PCOD8251499 Si02
#       7
#     8   8   8   8   8   8   8
#     4  10  21  37  55  78 110 145 187 224 264 340
#     4  10  19  33  56  80 106 138 180 233 276 317
#     4  11  21  35  56  86 114 142 188 233 274 330
#     4   9  19  35  54  80 108 140 186 228 273 328
#     4  11  22  36  56  80 112 150 185 229 282 327
#     4   9  19  36  58  82 111 147 185 228 282 329
#     4  10  20  36  59  83 112 149 184 227 280 331
#
# _framework density 20.104004
#
# number of rings (size 3 to 8) (size 9 to 14) (size 15 to 20)
#    0.000    2.000    1.429    2.571    0.000    2.286 
#    0.000    4.286    0.000    0.000    0.000    0.000 
#    0.000    0.000    0.000    0.000    0.000    0.000 
#
# Total GULP energy -693857.095629 kJ/mol
# GULP energy per Si atom -12390.305279 kJ/mol
# Density = 2.005825 g / cm^3
# Si number density = 20.104004 Si / 1000 Ang^3
#
#
#
# Elastic Constant Matrix: (Units=GPa)
#
#
# Indices 1 2 3 4 5 6 
#
# 1 40.6373 12.7717 -7.5799 0.0000 0.0000 0.0000
# 2 12.7717 141.5945 46.7988 0.0000 0.0000 0.0000
# 3 -7.5799 46.7988 62.6037 0.0000 0.0000 0.0000
# 4 0.0000 0.0000 0.0000 23.2810 0.0000 0.0000
# 5 0.0000 0.0000 0.0000 0.0000 18.8383 0.0000
# 6 0.0000 0.0000 0.0000 0.0000 0.0000 17.6293
#
#
#
# Elastic Compliance Matrix: (Units=1/GPa)
#
#
# Indices 1 2 3 4 5 6 
#
# 1 0.027374 -0.004734 0.006853 0.000000 0.000000 0.000000
# 2 -0.004734 0.010199 -0.008197 0.000000 0.000000 0.000000
# 3 0.006853 -0.008197 0.022931 0.000000 0.000000 0.000000
# 4 0.000000 0.000000 0.000000 0.042953 0.000000 0.000000
# 5 0.000000 0.000000 0.000000 0.000000 0.053083 0.000000
# 6 0.000000 0.000000 0.000000 0.000000 0.000000 0.056724
#
#
# Mechanical properties :
#
#
# Convention : Reuss Voigt Hill
#
# Bulk Modulus (GPa) = 20.68339 38.75740 29.72040
# Shear Modulus (GPa) = 20.70083 24.80607 22.75345
#
# Velocity S-wave (km/s) = 3.21235 3.51648 3.36785
# Velocity P-wave (km/s) = 4.90607 5.98397 5.47162
#
# Compressibility (1/GPa) = 0.04834798
#
# Stress axis : x y z
#
# Youngs Moduli (GPa) = 36.53074 98.05150 43.60908
#
# Poissons Ratio (x) = 0.46421 -0.29887
# Poissons Ratio (y) = 0.17295 0.35747
# Poissons Ratio (z) = -0.25036 0.80374
#
# Static dielectric constant tensor:
#      x y z
#    x 3.660450 0.000000 0.000000 
#    y 0.000000 3.502300 0.000000 
#    z 0.000000 0.000000 3.638300 
# 
# 
# High freq. dielectric constant tensor:
#      x y z
#    x 1.778720 0.000000 0.000000 
#    y 0.000000 1.778560 0.000000 
#    z 0.000000 0.000000 1.778470 
# 
# From -- ./inp_files/14794.got.cif
#   From: 2010.03.12/outbox.cif.g09.slc.cpg/sg62_8_cif.got.tgz:14794.got - 2010.04.10 19:12:36.
