data_PCOD8251738
_publ_section_title
;
Structure prediction by ZEFSAII (Michael W. Deem and Ramdas Pophale) SiO2 
 PCOD8251738
Probable space group: P N M A
;
_chemical_formula_sum "Si O2"
_cell_formula_units_Z 56
_cell_length_a 11.848595
_cell_length_b 14.138820
_cell_length_c 16.341129
_cell_angle_alpha 90.000000
_cell_angle_beta 90.000000
_cell_angle_gamma 90.000000
_cell_volume 2737.550119
_symmetry_space_group_name_H-M "P N M A"
_symmetry_group_IT_number 62
_symmetry_cell_setting 'orthorhombic'
loop_
_space_group_symop_operation_xyz
x,y,z
1/2-x,-y,1/2+z
1/2+x,1/2-y,1/2-z
-x,1/2+y,-z
-x,-y,-z
1/2+x,y,1/2-z
1/2-x,1/2+y,1/2+z
x,1/2-y,z
loop_
_atom_site_type_symbol
_atom_site_label
_atom_site_fract_x
_atom_site_fract_y
_atom_site_fract_z
Si Si1 0.626563 0.640191 0.582943
Si Si2 0.351951 0.545697 0.970140
Si Si3 0.022498 0.479806 0.199326
Si Si4 0.065429 0.524760 0.629243
Si Si5 0.722396 0.356239 0.346556
Si Si6 0.766354 0.853968 0.032855
Si Si7 0.490273 0.356278 0.584459
O O1 0.618518 0.750000 0.607568
O O2 0.755050 0.615879 0.559491
O O3 0.581107 0.577128 0.657686
O O4 0.550196 0.614695 0.505443
O O5 0.466164 0.574146 0.923563
O O6 0.323184 0.435922 0.948173
O O7 0.371971 0.551381 0.069251
O O8 0.132980 0.414151 0.207975
O O9 0.062323 0.571543 0.149036
O O10 0.986050 0.519513 0.288226
O O11 0.151090 0.604877 0.660136
O O12 0.722279 0.250000 0.312055
O O13 0.684076 0.360673 0.440946
O O14 0.709959 0.750000 0.046121
O O15 0.874416 0.865397 0.091119
O O16 0.449824 0.250000 0.605400
#
# Coordination Sequence:
#
# PCOD8251738 Si02
#       7
#     8   8   8   8   8   8   8
#     4  11  22  37  63  96 125 160 204 257 317 372
#     4  10  21  44  60  82 123 173 204 252 302 385
#     4  12  22  37  61  94 123 158 203 271 311 363
#     4  10  25  40  60  85 123 165 215 245 310 371
#     4  10  21  37  58  87 125 162 199 249 311 375
#     4   9  16  32  60  87 113 157 207 242 295 365
#     4  10  19  34  59  92 122 155 201 252 310 366
#
# _framework density 20.456246
#
# number of rings (size 3 to 8) (size 9 to 14) (size 15 to 20)
#    0.000    1.714    2.857    2.571    2.000    1.714 
#    0.000    3.571    0.000    5.143    0.000    0.000 
#    0.000    0.000    0.000    0.000    0.000    0.000 
#
# Total GULP energy -694288.119643 kJ/mol
# GULP energy per Si atom -12398.002136 kJ/mol
# Density = 2.040969 g / cm^3
# Si number density = 20.456246 Si / 1000 Ang^3
#
#
#
# Elastic Constant Matrix: (Units=GPa)
#
#
# Indices 1 2 3 4 5 6 
#
# 1 99.5037 14.3062 22.8540 0.0000 0.0000 0.0000
# 2 14.3062 53.8611 29.1253 0.0000 0.0000 0.0000
# 3 22.8540 29.1253 90.0136 0.0000 0.0000 0.0000
# 4 0.0000 0.0000 0.0000 9.9012 0.0000 0.0000
# 5 0.0000 0.0000 0.0000 0.0000 11.7539 0.0000
# 6 0.0000 0.0000 0.0000 0.0000 0.0000 25.7010
#
#
#
# Elastic Compliance Matrix: (Units=1/GPa)
#
#
# Indices 1 2 3 4 5 6 
#
# 1 0.010796 -0.001679 -0.002198 0.000000 0.000000 0.000000
# 2 -0.001679 0.022765 -0.006940 0.000000 0.000000 0.000000
# 3 -0.002198 -0.006940 0.013913 0.000000 0.000000 0.000000
# 4 0.000000 0.000000 0.000000 0.100998 0.000000 0.000000
# 5 0.000000 0.000000 0.000000 0.000000 0.085078 0.000000
# 6 0.000000 0.000000 0.000000 0.000000 0.000000 0.038909
#
#
# Mechanical properties :
#
#
# Convention : Reuss Voigt Hill
#
# Bulk Modulus (GPa) = 38.69852 41.77215 40.23534
# Shear Modulus (GPa) = 16.51769 21.27741 18.89755
#
# Velocity S-wave (km/s) = 2.84467 3.22862 3.04271
# Velocity P-wave (km/s) = 5.45420 5.86202 5.66178
#
# Compressibility (1/GPa) = 0.02584078
#
# Stress axis : x y z
#
# Youngs Moduli (GPa) = 92.62627 43.92736 71.87600
#
# Poissons Ratio (x) = 0.07376 0.15797
# Poissons Ratio (y) = 0.15553 0.49879
# Poissons Ratio (z) = 0.20357 0.30484
#
# Static dielectric constant tensor:
#      x y z
#    x 3.649830 0.000000 0.000000 
#    y 0.000000 3.654590 0.000000 
#    z 0.000000 0.000000 3.537390 
# 
# 
# High freq. dielectric constant tensor:
#      x y z
#    x 1.803200 0.000000 0.000000 
#    y 0.000000 1.784060 0.000000 
#    z 0.000000 0.000000 1.778220 
# 
# From -- ./inp_files/18059.got.cif
#   From: 2010.03.12/outbox.cif.g09.slc.cpg/sg62_10_cif.got.tgz:18059.got - 2010.04.10 19:12:36.
