data_PCOD8251848
_publ_section_title
;
Structure prediction by ZEFSAII (Michael W. Deem and Ramdas Pophale) SiO2 
 PCOD8251848
Probable space group: P N M A
;
_chemical_formula_sum "Si O2"
_cell_formula_units_Z 56
_cell_length_a 20.455485
_cell_length_b 15.803579
_cell_length_c 8.737979
_cell_angle_alpha 90.000000
_cell_angle_beta 90.000000
_cell_angle_gamma 90.000000
_cell_volume 2824.725363
_symmetry_space_group_name_H-M "P N M A"
_symmetry_group_IT_number 62
_symmetry_cell_setting 'orthorhombic'
loop_
_space_group_symop_operation_xyz
x,y,z
1/2-x,-y,1/2+z
1/2+x,1/2-y,1/2-z
-x,1/2+y,-z
-x,-y,-z
1/2+x,y,1/2-z
1/2-x,1/2+y,1/2+z
x,1/2-y,z
loop_
_atom_site_type_symbol
_atom_site_label
_atom_site_fract_x
_atom_site_fract_y
_atom_site_fract_z
Si Si1 0.102956 0.652976 0.595835
Si Si2 0.271894 0.931703 0.118399
Si Si3 0.643158 0.152377 0.126279
Si Si4 0.599086 0.008673 0.716279
Si Si5 0.981763 0.907542 0.447251
Si Si6 0.774396 0.154442 0.594518
Si Si7 0.831899 0.932850 0.941275
O O1 0.109622 0.750000 0.656227
O O2 0.083821 0.589752 0.737689
O O3 0.169384 0.617592 0.518386
O O4 0.046236 0.650051 0.464758
O O5 0.332577 0.971030 0.205315
O O6 0.223445 0.886915 0.238205
O O7 0.228631 0.003159 0.040470
O O8 0.296450 0.868077 0.985925
O O9 0.648411 0.250000 0.176965
O O10 0.574318 0.136032 0.047123
O O11 0.645658 0.089972 0.271766
O O12 0.606698 0.026409 0.534319
O O13 0.544560 0.076574 0.774448
O O14 0.000000 0.000000 0.500000
O O15 0.794022 0.250000 0.620860
O O16 0.701077 0.149007 0.522166
#
# Coordination Sequence:
#
# PCOD8251848 Si02
#       7
#     8   8   8   8   8   8   8
#     4  10  19  35  59  83 112 149 194 242 288 339
#     4  10  20  34  56  81 117 148 185 228 286 349
#     4  11  22  37  59  87 116 153 197 242 288 342
#     4   9  19  36  55  85 108 151 191 235 277 345
#     4   9  20  37  61  82 109 150 200 237 283 341
#     4  10  20  34  55  83 113 144 184 235 290 337
#     4  11  21  35  57  84 117 150 186 236 291 347
#
# _framework density 19.824936000000001
#
# number of rings (size 3 to 8) (size 9 to 14) (size 15 to 20)
#    0.000    2.000    1.429    3.000    4.000    0.000 
#    0.000    5.714    0.000    0.000    0.000    0.000 
#    0.000    0.000    0.000    0.000    0.000    0.000 
#
# Total GULP energy -693912.649604 kJ/mol
# GULP energy per Si atom -12391.297314 kJ/mol
# Density = 1.977981 g / cm^3
# Si number density = 19.824936 Si / 1000 Ang^3
#
#
#
# Elastic Constant Matrix: (Units=GPa)
#
#
# Indices 1 2 3 4 5 6 
#
# 1 38.0616 17.9609 1.1097 0.0000 0.0000 0.0000
# 2 17.9609 78.3662 30.5742 0.0000 0.0000 0.0000
# 3 1.1097 30.5742 80.6827 0.0000 0.0000 0.0000
# 4 0.0000 0.0000 0.0000 23.9574 0.0000 0.0000
# 5 0.0000 0.0000 0.0000 0.0000 14.6862 0.0000
# 6 0.0000 0.0000 0.0000 0.0000 0.0000 26.9438
#
#
#
# Elastic Compliance Matrix: (Units=1/GPa)
#
#
# Indices 1 2 3 4 5 6 
#
# 1 0.029905 -0.007855 0.002565 0.000000 0.000000 0.000000
# 2 -0.007855 0.017038 -0.006348 0.000000 0.000000 0.000000
# 3 0.002565 -0.006348 0.014765 0.000000 0.000000 0.000000
# 4 0.000000 0.000000 0.000000 0.041741 0.000000 0.000000
# 5 0.000000 0.000000 0.000000 0.000000 0.068091 0.000000
# 6 0.000000 0.000000 0.000000 0.000000 0.000000 0.037114
#
#
# Mechanical properties :
#
#
# Convention : Reuss Voigt Hill
#
# Bulk Modulus (GPa) = 26.02031 32.93335 29.47683
# Shear Modulus (GPa) = 20.42988 22.94851 21.68919
#
# Velocity S-wave (km/s) = 3.21364 3.40598 3.31121
# Velocity P-wave (km/s) = 5.18879 5.66708 5.43320
#
# Compressibility (1/GPa) = 0.03843151
#
# Stress axis : x y z
#
# Youngs Moduli (GPa) = 33.43923 58.69368 67.72963
#
# Poissons Ratio (x) = 0.46103 -0.17374
# Poissons Ratio (y) = 0.26266 0.42997
# Poissons Ratio (z) = -0.08578 0.37260
#
# Static dielectric constant tensor:
#      x y z
#    x 2.062180 0.000000 0.000000 
#    y 0.000000 3.637090 0.000000 
#    z 0.000000 0.000000 3.739120 
# 
# 
# High freq. dielectric constant tensor:
#      x y z
#    x 1.766990 0.000000 0.000000 
#    y 0.000000 1.774740 0.000000 
#    z 0.000000 0.000000 1.752890 
# 
# From -- ./inp_files/8700.got.cif
#   From: 2010.03.12/outbox.cif.g09.slc.cpg/sg62_5_cif.got.tgz:8700.got - 2010.04.10 19:12:36.
