data_PCOD8251535
_publ_section_title
;
Structure prediction by ZEFSAII (Michael W. Deem and Ramdas Pophale) SiO2 
 PCOD8251535
Probable space group: P N M A
;
_chemical_formula_sum "Si O2"
_cell_formula_units_Z 64
_cell_length_a 28.477578
_cell_length_b 9.059488
_cell_length_c 12.251771
_cell_angle_alpha 90.000000
_cell_angle_beta 90.000000
_cell_angle_gamma 90.000000
_cell_volume 3160.862287
_symmetry_space_group_name_H-M "P N M A"
_symmetry_group_IT_number 62
_symmetry_cell_setting 'orthorhombic'
loop_
_space_group_symop_operation_xyz
x,y,z
1/2-x,-y,1/2+z
1/2+x,1/2-y,1/2-z
-x,1/2+y,-z
-x,-y,-z
1/2+x,y,1/2-z
1/2-x,1/2+y,1/2+z
x,1/2-y,z
loop_
_atom_site_type_symbol
_atom_site_label
_atom_site_fract_x
_atom_site_fract_y
_atom_site_fract_z
Si Si1 0.437036 0.913978 0.020674
Si Si2 0.317931 0.919343 0.500453
Si Si3 0.664074 0.575321 0.283955
Si Si4 0.714744 0.581836 0.061918
Si Si5 0.126190 0.925083 0.824177
Si Si6 0.164292 0.084480 0.625664
Si Si7 0.927883 0.578103 0.722906
Si Si8 0.469224 0.419695 0.219208
O O1 0.458411 0.750000 0.011121
O O2 0.386410 0.911174 0.073787
O O3 0.471080 0.007791 0.098666
O O4 0.431221 0.982231 0.900751
O O5 0.332351 0.750000 0.520270
O O6 0.270884 0.930569 0.427734
O O7 0.309117 0.998162 0.616271
O O8 0.360446 0.001127 0.438804
O O9 0.665183 0.750000 0.299481
O O10 0.690706 0.525653 0.173573
O O11 0.610217 0.519417 0.285620
O O12 0.699043 0.750000 0.038540
O O13 0.700282 0.481152 0.960918
O O14 0.130367 0.750000 0.834394
O O15 0.072931 0.978920 0.795812
O O16 0.162660 0.982715 0.733023
O O17 0.180838 0.250000 0.658001
O O18 0.912755 0.750000 0.726136
O O19 0.979897 0.555540 0.776177
O O20 0.459288 0.250000 0.195981
#
# Coordination Sequence:
#
# PCOD8251535 Si02
#       8
#     8   8   8   8   8   8   8   8
#     4   9  17  29  49  81 120 156 193 236 290 349
#     4  11  25  44  64  87 116 156 202 249 301 360
#     4  11  24  42  63  90 122 157 198 249 302 359
#     4  10  23  41  61  88 119 151 193 242 299 359
#     4  10  21  39  60  87 122 159 201 249 298 350
#     4  10  19  33  57  88 120 156 195 236 289 351
#     4  10  19  35  56  84 120 160 201 247 299 354
#     4   9  19  33  55  84 119 159 201 246 298 354
#
# _framework density 20.247640000000001
#
# number of rings (size 3 to 8) (size 9 to 14) (size 15 to 20)
#    0.000    2.000    1.250    1.875    1.750    3.500 
#    0.000    0.625    0.000    0.000    0.000    0.000 
#    0.000    0.000    0.000    0.000    0.000    0.000 
#
# Total GULP energy -793611.106062 kJ/mol
# GULP energy per Si atom -12400.173532 kJ/mol
# Density = 2.020156 g / cm^3
# Si number density = 20.247640 Si / 1000 Ang^3
#
#
#
# Elastic Constant Matrix: (Units=GPa)
#
#
# Indices 1 2 3 4 5 6 
#
# 1 73.7788 37.8963 41.7405 0.0000 0.0000 0.0000
# 2 37.8963 87.2679 32.2042 0.0000 0.0000 0.0000
# 3 41.7405 32.2042 73.4012 0.0000 0.0000 0.0000
# 4 0.0000 0.0000 0.0000 34.9997 0.0000 0.0000
# 5 0.0000 0.0000 0.0000 0.0000 25.6963 0.0000
# 6 0.0000 0.0000 0.0000 0.0000 0.0000 27.7703
#
#
#
# Elastic Compliance Matrix: (Units=1/GPa)
#
#
# Indices 1 2 3 4 5 6 
#
# 1 0.022322 -0.005977 -0.010071 0.000000 0.000000 0.000000
# 2 -0.005977 0.015273 -0.003302 0.000000 0.000000 0.000000
# 3 -0.010071 -0.003302 0.020800 0.000000 0.000000 0.000000
# 4 0.000000 0.000000 0.000000 0.028572 0.000000 0.000000
# 5 0.000000 0.000000 0.000000 0.000000 0.038916 0.000000
# 6 0.000000 0.000000 0.000000 0.000000 0.000000 0.036010
#
#
# Mechanical properties :
#
#
# Convention : Reuss Voigt Hill
#
# Bulk Modulus (GPa) = 50.77663 50.90332 50.83997
# Shear Modulus (GPa) = 24.13626 25.86706 25.00166
#
# Velocity S-wave (km/s) = 3.45636 3.57814 3.51778
# Velocity P-wave (km/s) = 6.40787 6.50121 6.45471
#
# Compressibility (1/GPa) = 0.01969410
#
# Stress axis : x y z
#
# Youngs Moduli (GPa) = 44.79916 65.47523 48.07740
#
# Poissons Ratio (x) = 0.39133 0.48421
# Poissons Ratio (y) = 0.26775 0.15876
# Poissons Ratio (z) = 0.45119 0.21621
#
# Static dielectric constant tensor:
#      x y z
#    x 3.719130 0.000000 0.000000 
#    y 0.000000 3.741730 0.000000 
#    z 0.000000 0.000000 3.519890 
# 
# 
# High freq. dielectric constant tensor:
#      x y z
#    x 1.794440 0.000000 0.000000 
#    y 0.000000 1.789750 0.000000 
#    z 0.000000 0.000000 1.773770 
# 
# From -- ./inp_files/15779.got.cif
#   From: 2010.03.12/outbox.cif.g09.slc.cpg/sg62_8_cif.got.tgz:15779.got - 2010.04.10 19:12:36.
