data_PCOD8251071
_publ_section_title
;
Structure prediction by ZEFSAII (Michael W. Deem and Ramdas Pophale) SiO2 
 PCOD8251071
Probable space group: P N M A
;
_chemical_formula_sum "Si O2"
_cell_formula_units_Z 48
_cell_length_a 13.965986
_cell_length_b 9.373366
_cell_length_c 18.881068
_cell_angle_alpha 90.000000
_cell_angle_beta 90.000000
_cell_angle_gamma 90.000000
_cell_volume 2471.688483
_symmetry_space_group_name_H-M "P N M A"
_symmetry_group_IT_number 62
_symmetry_cell_setting 'orthorhombic'
loop_
_space_group_symop_operation_xyz
x,y,z
1/2-x,-y,1/2+z
1/2+x,1/2-y,1/2-z
-x,1/2+y,-z
-x,-y,-z
1/2+x,y,1/2-z
1/2-x,1/2+y,1/2+z
x,1/2-y,z
loop_
_atom_site_type_symbol
_atom_site_label
_atom_site_fract_x
_atom_site_fract_y
_atom_site_fract_z
Si Si1 0.932695 0.415923 0.857282
Si Si2 0.834350 0.081559 0.715555
Si Si3 0.944089 0.914545 0.603171
Si Si4 0.870055 0.089690 0.475417
Si Si5 0.156488 0.413318 0.020752
Si Si6 0.854228 0.917120 0.139029
O O1 0.927017 0.250000 0.875924
O O2 0.854908 0.457382 0.797496
O O3 0.914592 0.498489 0.929965
O O4 0.040513 0.455248 0.830781
O O5 0.845468 0.250000 0.703586
O O6 0.729772 0.022819 0.690795
O O7 0.917454 0.003490 0.672124
O O8 0.915937 0.750000 0.613762
O O9 0.057654 0.934585 0.589894
O O10 0.886571 0.974183 0.536116
O O11 0.884364 0.250000 0.507119
O O12 0.762811 0.071883 0.446602
O O13 0.121169 0.250000 0.020661
O O14 0.156203 0.476962 0.940992
O O15 0.837218 0.750000 0.135353
#
# Coordination Sequence:
#
# PCOD8251071 Si02
#       6
#     8   8   8   8   8   8
#     4  10  22  36  55  83 109 138 187 235 266 319
#     4  10  20  37  57  76 110 152 181 218 281 336
#     4  10  19  31  52  82 110 137 182 229 259 313
#     4   9  18  33  53  79 110 146 177 213 275 330
#     4  10  19  35  58  78 108 149 180 218 275 333
#     4   9  18  36  58  78 105 146 184 217 271 332
#
# _framework density 19.419922
#
# number of rings (size 3 to 8) (size 9 to 14) (size 15 to 20)
#    0.000    2.333    1.667    1.000    0.000    3.333 
#    0.000    2.500    0.000    0.000    0.000    0.000 
#    0.000    0.000    0.000    0.000    0.000    0.000 
#
# Total GULP energy -595045.685621 kJ/mol
# GULP energy per Si atom -12396.785117 kJ/mol
# Density = 1.937572 g / cm^3
# Si number density = 19.419922 Si / 1000 Ang^3
#
#
#
# Elastic Constant Matrix: (Units=GPa)
#
#
# Indices 1 2 3 4 5 6 
#
# 1 103.9935 25.1145 54.8670 0.0000 0.0000 0.0000
# 2 25.1145 46.0405 28.8615 0.0000 0.0000 0.0000
# 3 54.8670 28.8615 98.6313 0.0000 0.0000 0.0000
# 4 0.0000 0.0000 0.0000 26.6893 0.0000 0.0000
# 5 0.0000 0.0000 0.0000 0.0000 31.1913 0.0000
# 6 0.0000 0.0000 0.0000 0.0000 0.0000 24.6623
#
#
#
# Elastic Compliance Matrix: (Units=1/GPa)
#
#
# Indices 1 2 3 4 5 6 
#
# 1 0.014027 -0.003380 -0.006814 0.000000 0.000000 0.000000
# 2 -0.003380 0.027414 -0.006141 0.000000 0.000000 0.000000
# 3 -0.006814 -0.006141 0.015726 0.000000 0.000000 0.000000
# 4 0.000000 0.000000 0.000000 0.037468 0.000000 0.000000
# 5 0.000000 0.000000 0.000000 0.000000 0.032060 0.000000
# 6 0.000000 0.000000 0.000000 0.000000 0.000000 0.040548
#
#
# Mechanical properties :
#
#
# Convention : Reuss Voigt Hill
#
# Bulk Modulus (GPa) = 40.82284 51.81682 46.31983
# Shear Modulus (GPa) = 24.02913 25.83007 24.92960
#
# Velocity S-wave (km/s) = 3.52141 3.65098 3.58678
# Velocity P-wave (km/s) = 6.13192 6.67182 6.40756
#
# Compressibility (1/GPa) = 0.02449609
#
# Stress axis : x y z
#
# Youngs Moduli (GPa) = 71.28884 36.47800 63.58707
#
# Poissons Ratio (x) = 0.12330 0.43329
# Poissons Ratio (y) = 0.24097 0.39052
# Poissons Ratio (z) = 0.48577 0.22403
#
# Static dielectric constant tensor:
#      x y z
#    x 3.756190 0.000000 0.000000 
#    y 0.000000 3.355050 0.000000 
#    z 0.000000 0.000000 3.364630 
# 
# 
# High freq. dielectric constant tensor:
#      x y z
#    x 1.767310 0.000000 0.000000 
#    y 0.000000 1.732620 0.000000 
#    z 0.000000 0.000000 1.737390 
# 
# From -- ./inp_files/23641.got.cif
#   From: 2010.03.12/outbox.cif.g09.slc.cpg/sg62_12_cif.got.tgz:23641.got - 2010.04.10 19:12:36.
