data_PCOD8251448
_publ_section_title
;
Structure prediction by ZEFSAII (Michael W. Deem and Ramdas Pophale) SiO2 
 PCOD8251448
Probable space group: P N M A
;
_chemical_formula_sum "Si O2"
_cell_formula_units_Z 64
_cell_length_a 20.370146
_cell_length_b 9.098162
_cell_length_c 18.987196
_cell_angle_alpha 90.000000
_cell_angle_beta 90.000000
_cell_angle_gamma 90.000000
_cell_volume 3518.913900
_symmetry_space_group_name_H-M "P N M A"
_symmetry_group_IT_number 62
_symmetry_cell_setting 'orthorhombic'
loop_
_space_group_symop_operation_xyz
x,y,z
1/2-x,-y,1/2+z
1/2+x,1/2-y,1/2-z
-x,1/2+y,-z
-x,-y,-z
1/2+x,y,1/2-z
1/2-x,1/2+y,1/2+z
x,1/2-y,z
loop_
_atom_site_type_symbol
_atom_site_label
_atom_site_fract_x
_atom_site_fract_y
_atom_site_fract_z
Si Si1 0.861111 0.080601 0.181804
Si Si2 0.689645 0.575951 0.959016
Si Si3 0.191785 0.580921 0.968790
Si Si4 0.357164 0.578518 0.176462
Si Si5 0.012881 0.079363 0.176839
Si Si6 0.944573 0.078678 0.955532
Si Si7 0.508186 0.582182 0.184455
Si Si8 0.559428 0.580808 0.035645
O O1 0.854517 0.250000 0.204534
O O2 0.817097 0.044212 0.113855
O O3 0.936482 0.046157 0.162051
O O4 0.836888 0.980980 0.246543
O O5 0.691100 0.750000 0.949654
O O6 0.686168 0.502803 0.882168
O O7 0.754171 0.525802 0.999578
O O8 0.628259 0.521775 0.006095
O O9 0.213119 0.750000 0.978708
O O10 0.124925 0.548383 0.009359
O O11 0.340824 0.750000 0.173285
O O12 0.433663 0.544794 0.161415
O O13 0.029691 0.250000 0.169002
O O14 0.032334 0.026242 0.254682
O O15 0.057008 0.988321 0.122555
O O16 0.961264 0.250000 0.952529
O O17 0.000000 0.000000 0.000000
O O18 0.511334 0.750000 0.211522
O O19 0.556974 0.555032 0.119447
O O20 0.550489 0.750000 0.016581
O O21 0.500000 0.500000 0.000000
#
# Coordination Sequence:
#
# PCOD8251448 Si02
#       8
#     8   8   8   8   8   8   8   8
#     4   9  18  35  56  80 111 145 186 232 277 330
#     4  11  23  37  56  84 115 150 189 233 280 330
#     4  10  22  40  58  80 113 152 188 227 280 336
#     4  10  19  33  56  83 110 146 188 229 279 335
#     4  10  19  33  54  84 115 145 184 232 283 332
#     4  11  21  36  58  84 112 145 184 229 281 332
#     4   9  18  33  53  81 112 146 187 231 279 333
#     4  10  20  35  56  82 112 143 183 229 278 329
#
# _framework density 18.187429000000002
#
# number of rings (size 3 to 8) (size 9 to 14) (size 15 to 20)
#    0.000    2.000    2.500    1.500    0.000    3.500 
#    0.000    1.250    0.000    4.500    0.000    0.000 
#    0.000    0.000    0.000    0.000    0.000    0.000 
#
# Total GULP energy -793812.125642 kJ/mol
# GULP energy per Si atom -12403.314463 kJ/mol
# Density = 1.814603 g / cm^3
# Si number density = 18.187429 Si / 1000 Ang^3
#
#
#
# Elastic Constant Matrix: (Units=GPa)
#
#
# Indices 1 2 3 4 5 6 
#
# 1 70.0412 54.7874 57.4866 0.0000 0.0000 0.0000
# 2 54.7874 97.5129 66.2322 0.0000 0.0000 0.0000
# 3 57.4866 66.2322 124.7123 0.0000 0.0000 0.0000
# 4 0.0000 0.0000 0.0000 37.9407 0.0000 0.0000
# 5 0.0000 0.0000 0.0000 0.0000 27.5665 0.0000
# 6 0.0000 0.0000 0.0000 0.0000 0.0000 27.3974
#
#
#
# Elastic Compliance Matrix: (Units=1/GPa)
#
#
# Indices 1 2 3 4 5 6 
#
# 1 0.029323 -0.011410 -0.007457 0.000000 0.000000 0.000000
# 2 -0.011410 0.020481 -0.005618 0.000000 0.000000 0.000000
# 3 -0.007457 -0.005618 0.014439 0.000000 0.000000 0.000000
# 4 0.000000 0.000000 0.000000 0.026357 0.000000 0.000000
# 5 0.000000 0.000000 0.000000 0.000000 0.036276 0.000000
# 6 0.000000 0.000000 0.000000 0.000000 0.000000 0.036500
#
#
# Mechanical properties :
#
#
# Convention : Reuss Voigt Hill
#
# Bulk Modulus (GPa) = 65.47048 72.14210 68.80629
# Shear Modulus (GPa) = 22.99523 26.16493 24.58008
#
# Velocity S-wave (km/s) = 3.55962 3.79704 3.68025
# Velocity P-wave (km/s) = 7.27807 7.67954 7.48150
#
# Compressibility (1/GPa) = 0.01527406
#
# Stress axis : x y z
#
# Youngs Moduli (GPa) = 34.10337 48.82456 69.25641
#
# Poissons Ratio (x) = 0.55710 0.51642
# Poissons Ratio (y) = 0.38913 0.38907
# Poissons Ratio (z) = 0.25430 0.27428
#
# Static dielectric constant tensor:
#      x y z
#    x 3.581850 0.000000 0.000000 
#    y 0.000000 4.902020 0.000000 
#    z 0.000000 0.000000 -12.063300 
# 
# 
# High freq. dielectric constant tensor:
#      x y z
#    x 1.674610 0.000000 0.000000 
#    y 0.000000 1.712000 0.000000 
#    z 0.000000 0.000000 1.718420 
# 
# From -- ./inp_files/24819.got.cif
#   From: 2010.03.12/outbox.cif.g09.slc.cpg/sg62_13_cif.got.tgz:24819.got - 2010.04.10 19:12:36.
