data_PCOD8251181
_publ_section_title
;
Structure prediction by ZEFSAII (Michael W. Deem and Ramdas Pophale) SiO2 
 PCOD8251181
Probable space group: P N M A
;
_chemical_formula_sum "Si O2"
_cell_formula_units_Z 48
_cell_length_a 19.138412
_cell_length_b 9.092200
_cell_length_c 15.496697
_cell_angle_alpha 90.000000
_cell_angle_beta 90.000000
_cell_angle_gamma 90.000000
_cell_volume 2696.584423
_symmetry_space_group_name_H-M "P N M A"
_symmetry_group_IT_number 62
_symmetry_cell_setting 'orthorhombic'
loop_
_space_group_symop_operation_xyz
x,y,z
1/2-x,-y,1/2+z
1/2+x,1/2-y,1/2-z
-x,1/2+y,-z
-x,-y,-z
1/2+x,y,1/2-z
1/2-x,1/2+y,1/2+z
x,1/2-y,z
loop_
_atom_site_type_symbol
_atom_site_label
_atom_site_fract_x
_atom_site_fract_y
_atom_site_fract_z
Si Si1 0.801426 0.417877 0.563775
Si Si2 0.448350 0.922340 0.934913
Si Si3 0.704553 0.585223 0.437585
Si Si4 0.687936 0.915355 0.252504
Si Si5 0.450505 0.918920 0.742307
Si Si6 0.460377 0.419571 0.575792
O O1 0.819334 0.250000 0.540797
O O2 0.871465 0.511224 0.552899
O O3 0.741207 0.471459 0.500363
O O4 0.770666 0.430534 0.661954
O O5 0.443479 0.750000 0.955363
O O6 0.479758 0.949725 0.838667
O O7 0.500000 0.000000 0.000000
O O8 0.719243 0.750000 0.471361
O O9 0.734706 0.565512 0.339208
O O10 0.622056 0.552971 0.435105
O O11 0.653422 0.750000 0.257217
O O12 0.630861 0.042432 0.253289
O O13 0.459724 0.750000 0.716023
O O14 0.487136 0.016215 0.667984
O O15 0.500000 0.500000 0.500000
O O16 0.480594 0.250000 0.572829
#
# Coordination Sequence:
#
# PCOD8251181 Si02
#       6
#     8   8   8   8   8   8
#     4  10  19  32  52  76 100 129 166 205 246 295
#     4  10  20  34  53  76 102 132 166 206 250 297
#     4   9  18  33  51  72  99 130 163 202 247 292
#     4   8  16  31  49  69  96 130 165 199 241 296
#     4   9  17  30  50  74  98 127 165 205 246 296
#     4  10  20  34  53  75 101 134 169 207 250 296
#
# _framework density 17.800294999999998
#
# number of rings (size 3 to 8) (size 9 to 14) (size 15 to 20)
#    0.000    2.667    0.000    3.000    0.000    6.000 
#    0.000    1.667    0.000    4.000    0.000    0.000 
#    0.000    0.000    0.000    0.000    0.000    0.000 
#
# Total GULP energy -594778.097820 kJ/mol
# GULP energy per Si atom -12391.210371 kJ/mol
# Density = 1.775978 g / cm^3
# Si number density = 17.800295 Si / 1000 Ang^3
#
#
#
# Elastic Constant Matrix: (Units=GPa)
#
#
# Indices 1 2 3 4 5 6 
#
# 1 40.0421 38.1846 47.6156 0.0000 0.0000 0.0000
# 2 38.1846 127.3953 84.7854 0.0000 0.0000 0.0000
# 3 47.6156 84.7854 160.3719 0.0000 0.0000 0.0000
# 4 0.0000 0.0000 0.0000 34.6746 0.0000 0.0000
# 5 0.0000 0.0000 0.0000 0.0000 29.0897 0.0000
# 6 0.0000 0.0000 0.0000 0.0000 0.0000 28.9166
#
#
#
# Elastic Compliance Matrix: (Units=1/GPa)
#
#
# Indices 1 2 3 4 5 6 
#
# 1 0.041921 -0.006606 -0.008954 0.000000 0.000000 0.000000
# 2 -0.006606 0.013152 -0.004992 0.000000 0.000000 0.000000
# 3 -0.008954 -0.004992 0.011533 0.000000 0.000000 0.000000
# 4 0.000000 0.000000 0.000000 0.028840 0.000000 0.000000
# 5 0.000000 0.000000 0.000000 0.000000 0.034376 0.000000
# 6 0.000000 0.000000 0.000000 0.000000 0.000000 0.034582
#
#
# Mechanical properties :
#
#
# Convention : Reuss Voigt Hill
#
# Bulk Modulus (GPa) = 39.21229 74.33116 56.77173
# Shear Modulus (GPa) = 23.36355 29.01774 26.19065
#
# Velocity S-wave (km/s) = 3.62683 4.04193 3.83999
# Velocity P-wave (km/s) = 6.29407 7.97697 7.18496
#
# Compressibility (1/GPa) = 0.02550221
#
# Stress axis : x y z
#
# Youngs Moduli (GPa) = 23.85439 76.03569 86.70657
#
# Poissons Ratio (x) = 0.50227 0.77640
# Poissons Ratio (y) = 0.15758 0.43282
# Poissons Ratio (z) = 0.21360 0.37955
#
# Static dielectric constant tensor:
#      x y z
#    x 2.777400 0.000000 0.000000 
#    y 0.000000 3.426820 0.000000 
#    z 0.000000 0.000000 3.790140 
# 
# 
# High freq. dielectric constant tensor:
#      x y z
#    x 1.629740 0.000000 0.000000 
#    y 0.000000 1.704840 0.000000 
#    z 0.000000 0.000000 1.712610 
# 
# From -- ./inp_files/20035.got.cif
#   From: 2010.03.12/outbox.cif.g09.slc.cpg/sg62_11_cif.got.tgz:20035.got - 2010.04.10 19:12:36.
