data_PCOD8251497
_publ_section_title
;
Structure prediction by ZEFSAII (Michael W. Deem and Ramdas Pophale) SiO2 
 PCOD8251497
Probable space group: P N M A
;
_chemical_formula_sum "Si O2"
_cell_formula_units_Z 56
_cell_length_a 15.806787
_cell_length_b 9.175800
_cell_length_c 19.125361
_cell_angle_alpha 90.000000
_cell_angle_beta 90.000000
_cell_angle_gamma 90.000000
_cell_volume 2773.940756
_symmetry_space_group_name_H-M "P N M A"
_symmetry_group_IT_number 62
_symmetry_cell_setting 'orthorhombic'
loop_
_space_group_symop_operation_xyz
x,y,z
1/2-x,-y,1/2+z
1/2+x,1/2-y,1/2-z
-x,1/2+y,-z
-x,-y,-z
1/2+x,y,1/2-z
1/2-x,1/2+y,1/2+z
x,1/2-y,z
loop_
_atom_site_type_symbol
_atom_site_label
_atom_site_fract_x
_atom_site_fract_y
_atom_site_fract_z
Si Si1 0.037273 0.922452 0.753494
Si Si2 0.502842 0.085201 0.610252
Si Si3 0.226828 0.579332 0.734449
Si Si4 0.122372 0.422375 0.332147
Si Si5 0.785876 0.413817 0.422284
Si Si6 0.887276 0.588991 0.986082
Si Si7 0.412559 0.921605 0.988339
O O1 0.041899 0.750000 0.751477
O O2 0.132040 0.988095 0.743789
O O3 0.969185 0.978863 0.696028
O O4 0.001317 0.973259 0.827020
O O5 0.487872 0.250000 0.636629
O O6 0.590986 0.070283 0.567966
O O7 0.428171 0.040879 0.557861
O O8 0.222577 0.750000 0.749587
O O9 0.298164 0.511264 0.786948
O O10 0.251971 0.545669 0.654022
O O11 0.125259 0.250000 0.322930
O O12 0.128729 0.467674 0.413606
O O13 0.825289 0.250000 0.419102
O O14 0.712793 0.421923 0.479640
O O15 0.855141 0.528734 0.446883
O O16 0.918811 0.750000 0.960536
O O17 0.426436 0.750000 0.991622
O O18 0.500000 0.000000 0.000000
#
# Coordination Sequence:
#
# PCOD8251497 Si02
#       7
#     8   8   8   8   8   8   8
#     4  10  19  33  56  78 104 144 189 236 287 337
#     4  10  20  33  51  80 115 146 180 226 282 341
#     4   9  18  33  56  83 109 146 197 242 285 344
#     4   9  19  36  57  84 113 149 201 246 281 341
#     4  10  20  37  61  84 111 147 191 241 292 344
#     4   9  19  35  55  79 109 149 188 224 275 342
#     4  11  23  39  61  87 118 154 198 248 295 348
#
# _framework density 20.187885000000001
#
# number of rings (size 3 to 8) (size 9 to 14) (size 15 to 20)
#    0.000    2.286    0.000    2.571    2.000    5.714 
#    0.000    3.571    0.000    2.571    0.000    0.000 
#    0.000    0.000    0.000    0.000    0.000    0.000 
#
# Total GULP energy -694082.822553 kJ/mol
# GULP energy per Si atom -12394.336117 kJ/mol
# Density = 2.014194 g / cm^3
# Si number density = 20.187885 Si / 1000 Ang^3
#
#
#
# Elastic Constant Matrix: (Units=GPa)
#
#
# Indices 1 2 3 4 5 6 
#
# 1 100.3184 27.5269 33.7726 0.0000 0.0000 0.0000
# 2 27.5269 37.3960 23.6138 0.0000 0.0000 0.0000
# 3 33.7726 23.6138 92.5437 0.0000 0.0000 0.0000
# 4 0.0000 0.0000 0.0000 24.1028 0.0000 0.0000
# 5 0.0000 0.0000 0.0000 0.0000 33.7632 0.0000
# 6 0.0000 0.0000 0.0000 0.0000 0.0000 21.9722
#
#
#
# Elastic Compliance Matrix: (Units=1/GPa)
#
#
# Indices 1 2 3 4 5 6 
#
# 1 0.013056 -0.007870 -0.002756 0.000000 0.000000 0.000000
# 2 -0.007870 0.036621 -0.006472 0.000000 0.000000 0.000000
# 3 -0.002756 -0.006472 0.013463 0.000000 0.000000 0.000000
# 4 0.000000 0.000000 0.000000 0.041489 0.000000 0.000000
# 5 0.000000 0.000000 0.000000 0.000000 0.029618 0.000000
# 6 0.000000 0.000000 0.000000 0.000000 0.000000 0.045512
#
#
# Mechanical properties :
#
#
# Convention : Reuss Voigt Hill
#
# Bulk Modulus (GPa) = 34.55116 44.45386 39.50251
# Shear Modulus (GPa) = 22.36112 25.65730 24.00921
#
# Velocity S-wave (km/s) = 3.33175 3.56887 3.45235
# Velocity P-wave (km/s) = 5.65267 6.24903 5.95831
#
# Compressibility (1/GPa) = 0.02894259
#
# Stress axis : x y z
#
# Youngs Moduli (GPa) = 76.59544 27.30709 74.27688
#
# Poissons Ratio (x) = 0.21490 0.20474
# Poissons Ratio (y) = 0.60277 0.48074
# Poissons Ratio (z) = 0.21113 0.17674
#
# Static dielectric constant tensor:
#      x y z
#    x 4.017730 0.000000 0.000000 
#    y 0.000000 3.369600 0.000000 
#    z 0.000000 0.000000 3.735590 
# 
# 
# High freq. dielectric constant tensor:
#      x y z
#    x 1.792660 0.000000 0.000000 
#    y 0.000000 1.748760 0.000000 
#    z 0.000000 0.000000 1.791980 
# 
# From -- ./inp_files/27218.got.cif
#   From: 2010.03.12/outbox.cif.g09.slc.cpg/sg62_14_cif.got.tgz:27218.got - 2010.04.10 19:12:36.
