data_PCOD8251612
_publ_section_title
;
Structure prediction by ZEFSAII (Michael W. Deem and Ramdas Pophale) SiO2 
 PCOD8251612
Probable space group: P N M A
;
_chemical_formula_sum "Si O2"
_cell_formula_units_Z 64
_cell_length_a 25.041606
_cell_length_b 9.033138
_cell_length_c 15.216958
_cell_angle_alpha 90.000000
_cell_angle_beta 90.000000
_cell_angle_gamma 90.000000
_cell_volume 3442.141070
_symmetry_space_group_name_H-M "P N M A"
_symmetry_group_IT_number 62
_symmetry_cell_setting 'orthorhombic'
loop_
_space_group_symop_operation_xyz
x,y,z
1/2-x,-y,1/2+z
1/2+x,1/2-y,1/2-z
-x,1/2+y,-z
-x,-y,-z
1/2+x,y,1/2-z
1/2-x,1/2+y,1/2+z
x,1/2-y,z
loop_
_atom_site_type_symbol
_atom_site_label
_atom_site_fract_x
_atom_site_fract_y
_atom_site_fract_z
Si Si1 0.640266 0.425364 0.323972
Si Si2 0.559036 0.075057 0.182011
Si Si3 0.830079 0.576307 0.009082
Si Si4 0.352669 0.925724 0.296973
Si Si5 0.775340 0.917152 0.531285
Si Si6 0.394776 0.925258 0.002557
Si Si7 0.437460 0.425309 0.174535
Si Si8 0.245806 0.419352 0.267110
O O1 0.639142 0.250000 0.312598
O O2 0.593744 0.494208 0.262634
O O3 0.632200 0.470636 0.426693
O O4 0.698999 0.480694 0.295383
O O5 0.565696 0.250000 0.181648
O O6 0.498022 0.028774 0.196448
O O7 0.580694 0.015412 0.088902
O O8 0.824374 0.750000 0.015002
O O9 0.854121 0.518277 0.101293
O O10 0.770660 0.517880 0.990595
O O11 0.357284 0.750000 0.287775
O O12 0.402146 0.001177 0.249797
O O13 0.297559 0.978358 0.252473
O O14 0.762201 0.750000 0.504100
O O15 0.832297 0.966063 0.492645
O O16 0.777901 0.933339 0.635753
O O17 0.403801 0.750000 0.014088
O O18 0.424087 0.012539 0.079139
O O19 0.429065 0.250000 0.175018
O O20 0.261839 0.250000 0.245714
#
# Coordination Sequence:
#
# PCOD8251612 Si02
#       8
#     8   8   8   8   8   8   8   8
#     4   9  16  31  56  82 105 134 175 220 266 315
#     4   9  18  35  57  80 107 138 180 224 267 321
#     4   9  19  33  53  79 108 141 175 217 265 314
#     4  10  21  37  52  73 110 146 177 219 271 319
#     4   9  17  30  50  77 109 141 169 204 257 319
#     4  10  19  34  55  80 110 143 173 212 271 328
#     4  11  23  36  54  78 103 141 189 230 263 310
#     4   9  16  30  54  80 105 136 172 212 259 318
#
# _framework density 18.593077999999998
#
# number of rings (size 3 to 8) (size 9 to 14) (size 15 to 20)
#    0.000    2.500    1.250    1.125    1.750    1.000 
#    0.000    1.250    0.000    3.750    0.000    0.000 
#    0.000    0.000    0.000    0.000    0.000    0.000 
#
# Total GULP energy -793439.137881 kJ/mol
# GULP energy per Si atom -12397.486529 kJ/mol
# Density = 1.855076 g / cm^3
# Si number density = 18.593078 Si / 1000 Ang^3
#
#
#
# Elastic Constant Matrix: (Units=GPa)
#
#
# Indices 1 2 3 4 5 6 
#
# 1 129.7158 38.3392 87.8283 0.0000 0.0000 0.0000
# 2 38.3392 42.1719 33.4328 0.0000 0.0000 0.0000
# 3 87.8283 33.4328 118.8960 0.0000 0.0000 0.0000
# 4 0.0000 0.0000 0.0000 21.8093 0.0000 0.0000
# 5 0.0000 0.0000 0.0000 0.0000 29.2511 0.0000
# 6 0.0000 0.0000 0.0000 0.0000 0.0000 18.4322
#
#
#
# Elastic Compliance Matrix: (Units=1/GPa)
#
#
# Indices 1 2 3 4 5 6 
#
# 1 0.016904 -0.007037 -0.010508 0.000000 0.000000 0.000000
# 2 -0.007037 0.033444 -0.004206 0.000000 0.000000 0.000000
# 3 -0.010508 -0.004206 0.017356 0.000000 0.000000 0.000000
# 4 0.000000 0.000000 0.000000 0.045852 0.000000 0.000000
# 5 0.000000 0.000000 0.000000 0.000000 0.034187 0.000000
# 6 0.000000 0.000000 0.000000 0.000000 0.000000 0.054253
#
#
# Mechanical properties :
#
#
# Convention : Reuss Voigt Hill
#
# Bulk Modulus (GPa) = 41.31964 67.77605 54.54784
# Shear Modulus (GPa) = 19.71876 22.64408 21.18142
#
# Velocity S-wave (km/s) = 3.26013 3.49359 3.37888
# Velocity P-wave (km/s) = 6.03677 7.26671 6.68011
#
# Compressibility (1/GPa) = 0.02420157
#
# Stress axis : x y z
#
# Youngs Moduli (GPa) = 59.15780 29.90031 57.61774
#
# Poissons Ratio (x) = 0.21041 0.60545
# Poissons Ratio (y) = 0.41630 0.24234
# Poissons Ratio (z) = 0.62164 0.12576
#
# Static dielectric constant tensor:
#      x y z
#    x 3.476200 0.000000 0.000000 
#    y 0.000000 3.156550 0.000000 
#    z 0.000000 0.000000 3.665310 
# 
# 
# High freq. dielectric constant tensor:
#      x y z
#    x 1.715860 0.000000 0.000000 
#    y 0.000000 1.692640 0.000000 
#    z 0.000000 0.000000 1.730470 
# 
# From -- ./inp_files/20874.got.cif
#   From: 2010.03.12/outbox.cif.g09.slc.cpg/sg62_11_cif.got.tgz:20874.got - 2010.04.10 19:12:36.
