data_PCOD8251382
_publ_section_title
;
Structure prediction by ZEFSAII (Michael W. Deem and Ramdas Pophale) SiO2 
 PCOD8251382
Probable space group: P N M A
;
_chemical_formula_sum "Si O2"
_cell_formula_units_Z 64
_cell_length_a 28.649814
_cell_length_b 9.313516
_cell_length_c 12.581647
_cell_angle_alpha 90.000000
_cell_angle_beta 90.000000
_cell_angle_gamma 90.000000
_cell_volume 3357.167173
_symmetry_space_group_name_H-M "P N M A"
_symmetry_group_IT_number 62
_symmetry_cell_setting 'orthorhombic'
loop_
_space_group_symop_operation_xyz
x,y,z
1/2-x,-y,1/2+z
1/2+x,1/2-y,1/2-z
-x,1/2+y,-z
-x,-y,-z
1/2+x,y,1/2-z
1/2-x,1/2+y,1/2+z
x,1/2-y,z
loop_
_atom_site_type_symbol
_atom_site_label
_atom_site_fract_x
_atom_site_fract_y
_atom_site_fract_z
Si Si1 0.983839 0.920454 0.395281
Si Si2 0.566018 0.580754 0.251926
Si Si3 0.365287 0.418333 0.379072
Si Si4 0.696218 0.416804 0.007718
Si Si5 0.667281 0.920542 0.208919
Si Si6 0.453025 0.083159 0.516406
Si Si7 0.798405 0.417881 0.935885
Si Si8 0.879381 0.581345 0.334037
O O1 0.986454 0.750000 0.413641
O O2 0.931930 0.968080 0.361531
O O3 0.019474 0.977110 0.305012
O O4 0.000000 0.000000 0.500000
O O5 0.564386 0.750000 0.249848
O O6 0.613350 0.530594 0.193662
O O7 0.568852 0.527574 0.373117
O O8 0.357296 0.250000 0.358237
O O9 0.417097 0.449775 0.422371
O O10 0.327925 0.480279 0.464503
O O11 0.359508 0.501078 0.268810
O O12 0.693546 0.250000 0.037654
O O13 0.744069 0.453877 0.947669
O O14 0.653321 0.462013 0.932667
O O15 0.696499 0.506388 0.115886
O O16 0.673897 0.750000 0.201003
O O17 0.685205 0.980654 0.322503
O O18 0.465264 0.250000 0.522850
O O19 0.500000 0.000000 0.500000
O O20 0.809266 0.250000 0.934111
O O21 0.877032 0.750000 0.310648
#
# Coordination Sequence:
#
# PCOD8251382 Si02
#       8
#     8   8   8   8   8   8   8   8
#     4  10  20  34  53  77 108 146 183 222 269 323
#     4   9  17  32  54  76 102 138 179 221 265 317
#     4  10  20  36  58  81 108 144 188 231 268 324
#     4  10  22  38  56  80 114 148 178 227 288 334
#     4  10  19  36  61  83 104 140 191 232 267 326
#     4  10  19  33  53  78 107 140 178 220 270 323
#     4   9  19  37  58  80 108 145 183 227 283 331
#     4  10  22  38  55  81 118 152 179 221 286 340
#
# _framework density 19.063692
#
# number of rings (size 3 to 8) (size 9 to 14) (size 15 to 20)
#    0.000    2.250    1.250    1.500    1.750    2.500 
#    0.000    2.500    0.000    0.000    0.000    0.000 
#    0.000    0.000    0.000    0.000    0.000    0.000 
#
# Total GULP energy -793568.388968 kJ/mol
# GULP energy per Si atom -12399.506078 kJ/mol
# Density = 1.902030 g / cm^3
# Si number density = 19.063692 Si / 1000 Ang^3
#
#
#
# Elastic Constant Matrix: (Units=GPa)
#
#
# Indices 1 2 3 4 5 6 
#
# 1 120.2673 29.3817 54.5211 0.0000 0.0000 0.0000
# 2 29.3817 33.7622 40.3386 0.0000 0.0000 0.0000
# 3 54.5211 40.3386 140.9300 0.0000 0.0000 0.0000
# 4 0.0000 0.0000 0.0000 33.5138 0.0000 0.0000
# 5 0.0000 0.0000 0.0000 0.0000 33.1015 0.0000
# 6 0.0000 0.0000 0.0000 0.0000 0.0000 20.0364
#
#
#
# Elastic Compliance Matrix: (Units=1/GPa)
#
#
# Indices 1 2 3 4 5 6 
#
# 1 0.011034 -0.006842 -0.002310 0.000000 0.000000 0.000000
# 2 -0.006842 0.049255 -0.011451 0.000000 0.000000 0.000000
# 3 -0.002310 -0.011451 0.011267 0.000000 0.000000 0.000000
# 4 0.000000 0.000000 0.000000 0.029838 0.000000 0.000000
# 5 0.000000 0.000000 0.000000 0.000000 0.030210 0.000000
# 6 0.000000 0.000000 0.000000 0.000000 0.000000 0.049909
#
#
# Mechanical properties :
#
#
# Convention : Reuss Voigt Hill
#
# Bulk Modulus (GPa) = 32.95012 60.38249 46.66630
# Shear Modulus (GPa) = 21.47427 28.71155 25.09291
#
# Velocity S-wave (km/s) = 3.35990 3.88504 3.63198
# Velocity P-wave (km/s) = 5.68979 7.20191 6.49004
#
# Compressibility (1/GPa) = 0.03034890
#
# Stress axis : x y z
#
# Youngs Moduli (GPa) = 90.63234 20.30246 88.75309
#
# Poissons Ratio (x) = 0.13891 0.20503
# Poissons Ratio (y) = 0.62010 1.01635
# Poissons Ratio (z) = 0.20938 0.23249
#
# Static dielectric constant tensor:
#      x y z
#    x 3.833620 0.000000 0.000000 
#    y 0.000000 3.130970 0.000000 
#    z 0.000000 0.000000 3.472380 
# 
# 
# High freq. dielectric constant tensor:
#      x y z
#    x 1.756230 0.000000 0.000000 
#    y 0.000000 1.702510 0.000000 
#    z 0.000000 0.000000 1.751910 
# 
# From -- ./inp_files/15917.got.cif
#   From: 2010.03.12/outbox.cif.g09.slc.cpg/sg62_8_cif.got.tgz:15917.got - 2010.04.10 19:12:36.
