data_PCOD8251515
_publ_section_title
;
Structure prediction by ZEFSAII (Michael W. Deem and Ramdas Pophale) SiO2 
 PCOD8251515
Probable space group: P N M A
;
_chemical_formula_sum "Si O2"
_cell_formula_units_Z 64
_cell_length_a 20.531282
_cell_length_b 8.986040
_cell_length_c 19.100858
_cell_angle_alpha 90.000000
_cell_angle_beta 90.000000
_cell_angle_gamma 90.000000
_cell_volume 3524.011294
_symmetry_space_group_name_H-M "P N M A"
_symmetry_group_IT_number 62
_symmetry_cell_setting 'orthorhombic'
loop_
_space_group_symop_operation_xyz
x,y,z
1/2-x,-y,1/2+z
1/2+x,1/2-y,1/2-z
-x,1/2+y,-z
-x,-y,-z
1/2+x,y,1/2-z
1/2-x,1/2+y,1/2+z
x,1/2-y,z
loop_
_atom_site_type_symbol
_atom_site_label
_atom_site_fract_x
_atom_site_fract_y
_atom_site_fract_z
Si Si1 0.860515 0.076838 0.180752
Si Si2 0.689046 0.572832 0.959474
Si Si3 0.187463 0.574401 0.970266
Si Si4 0.359104 0.573584 0.177287
Si Si5 0.008311 0.080908 0.181389
Si Si6 0.937958 0.923745 0.966545
Si Si7 0.507503 0.576899 0.182246
Si Si8 0.559504 0.576145 0.037119
O O1 0.855857 0.250000 0.200549
O O2 0.817173 0.040456 0.112652
O O3 0.934783 0.029670 0.162175
O O4 0.834475 0.980943 0.246437
O O5 0.695130 0.750000 0.954367
O O6 0.684544 0.504923 0.881843
O O7 0.750128 0.507260 0.999772
O O8 0.626993 0.520299 0.004840
O O9 0.190885 0.750000 0.984484
O O10 0.125699 0.509169 0.009965
O O11 0.350560 0.750000 0.171137
O O12 0.433914 0.520033 0.166719
O O13 0.006238 0.250000 0.205276
O O14 0.056594 0.056452 0.116888
O O15 0.036727 0.992174 0.247312
O O16 0.935342 0.750000 0.987656
O O17 0.000000 0.000000 0.000000
O O18 0.503749 0.750000 0.194898
O O19 0.555980 0.533980 0.119217
O O20 0.550662 0.750000 0.025814
O O21 0.500000 0.500000 0.000000
#
# Coordination Sequence:
#
# PCOD8251515 Si02
#       8
#     8   8   8   8   8   8   8   8
#     4   9  18  35  56  80 111 146 188 233 281 338
#     4  11  23  38  57  83 115 154 191 234 287 342
#     4  11  23  40  59  83 115 153 193 238 287 339
#     4  10  19  33  56  84 112 145 188 234 281 338
#     4   9  18  33  53  81 113 145 183 229 280 334
#     4  11  21  36  58  85 115 147 188 235 283 339
#     4   9  18  32  52  82 113 143 185 234 280 331
#     4  10  20  35  56  82 112 143 183 229 278 330
#
# _framework density 18.161123
#
# number of rings (size 3 to 8) (size 9 to 14) (size 15 to 20)
#    0.000    2.000    2.500    1.500    0.000    3.500 
#    0.000    1.250    0.000    6.000    0.000    0.000 
#    0.000    0.000    0.000    0.000    0.000    0.000 
#
# Total GULP energy -793636.005735 kJ/mol
# GULP energy per Si atom -12400.562590 kJ/mol
# Density = 1.811979 g / cm^3
# Si number density = 18.161123 Si / 1000 Ang^3
#
#
#
# Elastic Constant Matrix: (Units=GPa)
#
#
# Indices 1 2 3 4 5 6 
#
# 1 103.9911 42.6046 59.8261 0.0000 0.0000 0.0000
# 2 42.6046 71.3585 57.3427 0.0000 0.0000 0.0000
# 3 59.8261 57.3427 132.4018 0.0000 0.0000 0.0000
# 4 0.0000 0.0000 0.0000 36.3307 0.0000 0.0000
# 5 0.0000 0.0000 0.0000 0.0000 26.2712 0.0000
# 6 0.0000 0.0000 0.0000 0.0000 0.0000 27.4452
#
#
#
# Elastic Compliance Matrix: (Units=1/GPa)
#
#
# Indices 1 2 3 4 5 6 
#
# 1 0.014091 -0.005056 -0.004177 0.000000 0.000000 0.000000
# 2 -0.005056 0.023309 -0.007810 0.000000 0.000000 0.000000
# 3 -0.004177 -0.007810 0.012823 0.000000 0.000000 0.000000
# 4 0.000000 0.000000 0.000000 0.027525 0.000000 0.000000
# 5 0.000000 0.000000 0.000000 0.000000 0.038064 0.000000
# 6 0.000000 0.000000 0.000000 0.000000 0.000000 0.036436
#
#
# Mechanical properties :
#
#
# Convention : Reuss Voigt Hill
#
# Bulk Modulus (GPa) = 61.97653 69.69978 65.83815
# Shear Modulus (GPa) = 26.08054 27.87462 26.97758
#
# Velocity S-wave (km/s) = 3.79366 3.92197 3.85834
# Velocity P-wave (km/s) = 7.30679 7.67926 7.49534
#
# Compressibility (1/GPa) = 0.01613514
#
# Stress axis : x y z
#
# Youngs Moduli (GPa) = 70.96812 42.90222 77.98601
#
# Poissons Ratio (x) = 0.21692 0.32576
# Poissons Ratio (y) = 0.35883 0.60909
# Poissons Ratio (z) = 0.29644 0.33508
#
# Static dielectric constant tensor:
#      x y z
#    x 2.426030 0.000000 0.000000 
#    y 0.000000 3.397980 0.000000 
#    z 0.000000 0.000000 3.257090 
# 
# 
# High freq. dielectric constant tensor:
#      x y z
#    x 1.675160 0.000000 0.000000 
#    y 0.000000 1.710620 0.000000 
#    z 0.000000 0.000000 1.717760 
# 
# From -- ./inp_files/24820.got.cif
#   From: 2010.03.12/outbox.cif.g09.slc.cpg/sg62_13_cif.got.tgz:24820.got - 2010.04.10 19:12:36.
