data_PCOD8251341
_publ_section_title
;
Structure prediction by ZEFSAII (Michael W. Deem and Ramdas Pophale) SiO2 
 PCOD8251341
Probable space group: P N M A
;
_chemical_formula_sum "Si O2"
_cell_formula_units_Z 64
_cell_length_a 12.774849
_cell_length_b 9.520643
_cell_length_c 28.633869
_cell_angle_alpha 90.000000
_cell_angle_beta 90.000000
_cell_angle_gamma 90.000000
_cell_volume 3482.587923
_symmetry_space_group_name_H-M "P N M A"
_symmetry_group_IT_number 62
_symmetry_cell_setting 'orthorhombic'
loop_
_space_group_symop_operation_xyz
x,y,z
1/2-x,-y,1/2+z
1/2+x,1/2-y,1/2-z
-x,1/2+y,-z
-x,-y,-z
1/2+x,y,1/2-z
1/2-x,1/2+y,1/2+z
x,1/2-y,z
loop_
_atom_site_type_symbol
_atom_site_label
_atom_site_fract_x
_atom_site_fract_y
_atom_site_fract_z
Si Si1 0.171021 0.084170 0.935179
Si Si2 0.612531 0.914546 0.105615
Si Si3 0.150419 0.907896 0.683737
Si Si4 0.293468 0.915447 0.540487
Si Si5 0.074738 0.906955 0.578497
Si Si6 0.650715 0.908389 0.302346
Si Si7 0.465202 0.410613 0.792648
Si Si8 0.048348 0.912024 0.102616
O O1 0.174023 0.250000 0.930210
O O2 0.274156 0.024547 0.909206
O O3 0.065544 0.025646 0.911026
O O4 0.170181 0.038451 0.989113
O O5 0.602894 0.750000 0.094991
O O6 0.598197 0.949130 0.160330
O O7 0.523572 0.988775 0.073978
O O8 0.156446 0.750000 0.703235
O O9 0.119261 0.911021 0.630266
O O10 0.261914 0.978331 0.688191
O O11 0.066372 0.992817 0.714054
O O12 0.309807 0.750000 0.549857
O O13 0.170270 0.954122 0.545017
O O14 0.360996 0.000649 0.577627
O O15 0.036853 0.750000 0.565558
O O16 0.696632 0.750000 0.304915
O O17 0.607506 0.939845 0.251245
O O18 0.560588 0.926040 0.341503
O O19 0.503478 0.250000 0.794495
O O20 0.058331 0.750000 0.086516
#
# Coordination Sequence:
#
# PCOD8251341 Si02
#       8
#     8   8   8   8   8   8   8   8
#     4   9  19  34  52  75 105 139 173 214 266 315
#     4   9  18  34  54  75 102 137 174 214 260 314
#     4  10  19  33  52  74 103 137 170 212 261 309
#     4  10  19  34  54  75 103 139 174 213 265 318
#     4   9  18  32  51  74 101 134 170 212 259 306
#     4  10  20  33  53  79 104 134 174 219 263 311
#     4   9  19  34  53  77 103 136 174 215 265 314
#     4  10  20  34  53  78 106 135 175 222 260 308
#
# _framework density 18.377137999999999
#
# number of rings (size 3 to 8) (size 9 to 14) (size 15 to 20)
#    0.000    2.500    1.250    0.750    0.000    3.000 
#    0.000    5.000    0.000    0.000    0.000    0.000 
#    0.000    0.000    0.000    0.000    0.000    0.000 
#
# Total GULP energy -793573.167805 kJ/mol
# GULP energy per Si atom -12399.580747 kJ/mol
# Density = 1.833531 g / cm^3
# Si number density = 18.377138 Si / 1000 Ang^3
#
#
#
# Elastic Constant Matrix: (Units=GPa)
#
#
# Indices 1 2 3 4 5 6 
#
# 1 110.7305 48.0983 30.2139 0.0000 0.0000 0.0000
# 2 48.0983 62.5267 19.1302 0.0000 0.0000 0.0000
# 3 30.2139 19.1302 51.5353 0.0000 0.0000 0.0000
# 4 0.0000 0.0000 0.0000 15.2685 0.0000 0.0000
# 5 0.0000 0.0000 0.0000 0.0000 12.8632 0.0000
# 6 0.0000 0.0000 0.0000 0.0000 0.0000 25.2524
#
#
#
# Elastic Compliance Matrix: (Units=1/GPa)
#
#
# Indices 1 2 3 4 5 6 
#
# 1 0.014604 -0.009718 -0.004955 0.000000 0.000000 0.000000
# 2 -0.009718 0.024509 -0.003400 0.000000 0.000000 0.000000
# 3 -0.004955 -0.003400 0.023571 0.000000 0.000000 0.000000
# 4 0.000000 0.000000 0.000000 0.065494 0.000000 0.000000
# 5 0.000000 0.000000 0.000000 0.000000 0.077741 0.000000
# 6 0.000000 0.000000 0.000000 0.000000 0.000000 0.039600
#
#
# Mechanical properties :
#
#
# Convention : Reuss Voigt Hill
#
# Bulk Modulus (GPa) = 37.68172 46.63081 42.15627
# Shear Modulus (GPa) = 17.21093 19.16682 18.18887
#
# Velocity S-wave (km/s) = 3.06361 3.23301 3.14945
# Velocity P-wave (km/s) = 5.75009 6.27423 6.01787
#
# Compressibility (1/GPa) = 0.02653807
#
# Stress axis : x y z
#
# Youngs Moduli (GPa) = 68.47333 40.80089 42.42475
#
# Poissons Ratio (x) = 0.39652 0.21020
# Poissons Ratio (y) = 0.66545 0.14426
# Poissons Ratio (z) = 0.33926 0.13874
#
# Static dielectric constant tensor:
#      x y z
#    x 3.527850 0.000000 0.000000 
#    y 0.000000 3.394260 0.000000 
#    z 0.000000 0.000000 3.515710 
# 
# 
# High freq. dielectric constant tensor:
#      x y z
#    x 1.714970 0.000000 0.000000 
#    y 0.000000 1.696950 0.000000 
#    z 0.000000 0.000000 1.709710 
# 
# From -- ./inp_files/32612.got.cif
#   From: 2010.03.12/outbox.cif.g09.slc.cpg/sg62_17_cif.got.tgz:32612.got - 2010.04.10 19:12:36.
