data_PCOD8251263
_publ_section_title
;
Structure prediction by ZEFSAII (Michael W. Deem and Ramdas Pophale) SiO2 
 PCOD8251263
Probable space group: P N M A
;
_chemical_formula_sum "Si O2"
_cell_formula_units_Z 64
_cell_length_a 15.637767
_cell_length_b 9.375220
_cell_length_c 22.828495
_cell_angle_alpha 90.000000
_cell_angle_beta 90.000000
_cell_angle_gamma 90.000000
_cell_volume 3346.828716
_symmetry_space_group_name_H-M "P N M A"
_symmetry_group_IT_number 62
_symmetry_cell_setting 'orthorhombic'
loop_
_space_group_symop_operation_xyz
x,y,z
1/2-x,-y,1/2+z
1/2+x,1/2-y,1/2-z
-x,1/2+y,-z
-x,-y,-z
1/2+x,y,1/2-z
1/2-x,1/2+y,1/2+z
x,1/2-y,z
loop_
_atom_site_type_symbol
_atom_site_label
_atom_site_fract_x
_atom_site_fract_y
_atom_site_fract_z
Si Si1 0.454612 0.903031 0.279493
Si Si2 0.755803 0.581850 0.546222
Si Si3 0.323646 0.406249 0.335512
Si Si4 0.570208 0.579752 0.039102
Si Si5 0.372864 0.093920 0.651937
Si Si6 0.555662 0.915828 0.174202
Si Si7 0.582937 0.917664 0.476705
Si Si8 0.318182 0.908641 0.748566
O O1 0.407182 0.750000 0.281758
O O2 0.549429 0.889838 0.303821
O O3 0.467828 0.949695 0.211229
O O4 0.408429 0.005813 0.324479
O O5 0.778715 0.750000 0.540680
O O6 0.736455 0.533073 0.612973
O O7 0.836515 0.488121 0.524723
O O8 0.669961 0.542966 0.510617
O O9 0.353747 0.250000 0.356250
O O10 0.277344 0.400810 0.273105
O O11 0.572026 0.750000 0.026187
O O12 0.543134 0.547475 0.106096
O O13 0.500000 0.500000 0.000000
O O14 0.329343 0.250000 0.642866
O O15 0.402046 0.031687 0.589844
O O16 0.309518 0.986262 0.685582
O O17 0.580777 0.750000 0.181998
O O18 0.629857 0.012380 0.200741
O O19 0.562754 0.750000 0.480558
O O20 0.500000 0.000000 0.500000
O O21 0.356552 0.750000 0.739392
#
# Coordination Sequence:
#
# PCOD8251263 Si02
#       8
#     8   8   8   8   8   8   8   8
#     4   9  18  32  53  79 107 139 179 226 272 335
#     4  10  21  39  60  85 119 156 199 247 296 352
#     4  10  20  33  51  80 113 141 178 228 283 340
#     4  11  23  40  63  86 113 153 201 252 303 354
#     4   9  19  36  53  76 109 145 185 225 274 338
#     4   9  19  37  57  80 108 141 185 233 285 345
#     4  10  21  37  60  87 120 160 197 243 297 352
#     4  10  19  32  54  79 106 142 178 224 281 333
#
# _framework density 19.122581
#
# number of rings (size 3 to 8) (size 9 to 14) (size 15 to 20)
#    0.000    2.250    1.250    2.250    0.000    5.000 
#    2.250    0.000    0.000    0.000    0.000    0.000 
#    0.000    0.000    0.000    0.000    0.000    0.000 
#
# Total GULP energy -793038.427813 kJ/mol
# GULP energy per Si atom -12391.225435 kJ/mol
# Density = 1.907906 g / cm^3
# Si number density = 19.122581 Si / 1000 Ang^3
#
#
#
# Elastic Constant Matrix: (Units=GPa)
#
#
# Indices 1 2 3 4 5 6 
#
# 1 83.9397 39.6619 36.6298 0.0000 0.0000 0.0000
# 2 39.6619 83.0323 41.4760 0.0000 0.0000 0.0000
# 3 36.6298 41.4760 123.3832 0.0000 0.0000 0.0000
# 4 0.0000 0.0000 0.0000 31.6751 0.0000 0.0000
# 5 0.0000 0.0000 0.0000 0.0000 30.1090 0.0000
# 6 0.0000 0.0000 0.0000 0.0000 0.0000 24.8526
#
#
#
# Elastic Compliance Matrix: (Units=1/GPa)
#
#
# Indices 1 2 3 4 5 6 
#
# 1 0.016067 -0.006360 -0.002632 0.000000 0.000000 0.000000
# 2 -0.006360 0.016991 -0.003824 0.000000 0.000000 0.000000
# 3 -0.002632 -0.003824 0.010172 0.000000 0.000000 0.000000
# 4 0.000000 0.000000 0.000000 0.031571 0.000000 0.000000
# 5 0.000000 0.000000 0.000000 0.000000 0.033213 0.000000
# 6 0.000000 0.000000 0.000000 0.000000 0.000000 0.040237
#
#
# Mechanical properties :
#
#
# Convention : Reuss Voigt Hill
#
# Bulk Modulus (GPa) = 56.82216 58.43230 57.62723
# Shear Modulus (GPa) = 27.81673 28.83316 28.32495
#
# Velocity S-wave (km/s) = 3.81813 3.88726 3.85285
# Velocity P-wave (km/s) = 7.01546 7.12536 7.07062
#
# Compressibility (1/GPa) = 0.01759877
#
# Stress axis : x y z
#
# Youngs Moduli (GPa) = 62.23948 58.85320 98.31343
#
# Poissons Ratio (x) = 0.37430 0.25876
# Poissons Ratio (y) = 0.39584 0.37592
# Poissons Ratio (z) = 0.16381 0.22503
#
# Static dielectric constant tensor:
#      x y z
#    x 3.202990 0.000000 0.000000 
#    y 0.000000 3.708190 0.000000 
#    z 0.000000 0.000000 3.690550 
# 
# 
# High freq. dielectric constant tensor:
#      x y z
#    x 1.719320 0.000000 0.000000 
#    y 0.000000 1.743820 0.000000 
#    z 0.000000 0.000000 1.753410 
# 
# From -- ./inp_files/29820.got.cif
#   From: 2010.03.12/outbox.cif.g09.slc.cpg/sg62_15_cif.got.tgz:29820.got - 2010.04.10 19:12:36.
