data_PCOD8251166
_publ_section_title
;
Structure prediction by ZEFSAII (Michael W. Deem and Ramdas Pophale) SiO2 
 PCOD8251166
Probable space group: P N M A
;
_chemical_formula_sum "Si O2"
_cell_formula_units_Z 64
_cell_length_a 15.168964
_cell_length_b 9.040319
_cell_length_c 23.951333
_cell_angle_alpha 90.000000
_cell_angle_beta 90.000000
_cell_angle_gamma 90.000000
_cell_volume 3284.500747
_symmetry_space_group_name_H-M "P N M A"
_symmetry_group_IT_number 62
_symmetry_cell_setting 'orthorhombic'
loop_
_space_group_symop_operation_xyz
x,y,z
1/2-x,-y,1/2+z
1/2+x,1/2-y,1/2-z
-x,1/2+y,-z
-x,-y,-z
1/2+x,y,1/2-z
1/2-x,1/2+y,1/2+z
x,1/2-y,z
loop_
_atom_site_type_symbol
_atom_site_label
_atom_site_fract_x
_atom_site_fract_y
_atom_site_fract_z
Si Si1 0.788139 0.422358 0.542370
Si Si2 0.057247 0.922208 0.079980
Si Si3 0.382647 0.923859 0.686608
Si Si4 0.815394 0.078252 0.306272
Si Si5 0.627341 0.922863 0.928695
Si Si6 0.612191 0.921605 0.545307
Si Si7 0.484019 0.575762 0.230049
Si Si8 0.037633 0.579882 0.392777
O O1 0.761873 0.250000 0.540309
O O2 0.816458 0.480863 0.481176
O O3 0.706830 0.518729 0.563914
O O4 0.864144 0.453354 0.587230
O O5 0.052790 0.750000 0.095163
O O6 0.116144 0.008393 0.124733
O O7 0.101249 0.951527 0.020328
O O8 0.959001 0.988019 0.080817
O O9 0.400567 0.750000 0.682988
O O10 0.285241 0.955187 0.712186
O O11 0.458700 0.999420 0.722423
O O12 0.839134 0.250000 0.298365
O O13 0.824328 0.032573 0.371329
O O14 0.883202 0.983643 0.268718
O O15 0.614109 0.750000 0.935168
O O16 0.530152 0.991600 0.931378
O O17 0.602515 0.750000 0.560363
O O18 0.482578 0.750000 0.240878
O O19 0.529015 0.531319 0.171590
O O20 0.012521 0.750000 0.399740
#
# Coordination Sequence:
#
# PCOD8251166 Si02
#       8
#     8   8   8   8   8   8   8   8
#     4  10  19  32  51  78 112 150 186 223 275 334
#     4  10  21  38  59  82 111 145 181 226 279 330
#     4  11  22  38  62  87 111 144 189 236 284 339
#     4   9  19  36  57  82 110 143 184 233 287 337
#     4   9  17  30  52  79 107 141 183 229 277 331
#     4  10  21  36  55  82 114 147 183 224 271 329
#     4  10  21  38  57  80 112 149 189 236 285 333
#     4   9  19  34  51  74 108 147 185 228 277 328
#
# _framework density 19.485458000000001
#
# number of rings (size 3 to 8) (size 9 to 14) (size 15 to 20)
#    0.000    2.250    0.000    2.625    0.000    5.000 
#    2.250    2.500    0.000    0.000    0.000    0.000 
#    0.000    0.000    0.000    0.000    0.000    0.000 
#
# Total GULP energy -793773.343913 kJ/mol
# GULP energy per Si atom -12402.708499 kJ/mol
# Density = 1.944111 g / cm^3
# Si number density = 19.485458 Si / 1000 Ang^3
#
#
#
# Elastic Constant Matrix: (Units=GPa)
#
#
# Indices 1 2 3 4 5 6 
#
# 1 116.0693 52.7125 25.1991 0.0000 0.0000 0.0000
# 2 52.7125 81.9149 26.4666 0.0000 0.0000 0.0000
# 3 25.1991 26.4666 41.5377 0.0000 0.0000 0.0000
# 4 0.0000 0.0000 0.0000 27.9954 0.0000 0.0000
# 5 0.0000 0.0000 0.0000 0.0000 24.8963 0.0000
# 6 0.0000 0.0000 0.0000 0.0000 0.0000 35.4592
#
#
#
# Elastic Compliance Matrix: (Units=1/GPa)
#
#
# Indices 1 2 3 4 5 6 
#
# 1 0.012480 -0.007033 -0.003090 0.000000 0.000000 0.000000
# 2 -0.007033 0.019335 -0.008054 0.000000 0.000000 0.000000
# 3 -0.003090 -0.008054 0.031081 0.000000 0.000000 0.000000
# 4 0.000000 0.000000 0.000000 0.035720 0.000000 0.000000
# 5 0.000000 0.000000 0.000000 0.000000 0.040167 0.000000
# 6 0.000000 0.000000 0.000000 0.000000 0.000000 0.028201
#
#
# Mechanical properties :
#
#
# Convention : Reuss Voigt Hill
#
# Bulk Modulus (GPa) = 37.67396 49.80869 43.74133
# Shear Modulus (GPa) = 23.56429 26.67976 25.12202
#
# Velocity S-wave (km/s) = 3.48131 3.70430 3.59454
# Velocity P-wave (km/s) = 5.96119 6.62671 6.30274
#
# Compressibility (1/GPa) = 0.02654353
#
# Stress axis : x y z
#
# Youngs Moduli (GPa) = 80.12617 51.71851 32.17426
#
# Poissons Ratio (x) = 0.36372 0.09943
# Poissons Ratio (y) = 0.56350 0.25912
# Poissons Ratio (z) = 0.24761 0.41652
#
# Static dielectric constant tensor:
#      x y z
#    x 3.569930 0.000000 0.000000 
#    y 0.000000 3.515860 0.000000 
#    z 0.000000 0.000000 3.468130 
# 
# 
# High freq. dielectric constant tensor:
#      x y z
#    x 1.765260 0.000000 0.000000 
#    y 0.000000 1.760280 0.000000 
#    z 0.000000 0.000000 1.742490 
# 
# From -- ./inp_files/29785.got.cif
#   From: 2010.03.12/outbox.cif.g09.slc.cpg/sg62_15_cif.got.tgz:29785.got - 2010.04.10 19:12:36.
