data_PCOD8251325
_publ_section_title
;
Structure prediction by ZEFSAII (Michael W. Deem and Ramdas Pophale) SiO2 
 PCOD8251325
Probable space group: P N M A
;
_chemical_formula_sum "Si O2"
_cell_formula_units_Z 64
_cell_length_a 30.574504
_cell_length_b 9.019981
_cell_length_c 14.306691
_cell_angle_alpha 90.000000
_cell_angle_beta 90.000000
_cell_angle_gamma 90.000000
_cell_volume 3945.519920
_symmetry_space_group_name_H-M "P N M A"
_symmetry_group_IT_number 62
_symmetry_cell_setting 'orthorhombic'
loop_
_space_group_symop_operation_xyz
x,y,z
1/2-x,-y,1/2+z
1/2+x,1/2-y,1/2-z
-x,1/2+y,-z
-x,-y,-z
1/2+x,y,1/2-z
1/2-x,1/2+y,1/2+z
x,1/2-y,z
loop_
_atom_site_type_symbol
_atom_site_label
_atom_site_fract_x
_atom_site_fract_y
_atom_site_fract_z
Si Si1 0.450284 0.574694 0.401697
Si Si2 0.821913 0.583760 0.972955
Si Si3 0.634009 0.576740 0.305836
Si Si4 0.264282 0.918556 0.011255
Si Si5 0.800808 0.578582 0.684448
Si Si6 0.281913 0.923527 0.221194
Si Si7 0.636403 0.416083 0.670629
Si Si8 0.547297 0.923046 0.401803
O O1 0.444421 0.750000 0.412341
O O2 0.413131 0.514961 0.327835
O O3 0.442054 0.508282 0.503645
O O4 0.498811 0.533539 0.364339
O O5 0.819626 0.750000 0.931011
O O6 0.774363 0.533502 0.006729
O O7 0.853074 0.580317 0.061378
O O8 0.838100 0.468932 0.895940
O O9 0.640335 0.750000 0.289141
O O10 0.652879 0.491288 0.215960
O O11 0.582988 0.534858 0.322645
O O12 0.246277 0.750000 0.007808
O O13 0.298370 0.945355 0.927095
O O14 0.287201 0.949505 0.110542
O O15 0.800017 0.750000 0.711550
O O16 0.760923 0.503459 0.739980
O O17 0.277540 0.750000 0.247061
O O18 0.325770 0.996260 0.268391
O O19 0.634511 0.250000 0.710529
O O20 0.550025 0.750000 0.425792
#
# Coordination Sequence:
#
# PCOD8251325 Si02
#       8
#     8   8   8   8   8   8   8   8
#     4   9  16  29  46  67  94 121 151 189 227 274
#     4  11  19  28  46  71  95 124 159 191 226 272
#     4  11  21  32  45  66  94 129 161 191 232 276
#     4  10  21  34  47  65  94 124 155 196 235 270
#     4  11  22  33  46  68  91 121 160 196 229 272
#     4  10  19  33  49  67  91 123 153 188 234 279
#     4   9  17  28  46  70  93 122 156 185 224 276
#     4   9  18  29  44  66  93 122 153 188 230 276
#
# _framework density 16.220929000000002
#
# number of rings (size 3 to 8) (size 9 to 14) (size 15 to 20)
#    0.000    2.000    3.750    1.125    0.000    1.000 
#    0.000    0.625    0.000    0.000    0.000    0.875 
#    0.000    0.000    0.000    0.000    0.000    0.000 
#
# Total GULP energy -793164.757509 kJ/mol
# GULP energy per Si atom -12393.199336 kJ/mol
# Density = 1.618401 g / cm^3
# Si number density = 16.220929 Si / 1000 Ang^3
#
#
#
# Elastic Constant Matrix: (Units=GPa)
#
#
# Indices 1 2 3 4 5 6 
#
# 1 123.6255 34.1764 35.0319 0.0000 0.0000 0.0000
# 2 34.1764 48.0903 21.7786 0.0000 0.0000 0.0000
# 3 35.0319 21.7786 66.6672 0.0000 0.0000 0.0000
# 4 0.0000 0.0000 0.0000 17.0508 0.0000 0.0000
# 5 0.0000 0.0000 0.0000 0.0000 25.3132 0.0000
# 6 0.0000 0.0000 0.0000 0.0000 0.0000 15.8216
#
#
#
# Elastic Compliance Matrix: (Units=1/GPa)
#
#
# Indices 1 2 3 4 5 6 
#
# 1 0.010798 -0.005991 -0.003717 0.000000 0.000000 0.000000
# 2 -0.005991 0.027728 -0.005910 0.000000 0.000000 0.000000
# 3 -0.003717 -0.005910 0.018884 0.000000 0.000000 0.000000
# 4 0.000000 0.000000 0.000000 0.058648 0.000000 0.000000
# 5 0.000000 0.000000 0.000000 0.000000 0.039505 0.000000
# 6 0.000000 0.000000 0.000000 0.000000 0.000000 0.063205
#
#
# Mechanical properties :
#
#
# Convention : Reuss Voigt Hill
#
# Bulk Modulus (GPa) = 38.20555 46.70631 42.45593
# Shear Modulus (GPa) = 19.32517 21.46352 20.39435
#
# Velocity S-wave (km/s) = 3.45537 3.64153 3.54967
# Velocity P-wave (km/s) = 6.28680 6.82183 6.55977
#
# Compressibility (1/GPa) = 0.02617420
#
# Stress axis : x y z
#
# Youngs Moduli (GPa) = 92.60587 36.06444 52.95504
#
# Poissons Ratio (x) = 0.21605 0.19685
# Poissons Ratio (y) = 0.55477 0.31297
# Poissons Ratio (z) = 0.34424 0.21315
#
# Static dielectric constant tensor:
#      x y z
#    x 3.405280 0.000000 0.000000 
#    y 0.000000 3.063710 0.000000 
#    z 0.000000 0.000000 2.967580 
# 
# 
# High freq. dielectric constant tensor:
#      x y z
#    x 1.624230 0.000000 0.000000 
#    y 0.000000 1.618860 0.000000 
#    z 0.000000 0.000000 1.593680 
# 
# From -- ./inp_files/21214.got.cif
#   From: 2010.03.12/outbox.cif.g09.slc.cpg/sg62_11_cif.got.tgz:21214.got - 2010.04.10 19:12:36.
