data_PCOD8251176
_publ_section_title
;
Structure prediction by ZEFSAII (Michael W. Deem and Ramdas Pophale) SiO2 
 PCOD8251176
Probable space group: P N M A
;
_chemical_formula_sum "Si O2"
_cell_formula_units_Z 56
_cell_length_a 18.926438
_cell_length_b 8.848043
_cell_length_c 19.374078
_cell_angle_alpha 90.000000
_cell_angle_beta 90.000000
_cell_angle_gamma 90.000000
_cell_volume 3244.420635
_symmetry_space_group_name_H-M "P N M A"
_symmetry_group_IT_number 62
_symmetry_cell_setting 'orthorhombic'
loop_
_space_group_symop_operation_xyz
x,y,z
1/2-x,-y,1/2+z
1/2+x,1/2-y,1/2-z
-x,1/2+y,-z
-x,-y,-z
1/2+x,y,1/2-z
1/2-x,1/2+y,1/2+z
x,1/2-y,z
loop_
_atom_site_type_symbol
_atom_site_label
_atom_site_fract_x
_atom_site_fract_y
_atom_site_fract_z
Si Si1 0.235286 0.570944 0.836575
Si Si2 0.713526 0.428315 0.019773
Si Si3 0.020252 0.927403 0.303897
Si Si4 0.126088 0.926996 0.727174
Si Si5 0.251683 0.423321 0.119587
Si Si6 0.056387 0.429504 0.449049
Si Si7 0.355779 0.927143 0.735453
O O1 0.239243 0.750000 0.831956
O O2 0.240047 0.511046 0.915182
O O3 0.162648 0.521208 0.799313
O O4 0.303294 0.511356 0.794821
O O5 0.713148 0.250000 0.021591
O O6 0.633234 0.487144 0.026356
O O7 0.749744 0.480289 0.949708
O O8 0.025175 0.750000 0.317516
O O9 0.042337 0.017112 0.371901
O O10 0.072036 0.978101 0.241791
O O11 0.941387 0.969059 0.282230
O O12 0.105492 0.750000 0.727978
O O13 0.179953 0.962531 0.665162
O O14 0.254142 0.250000 0.097594
O O15 0.180035 0.459294 0.161398
O O16 0.050306 0.250000 0.451496
O O17 0.000000 0.500000 0.500000
O O18 0.372260 0.750000 0.744335
#
# Coordination Sequence:
#
# PCOD8251176 Si02
#       7
#     8   8   8   8   8   8   8
#     4   8  15  32  55  75  93 128 179 216 254 307
#     4  10  19  32  52  75 103 135 166 210 259 305
#     4  12  23  33  49  77 108 137 172 213 260 309
#     4   9  18  34  55  73  97 135 176 215 254 307
#     4   9  19  33  53  78 102 132 172 214 255 308
#     4  11  22  35  51  74 109 145 175 208 252 309
#     4   9  17  35  56  72  97 135 178 215 251 304
#
# _framework density 17.260401999999999
#
# number of rings (size 3 to 8) (size 9 to 14) (size 15 to 20)
#    0.000    2.286    1.429    4.286    0.000    4.571 
#    0.000    2.857    0.000    0.857    0.000    0.000 
#    0.000    0.000    0.000    0.000    0.000    0.000 
#
# Total GULP energy -694298.143901 kJ/mol
# GULP energy per Si atom -12398.181141 kJ/mol
# Density = 1.722112 g / cm^3
# Si number density = 17.260402 Si / 1000 Ang^3
#
#
#
# Elastic Constant Matrix: (Units=GPa)
#
#
# Indices 1 2 3 4 5 6 
#
# 1 48.0371 25.0786 40.9022 0.0000 0.0000 0.0000
# 2 25.0786 43.4799 22.5508 0.0000 0.0000 0.0000
# 3 40.9022 22.5508 114.1055 0.0000 0.0000 0.0000
# 4 0.0000 0.0000 0.0000 28.5928 0.0000 0.0000
# 5 0.0000 0.0000 0.0000 0.0000 26.7311 0.0000
# 6 0.0000 0.0000 0.0000 0.0000 0.0000 23.0639
#
#
#
# Elastic Compliance Matrix: (Units=1/GPa)
#
#
# Indices 1 2 3 4 5 6 
#
# 1 0.038500 -0.016767 -0.010487 0.000000 0.000000 0.000000
# 2 -0.016767 0.032928 -0.000497 0.000000 0.000000 0.000000
# 3 -0.010487 -0.000497 0.012621 0.000000 0.000000 0.000000
# 4 0.000000 0.000000 0.000000 0.034974 0.000000 0.000000
# 5 0.000000 0.000000 0.000000 0.000000 0.037410 0.000000
# 6 0.000000 0.000000 0.000000 0.000000 0.000000 0.043358
#
#
# Mechanical properties :
#
#
# Convention : Reuss Voigt Hill
#
# Bulk Modulus (GPa) = 35.03051 42.52065 38.77558
# Shear Modulus (GPa) = 18.88147 23.48362 21.18254
#
# Velocity S-wave (km/s) = 3.31103 3.69256 3.50699
# Velocity P-wave (km/s) = 5.91241 6.54739 6.23798
#
# Compressibility (1/GPa) = 0.02854654
#
# Stress axis : x y z
#
# Youngs Moduli (GPa) = 25.97381 30.36909 79.23132
#
# Poissons Ratio (x) = 0.50921 0.83090
# Poissons Ratio (y) = 0.43551 0.03940
# Poissons Ratio (z) = 0.27239 0.01510
#
# Static dielectric constant tensor:
#      x y z
#    x 3.301230 0.000000 0.000000 
#    y 0.000000 3.003670 0.000000 
#    z 0.000000 0.000000 3.786630 
# 
# 
# High freq. dielectric constant tensor:
#      x y z
#    x 1.659020 0.000000 0.000000 
#    y 0.000000 1.650060 0.000000 
#    z 0.000000 0.000000 1.663800 
# 
# From -- ./inp_files/24637.got.cif
#   From: 2010.03.12/outbox.cif.g09.slc.cpg/sg62_13_cif.got.tgz:24637.got - 2010.04.10 19:12:36.
