data_PCOD8251502
_publ_section_title
;
Structure prediction by ZEFSAII (Michael W. Deem and Ramdas Pophale) SiO2 
 PCOD8251502
Probable space group: P N M A
;
_chemical_formula_sum "Si O2"
_cell_formula_units_Z 64
_cell_length_a 15.589770
_cell_length_b 9.208701
_cell_length_c 23.687380
_cell_angle_alpha 90.000000
_cell_angle_beta 90.000000
_cell_angle_gamma 90.000000
_cell_volume 3400.596528
_symmetry_space_group_name_H-M "P N M A"
_symmetry_group_IT_number 62
_symmetry_cell_setting 'orthorhombic'
loop_
_space_group_symop_operation_xyz
x,y,z
1/2-x,-y,1/2+z
1/2+x,1/2-y,1/2-z
-x,1/2+y,-z
-x,-y,-z
1/2+x,y,1/2-z
1/2-x,1/2+y,1/2+z
x,1/2-y,z
loop_
_atom_site_type_symbol
_atom_site_label
_atom_site_fract_x
_atom_site_fract_y
_atom_site_fract_z
Si Si1 0.123071 0.084131 0.017442
Si Si2 0.983217 0.422141 0.202249
Si Si3 0.334137 0.077485 0.213417
Si Si4 0.316990 0.419581 0.991508
Si Si5 0.006093 0.418235 0.911853
Si Si6 0.844053 0.577459 0.738180
Si Si7 0.610995 0.422538 0.113704
Si Si8 0.082777 0.577470 0.600114
O O1 0.107421 0.250000 0.036178
O O2 0.083484 0.981944 0.065450
O O3 0.222517 0.047294 0.013887
O O4 0.080590 0.053428 0.957079
O O5 0.982665 0.250000 0.193629
O O6 0.908712 0.473007 0.244422
O O7 0.963833 0.498595 0.143494
O O8 0.074234 0.477478 0.226407
O O9 0.328685 0.250000 0.212556
O O10 0.242633 0.013172 0.233824
O O11 0.357491 0.017661 0.151044
O O12 0.330092 0.250000 0.978705
O O13 0.331144 0.508113 0.934637
O O14 0.381612 0.476432 0.039962
O O15 0.992888 0.250000 0.898308
O O16 0.842849 0.750000 0.738530
O O17 0.851757 0.523823 0.673601
O O18 0.614843 0.250000 0.108005
O O19 0.513738 0.480172 0.107631
O O20 0.084023 0.750000 0.602946
#
# Coordination Sequence:
#
# PCOD8251502 Si02
#       8
#     8   8   8   8   8   8   8   8
#     4   9  20  38  55  76 103 139 181 218 257 314
#     4  10  19  33  56  82 105 135 178 218 260 319
#     4   9  17  30  51  79 105 132 172 221 260 299
#     4  10  21  34  54  80 103 135 178 219 264 315
#     4  10  21  36  54  76 109 140 170 216 271 318
#     4   9  18  31  51  79 106 135 175 218 258 306
#     4  10  19  34  53  77 107 136 170 217 265 310
#     4   9  17  32  52  75 104 135 173 219 260 304
#
# _framework density 18.820226999999999
#
# number of rings (size 3 to 8) (size 9 to 14) (size 15 to 20)
#    0.000    2.500    1.250    0.750    3.500    1.000 
#    0.000    0.625    0.000    1.500    0.000    0.000 
#    0.000    0.000    0.000    0.000    0.000    0.000 
#
# Total GULP energy -793650.673118 kJ/mol
# GULP energy per Si atom -12400.791767 kJ/mol
# Density = 1.877739 g / cm^3
# Si number density = 18.820227 Si / 1000 Ang^3
#
#
#
# Elastic Constant Matrix: (Units=GPa)
#
#
# Indices 1 2 3 4 5 6 
#
# 1 76.1660 11.9482 2.1524 0.0000 0.0000 0.0000
# 2 11.9482 28.8380 19.6179 0.0000 0.0000 0.0000
# 3 2.1524 19.6179 73.5990 0.0000 0.0000 0.0000
# 4 0.0000 0.0000 0.0000 26.2564 0.0000 0.0000
# 5 0.0000 0.0000 0.0000 0.0000 22.1501 0.0000
# 6 0.0000 0.0000 0.0000 0.0000 0.0000 15.6460
#
#
#
# Elastic Compliance Matrix: (Units=1/GPa)
#
#
# Indices 1 2 3 4 5 6 
#
# 1 0.014160 -0.006822 0.001404 0.000000 0.000000 0.000000
# 2 -0.006822 0.045644 -0.011967 0.000000 0.000000 0.000000
# 3 0.001404 -0.011967 0.016736 0.000000 0.000000 0.000000
# 4 0.000000 0.000000 0.000000 0.038086 0.000000 0.000000
# 5 0.000000 0.000000 0.000000 0.000000 0.045146 0.000000
# 6 0.000000 0.000000 0.000000 0.000000 0.000000 0.063914
#
#
# Mechanical properties :
#
#
# Convention : Reuss Voigt Hill
#
# Bulk Modulus (GPa) = 23.94051 27.33779 25.63915
# Shear Modulus (GPa) = 18.35679 22.46946 20.41313
#
# Velocity S-wave (km/s) = 3.12649 3.45903 3.29696
# Velocity P-wave (km/s) = 5.07755 5.52363 5.30528
#
# Compressibility (1/GPa) = 0.04177021
#
# Stress axis : x y z
#
# Youngs Moduli (GPa) = 70.62294 21.90875 59.75192
#
# Poissons Ratio (x) = 0.14946 -0.08391
# Poissons Ratio (y) = 0.48179 0.71505
# Poissons Ratio (z) = -0.09918 0.26218
#
# Static dielectric constant tensor:
#      x y z
#    x 3.646250 0.000000 0.000000 
#    y 0.000000 3.006130 0.000000 
#    z 0.000000 0.000000 3.555280 
# 
# 
# High freq. dielectric constant tensor:
#      x y z
#    x 1.741940 0.000000 0.000000 
#    y 0.000000 1.680310 0.000000 
#    z 0.000000 0.000000 1.744170 
# 
# From -- ./inp_files/29807.got.cif
#   From: 2010.03.12/outbox.cif.g09.slc.cpg/sg62_15_cif.got.tgz:29807.got - 2010.04.10 19:12:36.
