data_PCOD8251989
_publ_section_title
;
Structure prediction by ZEFSAII (Michael W. Deem and Ramdas Pophale) SiO2 
 PCOD8251989
Probable space group: P N M A
;
_chemical_formula_sum "Si O2"
_cell_formula_units_Z 64
_cell_length_a 15.198694
_cell_length_b 8.835197
_cell_length_c 24.844365
_cell_angle_alpha 90.000000
_cell_angle_beta 90.000000
_cell_angle_gamma 90.000000
_cell_volume 3336.187185
_symmetry_space_group_name_H-M "P N M A"
_symmetry_group_IT_number 62
_symmetry_cell_setting 'orthorhombic'
loop_
_space_group_symop_operation_xyz
x,y,z
1/2-x,-y,1/2+z
1/2+x,1/2-y,1/2-z
-x,1/2+y,-z
-x,-y,-z
1/2+x,y,1/2-z
1/2-x,1/2+y,1/2+z
x,1/2-y,z
loop_
_atom_site_type_symbol
_atom_site_label
_atom_site_fract_x
_atom_site_fract_y
_atom_site_fract_z
Si Si1 0.698839 0.427146 0.643468
Si Si2 0.821211 0.929389 0.437488
Si Si3 0.505564 0.928802 0.109954
Si Si4 0.316918 0.075556 0.648378
Si Si5 0.824115 0.929413 0.558804
Si Si6 0.968305 0.423961 0.281602
Si Si7 0.269775 0.425127 0.245468
Si Si8 0.506535 0.422512 0.673139
O O1 0.717061 0.250000 0.637568
O O2 0.743396 0.512707 0.594223
O O3 0.740815 0.482458 0.699414
O O4 0.594876 0.468217 0.641026
O O5 0.821862 0.750000 0.436142
O O6 0.740743 0.991351 0.400769
O O7 0.806931 0.987177 0.498080
O O8 0.913814 0.990260 0.414479
O O9 0.514535 0.750000 0.105032
O O10 0.583391 0.004461 0.077124
O O11 0.512566 0.975970 0.172136
O O12 0.291239 0.250000 0.658705
O O13 0.421028 0.058985 0.634735
O O14 0.301133 0.983727 0.703076
O O15 0.828948 0.750000 0.562272
O O16 0.991694 0.250000 0.292431
O O17 0.864300 0.453648 0.281254
O O18 0.008349 0.471835 0.224623
O O19 0.253471 0.250000 0.258815
O O20 0.516499 0.250000 0.693565
#
# Coordination Sequence:
#
# PCOD8251989 Si02
#       8
#     8   8   8   8   8   8   8   8
#     4  10  21  39  58  81 112 151 194 237 282 338
#     4   9  20  38  60  84 113 149 191 236 287 343
#     4  11  21  36  58  84 113 151 192 231 280 344
#     4  10  19  36  60  85 112 148 190 234 282 341
#     4  11  23  39  58  82 112 150 193 241 292 340
#     4  10  20  34  53  81 118 152 183 226 281 336
#     4  10  20  34  54  83 115 149 184 230 285 335
#     4   9  20  36  58  83 113 150 191 235 280 335
#
# _framework density 19.183577
#
# number of rings (size 3 to 8) (size 9 to 14) (size 15 to 20)
#    0.000    2.000    1.250    2.250    1.750    2.000 
#    0.000    3.750    0.000    0.000    0.000    0.000 
#    0.000    0.000    0.000    0.000    0.000    0.000 
#
# Total GULP energy -793728.792058 kJ/mol
# GULP energy per Si atom -12402.012376 kJ/mol
# Density = 1.913991 g / cm^3
# Si number density = 19.183577 Si / 1000 Ang^3
#
#
#
# Elastic Constant Matrix: (Units=GPa)
#
#
# Indices 1 2 3 4 5 6 
#
# 1 130.4983 35.4807 78.5701 0.0000 0.0000 0.0000
# 2 35.4807 71.0635 37.3268 0.0000 0.0000 0.0000
# 3 78.5701 37.3268 114.9893 0.0000 0.0000 0.0000
# 4 0.0000 0.0000 0.0000 24.5056 0.0000 0.0000
# 5 0.0000 0.0000 0.0000 0.0000 26.0222 0.0000
# 6 0.0000 0.0000 0.0000 0.0000 0.0000 23.1816
#
#
#
# Elastic Compliance Matrix: (Units=1/GPa)
#
#
# Indices 1 2 3 4 5 6 
#
# 1 0.013311 -0.002253 -0.008364 0.000000 0.000000 0.000000
# 2 -0.002253 0.017346 -0.004091 0.000000 0.000000 0.000000
# 3 -0.008364 -0.004091 0.015740 0.000000 0.000000 0.000000
# 4 0.000000 0.000000 0.000000 0.040807 0.000000 0.000000
# 5 0.000000 0.000000 0.000000 0.000000 0.038429 0.000000
# 6 0.000000 0.000000 0.000000 0.000000 0.000000 0.043138
#
#
# Mechanical properties :
#
#
# Convention : Reuss Voigt Hill
#
# Bulk Modulus (GPa) = 58.89212 68.81181 63.85197
# Shear Modulus (GPa) = 24.52829 25.75345 25.14087
#
# Velocity S-wave (km/s) = 3.57964 3.66795 3.62407
# Velocity P-wave (km/s) = 6.91744 7.34075 7.13224
#
# Compressibility (1/GPa) = 0.01698020
#
# Stress axis : x y z
#
# Youngs Moduli (GPa) = 75.12448 57.65120 63.53419
#
# Poissons Ratio (x) = 0.12987 0.53140
# Poissons Ratio (y) = 0.16924 0.25994
# Poissons Ratio (z) = 0.62835 0.23587
#
# Static dielectric constant tensor:
#      x y z
#    x 3.641240 0.000000 0.000000 
#    y 0.000000 3.432020 0.000000 
#    z 0.000000 0.000000 3.488960 
# 
# 
# High freq. dielectric constant tensor:
#      x y z
#    x 1.753570 0.000000 0.000000 
#    y 0.000000 1.741130 0.000000 
#    z 0.000000 0.000000 1.733080 
# 
# From -- ./inp_files/29746.got.cif
#   From: 2010.03.12/outbox.cif.g09.slc.cpg/sg62_15_cif.got.tgz:29746.got - 2010.04.10 19:12:36.
