data_PCOD8251713
_publ_section_title
;
Structure prediction by ZEFSAII (Michael W. Deem and Ramdas Pophale) SiO2 
 PCOD8251713
Probable space group: P N M A
;
_chemical_formula_sum "Si O2"
_cell_formula_units_Z 56
_cell_length_a 15.772750
_cell_length_b 19.210025
_cell_length_c 9.683436
_cell_angle_alpha 90.000000
_cell_angle_beta 90.000000
_cell_angle_gamma 90.000000
_cell_volume 2934.031934
_symmetry_space_group_name_H-M "P N M A"
_symmetry_group_IT_number 62
_symmetry_cell_setting 'orthorhombic'
loop_
_space_group_symop_operation_xyz
x,y,z
1/2-x,-y,1/2+z
1/2+x,1/2-y,1/2-z
-x,1/2+y,-z
-x,-y,-z
1/2+x,y,1/2-z
1/2-x,1/2+y,1/2+z
x,1/2-y,z
loop_
_atom_site_type_symbol
_atom_site_label
_atom_site_fract_x
_atom_site_fract_y
_atom_site_fract_z
Si Si1 0.478537 0.072805 0.253754
Si Si2 0.407714 0.601928 0.993365
Si Si3 0.311396 0.466923 0.901798
Si Si4 0.468272 0.418253 0.763447
Si Si5 0.783399 0.058107 0.305086
Si Si6 0.250940 0.828039 0.901636
Si Si7 0.433919 0.332140 0.499425
O O1 0.525682 0.112746 0.130030
O O2 0.383765 0.058793 0.206235
O O3 0.483545 0.125559 0.381490
O O4 0.522406 0.998387 0.289734
O O5 0.363475 0.528276 0.974232
O O6 0.334754 0.661037 0.994730
O O7 0.454441 0.603840 0.139303
O O8 0.378766 0.411139 0.844270
O O9 0.251205 0.490011 0.775537
O O10 0.256527 0.438457 0.032554
O O11 0.468098 0.362475 0.642024
O O12 0.740888 0.125037 0.234749
O O13 0.245624 0.750000 0.847759
O O14 0.166852 0.847068 0.988648
O O15 0.454310 0.250000 0.488843
#
# Coordination Sequence:
#
# PCOD8251713 Si02
#       7
#     8   8   8   8   8   8   8
#     4  10  19  37  59  84 115 148 186 239 288 342
#     4  10  19  36  59  84 111 143 188 243 285 337
#     4  10  20  33  55  88 116 143 186 232 289 341
#     4  11  20  35  60  87 116 143 192 248 288 332
#     4  10  19  34  58  85 116 146 186 234 285 336
#     4   9  21  39  58  77 111 158 194 223 284 357
#     4  10  23  39  55  81 116 154 192 232 287 353
#
# _framework density 19.086364
#
# number of rings (size 3 to 8) (size 9 to 14) (size 15 to 20)
#    0.000    2.000    2.857    1.286    6.000    1.143 
#    2.571    0.714    0.000    0.000    0.000    0.000 
#    0.000    0.000    0.000    0.000    0.000    0.000 
#
# Total GULP energy -694251.148968 kJ/mol
# GULP energy per Si atom -12397.341946 kJ/mol
# Density = 1.904292 g / cm^3
# Si number density = 19.086364 Si / 1000 Ang^3
#
#
#
# Elastic Constant Matrix: (Units=GPa)
#
#
# Indices 1 2 3 4 5 6 
#
# 1 81.3990 26.8717 43.8399 0.0000 0.0000 0.0000
# 2 26.8717 81.3377 52.2523 0.0000 0.0000 0.0000
# 3 43.8399 52.2523 132.3156 0.0000 0.0000 0.0000
# 4 0.0000 0.0000 0.0000 14.0195 0.0000 0.0000
# 5 0.0000 0.0000 0.0000 0.0000 31.4379 0.0000
# 6 0.0000 0.0000 0.0000 0.0000 0.0000 23.4490
#
#
#
# Elastic Compliance Matrix: (Units=1/GPa)
#
#
# Indices 1 2 3 4 5 6 
#
# 1 0.015298 -0.002409 -0.004117 0.000000 0.000000 0.000000
# 2 -0.002409 0.016853 -0.005857 0.000000 0.000000 0.000000
# 3 -0.004117 -0.005857 0.011235 0.000000 0.000000 0.000000
# 4 0.000000 0.000000 0.000000 0.071329 0.000000 0.000000
# 5 0.000000 0.000000 0.000000 0.000000 0.031809 0.000000
# 6 0.000000 0.000000 0.000000 0.000000 0.000000 0.042646
#
#
# Mechanical properties :
#
#
# Convention : Reuss Voigt Hill
#
# Bulk Modulus (GPa) = 53.70900 60.10890 56.90895
# Shear Modulus (GPa) = 22.71252 25.25384 23.98318
#
# Velocity S-wave (km/s) = 3.45336 3.64144 3.54865
# Velocity P-wave (km/s) = 6.64093 7.01723 6.83168
#
# Compressibility (1/GPa) = 0.01861885
#
# Stress axis : x y z
#
# Youngs Moduli (GPa) = 65.36835 59.33646 89.00824
#
# Poissons Ratio (x) = 0.14294 0.36647
# Poissons Ratio (y) = 0.15747 0.52134
# Poissons Ratio (z) = 0.26914 0.34755
#
# Static dielectric constant tensor:
#      x y z
#    x 3.691000 0.000000 0.000000 
#    y 0.000000 3.319660 0.000000 
#    z 0.000000 0.000000 3.658020 
# 
# 
# High freq. dielectric constant tensor:
#      x y z
#    x 1.747530 0.000000 0.000000 
#    y 0.000000 1.714130 0.000000 
#    z 0.000000 0.000000 1.741640 
# 
# From -- ./inp_files/8026.got.cif
#   From: 2010.03.12/outbox.cif.g09.slc.cpg/sg62_5_cif.got.tgz:8026.got - 2010.04.10 19:12:36.
