data_PCOD8251861
_publ_section_title
;
Structure prediction by ZEFSAII (Michael W. Deem and Ramdas Pophale) SiO2 
 PCOD8251861
Probable space group: P N M A
;
_chemical_formula_sum "Si O2"
_cell_formula_units_Z 64
_cell_length_a 11.507224
_cell_length_b 12.313420
_cell_length_c 22.329192
_cell_angle_alpha 90.000000
_cell_angle_beta 90.000000
_cell_angle_gamma 90.000000
_cell_volume 3163.896502
_symmetry_space_group_name_H-M "P N M A"
_symmetry_group_IT_number 62
_symmetry_cell_setting 'orthorhombic'
loop_
_space_group_symop_operation_xyz
x,y,z
1/2-x,-y,1/2+z
1/2+x,1/2-y,1/2-z
-x,1/2+y,-z
-x,-y,-z
1/2+x,y,1/2-z
1/2-x,1/2+y,1/2+z
x,1/2-y,z
loop_
_atom_site_type_symbol
_atom_site_label
_atom_site_fract_x
_atom_site_fract_y
_atom_site_fract_z
Si Si1 0.986963 0.465644 0.332581
Si Si2 0.872324 0.031078 0.206425
Si Si3 0.461614 0.129192 0.548813
Si Si4 0.187856 0.476347 0.971478
Si Si5 0.385163 0.014467 0.658088
Si Si6 0.668964 0.879193 0.216909
Si Si7 0.708359 0.367591 0.123577
Si Si8 0.292081 0.380221 0.089588
O O1 0.059061 0.579480 0.323580
O O2 0.083703 0.374755 0.343928
O O3 0.906889 0.443730 0.274710
O O4 0.901642 0.455269 0.389768
O O5 0.798850 0.129541 0.178764
O O6 0.984857 0.026001 0.165715
O O7 0.794999 0.921101 0.195197
O O8 0.443496 0.250000 0.527827
O O9 0.404292 0.062719 0.495454
O O10 0.600265 0.109793 0.559106
O O11 0.386994 0.108454 0.608552
O O12 0.273217 0.534886 0.924091
O O13 0.264895 0.415946 0.021649
O O14 0.312845 0.910678 0.634512
O O15 0.336531 0.067068 0.717902
O O16 0.664842 0.750000 0.218681
O O17 0.717238 0.250000 0.091836
O O18 0.315429 0.250000 0.092841
#
# Coordination Sequence:
#
# PCOD8251861 Si02
#       8
#     8   8   8   8   8   8   8   8
#     4  10  23  43  60  93 131 165 219 257 304 390
#     4  10  21  41  60  91 129 160 209 262 309 392
#     4  10  19  35  59  85 119 154 197 261 324 373
#     4  10  22  39  58  91 123 158 221 262 313 386
#     4  10  20  38  59  93 122 156 205 258 308 384
#     4  10  21  39  65  91 126 169 205 256 318 373
#     4  11  23  41  64  89 127 170 211 271 324 371
#     4  11  23  42  66  90 130 172 211 266 321 373
#
# _framework density 20.228221000000001
#
# number of rings (size 3 to 8) (size 9 to 14) (size 15 to 20)
#    0.000    1.750    2.500    1.500    0.000    4.500 
#    0.000    3.750    0.000    0.000    0.000    0.000 
#    0.000    0.000    0.000    0.000    0.000    0.000 
#
# Total GULP energy -792879.425721 kJ/mol
# GULP energy per Si atom -12388.741027 kJ/mol
# Density = 2.018218 g / cm^3
# Si number density = 20.228221 Si / 1000 Ang^3
#
#
#
# Elastic Constant Matrix: (Units=GPa)
#
#
# Indices 1 2 3 4 5 6 
#
# 1 115.4464 32.5232 32.8606 0.0000 0.0000 0.0000
# 2 32.5232 106.2469 37.6539 0.0000 0.0000 0.0000
# 3 32.8606 37.6539 63.9614 0.0000 0.0000 0.0000
# 4 0.0000 0.0000 0.0000 16.8932 0.0000 0.0000
# 5 0.0000 0.0000 0.0000 0.0000 36.4854 0.0000
# 6 0.0000 0.0000 0.0000 0.0000 0.0000 16.3784
#
#
#
# Elastic Compliance Matrix: (Units=1/GPa)
#
#
# Indices 1 2 3 4 5 6 
#
# 1 0.010363 -0.001624 -0.004368 0.000000 0.000000 0.000000
# 2 -0.001624 0.012148 -0.006317 0.000000 0.000000 0.000000
# 3 -0.004368 -0.006317 0.021597 0.000000 0.000000 0.000000
# 4 0.000000 0.000000 0.000000 0.059195 0.000000 0.000000
# 5 0.000000 0.000000 0.000000 0.000000 0.027408 0.000000
# 6 0.000000 0.000000 0.000000 0.000000 0.000000 0.061056
#
#
# Mechanical properties :
#
#
# Convention : Reuss Voigt Hill
#
# Bulk Modulus (GPa) = 51.30848 54.63668 52.97258
# Shear Modulus (GPa) = 22.43336 26.12587 24.27961
#
# Velocity S-wave (km/s) = 3.33380 3.59772 3.46827
# Velocity P-wave (km/s) = 6.34341 6.65784 6.50253
#
# Compressibility (1/GPa) = 0.01948996
#
# Stress axis : x y z
#
# Youngs Moduli (GPa) = 96.49855 82.31815 46.30219
#
# Poissons Ratio (x) = 0.13370 0.20224
# Poissons Ratio (y) = 0.15673 0.29249
# Poissons Ratio (z) = 0.42149 0.52001
#
# Static dielectric constant tensor:
#      x y z
#    x 3.900730 0.000000 0.000000 
#    y 0.000000 3.457970 0.000000 
#    z 0.000000 0.000000 3.713970 
# 
# 
# High freq. dielectric constant tensor:
#      x y z
#    x 1.801570 0.000000 0.000000 
#    y 0.000000 1.769660 0.000000 
#    z 0.000000 0.000000 1.791090 
# 
# From -- ./inp_files/29451.got.cif
#   From: 2010.03.12/outbox.cif.g09.slc.cpg/sg62_15_cif.got.tgz:29451.got - 2010.04.10 19:12:36.
