data_PCOD8251228
_publ_section_title
;
Structure prediction by ZEFSAII (Michael W. Deem and Ramdas Pophale) SiO2 
 PCOD8251228
Probable space group: P N M A
;
_chemical_formula_sum "Si O2"
_cell_formula_units_Z 64
_cell_length_a 27.576278
_cell_length_b 8.886453
_cell_length_c 14.478715
_cell_angle_alpha 90.000000
_cell_angle_beta 90.000000
_cell_angle_gamma 90.000000
_cell_volume 3548.085824
_symmetry_space_group_name_H-M "P N M A"
_symmetry_group_IT_number 62
_symmetry_cell_setting 'orthorhombic'
loop_
_space_group_symop_operation_xyz
x,y,z
1/2-x,-y,1/2+z
1/2+x,1/2-y,1/2-z
-x,1/2+y,-z
-x,-y,-z
1/2+x,y,1/2-z
1/2-x,1/2+y,1/2+z
x,1/2-y,z
loop_
_atom_site_type_symbol
_atom_site_label
_atom_site_fract_x
_atom_site_fract_y
_atom_site_fract_z
Si Si1 0.056815 0.425206 0.900381
Si Si2 0.053901 0.923570 0.089873
Si Si3 0.174032 0.922565 0.414774
Si Si4 0.222578 0.422971 0.107646
Si Si5 0.140444 0.577334 0.219321
Si Si6 0.324647 0.927054 0.103235
Si Si7 0.284150 0.921583 0.397270
Si Si8 0.363850 0.073002 0.277631
O O1 0.068916 0.250000 0.891557
O O2 0.087610 0.514670 0.825760
O O3 0.000701 0.462756 0.880010
O O4 0.070865 0.476732 0.003501
O O5 0.057864 0.750000 0.059534
O O6 0.088098 0.961146 0.176780
O O7 0.173472 0.750000 0.448928
O O8 0.137533 0.950886 0.329545
O O9 0.228100 0.962927 0.379967
O O10 0.158508 0.024931 0.500729
O O11 0.236934 0.250000 0.124277
O O12 0.180748 0.469759 0.177136
O O13 0.270108 0.521518 0.125522
O O14 0.202748 0.447403 0.004315
O O15 0.155106 0.750000 0.198887
O O16 0.327815 0.750000 0.112288
O O17 0.361247 0.000387 0.176349
O O18 0.295193 0.750000 0.367409
O O19 0.316447 0.031876 0.336709
O O20 0.366921 0.250000 0.267368
#
# Coordination Sequence:
#
# PCOD8251228 Si02
#       8
#     8   8   8   8   8   8   8   8
#     4  10  20  35  54  77 107 138 169 209 255 304
#     4   9  19  35  55  80 107 136 170 207 253 307
#     4   9  19  35  52  72 101 134 167 206 251 297
#     4  10  20  33  50  75 107 139 171 207 247 296
#     4  10  19  32  53  78 104 135 170 209 253 302
#     4  11  22  36  53  72  99 135 173 213 254 297
#     4   9  18  32  49  73 105 138 170 205 249 300
#     4  12  23  34  52  76 102 134 174 215 256 306
#
# _framework density 18.037894999999999
#
# number of rings (size 3 to 8) (size 9 to 14) (size 15 to 20)
#    0.000    2.000    0.000    5.250    0.000    7.000 
#    0.000    0.000    0.000    0.750    0.000    0.000 
#    0.000    0.000    0.000    0.000    0.000    0.000 
#
# Total GULP energy -793834.196303 kJ/mol
# GULP energy per Si atom -12403.659317 kJ/mol
# Density = 1.799684 g / cm^3
# Si number density = 18.037895 Si / 1000 Ang^3
#
#
#
# Elastic Constant Matrix: (Units=GPa)
#
#
# Indices 1 2 3 4 5 6 
#
# 1 81.1238 45.3232 67.4099 0.0000 0.0000 0.0000
# 2 45.3232 117.3140 62.6594 0.0000 0.0000 0.0000
# 3 67.4099 62.6594 118.8425 0.0000 0.0000 0.0000
# 4 0.0000 0.0000 0.0000 30.9641 0.0000 0.0000
# 5 0.0000 0.0000 0.0000 0.0000 30.1724 0.0000
# 6 0.0000 0.0000 0.0000 0.0000 0.0000 24.1179
#
#
#
# Elastic Compliance Matrix: (Units=1/GPa)
#
#
# Indices 1 2 3 4 5 6 
#
# 1 0.023951 -0.002780 -0.012120 0.000000 0.000000 0.000000
# 2 -0.002780 0.012188 -0.004849 0.000000 0.000000 0.000000
# 3 -0.012120 -0.004849 0.017846 0.000000 0.000000 0.000000
# 4 0.000000 0.000000 0.000000 0.032295 0.000000 0.000000
# 5 0.000000 0.000000 0.000000 0.000000 0.033143 0.000000
# 6 0.000000 0.000000 0.000000 0.000000 0.000000 0.041463
#
#
# Mechanical properties :
#
#
# Convention : Reuss Voigt Hill
#
# Bulk Modulus (GPa) = 69.02755 74.22948 71.62852
# Shear Modulus (GPa) = 24.36488 26.51007 25.43747
#
# Velocity S-wave (km/s) = 3.67926 3.83781 3.75937
# Velocity P-wave (km/s) = 7.51002 7.80254 7.65768
#
# Compressibility (1/GPa) = 0.01448697
#
# Stress axis : x y z
#
# Youngs Moduli (GPa) = 41.75223 82.04604 56.03513
#
# Poissons Ratio (x) = 0.22807 0.67913
# Poissons Ratio (y) = 0.11606 0.27174
# Poissons Ratio (z) = 0.50603 0.39788
#
# Static dielectric constant tensor:
#      x y z
#    x 3.210990 0.000000 0.000000 
#    y 0.000000 3.341180 0.000000 
#    z 0.000000 0.000000 3.416610 
# 
# 
# High freq. dielectric constant tensor:
#      x y z
#    x 1.675830 0.000000 0.000000 
#    y 0.000000 1.704100 0.000000 
#    z 0.000000 0.000000 1.699840 
# 
# From -- ./inp_files/21239.got.cif
#   From: 2010.03.12/outbox.cif.g09.slc.cpg/sg62_11_cif.got.tgz:21239.got - 2010.04.10 19:12:36.
