data_PCOD8251565
_publ_section_title
;
Structure prediction by ZEFSAII (Michael W. Deem and Ramdas Pophale) SiO2 
 PCOD8251565
Probable space group: P N M A
;
_chemical_formula_sum "Si O2"
_cell_formula_units_Z 48
_cell_length_a 11.871335
_cell_length_b 9.153091
_cell_length_c 25.311089
_cell_angle_alpha 90.000000
_cell_angle_beta 90.000000
_cell_angle_gamma 90.000000
_cell_volume 2750.287986
_symmetry_space_group_name_H-M "P N M A"
_symmetry_group_IT_number 62
_symmetry_cell_setting 'orthorhombic'
loop_
_space_group_symop_operation_xyz
x,y,z
1/2-x,-y,1/2+z
1/2+x,1/2-y,1/2-z
-x,1/2+y,-z
-x,-y,-z
1/2+x,y,1/2-z
1/2-x,1/2+y,1/2+z
x,1/2-y,z
loop_
_atom_site_type_symbol
_atom_site_label
_atom_site_fract_x
_atom_site_fract_y
_atom_site_fract_z
Si Si1 0.381010 0.078486 0.559078
Si Si2 0.336712 0.423023 0.252518
Si Si3 0.995025 0.914216 0.314832
Si Si4 0.637140 0.080478 0.545347
Si Si5 0.755968 0.915417 0.341583
Si Si6 0.761428 0.421050 0.650278
O O1 0.360951 0.250000 0.554645
O O2 0.511964 0.036263 0.564529
O O3 0.316067 0.016596 0.610535
O O4 0.327782 0.006832 0.506915
O O5 0.332135 0.250000 0.252725
O O6 0.460955 0.479232 0.234017
O O7 0.241612 0.487733 0.211918
O O8 0.314610 0.484624 0.310532
O O9 0.011642 0.750000 0.292498
O O10 0.108132 0.967608 0.343570
O O11 0.890032 0.916617 0.356467
O O12 0.641429 0.250000 0.531022
O O13 0.724917 0.038834 0.591031
O O14 0.715336 0.750000 0.329171
O O15 0.741128 0.250000 0.661753
#
# Coordination Sequence:
#
# PCOD8251565 Si02
#       6
#     8   8   8   8   8   8
#     4   9  17  33  54  74 102 132 167 209 248 301
#     4  10  20  32  49  76 105 131 163 209 260 303
#     4   8  17  34  52  69  96 132 170 207 242 298
#     4   9  19  32  50  77 102 131 167 208 254 297
#     4   8  16  33  53  72  95 133 174 203 242 298
#     4  10  19  34  53  73 102 137 172 207 249 306
#
# _framework density 17.452717
#
# number of rings (size 3 to 8) (size 9 to 14) (size 15 to 20)
#    1.000    2.000    0.000    1.000    0.000    3.333 
#    0.000    4.167    0.000    0.000    0.000    0.000 
#    0.000    0.000    0.000    0.000    0.000    0.000 
#
# Total GULP energy -594803.675121 kJ/mol
# GULP energy per Si atom -12391.743232 kJ/mol
# Density = 1.741299 g / cm^3
# Si number density = 17.452717 Si / 1000 Ang^3
#
#
#
# Elastic Constant Matrix: (Units=GPa)
#
#
# Indices 1 2 3 4 5 6 
#
# 1 30.5595 5.4096 -3.5672 0.0000 0.0000 0.0000
# 2 5.4096 59.0452 23.1972 0.0000 0.0000 0.0000
# 3 -3.5672 23.1972 51.3829 0.0000 0.0000 0.0000
# 4 0.0000 0.0000 0.0000 30.9521 0.0000 0.0000
# 5 0.0000 0.0000 0.0000 0.0000 29.9214 0.0000
# 6 0.0000 0.0000 0.0000 0.0000 0.0000 15.1813
#
#
#
# Elastic Compliance Matrix: (Units=1/GPa)
#
#
# Indices 1 2 3 4 5 6 
#
# 1 0.034133 -0.004933 0.004597 0.000000 0.000000 0.000000
# 2 -0.004933 0.021301 -0.009959 0.000000 0.000000 0.000000
# 3 0.004597 -0.009959 0.024277 0.000000 0.000000 0.000000
# 4 0.000000 0.000000 0.000000 0.032308 0.000000 0.000000
# 5 0.000000 0.000000 0.000000 0.000000 0.033421 0.000000
# 6 0.000000 0.000000 0.000000 0.000000 0.000000 0.065870
#
#
# Mechanical properties :
#
#
# Convention : Reuss Voigt Hill
#
# Bulk Modulus (GPa) = 16.91477 21.22964 19.07221
# Shear Modulus (GPa) = 19.87228 22.94082 21.40655
#
# Velocity S-wave (km/s) = 3.37803 3.62948 3.50601
# Velocity P-wave (km/s) = 4.99275 5.45478 5.22887
#
# Compressibility (1/GPa) = 0.05911994
#
# Stress axis : x y z
#
# Youngs Moduli (GPa) = 29.29728 46.94685 41.19158
#
# Poissons Ratio (x) = 0.23160 -0.18935
# Poissons Ratio (y) = 0.14453 0.41022
# Poissons Ratio (z) = -0.13467 0.46753
#
# Static dielectric constant tensor:
#      x y z
#    x 3.215940 0.000000 0.000000 
#    y 0.000000 3.069360 0.000000 
#    z 0.000000 0.000000 3.118090 
# 
# 
# High freq. dielectric constant tensor:
#      x y z
#    x 1.662790 0.000000 0.000000 
#    y 0.000000 1.662250 0.000000 
#    z 0.000000 0.000000 1.659430 
# 
# From -- ./inp_files/30996.got.cif
#   From: 2010.03.12/outbox.cif.g09.slc.cpg/sg62_16_cif.got.tgz:30996.got - 2010.04.10 19:12:36.
