data_PCOD8251190
_publ_section_title
;
Structure prediction by ZEFSAII (Michael W. Deem and Ramdas Pophale) SiO2 
 PCOD8251190
Probable space group: P N M A
;
_chemical_formula_sum "Si O2"
_cell_formula_units_Z 64
_cell_length_a 22.044303
_cell_length_b 9.272059
_cell_length_c 16.979185
_cell_angle_alpha 90.000000
_cell_angle_beta 90.000000
_cell_angle_gamma 90.000000
_cell_volume 3470.478822
_symmetry_space_group_name_H-M "P N M A"
_symmetry_group_IT_number 62
_symmetry_cell_setting 'orthorhombic'
loop_
_space_group_symop_operation_xyz
x,y,z
1/2-x,-y,1/2+z
1/2+x,1/2-y,1/2-z
-x,1/2+y,-z
-x,-y,-z
1/2+x,y,1/2-z
1/2-x,1/2+y,1/2+z
x,1/2-y,z
loop_
_atom_site_type_symbol
_atom_site_label
_atom_site_fract_x
_atom_site_fract_y
_atom_site_fract_z
Si Si1 0.066955 0.583564 0.920121
Si Si2 0.926238 0.917322 0.924539
Si Si3 0.844852 0.416600 0.216845
Si Si4 0.529933 0.582250 0.141395
Si Si5 0.891832 0.580927 0.361309
Si Si6 0.210069 0.415844 0.325687
Si Si7 0.379623 0.081326 0.721135
Si Si8 0.121615 0.083300 0.461995
O O1 0.080679 0.750000 0.941353
O O2 0.102313 0.533723 0.842311
O O3 0.996395 0.558134 0.903687
O O4 0.089785 0.483936 0.991006
O O5 0.908543 0.750000 0.924887
O O6 0.886386 0.000055 0.860903
O O7 0.851645 0.250000 0.238795
O O8 0.849397 0.503872 0.297738
O O9 0.781401 0.447877 0.173185
O O10 0.532215 0.750000 0.120405
O O11 0.461121 0.526512 0.147087
O O12 0.562178 0.548857 0.224365
O O13 0.563875 0.501810 0.070877
O O14 0.887709 0.750000 0.345301
O O15 0.866537 0.539008 0.447618
O O16 0.196250 0.250000 0.302666
O O17 0.180541 0.520635 0.261765
O O18 0.182425 0.450509 0.412035
O O19 0.371288 0.250000 0.705171
O O20 0.103454 0.250000 0.457023
#
# Coordination Sequence:
#
# PCOD8251190 Si02
#       8
#     8   8   8   8   8   8   8   8
#     4   9  19  35  53  76 106 140 176 216 268 320
#     4  10  19  32  53  80 108 136 173 220 266 316
#     4  10  21  37  55  74 102 140 179 219 261 309
#     4   9  18  31  50  78 110 139 167 210 261 310
#     4  10  20  33  51  79 110 135 169 214 262 316
#     4   9  19  37  55  71 100 137 176 217 257 302
#     4  10  19  32  52  77 104 137 175 214 260 312
#     4   9  18  33  53  76 103 138 173 211 257 310
#
# _framework density 18.441258999999999
#
# number of rings (size 3 to 8) (size 9 to 14) (size 15 to 20)
#    0.000    2.500    0.000    1.875    0.000    3.000 
#    2.250    0.000    0.000    0.000    0.000    0.000 
#    0.000    0.000    0.000    0.000    0.000    0.000 
#
# Total GULP energy -793780.495469 kJ/mol
# GULP energy per Si atom -12402.820242 kJ/mol
# Density = 1.839929 g / cm^3
# Si number density = 18.441259 Si / 1000 Ang^3
#
#
#
# Elastic Constant Matrix: (Units=GPa)
#
#
# Indices 1 2 3 4 5 6 
#
# 1 69.8874 25.7807 39.8630 0.0000 0.0000 0.0000
# 2 25.7807 68.4188 52.9593 0.0000 0.0000 0.0000
# 3 39.8630 52.9593 119.3252 0.0000 0.0000 0.0000
# 4 0.0000 0.0000 0.0000 34.5350 0.0000 0.0000
# 5 0.0000 0.0000 0.0000 0.0000 19.1540 0.0000
# 6 0.0000 0.0000 0.0000 0.0000 0.0000 25.3965
#
#
#
# Elastic Compliance Matrix: (Units=1/GPa)
#
#
# Indices 1 2 3 4 5 6 
#
# 1 0.018144 -0.003268 -0.004611 0.000000 0.000000 0.000000
# 2 -0.003268 0.022853 -0.009051 0.000000 0.000000 0.000000
# 3 -0.004611 -0.009051 0.013938 0.000000 0.000000 0.000000
# 4 0.000000 0.000000 0.000000 0.028956 0.000000 0.000000
# 5 0.000000 0.000000 0.000000 0.000000 0.052209 0.000000
# 6 0.000000 0.000000 0.000000 0.000000 0.000000 0.039376
#
#
# Mechanical properties :
#
#
# Convention : Reuss Voigt Hill
#
# Bulk Modulus (GPa) = 47.44843 54.98194 51.21519
# Shear Modulus (GPa) = 23.10955 25.08564 24.09759
#
# Velocity S-wave (km/s) = 3.54382 3.69223 3.61878
# Velocity P-wave (km/s) = 6.52152 6.93225 6.73002
#
# Compressibility (1/GPa) = 0.02107551
#
# Stress axis : x y z
#
# Youngs Moduli (GPa) = 55.11368 43.75774 71.74609
#
# Poissons Ratio (x) = 0.14298 0.33084
# Poissons Ratio (y) = 0.18009 0.64938
# Poissons Ratio (z) = 0.25414 0.39606
#
# Static dielectric constant tensor:
#      x y z
#    x 3.277860 0.000000 0.000000 
#    y 0.000000 3.373720 0.000000 
#    z 0.000000 0.000000 3.399460 
# 
# 
# High freq. dielectric constant tensor:
#      x y z
#    x 1.701650 0.000000 0.000000 
#    y 0.000000 1.714420 0.000000 
#    z 0.000000 0.000000 1.718560 
# 
# From -- ./inp_files/20825.got.cif
#   From: 2010.03.12/outbox.cif.g09.slc.cpg/sg62_11_cif.got.tgz:20825.got - 2010.04.10 19:12:36.
