data_PCOD8251820
_publ_section_title
;
Structure prediction by ZEFSAII (Michael W. Deem and Ramdas Pophale) SiO2 
 PCOD8251820
Probable space group: P N M A
;
_chemical_formula_sum "Si O2"
_cell_formula_units_Z 48
_cell_length_a 29.314329
_cell_length_b 8.829012
_cell_length_c 10.242084
_cell_angle_alpha 90.000000
_cell_angle_beta 90.000000
_cell_angle_gamma 90.000000
_cell_volume 2650.820974
_symmetry_space_group_name_H-M "P N M A"
_symmetry_group_IT_number 62
_symmetry_cell_setting 'orthorhombic'
loop_
_space_group_symop_operation_xyz
x,y,z
1/2-x,-y,1/2+z
1/2+x,1/2-y,1/2-z
-x,1/2+y,-z
-x,-y,-z
1/2+x,y,1/2-z
1/2-x,1/2+y,1/2+z
x,1/2-y,z
loop_
_atom_site_type_symbol
_atom_site_label
_atom_site_fract_x
_atom_site_fract_y
_atom_site_fract_z
Si Si1 0.521578 0.070632 0.873393
Si Si2 0.715239 0.929018 0.497469
Si Si3 0.618986 0.075983 0.472969
Si Si4 0.530068 0.928671 0.386908
Si Si5 0.115115 0.077214 0.725550
Si Si6 0.784556 0.929841 0.270632
O O1 0.523492 0.250000 0.887281
O O2 0.490981 0.023365 0.750970
O O3 0.573036 0.002992 0.853930
O O4 0.500000 0.000000 0.000000
O O5 0.710916 0.750000 0.510245
O O6 0.751757 0.976658 0.387947
O O7 0.667372 0.996647 0.451113
O O8 0.732300 0.996345 0.635214
O O9 0.623124 0.250000 0.429148
O O10 0.603124 0.062688 0.622229
O O11 0.581398 0.992463 0.385802
O O12 0.530838 0.750000 0.407545
O O13 0.500000 0.000000 0.500000
O O14 0.118181 0.250000 0.682298
O O15 0.164716 0.004147 0.696115
O O16 0.786592 0.750000 0.247609
#
# Coordination Sequence:
#
# PCOD8251820 Si02
#       6
#     8   8   8   8   8   8
#     4  10  21  37  54  77 112 146 180 223 270 323
#     4  10  20  35  56  84 114 144 182 230 277 326
#     4  10  19  35  58  82 108 144 185 228 277 328
#     4  11  21  35  57  84 112 142 182 230 273 323
#     4   8  15  33  56  75 102 142 180 217 267 321
#     4   9  19  36  58  80 109 145 181 226 277 329
#
# _framework density 18.107597999999999
#
# number of rings (size 3 to 8) (size 9 to 14) (size 15 to 20)
#    0.000    2.333    1.667    2.500    0.000    2.667 
#    3.000    0.833    0.000    0.000    0.000    0.000 
#    0.000    0.000    0.000    0.000    0.000    0.000 
#
# Total GULP energy -595087.270228 kJ/mol
# GULP energy per Si atom -12397.651463 kJ/mol
# Density = 1.806638 g / cm^3
# Si number density = 18.107598 Si / 1000 Ang^3
#
#
#
# Elastic Constant Matrix: (Units=GPa)
#
#
# Indices 1 2 3 4 5 6 
#
# 1 149.3970 47.3518 94.5795 0.0000 0.0000 0.0000
# 2 47.3518 60.0047 50.6110 0.0000 0.0000 0.0000
# 3 94.5795 50.6110 133.6950 0.0000 0.0000 0.0000
# 4 0.0000 0.0000 0.0000 29.9295 0.0000 0.0000
# 5 0.0000 0.0000 0.0000 0.0000 35.7643 0.0000
# 6 0.0000 0.0000 0.0000 0.0000 0.0000 29.1407
#
#
#
# Elastic Compliance Matrix: (Units=1/GPa)
#
#
# Indices 1 2 3 4 5 6 
#
# 1 0.012622 -0.003569 -0.007579 0.000000 0.000000 0.000000
# 2 -0.003569 0.025491 -0.007125 0.000000 0.000000 0.000000
# 3 -0.007579 -0.007125 0.015538 0.000000 0.000000 0.000000
# 4 0.000000 0.000000 0.000000 0.033412 0.000000 0.000000
# 5 0.000000 0.000000 0.000000 0.000000 0.027961 0.000000
# 6 0.000000 0.000000 0.000000 0.000000 0.000000 0.034316
#
#
# Mechanical properties :
#
#
# Convention : Reuss Voigt Hill
#
# Bulk Modulus (GPa) = 58.45539 80.90901 69.68220
# Shear Modulus (GPa) = 26.09762 29.00388 27.55075
#
# Velocity S-wave (km/s) = 3.80050 4.00653 3.90488
# Velocity P-wave (km/s) = 7.18406 8.13526 7.67441
#
# Compressibility (1/GPa) = 0.01710706
#
# Stress axis : x y z
#
# Youngs Moduli (GPa) = 79.22389 39.22897 64.35720
#
# Poissons Ratio (x) = 0.14000 0.48773
# Poissons Ratio (y) = 0.28273 0.45856
# Poissons Ratio (z) = 0.60040 0.27952
#
# Static dielectric constant tensor:
#      x y z
#    x 3.648870 0.000000 0.000000 
#    y 0.000000 3.247340 0.000000 
#    z 0.000000 0.000000 3.302270 
# 
# 
# High freq. dielectric constant tensor:
#      x y z
#    x 1.718470 0.000000 0.000000 
#    y 0.000000 1.690440 0.000000 
#    z 0.000000 0.000000 1.685360 
# 
# From -- ./inp_files/10271.got.cif
#   From: 2010.03.12/outbox.cif.g09.slc.cpg/sg62_6_cif.got.tgz:10271.got - 2010.04.10 19:12:36.
