data_PCOD8251496
_publ_section_title
;
Structure prediction by ZEFSAII (Michael W. Deem and Ramdas Pophale) SiO2 
 PCOD8251496
Probable space group: P N M A
;
_chemical_formula_sum "Si O2"
_cell_formula_units_Z 56
_cell_length_a 8.610278
_cell_length_b 20.248865
_cell_length_c 14.965919
_cell_angle_alpha 90.000000
_cell_angle_beta 90.000000
_cell_angle_gamma 90.000000
_cell_volume 2609.283386
_symmetry_space_group_name_H-M "P N M A"
_symmetry_group_IT_number 62
_symmetry_cell_setting 'orthorhombic'
loop_
_space_group_symop_operation_xyz
x,y,z
1/2-x,-y,1/2+z
1/2+x,1/2-y,1/2-z
-x,1/2+y,-z
-x,-y,-z
1/2+x,y,1/2-z
1/2-x,1/2+y,1/2+z
x,1/2-y,z
loop_
_atom_site_type_symbol
_atom_site_label
_atom_site_fract_x
_atom_site_fract_y
_atom_site_fract_z
Si Si1 0.305449 0.944309 0.146789
Si Si2 0.745984 0.175913 0.963929
Si Si3 0.833905 0.536668 0.998520
Si Si4 0.425938 0.822421 0.559948
Si Si5 0.597849 0.122217 0.135016
Si Si6 0.112583 0.823148 0.772492
Si Si7 0.360456 0.476367 0.829652
O O1 0.241726 0.871507 0.121821
O O2 0.487398 0.930398 0.165935
O O3 0.214906 0.972308 0.232155
O O4 0.279563 0.994915 0.064727
O O5 0.696524 0.250000 0.935158
O O6 0.910808 0.177042 0.010446
O O7 0.619994 0.146357 0.033651
O O8 0.772119 0.540381 0.099197
O O9 0.000000 0.500000 0.000000
O O10 0.829933 0.613224 0.968214
O O11 0.345376 0.750000 0.540751
O O12 0.459015 0.828624 0.665519
O O13 0.447128 0.160187 0.173246
O O14 0.754436 0.128987 0.193102
O O15 0.561445 0.045761 0.144785
O O16 0.184422 0.750000 0.775055
#
# Coordination Sequence:
#
# PCOD8251496 Si02
#       7
#     8   8   8   8   8   8   8
#     4  12  25  45  66  99 135 170 230 278 333 404
#     4  10  21  41  67  92 130 179 221 273 338 400
#     4  12  21  41  68  99 131 172 217 273 334 394
#     4   9  19  36  61  92 126 170 213 262 332 398
#     4  11  20  38  59  92 126 169 214 265 331 395
#     4  10  19  33  55  87 125 163 206 255 319 397
#     4  12  26  41  69  96 127 175 223 279 336 393
#
# _framework density 21.461832999999999
#
# number of rings (size 3 to 8) (size 9 to 14) (size 15 to 20)
#    0.000    1.143    2.857    6.000    0.000    0.000 
#    0.000    2.143    0.000    0.000    0.000    0.000 
#    0.000    0.000    0.000    0.000    0.000    0.000 
#
# Total GULP energy -694252.525194 kJ/mol
# GULP energy per Si atom -12397.366521 kJ/mol
# Density = 2.141298 g / cm^3
# Si number density = 21.461833 Si / 1000 Ang^3
#
#
#
# Elastic Constant Matrix: (Units=GPa)
#
#
# Indices 1 2 3 4 5 6 
#
# 1 48.1688 0.1187 13.9923 0.0000 0.0000 0.0000
# 2 0.1187 138.8201 32.5608 0.0000 0.0000 0.0000
# 3 13.9923 32.5608 74.0152 0.0000 0.0000 0.0000
# 4 0.0000 0.0000 0.0000 20.2569 0.0000 0.0000
# 5 0.0000 0.0000 0.0000 0.0000 30.9351 0.0000
# 6 0.0000 0.0000 0.0000 0.0000 0.0000 13.3964
#
#
#
# Elastic Compliance Matrix: (Units=1/GPa)
#
#
# Indices 1 2 3 4 5 6 
#
# 1 0.022109 0.001072 -0.004651 0.000000 0.000000 0.000000
# 2 0.001072 0.008084 -0.003759 0.000000 0.000000 0.000000
# 3 -0.004651 -0.003759 0.016044 0.000000 0.000000 0.000000
# 4 0.000000 0.000000 0.000000 0.049366 0.000000 0.000000
# 5 0.000000 0.000000 0.000000 0.000000 0.032326 0.000000
# 6 0.000000 0.000000 0.000000 0.000000 0.000000 0.074647
#
#
# Mechanical properties :
#
#
# Convention : Reuss Voigt Hill
#
# Bulk Modulus (GPa) = 31.68535 39.37196 35.52865
# Shear Modulus (GPa) = 21.95178 27.20652 24.57915
#
# Velocity S-wave (km/s) = 3.20164 3.56430 3.38782
# Velocity P-wave (km/s) = 5.33507 5.94339 5.64743
#
# Compressibility (1/GPa) = 0.03156033
#
# Stress axis : x y z
#
# Youngs Moduli (GPa) = 45.23084 123.69539 62.32952
#
# Poissons Ratio (x) = -0.13261 0.28991
# Poissons Ratio (y) = -0.04849 0.23431
# Poissons Ratio (z) = 0.21038 0.46499
#
# Static dielectric constant tensor:
#      x y z
#    x 3.639010 0.000000 0.000000 
#    y 0.000000 4.141140 0.000000 
#    z 0.000000 0.000000 3.905250 
# 
# 
# High freq. dielectric constant tensor:
#      x y z
#    x 1.836360 0.000000 0.000000 
#    y 0.000000 1.846120 0.000000 
#    z 0.000000 0.000000 1.830160 
# 
# From -- ./inp_files/17188.got.cif
#   From: 2010.03.12/outbox.cif.g09.slc.cpg/sg62_9_cif.got.tgz:17188.got - 2010.04.10 19:12:36.
