data_PCOD8251892
_publ_section_title
;
Structure prediction by ZEFSAII (Michael W. Deem and Ramdas Pophale) SiO2 
 PCOD8251892
Probable space group: P N M A
;
_chemical_formula_sum "Si O2"
_cell_formula_units_Z 48
_cell_length_a 14.362336
_cell_length_b 8.900114
_cell_length_c 19.923755
_cell_angle_alpha 90.000000
_cell_angle_beta 90.000000
_cell_angle_gamma 90.000000
_cell_volume 2546.782428
_symmetry_space_group_name_H-M "P N M A"
_symmetry_group_IT_number 62
_symmetry_cell_setting 'orthorhombic'
loop_
_space_group_symop_operation_xyz
x,y,z
1/2-x,-y,1/2+z
1/2+x,1/2-y,1/2-z
-x,1/2+y,-z
-x,-y,-z
1/2+x,y,1/2-z
1/2-x,1/2+y,1/2+z
x,1/2-y,z
loop_
_atom_site_type_symbol
_atom_site_label
_atom_site_fract_x
_atom_site_fract_y
_atom_site_fract_z
Si Si1 0.680377 0.577536 0.079029
Si Si2 0.204208 0.577350 0.574711
Si Si3 0.998307 0.423882 0.380503
Si Si4 0.506187 0.576637 0.723411
Si Si5 0.826657 0.426739 0.819229
Si Si6 0.215848 0.572679 0.802147
O O1 0.683396 0.750000 0.102582
O O2 0.574136 0.521739 0.080392
O O3 0.745386 0.478236 0.126382
O O4 0.719465 0.559025 0.004308
O O5 0.214920 0.750000 0.597847
O O6 0.282031 0.478206 0.610807
O O7 0.102628 0.518415 0.596563
O O8 0.011752 0.250000 0.399955
O O9 0.011334 0.450146 0.301765
O O10 0.491687 0.750000 0.704412
O O11 0.434027 0.477623 0.681152
O O12 0.608998 0.522214 0.703476
O O13 0.820547 0.250000 0.812715
O O14 0.773441 0.499374 0.757243
O O15 0.226985 0.750000 0.794691
#
# Coordination Sequence:
#
# PCOD8251892 Si02
#       6
#     8   8   8   8   8   8
#     4  11  23  37  58  90 123 154 192 244 296 343
#     4  10  22  41  60  83 121 161 197 236 289 352
#     4  10  19  35  60  86 117 158 196 234 286 351
#     4  10  21  38  62  87 113 153 199 239 284 344
#     4  12  24  37  60  90 119 150 193 247 293 341
#     4  11  22  40  63  84 116 159 199 237 285 351
#
# _framework density 18.84731
#
# number of rings (size 3 to 8) (size 9 to 14) (size 15 to 20)
#    0.000    1.333    3.333    3.000    0.000    3.333 
#    0.000    0.833    0.000    0.000    0.000    0.000 
#    0.000    0.000    0.000    0.000    0.000    0.000 
#
# Total GULP energy -595505.228918 kJ/mol
# GULP energy per Si atom -12406.358936 kJ/mol
# Density = 1.880441 g / cm^3
# Si number density = 18.847310 Si / 1000 Ang^3
#
#
#
# Elastic Constant Matrix: (Units=GPa)
#
#
# Indices 1 2 3 4 5 6 
#
# 1 104.4932 43.2112 18.9970 0.0000 0.0000 0.0000
# 2 43.2112 81.2750 20.7188 0.0000 0.0000 0.0000
# 3 18.9970 20.7188 52.8920 0.0000 0.0000 0.0000
# 4 0.0000 0.0000 0.0000 29.7587 0.0000 0.0000
# 5 0.0000 0.0000 0.0000 0.0000 30.6986 0.0000
# 6 0.0000 0.0000 0.0000 0.0000 0.0000 16.3809
#
#
#
# Elastic Compliance Matrix: (Units=1/GPa)
#
#
# Indices 1 2 3 4 5 6 
#
# 1 0.012472 -0.006098 -0.002091 0.000000 0.000000 0.000000
# 2 -0.006098 0.016650 -0.004332 0.000000 0.000000 0.000000
# 3 -0.002091 -0.004332 0.021354 0.000000 0.000000 0.000000
# 4 0.000000 0.000000 0.000000 0.033604 0.000000 0.000000
# 5 0.000000 0.000000 0.000000 0.000000 0.032575 0.000000
# 6 0.000000 0.000000 0.000000 0.000000 0.000000 0.061047
#
#
# Mechanical properties :
#
#
# Convention : Reuss Voigt Hill
#
# Bulk Modulus (GPa) = 39.31600 44.94602 42.13101
# Shear Modulus (GPa) = 23.67186 25.74985 24.71085
#
# Velocity S-wave (km/s) = 3.54783 3.70027 3.62485
# Velocity P-wave (km/s) = 6.13908 6.49271 6.31837
#
# Compressibility (1/GPa) = 0.02543494
#
# Stress axis : x y z
#
# Youngs Moduli (GPa) = 80.18119 60.05914 46.82887
#
# Poissons Ratio (x) = 0.36623 0.09791
# Poissons Ratio (y) = 0.48893 0.20287
# Poissons Ratio (z) = 0.16764 0.26018
#
# Static dielectric constant tensor:
#      x y z
#    x 3.602930 0.000000 0.000000 
#    y 0.000000 3.459120 0.000000 
#    z 0.000000 0.000000 3.416790 
# 
# 
# High freq. dielectric constant tensor:
#      x y z
#    x 1.737520 0.000000 0.000000 
#    y 0.000000 1.732410 0.000000 
#    z 0.000000 0.000000 1.728250 
# 
# From -- ./inp_files/23681.got.cif
#   From: 2010.03.12/outbox.cif.g09.slc.cpg/sg62_12_cif.got.tgz:23681.got - 2010.04.10 19:12:36.
