data_PCOD8251508
_publ_section_title
;
Structure prediction by ZEFSAII (Michael W. Deem and Ramdas Pophale) SiO2 
 PCOD8251508
Probable space group: P N M A
;
_chemical_formula_sum "Si O2"
_cell_formula_units_Z 64
_cell_length_a 21.574415
_cell_length_b 9.052531
_cell_length_c 16.886982
_cell_angle_alpha 90.000000
_cell_angle_beta 90.000000
_cell_angle_gamma 90.000000
_cell_volume 3298.079269
_symmetry_space_group_name_H-M "P N M A"
_symmetry_group_IT_number 62
_symmetry_cell_setting 'orthorhombic'
loop_
_space_group_symop_operation_xyz
x,y,z
1/2-x,-y,1/2+z
1/2+x,1/2-y,1/2-z
-x,1/2+y,-z
-x,-y,-z
1/2+x,y,1/2-z
1/2-x,1/2+y,1/2+z
x,1/2-y,z
loop_
_atom_site_type_symbol
_atom_site_label
_atom_site_fract_x
_atom_site_fract_y
_atom_site_fract_z
Si Si1 0.186598 0.425132 0.089950
Si Si2 0.609488 0.085015 0.560711
Si Si3 0.896212 0.424290 0.788868
Si Si4 0.878266 0.076560 0.299177
Si Si5 0.323854 0.074845 0.042121
Si Si6 0.838970 0.424002 0.630622
Si Si7 0.022892 0.924955 0.825536
Si Si8 0.788476 0.915661 0.192962
O O1 0.187690 0.250000 0.105446
O O2 0.165299 0.511041 0.168993
O O3 0.254695 0.483062 0.063406
O O4 0.134800 0.466884 0.024254
O O5 0.580793 0.250000 0.555635
O O6 0.668219 0.085928 0.617115
O O7 0.557212 0.973903 0.593728
O O8 0.899518 0.250000 0.803532
O O9 0.892997 0.460640 0.694043
O O10 0.956281 0.501415 0.824220
O O11 0.876676 0.250000 0.289061
O O12 0.875128 0.028335 0.391551
O O13 0.938613 0.017136 0.251934
O O14 0.815242 0.016044 0.262111
O O15 0.319682 0.250000 0.037863
O O16 0.348916 0.009708 0.957960
O O17 0.830231 0.250000 0.621640
O O18 0.775692 0.489268 0.666218
O O19 0.015099 0.750000 0.826076
O O20 0.779499 0.750000 0.226368
#
# Coordination Sequence:
#
# PCOD8251508 Si02
#       8
#     8   8   8   8   8   8   8   8
#     4  10  19  33  56  83 110 136 165 207 262 319
#     4   9  17  31  54  81 104 133 169 207 253 307
#     4  11  23  36  52  75 104 140 179 218 255 299
#     4   9  18  31  52  78 101 131 171 215 255 299
#     4   9  16  31  55  82 108 133 166 206 257 318
#     4   9  17  31  52  77 104 135 170 207 253 310
#     4  10  21  37  53  72 103 141 181 218 256 300
#     4   9  15  28  51  76 103 132 162 200 251 311
#
# _framework density 19.405232999999999
#
# number of rings (size 3 to 8) (size 9 to 14) (size 15 to 20)
#    0.000    2.500    1.250    1.500    0.000    1.500 
#    0.000    1.250    0.000    3.750    0.000    0.000 
#    0.000    0.000    0.000    0.000    0.000    0.000 
#
# Total GULP energy -793171.580181 kJ/mol
# GULP energy per Si atom -12393.305940 kJ/mol
# Density = 1.936107 g / cm^3
# Si number density = 19.405233 Si / 1000 Ang^3
#
#
#
# Elastic Constant Matrix: (Units=GPa)
#
#
# Indices 1 2 3 4 5 6 
#
# 1 40.3282 12.8701 8.2783 0.0000 0.0000 0.0000
# 2 12.8701 34.0785 19.5308 0.0000 0.0000 0.0000
# 3 8.2783 19.5308 104.5863 0.0000 0.0000 0.0000
# 4 0.0000 0.0000 0.0000 21.1444 0.0000 0.0000
# 5 0.0000 0.0000 0.0000 0.0000 16.9474 0.0000
# 6 0.0000 0.0000 0.0000 0.0000 0.0000 16.3038
#
#
#
# Elastic Compliance Matrix: (Units=1/GPa)
#
#
# Indices 1 2 3 4 5 6 
#
# 1 0.028202 -0.010494 -0.000272 0.000000 0.000000 0.000000
# 2 -0.010494 0.036766 -0.006035 0.000000 0.000000 0.000000
# 3 -0.000272 -0.006035 0.010710 0.000000 0.000000 0.000000
# 4 0.000000 0.000000 0.000000 0.047294 0.000000 0.000000
# 5 0.000000 0.000000 0.000000 0.000000 0.059006 0.000000
# 6 0.000000 0.000000 0.000000 0.000000 0.000000 0.061335
#
#
# Mechanical properties :
#
#
# Convention : Reuss Voigt Hill
#
# Bulk Modulus (GPa) = 23.76787 28.92796 26.34791
# Shear Modulus (GPa) = 17.18555 20.10003 18.64279
#
# Velocity S-wave (km/s) = 2.97916 3.22188 3.10289
# Velocity P-wave (km/s) = 4.91005 5.36473 5.14242
#
# Compressibility (1/GPa) = 0.04207361
#
# Stress axis : x y z
#
# Youngs Moduli (GPa) = 35.45898 27.19890 93.37002
#
# Poissons Ratio (x) = 0.28544 0.02544
# Poissons Ratio (y) = 0.37212 0.56351
# Poissons Ratio (z) = 0.00966 0.16415
#
# Static dielectric constant tensor:
#      x y z
#    x 3.428620 0.000000 0.000000 
#    y 0.000000 3.271290 0.000000 
#    z 0.000000 0.000000 3.985670 
# 
# 
# High freq. dielectric constant tensor:
#      x y z
#    x 1.739720 0.000000 0.000000 
#    y 0.000000 1.722140 0.000000 
#    z 0.000000 0.000000 1.767420 
# 
# From -- ./inp_files/20994.got.cif
#   From: 2010.03.12/outbox.cif.g09.slc.cpg/sg62_11_cif.got.tgz:20994.got - 2010.04.10 19:12:36.
