data_PCOD8251736
_publ_section_title
;
Structure prediction by ZEFSAII (Michael W. Deem and Ramdas Pophale) SiO2 
 PCOD8251736
Probable space group: P N M A
;
_chemical_formula_sum "Si O2"
_cell_formula_units_Z 64
_cell_length_a 10.545401
_cell_length_b 9.206951
_cell_length_c 32.398904
_cell_angle_alpha 90.000000
_cell_angle_beta 90.000000
_cell_angle_gamma 90.000000
_cell_volume 3145.641673
_symmetry_space_group_name_H-M "P N M A"
_symmetry_group_IT_number 62
_symmetry_cell_setting 'orthorhombic'
loop_
_space_group_symop_operation_xyz
x,y,z
1/2-x,-y,1/2+z
1/2+x,1/2-y,1/2-z
-x,1/2+y,-z
-x,-y,-z
1/2+x,y,1/2-z
1/2-x,1/2+y,1/2+z
x,1/2-y,z
loop_
_atom_site_type_symbol
_atom_site_label
_atom_site_fract_x
_atom_site_fract_y
_atom_site_fract_z
Si Si1 0.931139 0.918391 0.211138
Si Si2 0.155198 0.914382 0.868270
Si Si3 0.578204 0.088159 0.424299
Si Si4 0.791040 0.080354 0.360590
Si Si5 0.075288 0.414018 0.573858
Si Si6 0.209444 0.579399 0.010541
Si Si7 0.712708 0.583803 0.068358
Si Si8 0.721183 0.917997 0.279047
O O1 0.925332 0.750000 0.198423
O O2 0.071670 0.953750 0.230339
O O3 0.813625 0.957055 0.241015
O O4 0.912403 0.016168 0.171029
O O5 0.197822 0.750000 0.857372
O O6 0.062635 0.915273 0.907429
O O7 0.270469 0.011039 0.886057
O O8 0.616093 0.250000 0.439261
O O9 0.666852 0.039613 0.386511
O O10 0.590081 0.978733 0.462839
O O11 0.813093 0.250000 0.354734
O O12 0.909645 0.013866 0.385565
O O13 0.776087 0.011612 0.316010
O O14 0.108803 0.250000 0.587128
O O15 0.165154 0.463465 0.536338
O O16 0.934196 0.427313 0.556850
O O17 0.194561 0.750000 0.002720
O O18 0.210321 0.500599 0.966768
O O19 0.759362 0.750000 0.070428
O O20 0.735510 0.750000 0.290785
#
# Coordination Sequence:
#
# PCOD8251736 Si02
#       8
#     8   8   8   8   8   8   8   8
#     4  10  22  40  62  88 119 158 200 244 297 358
#     4  11  23  40  60  83 115 152 194 244 294 348
#     4   9  19  36  57  81 112 149 190 237 288 342
#     4  10  19  34  59  88 114 147 192 238 288 343
#     4   9  20  37  57  83 116 155 196 240 290 351
#     4  10  20  35  58  86 113 148 196 246 294 344
#     4  11  23  38  56  81 117 157 195 239 295 352
#     4  10  21  38  61  88 120 157 198 243 294 356
#
# _framework density 20.345611000000002
#
# number of rings (size 3 to 8) (size 9 to 14) (size 15 to 20)
#    0.000    2.000    1.250    1.875    0.000    5.000 
#    0.000    2.500    0.000    0.000    0.000    0.000 
#    0.000    0.000    0.000    0.000    0.000    0.000 
#
# Total GULP energy -793497.143184 kJ/mol
# GULP energy per Si atom -12398.392862 kJ/mol
# Density = 2.029930 g / cm^3
# Si number density = 20.345611 Si / 1000 Ang^3
#
#
#
# Elastic Constant Matrix: (Units=GPa)
#
#
# Indices 1 2 3 4 5 6 
#
# 1 56.9651 28.6508 42.4224 0.0000 0.0000 0.0000
# 2 28.6508 110.4827 61.9304 0.0000 0.0000 0.0000
# 3 42.4224 61.9304 101.4085 0.0000 0.0000 0.0000
# 4 0.0000 0.0000 0.0000 38.6129 0.0000 0.0000
# 5 0.0000 0.0000 0.0000 0.0000 28.9862 0.0000
# 6 0.0000 0.0000 0.0000 0.0000 0.0000 18.6172
#
#
#
# Elastic Compliance Matrix: (Units=1/GPa)
#
#
# Indices 1 2 3 4 5 6 
#
# 1 0.025566 -0.000965 -0.010105 0.000000 0.000000 0.000000
# 2 -0.000965 0.013799 -0.008023 0.000000 0.000000 0.000000
# 3 -0.010105 -0.008023 0.018988 0.000000 0.000000 0.000000
# 4 0.000000 0.000000 0.000000 0.025898 0.000000 0.000000
# 5 0.000000 0.000000 0.000000 0.000000 0.034499 0.000000
# 6 0.000000 0.000000 0.000000 0.000000 0.000000 0.053714
#
#
# Mechanical properties :
#
#
# Convention : Reuss Voigt Hill
#
# Bulk Modulus (GPa) = 49.59070 59.42929 54.50999
# Shear Modulus (GPa) = 23.00188 26.30011 24.65100
#
# Velocity S-wave (km/s) = 3.36602 3.59927 3.48460
# Velocity P-wave (km/s) = 6.28760 6.82248 6.56049
#
# Compressibility (1/GPa) = 0.02016507
#
# Stress axis : x y z
#
# Youngs Moduli (GPa) = 39.11486 72.46983 52.66393
#
# Poissons Ratio (x) = 0.06995 0.53219
# Poissons Ratio (y) = 0.03776 0.42253
# Poissons Ratio (z) = 0.39527 0.58144
#
# Static dielectric constant tensor:
#      x y z
#    x 3.735030 0.000000 0.000000 
#    y 0.000000 3.772420 0.000000 
#    z 0.000000 0.000000 3.520450 
# 
# 
# High freq. dielectric constant tensor:
#      x y z
#    x 1.793960 0.000000 0.000000 
#    y 0.000000 1.799050 0.000000 
#    z 0.000000 0.000000 1.788240 
# 
# From -- ./inp_files/32496.got.cif
#   From: 2010.03.12/outbox.cif.g09.slc.cpg/sg62_17_cif.got.tgz:32496.got - 2010.04.10 19:12:36.
