data_PCOD8251131
_publ_section_title
;
Structure prediction by ZEFSAII (Michael W. Deem and Ramdas Pophale) SiO2 
 PCOD8251131
Probable space group: P N M A
;
_chemical_formula_sum "Si O2"
_cell_formula_units_Z 64
_cell_length_a 33.383263
_cell_length_b 8.858476
_cell_length_c 11.920624
_cell_angle_alpha 90.000000
_cell_angle_beta 90.000000
_cell_angle_gamma 90.000000
_cell_volume 3525.224555
_symmetry_space_group_name_H-M "P N M A"
_symmetry_group_IT_number 62
_symmetry_cell_setting 'orthorhombic'
loop_
_space_group_symop_operation_xyz
x,y,z
1/2-x,-y,1/2+z
1/2+x,1/2-y,1/2-z
-x,1/2+y,-z
-x,-y,-z
1/2+x,y,1/2-z
1/2-x,1/2+y,1/2+z
x,1/2-y,z
loop_
_atom_site_type_symbol
_atom_site_label
_atom_site_fract_x
_atom_site_fract_y
_atom_site_fract_z
Si Si1 0.170619 0.570623 0.455818
Si Si2 0.389502 0.072636 0.768153
Si Si3 0.319714 0.075191 0.352394
Si Si4 0.028746 0.576006 0.350756
Si Si5 0.050513 0.922935 0.608288
Si Si6 0.632849 0.427481 0.834137
Si Si7 0.270382 0.925003 0.796207
Si Si8 0.321432 0.072216 0.607946
O O1 0.172446 0.750000 0.463435
O O2 0.135357 0.510229 0.374367
O O3 0.163006 0.505647 0.578562
O O4 0.212241 0.510525 0.405158
O O5 0.392325 0.250000 0.784835
O O6 0.435414 0.013090 0.770136
O O7 0.365955 0.029720 0.654348
O O8 0.332430 0.250000 0.348313
O O9 0.276990 0.048849 0.294582
O O10 0.318514 0.017926 0.480578
O O11 0.352990 0.976880 0.289236
O O12 0.017931 0.750000 0.326994
O O13 0.044702 0.554618 0.476505
O O14 0.989464 0.477110 0.327164
O O15 0.059149 0.750000 0.639131
O O16 0.087321 0.022462 0.649210
O O17 0.635821 0.250000 0.848276
O O18 0.281464 0.750000 0.806845
O O19 0.287547 0.989077 0.679963
O O20 0.313574 0.250000 0.621160
#
# Coordination Sequence:
#
# PCOD8251131 Si02
#       8
#     8   8   8   8   8   8   8   8
#     4  10  19  35  56  79 109 146 181 219 274 329
#     4   8  14  29  54  79 103 137 177 217 265 318
#     4  10  23  40  56  77 108 146 186 226 276 330
#     4   9  16  29  50  79 111 142 178 219 268 328
#     4  10  19  32  50  76 113 148 178 218 274 335
#     4  12  24  36  54  80 110 146 186 229 278 328
#     4  10  21  36  55  83 111 139 179 230 276 321
#     4   9  19  37  58  78 105 145 187 225 270 328
#
# _framework density 18.154872000000001
#
# number of rings (size 3 to 8) (size 9 to 14) (size 15 to 20)
#    0.000    2.250    1.250    3.000    1.750    2.000 
#    0.000    0.625    0.000    0.750    0.000    0.000 
#    0.000    0.000    0.000    0.000    0.000    0.000 
#
# Total GULP energy -793566.421105 kJ/mol
# GULP energy per Si atom -12399.475330 kJ/mol
# Density = 1.811355 g / cm^3
# Si number density = 18.154872 Si / 1000 Ang^3
#
#
#
# Elastic Constant Matrix: (Units=GPa)
#
#
# Indices 1 2 3 4 5 6 
#
# 1 84.7840 40.7003 37.6370 0.0000 0.0000 0.0000
# 2 40.7003 86.2392 39.2335 0.0000 0.0000 0.0000
# 3 37.6370 39.2335 93.8049 0.0000 0.0000 0.0000
# 4 0.0000 0.0000 0.0000 24.4450 0.0000 0.0000
# 5 0.0000 0.0000 0.0000 0.0000 20.1824 0.0000
# 6 0.0000 0.0000 0.0000 0.0000 0.0000 28.5554
#
#
#
# Elastic Compliance Matrix: (Units=1/GPa)
#
#
# Indices 1 2 3 4 5 6 
#
# 1 0.016458 -0.005882 -0.004143 0.000000 0.000000 0.000000
# 2 -0.005882 0.016423 -0.004509 0.000000 0.000000 0.000000
# 3 -0.004143 -0.004509 0.014208 0.000000 0.000000 0.000000
# 4 0.000000 0.000000 0.000000 0.040908 0.000000 0.000000
# 5 0.000000 0.000000 0.000000 0.000000 0.049548 0.000000
# 6 0.000000 0.000000 0.000000 0.000000 0.000000 0.035020
#
#
# Mechanical properties :
#
#
# Convention : Reuss Voigt Hill
#
# Bulk Modulus (GPa) = 55.49070 55.55221 55.52146
# Shear Modulus (GPa) = 24.08017 24.45373 24.26695
#
# Velocity S-wave (km/s) = 3.64589 3.67407 3.66001
# Velocity P-wave (km/s) = 6.95377 6.97595 6.96487
#
# Compressibility (1/GPa) = 0.01802104
#
# Stress axis : x y z
#
# Youngs Moduli (GPa) = 60.76225 60.89033 70.38076
#
# Poissons Ratio (x) = 0.35818 0.29158
# Poissons Ratio (y) = 0.35742 0.31733
# Poissons Ratio (z) = 0.25174 0.27454
#
# Static dielectric constant tensor:
#      x y z
#    x 3.514130 0.000000 0.000000 
#    y 0.000000 3.274180 0.000000 
#    z 0.000000 0.000000 3.230410 
# 
# 
# High freq. dielectric constant tensor:
#      x y z
#    x 1.708300 0.000000 0.000000 
#    y 0.000000 1.695670 0.000000 
#    z 0.000000 0.000000 1.678930 
# 
# From -- ./inp_files/15901.got.cif
#   From: 2010.03.12/outbox.cif.g09.slc.cpg/sg62_8_cif.got.tgz:15901.got - 2010.04.10 19:12:36.
