data_PCOD8251051
_publ_section_title
;
Structure prediction by ZEFSAII (Michael W. Deem and Ramdas Pophale) SiO2 
 PCOD8251051
Probable space group: P N M A
;
_chemical_formula_sum "Si O2"
_cell_formula_units_Z 64
_cell_length_a 24.277069
_cell_length_b 8.835809
_cell_length_c 15.284491
_cell_angle_alpha 90.000000
_cell_angle_beta 90.000000
_cell_angle_gamma 90.000000
_cell_volume 3278.638637
_symmetry_space_group_name_H-M "P N M A"
_symmetry_group_IT_number 62
_symmetry_cell_setting 'orthorhombic'
loop_
_space_group_symop_operation_xyz
x,y,z
1/2-x,-y,1/2+z
1/2+x,1/2-y,1/2-z
-x,1/2+y,-z
-x,-y,-z
1/2+x,y,1/2-z
1/2-x,1/2+y,1/2+z
x,1/2-y,z
loop_
_atom_site_type_symbol
_atom_site_label
_atom_site_fract_x
_atom_site_fract_y
_atom_site_fract_z
Si Si1 0.572602 0.920290 0.645292
Si Si2 0.038329 0.572019 0.193083
Si Si3 0.078214 0.426817 0.550528
Si Si4 0.960515 0.071592 0.614134
Si Si5 0.194286 0.929838 0.803185
Si Si6 0.195102 0.429024 0.620651
Si Si7 0.274921 0.929469 0.481527
Si Si8 0.615502 0.576176 0.457746
O O1 0.559556 0.750000 0.675200
O O2 0.630320 0.975285 0.686180
O O3 0.575440 0.931040 0.540702
O O4 0.524477 0.026282 0.678526
O O5 0.039484 0.750000 0.183176
O O6 0.057632 0.519303 0.289165
O O7 0.081245 0.504876 0.123007
O O8 0.075711 0.250000 0.534804
O O9 0.082223 0.501563 0.454564
O O10 0.130768 0.470695 0.608715
O O11 0.023074 0.487171 0.598081
O O12 0.958542 0.250000 0.604799
O O13 0.202541 0.750000 0.805398
O O14 0.216002 0.998111 0.711717
O O15 0.228334 0.001297 0.883762
O O16 0.205630 0.250000 0.623118
O O17 0.225978 0.501495 0.538637
O O18 0.268826 0.750000 0.475646
O O19 0.331646 0.971927 0.529167
O O20 0.634807 0.750000 0.441784
#
# Coordination Sequence:
#
# PCOD8251051 Si02
#       8
#     8   8   8   8   8   8   8   8
#     4   9  18  31  51  79 111 145 182 229 281 337
#     4  10  19  31  51  79 110 147 186 228 279 339
#     4   9  19  35  55  79 109 145 182 225 277 328
#     4   9  18  33  52  78 111 144 181 225 274 329
#     4  10  21  39  61  87 116 147 188 239 290 342
#     4  11  22  39  63  88 114 149 192 239 289 343
#     4  11  23  40  60  84 113 151 194 239 292 344
#     4   9  19  36  53  74 110 149 185 233 290 336
#
# _framework density 19.520296999999999
#
# number of rings (size 3 to 8) (size 9 to 14) (size 15 to 20)
#    0.000    2.250    0.000    3.750    0.000    5.500 
#    2.250    2.500    0.000    0.000    0.000    0.000 
#    0.000    0.000    0.000    0.000    0.000    0.000 
#
# Total GULP energy -793620.877339 kJ/mol
# GULP energy per Si atom -12400.326208 kJ/mol
# Density = 1.947587 g / cm^3
# Si number density = 19.520297 Si / 1000 Ang^3
#
#
#
# Elastic Constant Matrix: (Units=GPa)
#
#
# Indices 1 2 3 4 5 6 
#
# 1 43.1944 29.2630 37.4506 0.0000 0.0000 0.0000
# 2 29.2630 72.0621 48.0188 0.0000 0.0000 0.0000
# 3 37.4506 48.0188 140.2766 0.0000 0.0000 0.0000
# 4 0.0000 0.0000 0.0000 32.6941 0.0000 0.0000
# 5 0.0000 0.0000 0.0000 0.0000 26.1360 0.0000
# 6 0.0000 0.0000 0.0000 0.0000 0.0000 29.6452
#
#
#
# Elastic Compliance Matrix: (Units=1/GPa)
#
#
# Indices 1 2 3 4 5 6 
#
# 1 0.035292 -0.010433 -0.005851 0.000000 0.000000 0.000000
# 2 -0.010433 0.021062 -0.004424 0.000000 0.000000 0.000000
# 3 -0.005851 -0.004424 0.010205 0.000000 0.000000 0.000000
# 4 0.000000 0.000000 0.000000 0.030587 0.000000 0.000000
# 5 0.000000 0.000000 0.000000 0.000000 0.038261 0.000000
# 6 0.000000 0.000000 0.000000 0.000000 0.000000 0.033732
#
#
# Mechanical properties :
#
#
# Convention : Reuss Voigt Hill
#
# Bulk Modulus (GPa) = 39.77253 53.88866 46.83059
# Shear Modulus (GPa) = 22.83777 27.08179 24.95978
#
# Velocity S-wave (km/s) = 3.42416 3.72878 3.57971
# Velocity P-wave (km/s) = 6.00436 6.79741 6.41316
#
# Compressibility (1/GPa) = 0.02514298
#
# Stress axis : x y z
#
# Youngs Moduli (GPa) = 28.33526 47.47970 97.98759
#
# Poissons Ratio (x) = 0.49534 0.57331
# Poissons Ratio (y) = 0.29561 0.43354
# Poissons Ratio (z) = 0.16579 0.21007
#
# Static dielectric constant tensor:
#      x y z
#    x 3.436940 0.000000 0.000000 
#    y 0.000000 3.435670 0.000000 
#    z 0.000000 0.000000 3.814850 
# 
# 
# High freq. dielectric constant tensor:
#      x y z
#    x 1.740590 0.000000 0.000000 
#    y 0.000000 1.754210 0.000000 
#    z 0.000000 0.000000 1.773470 
# 
# From -- ./inp_files/20885.got.cif
#   From: 2010.03.12/outbox.cif.g09.slc.cpg/sg62_11_cif.got.tgz:20885.got - 2010.04.10 19:12:36.
