data_PCOD8251566
_publ_section_title
;
Structure prediction by ZEFSAII (Michael W. Deem and Ramdas Pophale) SiO2 
 PCOD8251566
Probable space group: P N M A
;
_chemical_formula_sum "Si O2"
_cell_formula_units_Z 56
_cell_length_a 18.919731
_cell_length_b 8.554659
_cell_length_c 18.624083
_cell_angle_alpha 90.000000
_cell_angle_beta 90.000000
_cell_angle_gamma 90.000000
_cell_volume 3014.342234
_symmetry_space_group_name_H-M "P N M A"
_symmetry_group_IT_number 62
_symmetry_cell_setting 'orthorhombic'
loop_
_space_group_symop_operation_xyz
x,y,z
1/2-x,-y,1/2+z
1/2+x,1/2-y,1/2-z
-x,1/2+y,-z
-x,-y,-z
1/2+x,y,1/2-z
1/2-x,1/2+y,1/2+z
x,1/2-y,z
loop_
_atom_site_type_symbol
_atom_site_label
_atom_site_fract_x
_atom_site_fract_y
_atom_site_fract_z
Si Si1 0.635270 0.935737 0.535977
Si Si2 0.762104 0.422155 0.845789
Si Si3 0.784162 0.579773 0.509040
Si Si4 0.070224 0.063008 0.535328
Si Si5 0.402138 0.931496 0.615622
Si Si6 0.044781 0.433349 0.836828
Si Si7 0.887336 0.564262 0.309721
O O1 0.637562 0.750000 0.521767
O O2 0.716302 0.002167 0.547491
O O3 0.600417 0.017127 0.467176
O O4 0.589438 0.972927 0.604846
O O5 0.783475 0.250000 0.815996
O O6 0.829419 0.536214 0.841456
O O7 0.694615 0.493613 0.802874
O O8 0.737128 0.402347 0.926709
O O9 0.793587 0.750000 0.544668
O O10 0.861397 0.496125 0.510122
O O11 0.071484 0.250000 0.533289
O O12 0.075197 0.001480 0.617510
O O13 0.000000 0.000000 0.500000
O O14 0.420713 0.750000 0.619385
O O15 0.462585 0.029331 0.655311
O O16 0.058720 0.250000 0.846377
O O17 0.068994 0.494863 0.758780
O O18 0.885454 0.750000 0.313315
#
# Coordination Sequence:
#
# PCOD8251566 Si02
#       7
#     8   8   8   8   8   8   8
#     4  10  19  34  53  73  98 134 173 213 256 303
#     4   8  14  31  55  73  89 121 164 204 243 292
#     4   7  13  27  49  70  92 121 155 191 239 295
#     4   9  16  31  53  77  99 127 165 206 248 296
#     4  11  21  33  50  76 104 133 169 211 251 298
#     4  11  21  34  51  74 103 137 171 209 252 303
#     4   8  17  34  55  73  97 133 171 204 249 307
#
# _framework density 18.577850000000002
#
# number of rings (size 3 to 8) (size 9 to 14) (size 15 to 20)
#    0.000    2.857    0.000    5.143    0.000    0.000 
#    0.000   11.429    0.000    5.143    0.000    0.000 
#    0.000    0.000    0.000    0.000    0.000    0.000 
#
# Total GULP energy -693765.484213 kJ/mol
# GULP energy per Si atom -12388.669361 kJ/mol
# Density = 1.853557 g / cm^3
# Si number density = 18.577850 Si / 1000 Ang^3
#
#
#
# Elastic Constant Matrix: (Units=GPa)
#
#
# Indices 1 2 3 4 5 6 
#
# 1 155.4445 11.2787 58.7169 0.0000 0.0000 0.0000
# 2 11.2787 36.0197 8.5302 0.0000 0.0000 0.0000
# 3 58.7169 8.5302 76.7892 0.0000 0.0000 0.0000
# 4 0.0000 0.0000 0.0000 17.7758 0.0000 0.0000
# 5 0.0000 0.0000 0.0000 0.0000 24.4068 0.0000
# 6 0.0000 0.0000 0.0000 0.0000 0.0000 24.4783
#
#
#
# Elastic Compliance Matrix: (Units=1/GPa)
#
#
# Indices 1 2 3 4 5 6 
#
# 1 0.009099 -0.001234 -0.006821 0.000000 0.000000 0.000000
# 2 -0.001234 0.028680 -0.002242 0.000000 0.000000 0.000000
# 3 -0.006821 -0.002242 0.018487 0.000000 0.000000 0.000000
# 4 0.000000 0.000000 0.000000 0.056256 0.000000 0.000000
# 5 0.000000 0.000000 0.000000 0.000000 0.040972 0.000000
# 6 0.000000 0.000000 0.000000 0.000000 0.000000 0.040853
#
#
# Mechanical properties :
#
#
# Convention : Reuss Voigt Hill
#
# Bulk Modulus (GPa) = 28.03284 47.25610 37.64447
# Shear Modulus (GPa) = 22.04277 25.98067 24.01172
#
# Velocity S-wave (km/s) = 3.44831 3.74368 3.59902
# Velocity P-wave (km/s) = 5.56566 6.64672 6.13007
#
# Compressibility (1/GPa) = 0.03567245
#
# Stress axis : x y z
#
# Youngs Moduli (GPa) = 109.90168 34.86745 54.09184
#
# Poissons Ratio (x) = 0.04302 0.36893
# Poissons Ratio (y) = 0.13561 0.12130
# Poissons Ratio (z) = 0.74959 0.07819
#
# Static dielectric constant tensor:
#      x y z
#    x 4.084170 0.000000 0.000000 
#    y 0.000000 3.098280 0.000000 
#    z 0.000000 0.000000 3.291190 
# 
# 
# High freq. dielectric constant tensor:
#      x y z
#    x 1.742800 0.000000 0.000000 
#    y 0.000000 1.691530 0.000000 
#    z 0.000000 0.000000 1.683860 
# 
# From -- ./inp_files/27517.got.cif
#   From: 2010.03.12/outbox.cif.g09.slc.cpg/sg62_14_cif.got.tgz:27517.got - 2010.04.10 19:12:36.
