data_PCOD8251610
_publ_section_title
;
Structure prediction by ZEFSAII (Michael W. Deem and Ramdas Pophale) SiO2 
 PCOD8251610
Probable space group: P N M A
;
_chemical_formula_sum "Si O2"
_cell_formula_units_Z 48
_cell_length_a 19.824592
_cell_length_b 8.857051
_cell_length_c 15.001995
_cell_angle_alpha 90.000000
_cell_angle_beta 90.000000
_cell_angle_gamma 90.000000
_cell_volume 2634.161633
_symmetry_space_group_name_H-M "P N M A"
_symmetry_group_IT_number 62
_symmetry_cell_setting 'orthorhombic'
loop_
_space_group_symop_operation_xyz
x,y,z
1/2-x,-y,1/2+z
1/2+x,1/2-y,1/2-z
-x,1/2+y,-z
-x,-y,-z
1/2+x,y,1/2-z
1/2-x,1/2+y,1/2+z
x,1/2-y,z
loop_
_atom_site_type_symbol
_atom_site_label
_atom_site_fract_x
_atom_site_fract_y
_atom_site_fract_z
Si Si1 0.988758 0.926616 0.233055
Si Si2 0.812924 0.427704 0.383008
Si Si3 0.166593 0.425542 0.797595
Si Si4 0.552456 0.070578 0.432062
Si Si5 0.694966 0.070646 0.507634
Si Si6 0.965438 0.428771 0.415077
O O1 0.005076 0.750000 0.237862
O O2 0.913127 0.957828 0.199575
O O3 0.001282 0.000450 0.329072
O O4 0.040114 0.007634 0.166480
O O5 0.805644 0.250000 0.376743
O O6 0.797888 0.490794 0.284558
O O7 0.758745 0.494602 0.453024
O O8 0.886872 0.475987 0.416207
O O9 0.181220 0.250000 0.785204
O O10 0.197468 0.488555 0.890247
O O11 0.544867 0.250000 0.434094
O O12 0.626845 0.016488 0.459837
O O13 0.500000 0.000000 0.500000
O O14 0.696572 0.250000 0.510199
O O15 0.974887 0.250000 0.414455
O O16 0.000000 0.500000 0.500000
#
# Coordination Sequence:
#
# PCOD8251610 Si02
#       6
#     8   8   8   8   8   8
#     4  10  19  34  55  80 107 139 178 220 264 318
#     4   9  19  36  56  77 104 139 179 219 262 316
#     4   9  17  33  55  75 101 140 176 211 263 316
#     4  11  20  33  54  81 111 142 175 217 268 320
#     4   9  18  35  55  75 107 143 173 216 272 317
#     4  10  20  36  58  82 107 141 181 224 268 316
#
# _framework density 18.222114999999999
#
# number of rings (size 3 to 8) (size 9 to 14) (size 15 to 20)
#    0.000    2.333    1.667    1.500    0.000    1.333 
#    3.000    2.500    0.000    0.000    0.000    0.000 
#    0.000    0.000    0.000    0.000    0.000    0.000 
#
# Total GULP energy -595245.899896 kJ/mol
# GULP energy per Si atom -12400.956248 kJ/mol
# Density = 1.818064 g / cm^3
# Si number density = 18.222115 Si / 1000 Ang^3
#
#
#
# Elastic Constant Matrix: (Units=GPa)
#
#
# Indices 1 2 3 4 5 6 
#
# 1 89.3806 32.0996 85.2573 0.0000 0.0000 0.0000
# 2 32.0996 53.8308 46.3483 0.0000 0.0000 0.0000
# 3 85.2573 46.3483 195.0096 0.0000 0.0000 0.0000
# 4 0.0000 0.0000 0.0000 37.7132 0.0000 0.0000
# 5 0.0000 0.0000 0.0000 0.0000 37.4507 0.0000
# 6 0.0000 0.0000 0.0000 0.0000 0.0000 19.0276
#
#
#
# Elastic Compliance Matrix: (Units=1/GPa)
#
#
# Indices 1 2 3 4 5 6 
#
# 1 0.020477 -0.005661 -0.007607 0.000000 0.000000 0.000000
# 2 -0.005661 0.024921 -0.003448 0.000000 0.000000 0.000000
# 3 -0.007607 -0.003448 0.009273 0.000000 0.000000 0.000000
# 4 0.000000 0.000000 0.000000 0.026516 0.000000 0.000000
# 5 0.000000 0.000000 0.000000 0.000000 0.026702 0.000000
# 6 0.000000 0.000000 0.000000 0.000000 0.000000 0.052555
#
#
# Mechanical properties :
#
#
# Convention : Reuss Voigt Hill
#
# Bulk Modulus (GPa) = 47.08245 73.95904 60.52075
# Shear Modulus (GPa) = 24.88091 30.47267 27.67679
#
# Velocity S-wave (km/s) = 3.69917 4.09380 3.90148
# Velocity P-wave (km/s) = 6.64375 7.93859 7.31986
#
# Compressibility (1/GPa) = 0.02123933
#
# Stress axis : x y z
#
# Youngs Moduli (GPa) = 48.83433 40.12643 107.83675
#
# Poissons Ratio (x) = 0.22716 0.82033
# Poissons Ratio (y) = 0.27645 0.37183
# Poissons Ratio (z) = 0.37149 0.13836
#
# Static dielectric constant tensor:
#      x y z
#    x 3.434420 0.000000 0.000000 
#    y 0.000000 3.250780 0.000000 
#    z 0.000000 0.000000 3.658030 
# 
# 
# High freq. dielectric constant tensor:
#      x y z
#    x 1.689020 0.000000 0.000000 
#    y 0.000000 1.695970 0.000000 
#    z 0.000000 0.000000 1.722100 
# 
# From -- ./inp_files/19565.got.cif
#   From: 2010.03.12/outbox.cif.g09.slc.cpg/sg62_10_cif.got.tgz:19565.got - 2010.04.10 19:12:36.
