data_PCOD8251477
_publ_section_title
;
Structure prediction by ZEFSAII (Michael W. Deem and Ramdas Pophale) SiO2 
 PCOD8251477
Probable space group: P N M A
;
_chemical_formula_sum "Si O2"
_cell_formula_units_Z 64
_cell_length_a 12.637542
_cell_length_b 21.167888
_cell_length_c 13.067575
_cell_angle_alpha 90.000000
_cell_angle_beta 90.000000
_cell_angle_gamma 90.000000
_cell_volume 3495.707951
_symmetry_space_group_name_H-M "P N M A"
_symmetry_group_IT_number 62
_symmetry_cell_setting 'orthorhombic'
loop_
_space_group_symop_operation_xyz
x,y,z
1/2-x,-y,1/2+z
1/2+x,1/2-y,1/2-z
-x,1/2+y,-z
-x,-y,-z
1/2+x,y,1/2-z
1/2-x,1/2+y,1/2+z
x,1/2-y,z
loop_
_atom_site_type_symbol
_atom_site_label
_atom_site_fract_x
_atom_site_fract_y
_atom_site_fract_z
Si Si1 0.005152 0.564285 0.063705
Si Si2 0.989778 0.322508 0.084969
Si Si3 0.746958 0.677982 0.578925
Si Si4 0.167653 0.467517 0.775990
Si Si5 0.949232 0.822906 0.692351
Si Si6 0.065625 0.560697 0.625239
Si Si7 0.151575 0.501233 0.432105
Si Si8 0.758703 0.091279 0.912345
O O1 0.121529 0.571158 0.110603
O O2 0.926693 0.560494 0.158114
O O3 0.971961 0.625921 0.997488
O O4 0.000000 0.500000 0.000000
O O5 0.995498 0.250000 0.041794
O O6 0.869721 0.339611 0.119833
O O7 0.061676 0.329549 0.185278
O O8 0.771739 0.750000 0.591687
O O9 0.840483 0.647274 0.647018
O O10 0.750288 0.662031 0.457138
O O11 0.135569 0.532482 0.718784
O O12 0.272870 0.473931 0.842858
O O13 0.189345 0.415314 0.688602
O O14 0.973303 0.750000 0.662313
O O15 0.044659 0.865611 0.648047
O O16 0.126472 0.555673 0.516556
O O17 0.956717 0.521323 0.619967
O O18 0.214391 0.446836 0.490449
#
# Coordination Sequence:
#
# PCOD8251477 Si02
#       8
#     8   8   8   8   8   8   8   8
#     4  11  20  35  56  83 107 140 185 222 270 324
#     4   9  20  36  54  80 113 144 178 225 273 326
#     4   9  18  35  57  76 105 143 182 219 262 324
#     4  11  22  35  54  81 108 144 177 226 272 327
#     4  10  19  33  55  82 107 141 180 217 273 333
#     4  10  21  34  56  79 112 144 177 226 274 333
#     4  10  20  37  52  79 110 139 178 219 282 316
#     4  10  20  36  54  77 107 137 181 222 266 320
#
# _framework density 18.308164999999999
#
# number of rings (size 3 to 8) (size 9 to 14) (size 15 to 20)
#    0.000    2.000    2.500    1.500    1.750    0.000 
#    2.250    0.625    0.000    0.750    0.000    0.000 
#    0.000    0.000    0.000    0.000    0.000    0.000 
#
# Total GULP energy -793230.119679 kJ/mol
# GULP energy per Si atom -12394.220620 kJ/mol
# Density = 1.826649 g / cm^3
# Si number density = 18.308165 Si / 1000 Ang^3
#
#
#
# Elastic Constant Matrix: (Units=GPa)
#
#
# Indices 1 2 3 4 5 6 
#
# 1 89.4751 19.0965 55.1900 0.0000 0.0000 0.0000
# 2 19.0965 44.9095 40.4780 0.0000 0.0000 0.0000
# 3 55.1900 40.4780 113.1258 0.0000 0.0000 0.0000
# 4 0.0000 0.0000 0.0000 23.7270 0.0000 0.0000
# 5 0.0000 0.0000 0.0000 0.0000 41.7679 0.0000
# 6 0.0000 0.0000 0.0000 0.0000 0.0000 20.4067
#
#
#
# Elastic Compliance Matrix: (Units=1/GPa)
#
#
# Indices 1 2 3 4 5 6 
#
# 1 0.015991 0.000342 -0.007924 0.000000 0.000000 0.000000
# 2 0.000342 0.032874 -0.011930 0.000000 0.000000 0.000000
# 3 -0.007924 -0.011930 0.016974 0.000000 0.000000 0.000000
# 4 0.000000 0.000000 0.000000 0.042146 0.000000 0.000000
# 5 0.000000 0.000000 0.000000 0.000000 0.023942 0.000000
# 6 0.000000 0.000000 0.000000 0.000000 0.000000 0.049004
#
#
# Mechanical properties :
#
#
# Convention : Reuss Voigt Hill
#
# Bulk Modulus (GPa) = 37.29072 53.00437 45.14755
# Shear Modulus (GPa) = 21.84439 26.03005 23.93722
#
# Velocity S-wave (km/s) = 3.45795 3.77473 3.61981
# Velocity P-wave (km/s) = 6.02958 6.92908 6.49492
#
# Compressibility (1/GPa) = 0.02681632
#
# Stress axis : x y z
#
# Youngs Moduli (GPa) = 62.53594 30.41913 58.91329
#
# Poissons Ratio (x) = -0.01041 0.46682
# Poissons Ratio (y) = -0.02140 0.70282
# Poissons Ratio (z) = 0.49552 0.36289
#
# Static dielectric constant tensor:
#      x y z
#    x 3.552660 0.000000 0.000000 
#    y 0.000000 3.367870 0.000000 
#    z 0.000000 0.000000 3.383270 
# 
# 
# High freq. dielectric constant tensor:
#      x y z
#    x 1.715870 0.000000 0.000000 
#    y 0.000000 1.696240 0.000000 
#    z 0.000000 0.000000 1.705480 
# 
# From -- ./inp_files/12551.got.cif
#   From: 2010.03.12/outbox.cif.g09.slc.cpg/sg62_7_cif.got.tgz:12551.got - 2010.04.10 19:12:36.
