data_PCOD8251882
_publ_section_title
;
Structure prediction by ZEFSAII (Michael W. Deem and Ramdas Pophale) SiO2 
 PCOD8251882
Probable space group: P N M A
;
_chemical_formula_sum "Si O2"
_cell_formula_units_Z 40
_cell_length_a 19.113625
_cell_length_b 13.248293
_cell_length_c 8.610282
_cell_angle_alpha 90.000000
_cell_angle_beta 90.000000
_cell_angle_gamma 90.000000
_cell_volume 2180.320615
_symmetry_space_group_name_H-M "P N M A"
_symmetry_group_IT_number 62
_symmetry_cell_setting 'orthorhombic'
loop_
_space_group_symop_operation_xyz
x,y,z
1/2-x,-y,1/2+z
1/2+x,1/2-y,1/2-z
-x,1/2+y,-z
-x,-y,-z
1/2+x,y,1/2-z
1/2-x,1/2+y,1/2+z
x,1/2-y,z
loop_
_atom_site_type_symbol
_atom_site_label
_atom_site_fract_x
_atom_site_fract_y
_atom_site_fract_z
Si Si1 0.708343 0.131696 0.642838
Si Si2 0.044683 0.509176 0.152688
Si Si3 0.068172 0.134632 0.690391
Si Si4 0.698584 0.498898 0.345918
Si Si5 0.616275 0.368132 0.141475
O O1 0.728382 0.250000 0.621865
O O2 0.625289 0.120939 0.673048
O O3 0.727702 0.067093 0.490227
O O4 0.748459 0.086850 0.793492
O O5 0.004777 0.582869 0.269587
O O6 0.123003 0.550553 0.113679
O O7 0.053556 0.400957 0.240228
O O8 0.000000 0.500000 0.000000
O O9 0.049333 0.250000 0.662740
O O10 0.099291 0.091038 0.530154
O O11 0.687684 0.421949 0.200298
O O12 0.627914 0.250000 0.148197
#
# Coordination Sequence:
#
# PCOD8251882 Si02
#       5
#     8   8   8   8   8
#     4  11  22  39  61  87 119 160 198 243 306 361
#     4  10  20  35  58  86 113 151 197 247 293 347
#     4  10  19  35  60  83 115 152 191 239 302 362
#     4  10  22  36  61  84 120 157 200 251 292 360
#     4   9  19  35  58  84 111 153 195 237 297 359
#
# _framework density 18.345925000000001
#
# number of rings (size 3 to 8) (size 9 to 14) (size 15 to 20)
#    1.200    0.800    2.000    2.400    0.000    1.600 
#    0.000    1.000    0.000    1.200    0.000    0.000 
#    0.000    0.000    0.000    0.000    0.000    0.000 
#
# Total GULP energy -495597.280410 kJ/mol
# GULP energy per Si atom -12389.932010 kJ/mol
# Density = 1.830417 g / cm^3
# Si number density = 18.345925 Si / 1000 Ang^3
#
#
#
# Elastic Constant Matrix: (Units=GPa)
#
#
# Indices 1 2 3 4 5 6 
#
# 1 68.6352 34.2637 6.7046 0.0000 0.0000 0.0000
# 2 34.2637 71.7466 29.8829 0.0000 0.0000 0.0000
# 3 6.7046 29.8829 80.4072 0.0000 0.0000 0.0000
# 4 0.0000 0.0000 0.0000 32.0907 0.0000 0.0000
# 5 0.0000 0.0000 0.0000 0.0000 35.6897 0.0000
# 6 0.0000 0.0000 0.0000 0.0000 0.0000 27.3254
#
#
#
# Elastic Compliance Matrix: (Units=1/GPa)
#
#
# Indices 1 2 3 4 5 6 
#
# 1 0.019444 -0.010187 0.002165 0.000000 0.000000 0.000000
# 2 -0.010187 0.021828 -0.007263 0.000000 0.000000 0.000000
# 3 0.002165 -0.007263 0.014955 0.000000 0.000000 0.000000
# 4 0.000000 0.000000 0.000000 0.031162 0.000000 0.000000
# 5 0.000000 0.000000 0.000000 0.000000 0.028019 0.000000
# 6 0.000000 0.000000 0.000000 0.000000 0.000000 0.036596
#
#
# Mechanical properties :
#
#
# Convention : Reuss Voigt Hill
#
# Bulk Modulus (GPa) = 38.97636 40.27682 39.62659
# Shear Modulus (GPa) = 26.16051 29.01700 27.58876
#
# Velocity S-wave (km/s) = 3.78028 3.98132 3.88210
# Velocity P-wave (km/s) = 6.35180 6.56783 6.46072
#
# Compressibility (1/GPa) = 0.02565658
#
# Stress axis : x y z
#
# Youngs Moduli (GPa) = 51.42962 45.81239 66.86555
#
# Poissons Ratio (x) = 0.46671 -0.14475
# Poissons Ratio (y) = 0.52394 0.48563
# Poissons Ratio (z) = -0.11134 0.33273
#
# Static dielectric constant tensor:
#      x y z
#    x 3.263190 0.000000 0.000000 
#    y 0.000000 3.180930 0.000000 
#    z 0.000000 0.000000 3.451720 
# 
# 
# High freq. dielectric constant tensor:
#      x y z
#    x 1.696410 0.000000 0.000000 
#    y 0.000000 1.693760 0.000000 
#    z 0.000000 0.000000 1.724870 
# 
# From -- ./inp_files/7442.got.cif
#   From: 2010.03.12/outbox.cif.g09.slc.cpg/sg62_4_cif.got.tgz:7442.got - 2010.04.10 19:12:36.
