data_PCOD8251810
_publ_section_title
;
Structure prediction by ZEFSAII (Michael W. Deem and Ramdas Pophale) SiO2 
 PCOD8251810
Probable space group: P N M A
;
_chemical_formula_sum "Si O2"
_cell_formula_units_Z 56
_cell_length_a 16.840279
_cell_length_b 26.917229
_cell_length_c 6.326029
_cell_angle_alpha 90.000000
_cell_angle_beta 90.000000
_cell_angle_gamma 90.000000
_cell_volume 2867.548752
_symmetry_space_group_name_H-M "P N M A"
_symmetry_group_IT_number 62
_symmetry_cell_setting 'orthorhombic'
loop_
_space_group_symop_operation_xyz
x,y,z
1/2-x,-y,1/2+z
1/2+x,1/2-y,1/2-z
-x,1/2+y,-z
-x,-y,-z
1/2+x,y,1/2-z
1/2-x,1/2+y,1/2+z
x,1/2-y,z
loop_
_atom_site_type_symbol
_atom_site_label
_atom_site_fract_x
_atom_site_fract_y
_atom_site_fract_z
Si Si1 0.657854 0.370570 0.095142
Si Si2 0.931247 0.554856 0.315285
Si Si3 0.972980 0.618462 0.920099
Si Si4 0.103328 0.806241 0.934713
Si Si5 0.254943 0.693533 0.222888
Si Si6 0.575562 0.554794 0.890919
Si Si7 0.300378 0.365867 0.114765
O O1 0.591642 0.355248 0.267644
O O2 0.740100 0.384497 0.206425
O O3 0.628214 0.419533 0.978114
O O4 0.674366 0.325816 0.929943
O O5 0.899397 0.498637 0.294970
O O6 0.021284 0.551372 0.400713
O O7 0.929323 0.585990 0.098875
O O8 0.027037 0.662615 0.015721
O O9 0.030397 0.581805 0.796786
O O10 0.075865 0.750000 0.896549
O O11 0.136964 0.826563 0.711802
O O12 0.169648 0.809509 0.113687
O O13 0.276048 0.750000 0.285389
O O14 0.250545 0.659620 0.430281
O O15 0.653338 0.585234 0.963936
#
# Coordination Sequence:
#
# PCOD8251810 Si02
#       7
#     8   8   8   8   8   8   8
#     4  10  22  36  50  81 116 145 185 225 275 342
#     4  10  19  37  55  81 111 147 187 235 282 335
#     4  10  19  35  58  79 114 150 181 236 284 334
#     4   9  19  34  56  84 105 135 189 234 275 332
#     4  10  20  36  58  79 109 150 187 231 285 338
#     4   9  20  35  59  83 105 145 195 232 283 336
#     4  10  19  37  56  80 109 147 181 233 281 329
#
# _framework density 19.528874999999999
#
# number of rings (size 3 to 8) (size 9 to 14) (size 15 to 20)
#    0.000    2.286    0.000    2.571    0.000    1.143 
#    5.143    2.143    0.000    0.000    0.000    0.000 
#    0.000    0.000    0.000    0.000    0.000    0.000 
#
# Total GULP energy -694407.482458 kJ/mol
# GULP energy per Si atom -12400.133615 kJ/mol
# Density = 1.948443 g / cm^3
# Si number density = 19.528875 Si / 1000 Ang^3
#
#
#
# Elastic Constant Matrix: (Units=GPa)
#
#
# Indices 1 2 3 4 5 6 
#
# 1 69.9616 59.9941 25.6084 0.0000 0.0000 0.0000
# 2 59.9941 135.3684 40.8603 0.0000 0.0000 0.0000
# 3 25.6084 40.8603 85.3431 0.0000 0.0000 0.0000
# 4 0.0000 0.0000 0.0000 24.2870 0.0000 0.0000
# 5 0.0000 0.0000 0.0000 0.0000 23.4066 0.0000
# 6 0.0000 0.0000 0.0000 0.0000 0.0000 25.9225
#
#
#
# Elastic Compliance Matrix: (Units=1/GPa)
#
#
# Indices 1 2 3 4 5 6 
#
# 1 0.023473 -0.009675 -0.002411 0.000000 0.000000 0.000000
# 2 -0.009675 0.012623 -0.003140 0.000000 0.000000 0.000000
# 3 -0.002411 -0.003140 0.013944 0.000000 0.000000 0.000000
# 4 0.000000 0.000000 0.000000 0.041174 0.000000 0.000000
# 5 0.000000 0.000000 0.000000 0.000000 0.042723 0.000000
# 6 0.000000 0.000000 0.000000 0.000000 0.000000 0.038576
#
#
# Mechanical properties :
#
#
# Convention : Reuss Voigt Hill
#
# Bulk Modulus (GPa) = 51.05449 60.39986 55.72717
# Shear Modulus (GPa) = 23.86673 25.67059 24.76866
#
# Velocity S-wave (km/s) = 3.49968 3.62953 3.56520
# Velocity P-wave (km/s) = 6.52152 6.96852 6.74872
#
# Compressibility (1/GPa) = 0.01958692
#
# Stress axis : x y z
#
# Youngs Moduli (GPa) = 42.60244 79.21955 71.71291
#
# Poissons Ratio (x) = 0.76646 0.17291
# Poissons Ratio (y) = 0.41219 0.22521
# Poissons Ratio (z) = 0.10272 0.24879
#
# Static dielectric constant tensor:
#      x y z
#    x 3.541710 0.000000 0.000000 
#    y 0.000000 3.633560 0.000000 
#    z 0.000000 0.000000 3.489440 
# 
# 
# High freq. dielectric constant tensor:
#      x y z
#    x 1.753980 0.000000 0.000000 
#    y 0.000000 1.760130 0.000000 
#    z 0.000000 0.000000 1.756540 
# 
# From -- ./inp_files/1278.got.cif
#   From: 2010.03.12/outbox.cif.g09.slc.cpg/sg62_1_cif.got.tgz:1278.got - 2010.04.10 19:12:36.
