data_PCOD8251379
_publ_section_title
;
Structure prediction by ZEFSAII (Michael W. Deem and Ramdas Pophale) SiO2 
 PCOD8251379
Probable space group: P N M A
;
_chemical_formula_sum "Si O2"
_cell_formula_units_Z 48
_cell_length_a 16.717800
_cell_length_b 8.594927
_cell_length_c 18.481619
_cell_angle_alpha 90.000000
_cell_angle_beta 90.000000
_cell_angle_gamma 90.000000
_cell_volume 2655.591872
_symmetry_space_group_name_H-M "P N M A"
_symmetry_group_IT_number 62
_symmetry_cell_setting 'orthorhombic'
loop_
_space_group_symop_operation_xyz
x,y,z
1/2-x,-y,1/2+z
1/2+x,1/2-y,1/2-z
-x,1/2+y,-z
-x,-y,-z
1/2+x,y,1/2-z
1/2-x,1/2+y,1/2+z
x,1/2-y,z
loop_
_atom_site_type_symbol
_atom_site_label
_atom_site_fract_x
_atom_site_fract_y
_atom_site_fract_z
Si Si1 0.433294 0.069828 0.791301
Si Si2 0.994245 0.066305 0.420301
Si Si3 0.164927 0.929514 0.158120
Si Si4 0.483418 0.567225 0.577731
Si Si5 0.422558 0.070333 0.288307
Si Si6 0.343870 0.567893 0.161968
O O1 0.461722 0.250000 0.787898
O O2 0.352326 0.047223 0.744673
O O3 0.432006 0.013065 0.874883
O O4 0.496741 0.952662 0.756682
O O5 0.005694 0.250000 0.421543
O O6 0.907636 0.024288 0.386548
O O7 0.000000 0.000000 0.500000
O O8 0.155737 0.750000 0.137883
O O9 0.254535 0.987557 0.141090
O O10 0.103157 0.018881 0.107301
O O11 0.500000 0.500000 0.500000
O O12 0.483900 0.750000 0.573147
O O13 0.556304 0.511865 0.630421
O O14 0.396837 0.250000 0.287357
O O15 0.354615 0.969378 0.247964
O O16 0.354957 0.750000 0.148534
#
# Coordination Sequence:
#
# PCOD8251379 Si02
#       6
#     8   8   8   8   8   8
#     4   9  16  30  51  73  96 127 163 201 243 293
#     4  11  21  34  52  75 102 135 171 209 251 301
#     4   9  19  34  53  76 103 131 165 208 254 302
#     4  10  20  33  52  75 102 136 173 210 253 301
#     4   9  17  30  48  72  97 126 164 203 241 291
#     4  10  19  33  53  77 102 131 165 207 255 302
#
# _framework density 18.075066
#
# number of rings (size 3 to 8) (size 9 to 14) (size 15 to 20)
#    0.000    2.333    0.000    5.500    0.000    4.000 
#    0.000    1.667    0.000    4.000    0.000    0.000 
#    0.000    0.000    0.000    0.000    0.000    0.000 
#
# Total GULP energy -594682.650027 kJ/mol
# GULP energy per Si atom -12389.221876 kJ/mol
# Density = 1.803393 g / cm^3
# Si number density = 18.075066 Si / 1000 Ang^3
#
#
#
# Elastic Constant Matrix: (Units=GPa)
#
#
# Indices 1 2 3 4 5 6 
#
# 1 80.7623 28.9703 44.2062 0.0000 0.0000 0.0000
# 2 28.9703 60.6975 36.3513 0.0000 0.0000 0.0000
# 3 44.2062 36.3513 143.2848 0.0000 0.0000 0.0000
# 4 0.0000 0.0000 0.0000 33.0505 0.0000 0.0000
# 5 0.0000 0.0000 0.0000 0.0000 19.6975 0.0000
# 6 0.0000 0.0000 0.0000 0.0000 0.0000 23.1726
#
#
#
# Elastic Compliance Matrix: (Units=1/GPa)
#
#
# Indices 1 2 3 4 5 6 
#
# 1 0.016394 -0.005655 -0.003623 0.000000 0.000000 0.000000
# 2 -0.005655 0.021377 -0.003679 0.000000 0.000000 0.000000
# 3 -0.003623 -0.003679 0.009030 0.000000 0.000000 0.000000
# 4 0.000000 0.000000 0.000000 0.030257 0.000000 0.000000
# 5 0.000000 0.000000 0.000000 0.000000 0.050768 0.000000
# 6 0.000000 0.000000 0.000000 0.000000 0.000000 0.043154
#
#
# Mechanical properties :
#
#
# Convention : Reuss Voigt Hill
#
# Bulk Modulus (GPa) = 47.87473 55.97781 51.92627
# Shear Modulus (GPa) = 24.52713 26.86524 25.69619
#
# Velocity S-wave (km/s) = 3.68769 3.85946 3.77455
# Velocity P-wave (km/s) = 6.68402 7.13424 6.91280
#
# Compressibility (1/GPa) = 0.02088785
#
# Stress axis : x y z
#
# Youngs Moduli (GPa) = 60.99951 46.77870 110.73883
#
# Poissons Ratio (x) = 0.26451 0.40123
# Poissons Ratio (y) = 0.34493 0.40739
# Poissons Ratio (z) = 0.22101 0.17209
#
# Static dielectric constant tensor:
#      x y z
#    x 3.325490 0.000000 0.000000 
#    y 0.000000 3.375210 0.000000 
#    z 0.000000 0.000000 3.642930 
# 
# 
# High freq. dielectric constant tensor:
#      x y z
#    x 1.672510 0.000000 0.000000 
#    y 0.000000 1.710970 0.000000 
#    z 0.000000 0.000000 1.699080 
# 
# From -- ./inp_files/24216.got.cif
#   From: 2010.03.12/outbox.cif.g09.slc.cpg/sg62_13_cif.got.tgz:24216.got - 2010.04.10 19:12:36.
