data_PCOD8251458
_publ_section_title
;
Structure prediction by ZEFSAII (Michael W. Deem and Ramdas Pophale) SiO2 
 PCOD8251458
Probable space group: P N M A
;
_chemical_formula_sum "Si O2"
_cell_formula_units_Z 48
_cell_length_a 9.529727
_cell_length_b 8.999837
_cell_length_c 30.075558
_cell_angle_alpha 90.000000
_cell_angle_beta 90.000000
_cell_angle_gamma 90.000000
_cell_volume 2579.459996
_symmetry_space_group_name_H-M "P N M A"
_symmetry_group_IT_number 62
_symmetry_cell_setting 'orthorhombic'
loop_
_space_group_symop_operation_xyz
x,y,z
1/2-x,-y,1/2+z
1/2+x,1/2-y,1/2-z
-x,1/2+y,-z
-x,-y,-z
1/2+x,y,1/2-z
1/2-x,1/2+y,1/2+z
x,1/2-y,z
loop_
_atom_site_type_symbol
_atom_site_label
_atom_site_fract_x
_atom_site_fract_y
_atom_site_fract_z
Si Si1 0.404034 0.578806 0.134668
Si Si2 0.896463 0.577216 0.966583
Si Si3 0.389305 0.577220 0.634457
Si Si4 0.093368 0.925946 0.788827
Si Si5 0.411744 0.927035 0.794350
Si Si6 0.394318 0.578531 0.032434
O O1 0.400818 0.750000 0.149017
O O2 0.252022 0.511167 0.145529
O O3 0.525848 0.493486 0.160631
O O4 0.443772 0.559963 0.083115
O O5 0.888264 0.750000 0.977675
O O6 0.942772 0.548916 0.915628
O O7 0.748990 0.504541 0.975681
O O8 0.000000 0.500000 0.000000
O O9 0.354606 0.750000 0.642720
O O10 0.513235 0.520598 0.666675
O O11 0.098246 0.750000 0.787182
O O12 0.252534 0.987453 0.788216
O O13 0.006825 0.985505 0.746434
O O14 0.413159 0.750000 0.797718
O O15 0.377153 0.750000 0.019374
O O16 0.500000 0.500000 0.000000
#
# Coordination Sequence:
#
# PCOD8251458 Si02
#       6
#     8   8   8   8   8   8
#     4  10  21  36  53  77 108 139 172 214 265 317
#     4  10  20  34  54  80 111 146 181 220 267 319
#     4   9  18  35  57  79 104 138 179 218 259 311
#     4   9  18  33  55  81 104 132 177 223 259 302
#     4  10  19  33  55  79 104 137 175 217 261 308
#     4  10  21  37  56  78 106 140 179 224 272 323
#
# _framework density 18.608544999999999
#
# number of rings (size 3 to 8) (size 9 to 14) (size 15 to 20)
#    0.000    2.333    0.000    2.500    0.000    6.667 
#    0.000    5.833    0.000    0.000    0.000    0.000 
#    0.000    0.000    0.000    0.000    0.000    0.000 
#
# Total GULP energy -595246.453195 kJ/mol
# GULP energy per Si atom -12400.967775 kJ/mol
# Density = 1.856619 g / cm^3
# Si number density = 18.608545 Si / 1000 Ang^3
#
#
#
# Elastic Constant Matrix: (Units=GPa)
#
#
# Indices 1 2 3 4 5 6 
#
# 1 145.9135 59.8039 92.7545 0.0000 0.0000 0.0000
# 2 59.8039 83.3899 56.5095 0.0000 0.0000 0.0000
# 3 92.7545 56.5095 118.9820 0.0000 0.0000 0.0000
# 4 0.0000 0.0000 0.0000 28.4736 0.0000 0.0000
# 5 0.0000 0.0000 0.0000 0.0000 43.7283 0.0000
# 6 0.0000 0.0000 0.0000 0.0000 0.0000 26.5220
#
#
#
# Elastic Compliance Matrix: (Units=1/GPa)
#
#
# Indices 1 2 3 4 5 6 
#
# 1 0.014447 -0.004024 -0.009351 0.000000 0.000000 0.000000
# 2 -0.004024 0.018804 -0.005794 0.000000 0.000000 0.000000
# 3 -0.009351 -0.005794 0.018446 0.000000 0.000000 0.000000
# 4 0.000000 0.000000 0.000000 0.035120 0.000000 0.000000
# 5 0.000000 0.000000 0.000000 0.000000 0.022869 0.000000
# 6 0.000000 0.000000 0.000000 0.000000 0.000000 0.037705
#
#
# Mechanical properties :
#
#
# Convention : Reuss Voigt Hill
#
# Bulk Modulus (GPa) = 74.85511 85.15791 80.00651
# Shear Modulus (GPa) = 26.29061 29.02592 27.65826
#
# Velocity S-wave (km/s) = 3.76283 3.95374 3.85947
# Velocity P-wave (km/s) = 7.69364 8.16730 7.93401
#
# Compressibility (1/GPa) = 0.01335914
#
# Stress axis : x y z
#
# Youngs Moduli (GPa) = 69.21811 53.18052 54.21110
#
# Poissons Ratio (x) = 0.21399 0.50695
# Poissons Ratio (y) = 0.27853 0.31409
# Poissons Ratio (z) = 0.64728 0.30812
#
# Static dielectric constant tensor:
#      x y z
#    x 1.992950 0.000000 0.000000 
#    y 0.000000 3.348940 0.000000 
#    z 0.000000 0.000000 3.629080 
# 
# 
# High freq. dielectric constant tensor:
#      x y z
#    x 1.725340 0.000000 0.000000 
#    y 0.000000 1.709430 0.000000 
#    z 0.000000 0.000000 1.732490 
# 
# From -- ./inp_files/31912.got.cif
#   From: 2010.03.12/outbox.cif.g09.slc.cpg/sg62_16_cif.got.tgz:31912.got - 2010.04.10 19:12:36.
