data_PCOD8251762
_publ_section_title
;
Structure prediction by ZEFSAII (Michael W. Deem and Ramdas Pophale) SiO2 
 PCOD8251762
Probable space group: P N M A
;
_chemical_formula_sum "Si O2"
_cell_formula_units_Z 48
_cell_length_a 9.845052
_cell_length_b 22.242348
_cell_length_c 12.325251
_cell_angle_alpha 90.000000
_cell_angle_beta 90.000000
_cell_angle_gamma 90.000000
_cell_volume 2698.947384
_symmetry_space_group_name_H-M "P N M A"
_symmetry_group_IT_number 62
_symmetry_cell_setting 'orthorhombic'
loop_
_space_group_symop_operation_xyz
x,y,z
1/2-x,-y,1/2+z
1/2+x,1/2-y,1/2-z
-x,1/2+y,-z
-x,-y,-z
1/2+x,y,1/2-z
1/2-x,1/2+y,1/2+z
x,1/2-y,z
loop_
_atom_site_type_symbol
_atom_site_label
_atom_site_fract_x
_atom_site_fract_y
_atom_site_fract_z
Si Si1 0.479482 0.180934 0.639281
Si Si2 0.129784 0.920168 0.999137
Si Si3 0.614112 0.454147 0.118556
Si Si4 0.645792 0.922457 0.000709
Si Si5 0.292019 0.180690 0.843893
Si Si6 0.610780 0.033806 0.369942
O O1 0.472632 0.250000 0.603790
O O2 0.431155 0.143577 0.534654
O O3 0.374768 0.166898 0.735179
O O4 0.633319 0.163814 0.674792
O O5 0.135097 0.963235 0.105280
O O6 0.278857 0.913409 0.947748
O O7 0.042085 0.949833 0.902938
O O8 0.624011 0.523898 0.086109
O O9 0.639164 0.450745 0.246035
O O10 0.468359 0.425850 0.091757
O O11 0.640924 0.858975 0.061782
O O12 0.790923 0.926286 0.943778
O O13 0.308357 0.250000 0.878504
#
# Coordination Sequence:
#
# PCOD8251762 Si02
#       6
#     8   8   8   8   8   8
#     4  10  21  37  57  81 108 140 179 223 271 321
#     4  10  20  34  55  80 107 143 176 218 269 316
#     4  10  21  33  54  81 109 143 176 220 266 322
#     4  10  20  36  53  80 110 139 179 220 269 317
#     4  10  21  37  58  81 108 141 177 223 272 319
#     4  10  19  35  54  77 111 141 177 217 265 321
#
# _framework density 17.784711999999999
#
# number of rings (size 3 to 8) (size 9 to 14) (size 15 to 20)
#    0.000    2.000    1.667    2.000    2.333    0.000 
#    6.000    0.000    0.000    6.000    0.000    0.000 
#    0.000    0.000    0.000    0.000    0.000    0.000 
#
# Total GULP energy -595311.883960 kJ/mol
# GULP energy per Si atom -12402.330916 kJ/mol
# Density = 1.774423 g / cm^3
# Si number density = 17.784712 Si / 1000 Ang^3
#
#
#
# Elastic Constant Matrix: (Units=GPa)
#
#
# Indices 1 2 3 4 5 6 
#
# 1 79.6199 28.8762 17.8201 0.0000 0.0000 0.0000
# 2 28.8762 74.3745 43.5827 0.0000 0.0000 0.0000
# 3 17.8201 43.5827 82.8249 0.0000 0.0000 0.0000
# 4 0.0000 0.0000 0.0000 24.1226 0.0000 0.0000
# 5 0.0000 0.0000 0.0000 0.0000 17.7223 0.0000
# 6 0.0000 0.0000 0.0000 0.0000 0.0000 24.7836
#
#
#
# Elastic Compliance Matrix: (Units=1/GPa)
#
#
# Indices 1 2 3 4 5 6 
#
# 1 0.014621 -0.005542 -0.000229 0.000000 0.000000 0.000000
# 2 -0.005542 0.021540 -0.010142 0.000000 0.000000 0.000000
# 3 -0.000229 -0.010142 0.017460 0.000000 0.000000 0.000000
# 4 0.000000 0.000000 0.000000 0.041455 0.000000 0.000000
# 5 0.000000 0.000000 0.000000 0.000000 0.056426 0.000000
# 6 0.000000 0.000000 0.000000 0.000000 0.000000 0.040349
#
#
# Mechanical properties :
#
#
# Convention : Reuss Voigt Hill
#
# Bulk Modulus (GPa) = 45.88494 46.37525 46.13010
# Shear Modulus (GPa) = 21.65027 23.09506 22.37267
#
# Velocity S-wave (km/s) = 3.49284 3.60751 3.55064
# Velocity P-wave (km/s) = 6.49021 6.59429 6.54246
#
# Compressibility (1/GPa) = 0.02179364
#
# Stress axis : x y z
#
# Youngs Moduli (GPa) = 68.39450 46.42420 57.27411
#
# Poissons Ratio (x) = 0.25729 0.01314
# Poissons Ratio (y) = 0.37906 0.58089
# Poissons Ratio (z) = 0.01569 0.47084
#
# Static dielectric constant tensor:
#      x y z
#    x 3.485330 0.000000 0.000000 
#    y 0.000000 3.146640 0.000000 
#    z 0.000000 0.000000 3.030690 
# 
# 
# High freq. dielectric constant tensor:
#      x y z
#    x 1.708650 0.000000 0.000000 
#    y 0.000000 1.670110 0.000000 
#    z 0.000000 0.000000 1.675160 
# 
# From -- ./inp_files/11299.got.cif
#   From: 2010.03.12/outbox.cif.g09.slc.cpg/sg62_6_cif.got.tgz:11299.got - 2010.04.10 19:12:36.
