data_PCOD8251117
_publ_section_title
;
Structure prediction by ZEFSAII (Michael W. Deem and Ramdas Pophale) SiO2 
 PCOD8251117
Probable space group: P N M A
;
_chemical_formula_sum "Si O2"
_cell_formula_units_Z 64
_cell_length_a 17.663900
_cell_length_b 8.738873
_cell_length_c 23.111110
_cell_angle_alpha 90.000000
_cell_angle_beta 90.000000
_cell_angle_gamma 90.000000
_cell_volume 3567.490538
_symmetry_space_group_name_H-M "P N M A"
_symmetry_group_IT_number 62
_symmetry_cell_setting 'orthorhombic'
loop_
_space_group_symop_operation_xyz
x,y,z
1/2-x,-y,1/2+z
1/2+x,1/2-y,1/2-z
-x,1/2+y,-z
-x,-y,-z
1/2+x,y,1/2-z
1/2-x,1/2+y,1/2+z
x,1/2-y,z
loop_
_atom_site_type_symbol
_atom_site_label
_atom_site_fract_x
_atom_site_fract_y
_atom_site_fract_z
Si Si1 0.053987 0.579400 0.420192
Si Si2 0.613896 0.425259 0.469621
Si Si3 0.514315 0.570035 0.814037
Si Si4 0.673933 0.928415 0.364940
Si Si5 0.465849 0.928875 0.421420
Si Si6 0.111282 0.079044 0.525682
Si Si7 0.327561 0.429069 0.134106
Si Si8 0.522463 0.431095 0.315241
O O1 0.085984 0.750000 0.412500
O O2 0.112815 0.485921 0.460277
O O3 0.046832 0.503893 0.357169
O O4 0.973685 0.581420 0.451398
O O5 0.634917 0.250000 0.456042
O O6 0.672158 0.532033 0.434197
O O7 0.610402 0.453851 0.539622
O O8 0.530204 0.460471 0.446508
O O9 0.507791 0.750000 0.822226
O O10 0.599659 0.516287 0.829094
O O11 0.494181 0.515686 0.749853
O O12 0.663354 0.750000 0.354571
O O13 0.754646 0.983177 0.340166
O O14 0.606960 0.017233 0.332279
O O15 0.490112 0.750000 0.423888
O O16 0.458322 0.984556 0.354922
O O17 0.145558 0.250000 0.525801
O O18 0.161464 0.971383 0.566714
O O19 0.313390 0.250000 0.139770
O O20 0.514633 0.250000 0.321853
#
# Coordination Sequence:
#
# PCOD8251117 Si02
#       8
#     8   8   8   8   8   8   8   8
#     4   9  16  26  44  69  95 123 153 190 235 279
#     4   9  16  27  44  66  92 121 151 186 232 284
#     4   9  19  33  50  72  97 129 169 209 247 292
#     4  11  21  32  48  72  99 127 161 202 250 302
#     4   9  16  26  43  68  94 119 150 190 234 278
#     4   9  16  27  44  68  96 122 151 188 233 286
#     4  10  19  33  51  71  97 127 161 204 253 302
#     4  10  19  32  50  72  98 130 168 207 248 294
#
# _framework density 17.939782000000001
#
# number of rings (size 3 to 8) (size 9 to 14) (size 15 to 20)
#    0.000    2.500    0.000    4.875    0.000    6.000 
#    0.000    0.000    0.000    1.500    0.000    1.750 
#    0.000    0.000    0.000    0.000    0.000    0.000 
#
# Total GULP energy -793154.377151 kJ/mol
# GULP energy per Si atom -12393.037143 kJ/mol
# Density = 1.789895 g / cm^3
# Si number density = 17.939782 Si / 1000 Ang^3
#
#
#
# Elastic Constant Matrix: (Units=GPa)
#
#
# Indices 1 2 3 4 5 6 
#
# 1 49.1708 13.2392 30.0800 0.0000 0.0000 0.0000
# 2 13.2392 66.8051 32.4720 0.0000 0.0000 0.0000
# 3 30.0800 32.4720 132.5539 0.0000 0.0000 0.0000
# 4 0.0000 0.0000 0.0000 28.4636 0.0000 0.0000
# 5 0.0000 0.0000 0.0000 0.0000 14.8331 0.0000
# 6 0.0000 0.0000 0.0000 0.0000 0.0000 21.2350
#
#
#
# Elastic Compliance Matrix: (Units=1/GPa)
#
#
# Indices 1 2 3 4 5 6 
#
# 1 0.023947 -0.002389 -0.004849 0.000000 0.000000 0.000000
# 2 -0.002389 0.017231 -0.003679 0.000000 0.000000 0.000000
# 3 -0.004849 -0.003679 0.009546 0.000000 0.000000 0.000000
# 4 0.000000 0.000000 0.000000 0.035133 0.000000 0.000000
# 5 0.000000 0.000000 0.000000 0.000000 0.067417 0.000000
# 6 0.000000 0.000000 0.000000 0.000000 0.000000 0.047092
#
#
# Mechanical properties :
#
#
# Convention : Reuss Voigt Hill
#
# Bulk Modulus (GPa) = 34.61443 44.45693 39.53568
# Shear Modulus (GPa) = 21.56774 24.42224 22.99499
#
# Velocity S-wave (km/s) = 3.47108 3.69364 3.58409
# Velocity P-wave (km/s) = 5.94989 6.55940 6.26206
#
# Compressibility (1/GPa) = 0.02888968
#
# Stress axis : x y z
#
# Youngs Moduli (GPa) = 41.75925 58.03647 104.75916
#
# Poissons Ratio (x) = 0.13863 0.50798
# Poissons Ratio (y) = 0.09975 0.38540
# Poissons Ratio (z) = 0.20249 0.21351
#
# Static dielectric constant tensor:
#      x y z
#    x 3.035160 0.000000 0.000000 
#    y 0.000000 3.391100 0.000000 
#    z 0.000000 0.000000 3.620140 
# 
# 
# High freq. dielectric constant tensor:
#      x y z
#    x 1.648850 0.000000 0.000000 
#    y 0.000000 1.708130 0.000000 
#    z 0.000000 0.000000 1.685410 
# 
# From -- ./inp_files/30105.got.cif
#   From: 2010.03.12/outbox.cif.g09.slc.cpg/sg62_16_cif.got.tgz:30105.got - 2010.04.10 19:12:36.
