data_PCOD8251998
_publ_section_title
;
Structure prediction by ZEFSAII (Michael W. Deem and Ramdas Pophale) SiO2 
 PCOD8251998
Probable space group: P N M A
;
_chemical_formula_sum "Si O2"
_cell_formula_units_Z 48
_cell_length_a 18.233866
_cell_length_b 15.986661
_cell_length_c 8.771005
_cell_angle_alpha 90.000000
_cell_angle_beta 90.000000
_cell_angle_gamma 90.000000
_cell_volume 2556.735980
_symmetry_space_group_name_H-M "P N M A"
_symmetry_group_IT_number 62
_symmetry_cell_setting 'orthorhombic'
loop_
_space_group_symop_operation_xyz
x,y,z
1/2-x,-y,1/2+z
1/2+x,1/2-y,1/2-z
-x,1/2+y,-z
-x,-y,-z
1/2+x,y,1/2-z
1/2-x,1/2+y,1/2+z
x,1/2-y,z
loop_
_atom_site_type_symbol
_atom_site_label
_atom_site_fract_x
_atom_site_fract_y
_atom_site_fract_z
Si Si1 0.543686 0.554945 0.804140
Si Si2 0.970671 0.345419 0.019397
Si Si3 0.301684 0.847920 0.125722
Si Si4 0.154378 0.944876 0.125190
Si Si5 0.613803 0.022143 0.070859
Si Si6 0.611930 0.419673 0.601952
O O1 0.554719 0.634465 0.693305
O O2 0.462569 0.557083 0.868946
O O3 0.555900 0.471704 0.705875
O O4 0.601744 0.551282 0.943894
O O5 0.953892 0.250000 0.984625
O O6 0.923476 0.399618 0.899907
O O7 0.057708 0.363162 0.001113
O O8 0.306152 0.750000 0.089341
O O9 0.218293 0.877587 0.108909
O O10 0.333750 0.864280 0.295007
O O11 0.346623 0.897413 0.998318
O O12 0.160914 0.982695 0.293992
O O13 0.162258 0.020652 0.003826
#
# Coordination Sequence:
#
# PCOD8251998 Si02
#       6
#     8   8   8   8   8   8
#     4   9  18  35  58  83 107 141 190 233 278 340
#     4  11  20  34  58  87 117 145 189 245 285 323
#     4  11  24  37  53  84 119 148 187 238 287 330
#     4  11  20  39  60  82 109 157 194 227 279 350
#     4  10  19  36  61  79 109 149 188 232 278 343
#     4  10  19  38  60  80 109 154 196 222 277 350
#
# _framework density 18.773937
#
# number of rings (size 3 to 8) (size 9 to 14) (size 15 to 20)
#    0.000    1.667    3.333    3.000    0.000    0.667 
#    0.000    1.667    0.000    0.000    0.000    0.000 
#    0.000    0.000    0.000    0.000    0.000    0.000 
#
# Total GULP energy -595099.562136 kJ/mol
# GULP energy per Si atom -12397.907545 kJ/mol
# Density = 1.873121 g / cm^3
# Si number density = 18.773937 Si / 1000 Ang^3
#
#
#
# Elastic Constant Matrix: (Units=GPa)
#
#
# Indices 1 2 3 4 5 6 
#
# 1 81.4800 30.4145 31.0750 0.0000 0.0000 0.0000
# 2 30.4145 94.5961 43.6655 0.0000 0.0000 0.0000
# 3 31.0750 43.6655 113.1968 0.0000 0.0000 0.0000
# 4 0.0000 0.0000 0.0000 17.7715 0.0000 0.0000
# 5 0.0000 0.0000 0.0000 0.0000 20.0020 0.0000
# 6 0.0000 0.0000 0.0000 0.0000 0.0000 22.2730
#
#
#
# Elastic Compliance Matrix: (Units=1/GPa)
#
#
# Indices 1 2 3 4 5 6 
#
# 1 0.014581 -0.003456 -0.002670 0.000000 0.000000 0.000000
# 2 -0.003456 0.013680 -0.004329 0.000000 0.000000 0.000000
# 3 -0.002670 -0.004329 0.011237 0.000000 0.000000 0.000000
# 4 0.000000 0.000000 0.000000 0.056270 0.000000 0.000000
# 5 0.000000 0.000000 0.000000 0.000000 0.049995 0.000000
# 6 0.000000 0.000000 0.000000 0.000000 0.000000 0.044897
#
#
# Mechanical properties :
#
#
# Convention : Reuss Voigt Hill
#
# Bulk Modulus (GPa) = 53.79172 55.50920 54.65046
# Shear Modulus (GPa) = 22.96050 24.28384 23.62217
#
# Velocity S-wave (km/s) = 3.50093 3.60041 3.55102
# Velocity P-wave (km/s) = 6.71242 6.84947 6.78129
#
# Compressibility (1/GPa) = 0.01859022
#
# Stress axis : x y z
#
# Youngs Moduli (GPa) = 68.58195 73.09742 88.99333
#
# Poissons Ratio (x) = 0.25260 0.23759
# Poissons Ratio (y) = 0.23700 0.38521
# Poissons Ratio (z) = 0.18310 0.31640
#
# Static dielectric constant tensor:
#      x y z
#    x 3.350550 0.000000 0.000000 
#    y 0.000000 3.192770 0.000000 
#    z 0.000000 0.000000 3.737530 
# 
# 
# High freq. dielectric constant tensor:
#      x y z
#    x 1.726510 0.000000 0.000000 
#    y 0.000000 1.705820 0.000000 
#    z 0.000000 0.000000 1.739320 
# 
# From -- ./inp_files/7624.got.cif
#   From: 2010.03.12/outbox.cif.g09.slc.cpg/sg62_4_cif.got.tgz:7624.got - 2010.04.10 19:12:36.
