data_PCOD8251617
_publ_section_title
;
Structure prediction by ZEFSAII (Michael W. Deem and Ramdas Pophale) SiO2 
 PCOD8251617
Probable space group: P N M A
;
_chemical_formula_sum "Si O2"
_cell_formula_units_Z 64
_cell_length_a 29.444905
_cell_length_b 8.550465
_cell_length_c 12.726275
_cell_angle_alpha 90.000000
_cell_angle_beta 90.000000
_cell_angle_gamma 90.000000
_cell_volume 3204.064091
_symmetry_space_group_name_H-M "P N M A"
_symmetry_group_IT_number 62
_symmetry_cell_setting 'orthorhombic'
loop_
_space_group_symop_operation_xyz
x,y,z
1/2-x,-y,1/2+z
1/2+x,1/2-y,1/2-z
-x,1/2+y,-z
-x,-y,-z
1/2+x,y,1/2-z
1/2-x,1/2+y,1/2+z
x,1/2-y,z
loop_
_atom_site_type_symbol
_atom_site_label
_atom_site_fract_x
_atom_site_fract_y
_atom_site_fract_z
Si Si1 0.433706 0.933160 0.674172
Si Si2 0.601047 0.064300 0.553444
Si Si3 0.917187 0.933131 0.415394
Si Si4 0.197623 0.069265 0.876975
Si Si5 0.464819 0.066922 0.270327
Si Si6 0.292176 0.071780 0.944378
Si Si7 0.610704 0.565363 0.122935
Si Si8 0.173908 0.926212 0.667956
O O1 0.425220 0.750000 0.690712
O O2 0.417576 0.988799 0.559491
O O3 0.486265 0.978629 0.683664
O O4 0.404766 0.025649 0.760237
O O5 0.597630 0.250000 0.569262
O O6 0.653166 0.003448 0.562537
O O7 0.572663 0.984797 0.645818
O O8 0.907602 0.750000 0.409738
O O9 0.960016 0.977934 0.341928
O O10 0.923050 0.985013 0.537173
O O11 0.876486 0.031276 0.365924
O O12 0.201438 0.250000 0.905449
O O13 0.245247 0.986094 0.909851
O O14 0.191788 0.046882 0.753315
O O15 0.460708 0.250000 0.249576
O O16 0.291125 0.250000 0.905184
O O17 0.338032 0.996992 0.894406
O O18 0.292612 0.059625 0.069753
O O19 0.609651 0.750000 0.102786
O O20 0.173697 0.750000 0.713279
#
# Coordination Sequence:
#
# PCOD8251617 Si02
#       8
#     8   8   8   8   8   8   8   8
#     4  10  23  40  57  83 119 157 194 237 292 353
#     4  10  21  37  58  84 116 153 196 238 284 345
#     4  11  21  36  60  85 112 148 191 239 290 350
#     4  10  19  34  57  83 112 149 190 235 285 340
#     4  11  22  37  59  85 116 151 192 244 293 344
#     4   8  18  35  54  79 112 148 185 229 287 340
#     4  10  21  39  60  83 115 155 195 242 292 345
#     4  10  19  34  55  81 113 147 188 238 286 337
#
# _framework density 19.974630999999999
#
# number of rings (size 3 to 8) (size 9 to 14) (size 15 to 20)
#    0.000    2.000    1.250    3.375    0.000    3.000 
#    0.000    5.000    0.000    0.000    0.000    0.000 
#    0.000    0.000    0.000    0.000    0.000    0.000 
#
# Total GULP energy -793499.190902 kJ/mol
# GULP energy per Si atom -12398.424858 kJ/mol
# Density = 1.992917 g / cm^3
# Si number density = 19.974631 Si / 1000 Ang^3
#
#
#
# Elastic Constant Matrix: (Units=GPa)
#
#
# Indices 1 2 3 4 5 6 
#
# 1 100.7820 22.5864 36.9932 0.0000 0.0000 0.0000
# 2 22.5864 30.3860 9.1502 0.0000 0.0000 0.0000
# 3 36.9932 9.1502 81.2327 0.0000 0.0000 0.0000
# 4 0.0000 0.0000 0.0000 33.1677 0.0000 0.0000
# 5 0.0000 0.0000 0.0000 0.0000 22.8790 0.0000
# 6 0.0000 0.0000 0.0000 0.0000 0.0000 15.1560
#
#
#
# Elastic Compliance Matrix: (Units=1/GPa)
#
#
# Indices 1 2 3 4 5 6 
#
# 1 0.013816 -0.008669 -0.005315 0.000000 0.000000 0.000000
# 2 -0.008669 0.039505 -0.000502 0.000000 0.000000 0.000000
# 3 -0.005315 -0.000502 0.014787 0.000000 0.000000 0.000000
# 4 0.000000 0.000000 0.000000 0.030150 0.000000 0.000000
# 5 0.000000 0.000000 0.000000 0.000000 0.043708 0.000000
# 6 0.000000 0.000000 0.000000 0.000000 0.000000 0.065980
#
#
# Mechanical properties :
#
#
# Convention : Reuss Voigt Hill
#
# Bulk Modulus (GPa) = 25.55221 38.87336 32.21279
# Shear Modulus (GPa) = 20.00273 23.81859 21.91066
#
# Velocity S-wave (km/s) = 3.16793 3.45692 3.31558
# Velocity P-wave (km/s) = 5.11871 5.95293 5.55151
#
# Compressibility (1/GPa) = 0.03913556
#
# Stress axis : x y z
#
# Youngs Moduli (GPa) = 72.37791 25.31325 67.62476
#
# Poissons Ratio (x) = 0.21945 0.35945
# Poissons Ratio (y) = 0.62746 0.03395
# Poissons Ratio (z) = 0.38472 0.01271
#
# Static dielectric constant tensor:
#      x y z
#    x 3.902610 0.000000 0.000000 
#    y 0.000000 3.414290 0.000000 
#    z 0.000000 0.000000 3.760180 
# 
# 
# High freq. dielectric constant tensor:
#      x y z
#    x 1.782620 0.000000 0.000000 
#    y 0.000000 1.761880 0.000000 
#    z 0.000000 0.000000 1.782520 
# 
# From -- ./inp_files/15815.got.cif
#   From: 2010.03.12/outbox.cif.g09.slc.cpg/sg62_8_cif.got.tgz:15815.got - 2010.04.10 19:12:36.
