data_PCOD8251986
_publ_section_title
;
Structure prediction by ZEFSAII (Michael W. Deem and Ramdas Pophale) SiO2 
 PCOD8251986
Probable space group: P N M A
;
_chemical_formula_sum "Si O2"
_cell_formula_units_Z 64
_cell_length_a 17.363501
_cell_length_b 12.477081
_cell_length_c 15.263455
_cell_angle_alpha 90.000000
_cell_angle_beta 90.000000
_cell_angle_gamma 90.000000
_cell_volume 3306.763548
_symmetry_space_group_name_H-M "P N M A"
_symmetry_group_IT_number 62
_symmetry_cell_setting 'orthorhombic'
loop_
_space_group_symop_operation_xyz
x,y,z
1/2-x,-y,1/2+z
1/2+x,1/2-y,1/2-z
-x,1/2+y,-z
-x,-y,-z
1/2+x,y,1/2-z
1/2-x,1/2+y,1/2+z
x,1/2-y,z
loop_
_atom_site_type_symbol
_atom_site_label
_atom_site_fract_x
_atom_site_fract_y
_atom_site_fract_z
Si Si1 0.976253 0.872037 0.864916
Si Si2 0.782823 0.132062 0.244349
Si Si3 0.919082 0.628650 0.341985
Si Si4 0.665142 0.126384 0.485624
Si Si5 0.110309 0.028563 0.843005
Si Si6 0.060013 0.951243 0.434631
Si Si7 0.613013 0.130184 0.194225
Si Si8 0.176671 0.555470 0.572186
O O1 0.000406 0.750000 0.888420
O O2 0.903674 0.907981 0.922092
O O3 0.957146 0.880943 0.761893
O O4 0.044892 0.953293 0.884874
O O5 0.801106 0.250000 0.207053
O O6 0.691471 0.111403 0.249006
O O7 0.821249 0.126969 0.340512
O O8 0.817174 0.045289 0.179386
O O9 0.889919 0.750000 0.349125
O O10 0.918877 0.591886 0.241547
O O11 0.860171 0.559893 0.402154
O O12 0.009400 0.624133 0.371271
O O13 0.689595 0.250000 0.469477
O O14 0.637581 0.113813 0.585351
O O15 0.736703 0.047354 0.465279
O O16 0.123917 0.890931 0.495068
O O17 0.104254 0.044464 0.382272
O O18 0.000000 0.000000 0.500000
O O19 0.612599 0.250000 0.152829
#
# Coordination Sequence:
#
# PCOD8251986 Si02
#       8
#     8   8   8   8   8   8   8   8
#     4  10  20  36  60  87 115 149 192 242 292 343
#     4  10  20  36  60  87 117 151 193 243 290 339
#     4  10  22  39  56  79 116 158 191 231 295 358
#     4  11  22  38  60  85 115 153 196 245 296 346
#     4  11  21  37  58  85 116 153 195 237 288 351
#     4  10  21  37  55  86 116 150 189 236 291 351
#     4  10  19  36  60  84 114 149 186 235 296 345
#     4  10  21  37  59  85 115 148 197 244 291 345
#
# _framework density 19.354272000000002
#
# number of rings (size 3 to 8) (size 9 to 14) (size 15 to 20)
#    0.000    1.750    2.500    2.250    0.000    3.000 
#    0.000    3.125    0.000    5.250    0.000    0.000 
#    0.000    0.000    0.000    0.000    0.000    0.000 
#
# Total GULP energy -793381.459132 kJ/mol
# GULP energy per Si atom -12396.585299 kJ/mol
# Density = 1.931022 g / cm^3
# Si number density = 19.354272 Si / 1000 Ang^3
#
#
#
# Elastic Constant Matrix: (Units=GPa)
#
#
# Indices 1 2 3 4 5 6 
#
# 1 89.6388 37.3369 27.8403 0.0000 0.0000 0.0000
# 2 37.3369 82.1404 22.0146 0.0000 0.0000 0.0000
# 3 27.8403 22.0146 87.0020 0.0000 0.0000 0.0000
# 4 0.0000 0.0000 0.0000 22.1877 0.0000 0.0000
# 5 0.0000 0.0000 0.0000 0.0000 40.7882 0.0000
# 6 0.0000 0.0000 0.0000 0.0000 0.0000 24.2004
#
#
#
# Elastic Compliance Matrix: (Units=1/GPa)
#
#
# Indices 1 2 3 4 5 6 
#
# 1 0.014546 -0.005755 -0.003199 0.000000 0.000000 0.000000
# 2 -0.005755 0.015337 -0.002039 0.000000 0.000000 0.000000
# 3 -0.003199 -0.002039 0.013034 0.000000 0.000000 0.000000
# 4 0.000000 0.000000 0.000000 0.045070 0.000000 0.000000
# 5 0.000000 0.000000 0.000000 0.000000 0.024517 0.000000
# 6 0.000000 0.000000 0.000000 0.000000 0.000000 0.041322
#
#
# Mechanical properties :
#
#
# Convention : Reuss Voigt Hill
#
# Bulk Modulus (GPa) = 47.77532 48.12944 47.95238
# Shear Modulus (GPa) = 27.35421 28.87456 28.11439
#
# Velocity S-wave (km/s) = 3.76352 3.86670 3.81546
# Velocity P-wave (km/s) = 6.60482 6.69752 6.65133
#
# Compressibility (1/GPa) = 0.02093131
#
# Stress axis : x y z
#
# Youngs Moduli (GPa) = 68.74587 65.20332 76.72520
#
# Poissons Ratio (x) = 0.37523 0.24541
# Poissons Ratio (y) = 0.39562 0.15646
# Poissons Ratio (z) = 0.21989 0.13296
#
# Static dielectric constant tensor:
#      x y z
#    x 3.803020 0.000000 0.000000 
#    y 0.000000 3.317630 0.000000 
#    z 0.000000 0.000000 3.540390 
# 
# 
# High freq. dielectric constant tensor:
#      x y z
#    x 1.759490 0.000000 0.000000 
#    y 0.000000 1.732170 0.000000 
#    z 0.000000 0.000000 1.758380 
# 
# From -- ./inp_files/19904.got.cif
#   From: 2010.03.12/outbox.cif.g09.slc.cpg/sg62_10_cif.got.tgz:19904.got - 2010.04.10 19:12:36.
