data_PCOD8251489
_publ_section_title
;
Structure prediction by ZEFSAII (Michael W. Deem and Ramdas Pophale) SiO2 
 PCOD8251489
Probable space group: P N M A
;
_chemical_formula_sum "Si O2"
_cell_formula_units_Z 56
_cell_length_a 21.403510
_cell_length_b 9.065941
_cell_length_c 14.505308
_cell_angle_alpha 90.000000
_cell_angle_beta 90.000000
_cell_angle_gamma 90.000000
_cell_volume 2814.652883
_symmetry_space_group_name_H-M "P N M A"
_symmetry_group_IT_number 62
_symmetry_cell_setting 'orthorhombic'
loop_
_space_group_symop_operation_xyz
x,y,z
1/2-x,-y,1/2+z
1/2+x,1/2-y,1/2-z
-x,1/2+y,-z
-x,-y,-z
1/2+x,y,1/2-z
1/2-x,1/2+y,1/2+z
x,1/2-y,z
loop_
_atom_site_type_symbol
_atom_site_label
_atom_site_fract_x
_atom_site_fract_y
_atom_site_fract_z
Si Si1 0.467939 0.082264 0.646382
Si Si2 0.589099 0.578386 0.655684
Si Si3 0.566680 0.078053 0.004870
Si Si4 0.773478 0.921231 0.828161
Si Si5 0.609005 0.079194 0.206983
Si Si6 0.857129 0.575637 0.327297
Si Si7 0.652420 0.915146 0.473666
O O1 0.490064 0.250000 0.661830
O O2 0.416294 0.071408 0.567936
O O3 0.524846 0.981095 0.612177
O O4 0.441895 0.021364 0.743061
O O5 0.582905 0.750000 0.680388
O O6 0.599105 0.484365 0.747035
O O7 0.645463 0.553251 0.582684
O O8 0.552675 0.250000 0.995151
O O9 0.612295 0.023103 0.923429
O O10 0.604236 0.042800 0.098823
O O11 0.500000 0.000000 0.000000
O O12 0.757007 0.750000 0.831367
O O13 0.821747 0.958660 0.745443
O O14 0.710978 0.010124 0.810982
O O15 0.801636 0.967661 0.927213
O O16 0.593697 0.250000 0.227665
O O17 0.852334 0.750000 0.321935
O O18 0.679190 0.750000 0.457114
#
# Coordination Sequence:
#
# PCOD8251489 Si02
#       7
#     8   8   8   8   8   8   8
#     4  10  19  33  55  85 116 143 177 223 276 332
#     4  11  22  36  55  80 111 148 186 225 275 330
#     4  10  22  39  59  83 112 148 188 233 285 338
#     4  10  21  38  60  85 111 144 188 232 279 339
#     4   9  19  37  59  81 109 147 187 227 275 335
#     4  11  24  40  57  81 114 149 187 236 288 335
#     4   9  20  37  57  81 112 149 184 224 275 331
#
# _framework density 19.895883000000001
#
# number of rings (size 3 to 8) (size 9 to 14) (size 15 to 20)
#    0.000    2.000    0.000    3.000    0.000    7.429 
#    0.000    2.857    0.000    0.000    0.000    0.000 
#    0.000    0.000    0.000    0.000    0.000    0.000 
#
# Total GULP energy -694507.159276 kJ/mol
# GULP energy per Si atom -12401.913558 kJ/mol
# Density = 1.985060 g / cm^3
# Si number density = 19.895883 Si / 1000 Ang^3
#
#
#
# Elastic Constant Matrix: (Units=GPa)
#
#
# Indices 1 2 3 4 5 6 
#
# 1 76.4381 40.3510 15.8146 0.0000 0.0000 0.0000
# 2 40.3510 81.2370 35.8693 0.0000 0.0000 0.0000
# 3 15.8146 35.8693 101.6463 0.0000 0.0000 0.0000
# 4 0.0000 0.0000 0.0000 29.3410 0.0000 0.0000
# 5 0.0000 0.0000 0.0000 0.0000 20.7001 0.0000
# 6 0.0000 0.0000 0.0000 0.0000 0.0000 40.5581
#
#
#
# Elastic Compliance Matrix: (Units=1/GPa)
#
#
# Indices 1 2 3 4 5 6 
#
# 1 0.017747 -0.008998 0.000414 0.000000 0.000000 0.000000
# 2 -0.008998 0.019144 -0.005356 0.000000 0.000000 0.000000
# 3 0.000414 -0.005356 0.011664 0.000000 0.000000 0.000000
# 4 0.000000 0.000000 0.000000 0.034082 0.000000 0.000000
# 5 0.000000 0.000000 0.000000 0.000000 0.048309 0.000000
# 6 0.000000 0.000000 0.000000 0.000000 0.000000 0.024656
#
#
# Mechanical properties :
#
#
# Convention : Reuss Voigt Hill
#
# Bulk Modulus (GPa) = 48.36690 49.26567 48.81629
# Shear Modulus (GPa) = 26.26454 29.27227 27.76840
#
# Velocity S-wave (km/s) = 3.63726 3.83988 3.73994
# Velocity P-wave (km/s) = 6.48092 6.66896 6.57561
#
# Compressibility (1/GPa) = 0.02067530
#
# Stress axis : x y z
#
# Youngs Moduli (GPa) = 56.34881 52.23693 85.73749
#
# Poissons Ratio (x) = 0.47001 -0.03550
# Poissons Ratio (y) = 0.50701 0.45917
# Poissons Ratio (z) = -0.02333 0.27976
#
# Static dielectric constant tensor:
#      x y z
#    x 3.546240 0.000000 0.000000 
#    y 0.000000 3.684500 0.000000 
#    z 0.000000 0.000000 3.736860 
# 
# 
# High freq. dielectric constant tensor:
#      x y z
#    x 1.771510 0.000000 0.000000 
#    y 0.000000 1.779950 0.000000 
#    z 0.000000 0.000000 1.780920 
# 
# From -- ./inp_files/20422.got.cif
#   From: 2010.03.12/outbox.cif.g09.slc.cpg/sg62_11_cif.got.tgz:20422.got - 2010.04.10 19:12:36.
