data_PCOD8251996
_publ_section_title
;
Structure prediction by ZEFSAII (Michael W. Deem and Ramdas Pophale) SiO2 
 PCOD8251996
Probable space group: P N M A
;
_chemical_formula_sum "Si O2"
_cell_formula_units_Z 56
_cell_length_a 20.508361
_cell_length_b 9.025975
_cell_length_c 15.285712
_cell_angle_alpha 90.000000
_cell_angle_beta 90.000000
_cell_angle_gamma 90.000000
_cell_volume 2829.506869
_symmetry_space_group_name_H-M "P N M A"
_symmetry_group_IT_number 62
_symmetry_cell_setting 'orthorhombic'
loop_
_space_group_symop_operation_xyz
x,y,z
1/2-x,-y,1/2+z
1/2+x,1/2-y,1/2-z
-x,1/2+y,-z
-x,-y,-z
1/2+x,y,1/2-z
1/2-x,1/2+y,1/2+z
x,1/2-y,z
loop_
_atom_site_type_symbol
_atom_site_label
_atom_site_fract_x
_atom_site_fract_y
_atom_site_fract_z
Si Si1 0.837197 0.424432 0.814734
Si Si2 0.687230 0.573426 0.508334
Si Si3 0.095787 0.086624 0.475660
Si Si4 0.297378 0.425288 0.874331
Si Si5 0.461273 0.412207 0.117837
Si Si6 0.444314 0.915669 0.449646
Si Si7 0.519310 0.914459 0.274975
O O1 0.843322 0.250000 0.820962
O O2 0.793923 0.468850 0.729367
O O3 0.911493 0.485399 0.805900
O O4 0.805303 0.480123 0.906344
O O5 0.687707 0.750000 0.515505
O O6 0.744121 0.508499 0.568115
O O7 0.620559 0.511978 0.546906
O O8 0.129289 0.250000 0.481412
O O9 0.022078 0.105387 0.446240
O O10 0.132408 0.979016 0.408110
O O11 0.094682 0.012441 0.572130
O O12 0.289861 0.250000 0.886960
O O13 0.431128 0.250000 0.136317
O O14 0.484833 0.480118 0.207288
O O15 0.432756 0.750000 0.488212
O O16 0.467025 0.901817 0.350951
O O17 0.500000 0.000000 0.500000
O O18 0.531708 0.750000 0.234839
#
# Coordination Sequence:
#
# PCOD8251996 Si02
#       7
#     8   8   8   8   8   8   8
#     4   9  19  38  64  87 114 156 199 239 299 367
#     4  11  23  43  64  88 121 160 202 251 309 368
#     4  10  20  35  56  84 118 158 195 241 301 356
#     4  11  22  40  64  89 118 158 208 255 300 362
#     4  10  20  33  54  87 120 152 197 248 295 346
#     4  11  22  38  62  91 121 154 195 248 308 363
#     4  10  19  36  60  86 116 155 195 237 300 366
#
# _framework density 19.791435
#
# number of rings (size 3 to 8) (size 9 to 14) (size 15 to 20)
#    0.000    1.714    2.857    2.143    0.000    2.286 
#    2.571    2.857    0.000    0.000    0.000    0.000 
#    0.000    0.000    0.000    0.000    0.000    0.000 
#
# Total GULP energy -694121.749785 kJ/mol
# GULP energy per Si atom -12395.031246 kJ/mol
# Density = 1.974639 g / cm^3
# Si number density = 19.791435 Si / 1000 Ang^3
#
#
#
# Elastic Constant Matrix: (Units=GPa)
#
#
# Indices 1 2 3 4 5 6 
#
# 1 56.8848 29.1355 41.1645 0.0000 0.0000 0.0000
# 2 29.1355 121.3780 54.0554 0.0000 0.0000 0.0000
# 3 41.1645 54.0554 130.7514 0.0000 0.0000 0.0000
# 4 0.0000 0.0000 0.0000 30.1286 0.0000 0.0000
# 5 0.0000 0.0000 0.0000 0.0000 33.8940 0.0000
# 6 0.0000 0.0000 0.0000 0.0000 0.0000 33.1972
#
#
#
# Elastic Compliance Matrix: (Units=1/GPa)
#
#
# Indices 1 2 3 4 5 6 
#
# 1 0.023561 -0.002883 -0.006226 0.000000 0.000000 0.000000
# 2 -0.002883 0.010451 -0.003413 0.000000 0.000000 0.000000
# 3 -0.006226 -0.003413 0.011019 0.000000 0.000000 0.000000
# 4 0.000000 0.000000 0.000000 0.033191 0.000000 0.000000
# 5 0.000000 0.000000 0.000000 0.000000 0.029504 0.000000
# 6 0.000000 0.000000 0.000000 0.000000 0.000000 0.030123
#
#
# Mechanical properties :
#
#
# Convention : Reuss Voigt Hill
#
# Bulk Modulus (GPa) = 50.03091 61.96945 56.00018
# Shear Modulus (GPa) = 29.48890 31.75452 30.62171
#
# Velocity S-wave (km/s) = 3.86422 4.00991 3.93774
# Velocity P-wave (km/s) = 6.72633 7.26763 7.00221
#
# Compressibility (1/GPa) = 0.01998764
#
# Stress axis : x y z
#
# Youngs Moduli (GPa) = 42.44230 95.68758 90.75076
#
# Poissons Ratio (x) = 0.27586 0.56501
# Poissons Ratio (y) = 0.12236 0.30972
# Poissons Ratio (z) = 0.26424 0.32657
#
# Static dielectric constant tensor:
#      x y z
#    x 3.232390 0.000000 0.000000 
#    y 0.000000 3.814570 0.000000 
#    z 0.000000 0.000000 3.844500 
# 
# 
# High freq. dielectric constant tensor:
#      x y z
#    x 1.749510 0.000000 0.000000 
#    y 0.000000 1.774990 0.000000 
#    z 0.000000 0.000000 1.777120 
# 
# From -- ./inp_files/20378.got.cif
#   From: 2010.03.12/outbox.cif.g09.slc.cpg/sg62_11_cif.got.tgz:20378.got - 2010.04.10 19:12:36.
