data_PCOD8251471
_publ_section_title
;
Structure prediction by ZEFSAII (Michael W. Deem and Ramdas Pophale) SiO2 
 PCOD8251471
Probable space group: P N M A
;
_chemical_formula_sum "Si O2"
_cell_formula_units_Z 48
_cell_length_a 9.795645
_cell_length_b 12.155681
_cell_length_c 22.632267
_cell_angle_alpha 90.000000
_cell_angle_beta 90.000000
_cell_angle_gamma 90.000000
_cell_volume 2694.885949
_symmetry_space_group_name_H-M "P N M A"
_symmetry_group_IT_number 62
_symmetry_cell_setting 'orthorhombic'
loop_
_space_group_symop_operation_xyz
x,y,z
1/2-x,-y,1/2+z
1/2+x,1/2-y,1/2-z
-x,1/2+y,-z
-x,-y,-z
1/2+x,y,1/2-z
1/2-x,1/2+y,1/2+z
x,1/2-y,z
loop_
_atom_site_type_symbol
_atom_site_label
_atom_site_fract_x
_atom_site_fract_y
_atom_site_fract_z
Si Si1 0.220692 0.377762 0.689568
Si Si2 0.119518 0.494963 0.573128
Si Si3 0.860241 0.625502 0.967203
Si Si4 0.138236 0.122026 0.453207
Si Si5 0.963707 0.622109 0.199361
Si Si6 0.397056 0.503944 0.417503
O O1 0.207379 0.250000 0.673343
O O2 0.174284 0.447734 0.633896
O O3 0.376334 0.406818 0.707405
O O4 0.118203 0.409912 0.741952
O O5 0.206542 0.600205 0.552338
O O6 0.129023 0.399581 0.523561
O O7 0.967383 0.542191 0.580799
O O8 0.898304 0.750000 0.953495
O O9 0.954960 0.546668 0.928642
O O10 0.874843 0.604029 0.037027
O O11 0.109795 0.250000 0.440795
O O12 0.286023 0.091495 0.427334
O O13 0.944967 0.750000 0.184060
O O14 0.893253 0.551601 0.148031
#
# Coordination Sequence:
#
# PCOD8251471 Si02
#       6
#     8   8   8   8   8   8
#     4  10  21  37  58  82 109 142 179 224 274 321
#     4  10  20  36  56  81 111 146 180 221 274 320
#     4  10  19  33  55  81 108 140 180 221 269 324
#     4  10  21  35  55  83 114 145 179 221 270 326
#     4  10  21  37  57  82 110 141 179 224 273 323
#     4  10  20  34  54  83 110 141 176 222 274 317
#
# _framework density 17.811513999999999
#
# number of rings (size 3 to 8) (size 9 to 14) (size 15 to 20)
#    0.000    2.000    1.667    2.000    2.333    0.000 
#    0.000    1.667    0.000    6.000    0.000    0.000 
#    0.000    0.000    0.000    0.000    0.000    0.000 
#
# Total GULP energy -595284.855959 kJ/mol
# GULP energy per Si atom -12401.767832 kJ/mol
# Density = 1.777097 g / cm^3
# Si number density = 17.811514 Si / 1000 Ang^3
#
#
#
# Elastic Constant Matrix: (Units=GPa)
#
#
# Indices 1 2 3 4 5 6 
#
# 1 83.4369 21.9415 34.2785 0.0000 0.0000 0.0000
# 2 21.9415 74.1290 48.7601 0.0000 0.0000 0.0000
# 3 34.2785 48.7601 96.7381 0.0000 0.0000 0.0000
# 4 0.0000 0.0000 0.0000 18.7562 0.0000 0.0000
# 5 0.0000 0.0000 0.0000 0.0000 22.5446 0.0000
# 6 0.0000 0.0000 0.0000 0.0000 0.0000 7.0615
#
#
#
# Elastic Compliance Matrix: (Units=1/GPa)
#
#
# Indices 1 2 3 4 5 6 
#
# 1 0.014114 -0.001328 -0.004332 0.000000 0.000000 0.000000
# 2 -0.001328 0.020306 -0.009764 0.000000 0.000000 0.000000
# 3 -0.004332 -0.009764 0.016794 0.000000 0.000000 0.000000
# 4 0.000000 0.000000 0.000000 0.053316 0.000000 0.000000
# 5 0.000000 0.000000 0.000000 0.000000 0.044357 0.000000
# 6 0.000000 0.000000 0.000000 0.000000 0.000000 0.141614
#
#
# Mechanical properties :
#
#
# Convention : Reuss Voigt Hill
#
# Bulk Modulus (GPa) = 49.10405 51.58490 50.34447
# Shear Modulus (GPa) = 15.23755 19.62739 17.43247
#
# Velocity S-wave (km/s) = 2.92805 3.32316 3.13184
# Velocity P-wave (km/s) = 6.24979 6.61430 6.43463
#
# Compressibility (1/GPa) = 0.02036492
#
# Stress axis : x y z
#
# Youngs Moduli (GPa) = 70.85166 49.24681 59.54609
#
# Poissons Ratio (x) = 0.06542 0.25793
# Poissons Ratio (y) = 0.09412 0.58143
# Poissons Ratio (z) = 0.30690 0.48086
#
# Static dielectric constant tensor:
#      x y z
#    x 3.474650 0.000000 0.000000 
#    y 0.000000 3.029630 0.000000 
#    z 0.000000 0.000000 3.108810 
# 
# 
# High freq. dielectric constant tensor:
#      x y z
#    x 1.708980 0.000000 0.000000 
#    y 0.000000 1.676070 0.000000 
#    z 0.000000 0.000000 1.675120 
# 
# From -- ./inp_files/28782.got.cif
#   From: 2010.03.12/outbox.cif.g09.slc.cpg/sg62_15_cif.got.tgz:28782.got - 2010.04.10 19:12:36.
