data_PCOD8251969
_publ_section_title
;
Structure prediction by ZEFSAII (Michael W. Deem and Ramdas Pophale) SiO2 
 PCOD8251969
Probable space group: P N M A
;
_chemical_formula_sum "Si O2"
_cell_formula_units_Z 64
_cell_length_a 14.593571
_cell_length_b 12.866839
_cell_length_c 17.841963
_cell_angle_alpha 90.000000
_cell_angle_beta 90.000000
_cell_angle_gamma 90.000000
_cell_volume 3350.241211
_symmetry_space_group_name_H-M "P N M A"
_symmetry_group_IT_number 62
_symmetry_cell_setting 'orthorhombic'
loop_
_space_group_symop_operation_xyz
x,y,z
1/2-x,-y,1/2+z
1/2+x,1/2-y,1/2-z
-x,1/2+y,-z
-x,-y,-z
1/2+x,y,1/2-z
1/2-x,1/2+y,1/2+z
x,1/2-y,z
loop_
_atom_site_type_symbol
_atom_site_label
_atom_site_fract_x
_atom_site_fract_y
_atom_site_fract_z
Si Si1 0.465389 0.870155 0.159689
Si Si2 0.105338 0.633391 0.902665
Si Si3 0.585978 0.965473 0.046408
Si Si4 0.200348 0.500530 0.590033
Si Si5 0.483801 0.485616 0.687345
Si Si6 0.809791 0.868983 0.799740
Si Si7 0.118953 0.631680 0.066384
Si Si8 0.807158 0.864690 0.629360
O O1 0.444237 0.750000 0.178468
O O2 0.552254 0.873189 0.101764
O O3 0.376471 0.922953 0.122580
O O4 0.490899 0.932970 0.234400
O O5 0.081981 0.750000 0.873132
O O6 0.213969 0.621129 0.916417
O O7 0.071029 0.547281 0.844689
O O8 0.066462 0.615825 0.986747
O O9 0.615633 0.057766 0.101539
O O10 0.500000 0.000000 0.000000
O O11 0.665678 0.940160 0.985966
O O12 0.226383 0.588423 0.650001
O O13 0.290480 0.436743 0.571380
O O14 0.403619 0.569375 0.691706
O O15 0.454313 0.395531 0.630361
O O16 0.828254 0.750000 0.822390
O O17 0.777555 0.882030 0.714898
O O18 0.149904 0.750000 0.077187
O O19 0.849246 0.750000 0.617672
#
# Coordination Sequence:
#
# PCOD8251969 Si02
#       8
#     8   8   8   8   8   8   8   8
#     4  11  23  39  59  84 118 155 192 234 284 347
#     4  10  20  34  58  84 110 147 196 245 290 341
#     4  10  21  37  58  87 116 150 189 238 292 344
#     4  10  21  38  62  86 116 151 192 241 286 347
#     4  11  21  36  56  82 119 153 192 240 286 343
#     4  10  21  37  59  85 116 152 191 241 293 342
#     4  10  20  35  57  83 112 153 198 237 286 345
#     4  10  19  36  59  84 114 150 195 241 292 346
#
# _framework density 19.103103000000001
#
# number of rings (size 3 to 8) (size 9 to 14) (size 15 to 20)
#    0.000    1.750    2.500    2.250    0.000    2.500 
#    0.000    2.500    0.000    1.500    0.000    0.000 
#    0.000    0.000    0.000    0.000    0.000    0.000 
#
# Total GULP energy -793289.199118 kJ/mol
# GULP energy per Si atom -12395.143736 kJ/mol
# Density = 1.905962 g / cm^3
# Si number density = 19.103103 Si / 1000 Ang^3
#
#
#
# Elastic Constant Matrix: (Units=GPa)
#
#
# Indices 1 2 3 4 5 6 
#
# 1 58.5754 33.8735 25.3606 0.0000 0.0000 0.0000
# 2 33.8735 96.1805 51.0876 0.0000 0.0000 0.0000
# 3 25.3606 51.0876 103.8224 0.0000 0.0000 0.0000
# 4 0.0000 0.0000 0.0000 24.6668 0.0000 0.0000
# 5 0.0000 0.0000 0.0000 0.0000 35.1051 0.0000
# 6 0.0000 0.0000 0.0000 0.0000 0.0000 28.0693
#
#
#
# Elastic Compliance Matrix: (Units=1/GPa)
#
#
# Indices 1 2 3 4 5 6 
#
# 1 0.021769 -0.006556 -0.002092 0.000000 0.000000 0.000000
# 2 -0.006556 0.016050 -0.006297 0.000000 0.000000 0.000000
# 3 -0.002092 -0.006297 0.013241 0.000000 0.000000 0.000000
# 4 0.000000 0.000000 0.000000 0.040540 0.000000 0.000000
# 5 0.000000 0.000000 0.000000 0.000000 0.028486 0.000000
# 6 0.000000 0.000000 0.000000 0.000000 0.000000 0.035626
#
#
# Mechanical properties :
#
#
# Convention : Reuss Voigt Hill
#
# Bulk Modulus (GPa) = 47.23095 53.24687 50.23891
# Shear Modulus (GPa) = 25.95279 27.45201 26.70240
#
# Velocity S-wave (km/s) = 3.68987 3.79495 3.74278
# Velocity P-wave (km/s) = 6.55221 6.86557 6.71072
#
# Compressibility (1/GPa) = 0.02117256
#
# Stress axis : x y z
#
# Youngs Moduli (GPa) = 45.93764 62.30368 75.52267
#
# Poissons Ratio (x) = 0.40844 0.15796
# Poissons Ratio (y) = 0.30115 0.47553
# Poissons Ratio (z) = 0.09608 0.39230
#
# Static dielectric constant tensor:
#      x y z
#    x 3.424940 0.000000 0.000000 
#    y 0.000000 3.398210 0.000000 
#    z 0.000000 0.000000 3.873300 
# 
# 
# High freq. dielectric constant tensor:
#      x y z
#    x 1.735240 0.000000 0.000000 
#    y 0.000000 1.733050 0.000000 
#    z 0.000000 0.000000 1.762990 
# 
# From -- ./inp_files/24051.got.cif
#   From: 2010.03.12/outbox.cif.g09.slc.cpg/sg62_13_cif.got.tgz:24051.got - 2010.04.10 19:12:36.
