data_PCOD8251156
_publ_section_title
;
Structure prediction by ZEFSAII (Michael W. Deem and Ramdas Pophale) SiO2 
 PCOD8251156
Probable space group: P N M A
;
_chemical_formula_sum "Si O2"
_cell_formula_units_Z 64
_cell_length_a 23.579714
_cell_length_b 11.236079
_cell_length_c 13.021862
_cell_angle_alpha 90.000000
_cell_angle_beta 90.000000
_cell_angle_gamma 90.000000
_cell_volume 3450.058076
_symmetry_space_group_name_H-M "P N M A"
_symmetry_group_IT_number 62
_symmetry_cell_setting 'orthorhombic'
loop_
_space_group_symop_operation_xyz
x,y,z
1/2-x,-y,1/2+z
1/2+x,1/2-y,1/2-z
-x,1/2+y,-z
-x,-y,-z
1/2+x,y,1/2-z
1/2-x,1/2+y,1/2+z
x,1/2-y,z
loop_
_atom_site_type_symbol
_atom_site_label
_atom_site_fract_x
_atom_site_fract_y
_atom_site_fract_z
Si Si1 0.595033 0.387707 0.022836
Si Si2 0.645643 0.510285 0.299943
Si Si3 0.937643 0.617627 0.293178
Si Si4 0.711467 0.115030 0.128729
Si Si5 0.064393 0.617225 0.345810
Si Si6 0.550751 0.118234 0.410864
Si Si7 0.929153 0.040611 0.107926
Si Si8 0.181380 0.882950 0.988573
O O1 0.572854 0.250000 0.048246
O O2 0.661584 0.392980 0.045095
O O3 0.565781 0.498502 0.082860
O O4 0.584212 0.418962 0.905081
O O5 0.695397 0.452926 0.232692
O O6 0.616187 0.616950 0.235941
O O7 0.593811 0.419261 0.320504
O O8 0.674093 0.547662 0.405667
O O9 0.916576 0.750000 0.267171
O O10 0.910627 0.531127 0.209057
O O11 0.005583 0.610355 0.284795
O O12 0.724255 0.250000 0.160971
O O13 0.767788 0.057433 0.077536
O O14 0.067430 0.750000 0.401059
O O15 0.566615 0.250000 0.443135
O O16 0.486111 0.114864 0.369219
O O17 0.558154 0.044025 0.513055
O O18 0.876142 0.122699 0.077918
O O19 0.199704 0.750000 0.017545
#
# Coordination Sequence:
#
# PCOD8251156 Si02
#       8
#     8   8   8   8   8   8   8   8
#     4   9  19  35  55  77 105 144 189 230 273 326
#     4  10  19  34  57  79 104 141 184 221 274 328
#     4  10  19  33  52  77 111 144 176 221 278 330
#     4   9  19  36  56  78 104 139 185 231 274 324
#     4  10  19  33  53  80 111 143 181 228 280 332
#     4  10  19  32  51  76 106 138 177 222 271 329
#     4  10  20  33  49  78 108 139 175 220 275 330
#     4  10  21  36  54  78 109 143 180 227 277 328
#
# _framework density 18.550412000000001
#
# number of rings (size 3 to 8) (size 9 to 14) (size 15 to 20)
#    0.000    2.250    1.250    1.875    0.000    1.500 
#    0.000    1.250    0.000   23.250    0.000    0.000 
#    0.000    0.000    0.000    0.000    0.000    0.000 
#
# Total GULP energy -793078.528224 kJ/mol
# GULP energy per Si atom -12391.852003 kJ/mol
# Density = 1.850819 g / cm^3
# Si number density = 18.550412 Si / 1000 Ang^3
#
#
#
# Elastic Constant Matrix: (Units=GPa)
#
#
# Indices 1 2 3 4 5 6 
#
# 1 94.5264 22.7466 45.7436 0.0000 0.0000 0.0000
# 2 22.7466 83.5886 30.4614 0.0000 0.0000 0.0000
# 3 45.7436 30.4614 99.7450 0.0000 0.0000 0.0000
# 4 0.0000 0.0000 0.0000 14.6937 0.0000 0.0000
# 5 0.0000 0.0000 0.0000 0.0000 33.8774 0.0000
# 6 0.0000 0.0000 0.0000 0.0000 0.0000 20.7564
#
#
#
# Elastic Compliance Matrix: (Units=1/GPa)
#
#
# Indices 1 2 3 4 5 6 
#
# 1 0.013791 -0.001629 -0.005827 0.000000 0.000000 0.000000
# 2 -0.001629 0.013654 -0.003423 0.000000 0.000000 0.000000
# 3 -0.005827 -0.003423 0.013743 0.000000 0.000000 0.000000
# 4 0.000000 0.000000 0.000000 0.068056 0.000000 0.000000
# 5 0.000000 0.000000 0.000000 0.000000 0.029518 0.000000
# 6 0.000000 0.000000 0.000000 0.000000 0.000000 0.048178
#
#
# Mechanical properties :
#
#
# Convention : Reuss Voigt Hill
#
# Bulk Modulus (GPa) = 51.46652 52.86256 52.16454
# Shear Modulus (GPa) = 23.23686 25.79272 24.51479
#
# Velocity S-wave (km/s) = 3.54310 3.73287 3.63922
# Velocity P-wave (km/s) = 6.67401 6.86569 6.77053
#
# Compressibility (1/GPa) = 0.01943011
#
# Stress axis : x y z
#
# Youngs Moduli (GPa) = 72.51116 73.23852 72.76383
#
# Poissons Ratio (x) = 0.11933 0.42400
# Poissons Ratio (y) = 0.11815 0.24904
# Poissons Ratio (z) = 0.42252 0.25067
#
# Static dielectric constant tensor:
#      x y z
#    x 3.479970 0.000000 0.000000 
#    y 0.000000 3.461320 0.000000 
#    z 0.000000 0.000000 3.311080 
# 
# 
# High freq. dielectric constant tensor:
#      x y z
#    x 1.710960 0.000000 0.000000 
#    y 0.000000 1.716960 0.000000 
#    z 0.000000 0.000000 1.713580 
# 
# From -- ./inp_files/15312.got.cif
#   From: 2010.03.12/outbox.cif.g09.slc.cpg/sg62_8_cif.got.tgz:15312.got - 2010.04.10 19:12:36.
