data_PCOD8251552
_publ_section_title
;
Structure prediction by ZEFSAII (Michael W. Deem and Ramdas Pophale) SiO2 
 PCOD8251552
Probable space group: P N M A
;
_chemical_formula_sum "Si O2"
_cell_formula_units_Z 64
_cell_length_a 7.988396
_cell_length_b 20.066387
_cell_length_c 19.483725
_cell_angle_alpha 90.000000
_cell_angle_beta 90.000000
_cell_angle_gamma 90.000000
_cell_volume 3123.206936
_symmetry_space_group_name_H-M "P N M A"
_symmetry_group_IT_number 62
_symmetry_cell_setting 'orthorhombic'
loop_
_space_group_symop_operation_xyz
x,y,z
1/2-x,-y,1/2+z
1/2+x,1/2-y,1/2-z
-x,1/2+y,-z
-x,-y,-z
1/2+x,y,1/2-z
1/2-x,1/2+y,1/2+z
x,1/2-y,z
loop_
_atom_site_type_symbol
_atom_site_label
_atom_site_fract_x
_atom_site_fract_y
_atom_site_fract_z
Si Si1 0.517828 0.418305 0.567471
Si Si2 0.001391 0.675241 0.180160
Si Si3 0.569794 0.512687 0.689255
Si Si4 0.859610 0.327803 0.343184
Si Si5 0.635095 0.067690 0.934677
Si Si6 0.826258 0.895665 0.286348
Si Si7 0.340875 0.604294 0.768729
Si Si8 0.330037 0.081061 0.030767
O O1 0.577320 0.351390 0.608819
O O2 0.527344 0.485057 0.614041
O O3 0.323597 0.409514 0.542212
O O4 0.651327 0.427170 0.507072
O O5 0.069629 0.750000 0.170484
O O6 0.133551 0.616277 0.195659
O O7 0.880670 0.672144 0.246353
O O8 0.658007 0.457089 0.735637
O O9 0.404052 0.540359 0.725628
O O10 0.693221 0.576228 0.682970
O O11 0.886255 0.250000 0.355109
O O12 0.721042 0.339620 0.284669
O O13 0.803835 0.360245 0.414817
O O14 0.030017 0.362616 0.320116
O O15 0.581778 0.093195 0.858785
O O16 0.625769 0.987872 0.931737
O O17 0.490007 0.098501 0.982743
#
# Coordination Sequence:
#
# PCOD8251552 Si02
#       8
#     8   8   8   8   8   8   8   8
#     4  10  22  38  59  91 127 163 204 256 307 371
#     4  10  21  36  56  84 121 168 215 250 302 362
#     4  10  19  33  62  96 122 153 204 261 328 362
#     4  11  24  44  62  91 123 160 206 248 309 387
#     4  10  22  39  59  91 125 155 210 253 316 367
#     4  10  20  34  57  87 123 157 202 268 304 359
#     4  10  21  38  67  90 120 152 200 264 321 369
#     4  11  24  38  65  89 126 167 196 256 313 378
#
# _framework density 20.491757
#
# number of rings (size 3 to 8) (size 9 to 14) (size 15 to 20)
#    0.000    1.750    0.000    5.625    8.750    0.500 
#    2.250    3.125    0.000    0.000    0.000    0.000 
#    0.000    0.000    0.000    0.000    0.000    0.000 
#
# Total GULP energy -793313.281161 kJ/mol
# GULP energy per Si atom -12395.520018 kJ/mol
# Density = 2.044512 g / cm^3
# Si number density = 20.491757 Si / 1000 Ang^3
#
#
#
# Elastic Constant Matrix: (Units=GPa)
#
#
# Indices 1 2 3 4 5 6 
#
# 1 73.6814 5.2896 14.8816 0.0000 0.0000 0.0000
# 2 5.2896 78.8860 19.4838 0.0000 0.0000 0.0000
# 3 14.8816 19.4838 60.2349 0.0000 0.0000 0.0000
# 4 0.0000 0.0000 0.0000 23.5817 0.0000 0.0000
# 5 0.0000 0.0000 0.0000 0.0000 28.8533 0.0000
# 6 0.0000 0.0000 0.0000 0.0000 0.0000 22.1980
#
#
#
# Elastic Compliance Matrix: (Units=1/GPa)
#
#
# Indices 1 2 3 4 5 6 
#
# 1 0.014285 -0.000094 -0.003499 0.000000 0.000000 0.000000
# 2 -0.000094 0.013778 -0.004433 0.000000 0.000000 0.000000
# 3 -0.003499 -0.004433 0.018900 0.000000 0.000000 0.000000
# 4 0.000000 0.000000 0.000000 0.042406 0.000000 0.000000
# 5 0.000000 0.000000 0.000000 0.000000 0.034658 0.000000
# 6 0.000000 0.000000 0.000000 0.000000 0.000000 0.045049
#
#
# Mechanical properties :
#
#
# Convention : Reuss Voigt Hill
#
# Bulk Modulus (GPa) = 32.35092 32.45693 32.40392
# Shear Modulus (GPa) = 25.58430 26.46976 26.02703
#
# Velocity S-wave (km/s) = 3.53727 3.59796 3.56774
# Velocity P-wave (km/s) = 5.70128 5.75620 5.72880
#
# Compressibility (1/GPa) = 0.03091102
#
# Stress axis : x y z
#
# Youngs Moduli (GPa) = 70.00159 72.58050 52.90941
#
# Poissons Ratio (x) = 0.00680 0.18513
# Poissons Ratio (y) = 0.00656 0.23457
# Poissons Ratio (z) = 0.24494 0.32178
#
# Static dielectric constant tensor:
#      x y z
#    x 3.849260 0.000000 0.000000 
#    y 0.000000 3.483000 0.000000 
#    z 0.000000 0.000000 3.825140 
# 
# 
# High freq. dielectric constant tensor:
#      x y z
#    x 1.808540 0.000000 0.000000 
#    y 0.000000 1.783780 0.000000 
#    z 0.000000 0.000000 1.797110 
# 
# From -- ./inp_files/22578.got.cif
#   From: 2010.03.12/outbox.cif.g09.slc.cpg/sg62_12_cif.got.tgz:22578.got - 2010.04.10 19:12:36.
