data_PCOD8251990
_publ_section_title
;
Structure prediction by ZEFSAII (Michael W. Deem and Ramdas Pophale) SiO2 
 PCOD8251990
Probable space group: P N M A
;
_chemical_formula_sum "Si O2"
_cell_formula_units_Z 48
_cell_length_a 10.277039
_cell_length_b 8.610452
_cell_length_c 29.248397
_cell_angle_alpha 90.000000
_cell_angle_beta 90.000000
_cell_angle_gamma 90.000000
_cell_volume 2588.189218
_symmetry_space_group_name_H-M "P N M A"
_symmetry_group_IT_number 62
_symmetry_cell_setting 'orthorhombic'
loop_
_space_group_symop_operation_xyz
x,y,z
1/2-x,-y,1/2+z
1/2+x,1/2-y,1/2-z
-x,1/2+y,-z
-x,-y,-z
1/2+x,y,1/2-z
1/2-x,1/2+y,1/2+z
x,1/2-y,z
loop_
_atom_site_type_symbol
_atom_site_label
_atom_site_fract_x
_atom_site_fract_y
_atom_site_fract_z
Si Si1 0.775437 0.927446 0.384332
Si Si2 0.128612 0.434275 0.521727
Si Si3 0.385138 0.433683 0.469527
Si Si4 0.003347 0.567002 0.781704
Si Si5 0.976452 0.571697 0.120809
Si Si6 0.776666 0.564498 0.283465
O O1 0.817334 0.750000 0.380787
O O2 0.854646 0.003505 0.426587
O O3 0.623802 0.942908 0.396640
O O4 0.804952 0.002664 0.334755
O O5 0.122642 0.250000 0.523824
O O6 0.249309 0.488147 0.491050
O O7 0.000000 0.500000 0.500000
O O8 0.500000 0.500000 0.500000
O O9 0.399432 0.250000 0.467473
O O10 0.385255 0.502413 0.418453
O O11 0.998227 0.750000 0.775518
O O12 0.864219 0.496304 0.767466
O O13 0.044273 0.524974 0.833092
O O14 0.111568 0.496637 0.748832
O O15 0.939148 0.750000 0.130649
O O16 0.770688 0.750000 0.283279
#
# Coordination Sequence:
#
# PCOD8251990 Si02
#       6
#     8   8   8   8   8   8
#     4   8  16  34  58  80 108 145 189 232 273 333
#     4  10  21  38  55  80 115 151 187 231 280 334
#     4  11  21  35  58  85 115 147 188 237 284 336
#     4  11  22  38  59  88 121 150 188 244 298 343
#     4  10  19  36  60  85 112 148 193 237 285 345
#     4  10  20  38  63  86 112 154 198 236 286 351
#
# _framework density 18.545784000000001
#
# number of rings (size 3 to 8) (size 9 to 14) (size 15 to 20)
#    0.000    2.000    1.667    4.000    0.000    1.333 
#    3.000    1.667    0.000    0.000    0.000    0.000 
#    0.000    0.000    0.000    0.000    0.000    0.000 
#
# Total GULP energy -595111.873587 kJ/mol
# GULP energy per Si atom -12398.164033 kJ/mol
# Density = 1.850357 g / cm^3
# Si number density = 18.545784 Si / 1000 Ang^3
#
#
#
# Elastic Constant Matrix: (Units=GPa)
#
#
# Indices 1 2 3 4 5 6 
#
# 1 137.9911 45.0997 91.6720 0.0000 0.0000 0.0000
# 2 45.0997 87.1251 43.9644 0.0000 0.0000 0.0000
# 3 91.6720 43.9644 144.0523 0.0000 0.0000 0.0000
# 4 0.0000 0.0000 0.0000 30.8913 0.0000 0.0000
# 5 0.0000 0.0000 0.0000 0.0000 36.6424 0.0000
# 6 0.0000 0.0000 0.0000 0.0000 0.0000 30.7810
#
#
#
# Elastic Compliance Matrix: (Units=1/GPa)
#
#
# Indices 1 2 3 4 5 6 
#
# 1 0.013214 -0.003070 -0.007472 0.000000 0.000000 0.000000
# 2 -0.003070 0.014280 -0.002405 0.000000 0.000000 0.000000
# 3 -0.007472 -0.002405 0.012431 0.000000 0.000000 0.000000
# 4 0.000000 0.000000 0.000000 0.032372 0.000000 0.000000
# 5 0.000000 0.000000 0.000000 0.000000 0.027291 0.000000
# 6 0.000000 0.000000 0.000000 0.000000 0.000000 0.032488
#
#
# Mechanical properties :
#
#
# Convention : Reuss Voigt Hill
#
# Bulk Modulus (GPa) = 71.26634 81.18232 76.22433
# Shear Modulus (GPa) = 30.74146 32.22511 31.48329
#
# Velocity S-wave (km/s) = 4.07578 4.17297 4.12466
# Velocity P-wave (km/s) = 7.78845 8.19068 7.99210
#
# Compressibility (1/GPa) = 0.01403187
#
# Stress axis : x y z
#
# Youngs Moduli (GPa) = 75.67560 70.02694 80.44258
#
# Poissons Ratio (x) = 0.21495 0.60111
# Poissons Ratio (y) = 0.23229 0.19345
# Poissons Ratio (z) = 0.56549 0.16841
#
# Static dielectric constant tensor:
#      x y z
#    x 5.227860 0.000000 0.000000 
#    y 0.000000 3.341010 0.000000 
#    z 0.000000 0.000000 4.033540 
# 
# 
# High freq. dielectric constant tensor:
#      x y z
#    x 1.705290 0.000000 0.000000 
#    y 0.000000 1.713100 0.000000 
#    z 0.000000 0.000000 1.736520 
# 
# From -- ./inp_files/31944.got.cif
#   From: 2010.03.12/outbox.cif.g09.slc.cpg/sg62_16_cif.got.tgz:31944.got - 2010.04.10 19:12:36.
