data_PCOD8251638
_publ_section_title
;
Structure prediction by ZEFSAII (Michael W. Deem and Ramdas Pophale) SiO2 
 PCOD8251638
Probable space group: P N M A
;
_chemical_formula_sum "Si O2"
_cell_formula_units_Z 40
_cell_length_a 25.601887
_cell_length_b 8.901970
_cell_length_c 9.011672
_cell_angle_alpha 90.000000
_cell_angle_beta 90.000000
_cell_angle_gamma 90.000000
_cell_volume 2053.825203
_symmetry_space_group_name_H-M "P N M A"
_symmetry_group_IT_number 62
_symmetry_cell_setting 'orthorhombic'
loop_
_space_group_symop_operation_xyz
x,y,z
1/2-x,-y,1/2+z
1/2+x,1/2-y,1/2-z
-x,1/2+y,-z
-x,-y,-z
1/2+x,y,1/2-z
1/2-x,1/2+y,1/2+z
x,1/2-y,z
loop_
_atom_site_type_symbol
_atom_site_label
_atom_site_fract_x
_atom_site_fract_y
_atom_site_fract_z
Si Si1 0.210024 0.925042 0.685134
Si Si2 0.097442 0.928038 0.215122
Si Si3 0.503060 0.925139 0.658669
Si Si4 0.883279 0.075498 0.116170
Si Si5 0.810350 0.923763 0.620320
O O1 0.199411 0.750000 0.651200
O O2 0.164943 0.993880 0.792408
O O3 0.265836 0.951013 0.758725
O O4 0.210953 0.019139 0.535641
O O5 0.093478 0.750000 0.218461
O O6 0.040438 0.994756 0.261631
O O7 0.138764 0.982627 0.335532
O O8 0.112994 0.991438 0.051134
O O9 0.490026 0.750000 0.647424
O O10 0.563163 0.951024 0.710861
O O11 0.500000 0.000000 0.500000
O O12 0.872128 0.250000 0.094467
O O13 0.825370 0.750000 0.607985
#
# Coordination Sequence:
#
# PCOD8251638 Si02
#       5
#     8   8   8   8   8
#     4  10  21  38  57  77 105 140 175 214 266 322
#     4  10  19  34  56  80 109 145 182 222 269 316
#     4   9  16  29  51  80 111 142 180 222 265 317
#     4   8  16  32  55  80 106 139 177 218 263 314
#     4  11  23  37  55  81 109 138 177 222 266 319
#
# _framework density 19.475853000000001
#
# number of rings (size 3 to 8) (size 9 to 14) (size 15 to 20)
#    0.000    2.400    0.000    4.200    0.000    3.200 
#    0.000    7.000    0.000    0.000    0.000    0.000 
#    0.000    0.000    0.000    0.000    0.000    0.000 
#
# Total GULP energy -495842.836697 kJ/mol
# GULP energy per Si atom -12396.070917 kJ/mol
# Density = 1.943153 g / cm^3
# Si number density = 19.475853 Si / 1000 Ang^3
#
#
#
# Elastic Constant Matrix: (Units=GPa)
#
#
# Indices 1 2 3 4 5 6 
#
# 1 62.9435 24.5395 -6.5985 0.0000 0.0000 0.0000
# 2 24.5395 76.5294 14.3909 0.0000 0.0000 0.0000
# 3 -6.5985 14.3909 48.1063 0.0000 0.0000 0.0000
# 4 0.0000 0.0000 0.0000 24.4236 0.0000 0.0000
# 5 0.0000 0.0000 0.0000 0.0000 30.9524 0.0000
# 6 0.0000 0.0000 0.0000 0.0000 0.0000 28.0602
#
#
#
# Elastic Compliance Matrix: (Units=1/GPa)
#
#
# Indices 1 2 3 4 5 6 
#
# 1 0.019118 -0.007018 0.004722 0.000000 0.000000 0.000000
# 2 -0.007018 0.016422 -0.005875 0.000000 0.000000 0.000000
# 3 0.004722 -0.005875 0.023193 0.000000 0.000000 0.000000
# 4 0.000000 0.000000 0.000000 0.040944 0.000000 0.000000
# 5 0.000000 0.000000 0.000000 0.000000 0.032308 0.000000
# 6 0.000000 0.000000 0.000000 0.000000 0.000000 0.035638
#
#
# Mechanical properties :
#
#
# Convention : Reuss Voigt Hill
#
# Bulk Modulus (GPa) = 23.59068 28.02703 25.80886
# Shear Modulus (GPa) = 25.24028 27.03705 26.13867
#
# Velocity S-wave (km/s) = 3.60388 3.72994 3.66745
# Velocity P-wave (km/s) = 5.42737 5.74211 5.58696
#
# Compressibility (1/GPa) = 0.04238961
#
# Stress axis : x y z
#
# Youngs Moduli (GPa) = 52.30543 60.89336 43.11731
#
# Poissons Ratio (x) = 0.42737 -0.20360
# Poissons Ratio (y) = 0.36710 0.25333
# Poissons Ratio (z) = -0.24698 0.35777
#
# Static dielectric constant tensor:
#      x y z
#    x 4.094470 0.000000 0.000000 
#    y 0.000000 3.485560 0.000000 
#    z 0.000000 0.000000 3.342590 
# 
# 
# High freq. dielectric constant tensor:
#      x y z
#    x 1.779630 0.000000 0.000000 
#    y 0.000000 1.746900 0.000000 
#    z 0.000000 0.000000 1.727110 
# 
# From -- ./inp_files/9069.got.cif
#   From: 2010.03.12/outbox.cif.g09.slc.cpg/sg62_5_cif.got.tgz:9069.got - 2010.04.10 19:12:36.
