data_PCOD8251665
_publ_section_title
;
Structure prediction by ZEFSAII (Michael W. Deem and Ramdas Pophale) SiO2 
 PCOD8251665
Probable space group: P N M A
;
_chemical_formula_sum "Si O2"
_cell_formula_units_Z 48
_cell_length_a 9.814446
_cell_length_b 8.735864
_cell_length_c 27.779628
_cell_angle_alpha 90.000000
_cell_angle_beta 90.000000
_cell_angle_gamma 90.000000
_cell_volume 2381.760453
_symmetry_space_group_name_H-M "P N M A"
_symmetry_group_IT_number 62
_symmetry_cell_setting 'orthorhombic'
loop_
_space_group_symop_operation_xyz
x,y,z
1/2-x,-y,1/2+z
1/2+x,1/2-y,1/2-z
-x,1/2+y,-z
-x,-y,-z
1/2+x,y,1/2-z
1/2-x,1/2+y,1/2+z
x,1/2-y,z
loop_
_atom_site_type_symbol
_atom_site_label
_atom_site_fract_x
_atom_site_fract_y
_atom_site_fract_z
Si Si1 0.453545 0.919634 0.452714
Si Si2 0.534023 0.429968 0.948419
Si Si3 0.220380 0.931603 0.389281
Si Si4 0.287380 0.077623 0.611670
Si Si5 0.666523 0.066980 0.712066
Si Si6 0.863988 0.569457 0.791637
O O1 0.413919 0.750000 0.468825
O O2 0.322947 0.002265 0.429157
O O3 0.566312 0.918743 0.411944
O O4 0.500000 0.000000 0.500000
O O5 0.528854 0.250000 0.956201
O O6 0.429135 0.482062 0.906448
O O7 0.680069 0.484354 0.928128
O O8 0.500000 0.500000 0.000000
O O9 0.238466 0.750000 0.388340
O O10 0.259975 0.993158 0.336648
O O11 0.245564 0.250000 0.628357
O O12 0.295804 0.965564 0.656891
O O13 0.666201 0.250000 0.716215
O O14 0.510548 0.010760 0.714650
O O15 0.755919 0.995031 0.753962
O O16 0.882577 0.750000 0.785162
#
# Coordination Sequence:
#
# PCOD8251665 Si02
#       6
#     8   8   8   8   8   8
#     4  10  19  34  56  84 116 153 202 255 305 365
#     4  10  21  37  59  89 123 161 207 256 307 369
#     4   9  19  37  60  86 117 155 206 254 292 359
#     4  10  21  39  61  86 121 166 212 250 300 385
#     4  11  23  44  70  93 122 170 217 255 313 392
#     4  12  26  43  64  98 133 160 203 271 330 373
#
# _framework density 20.153161999999998
#
# number of rings (size 3 to 8) (size 9 to 14) (size 15 to 20)
#    0.000    1.667    1.667    3.000    2.333    1.333 
#    0.000    1.667    0.000    0.000    0.000    0.000 
#    0.000    0.000    0.000    0.000    0.000    0.000 
#
# Total GULP energy -595062.634742 kJ/mol
# GULP energy per Si atom -12397.138224 kJ/mol
# Density = 2.010729 g / cm^3
# Si number density = 20.153162 Si / 1000 Ang^3
#
#
#
# Elastic Constant Matrix: (Units=GPa)
#
#
# Indices 1 2 3 4 5 6 
#
# 1 80.6579 18.6175 17.1220 0.0000 0.0000 0.0000
# 2 18.6175 74.0812 37.4264 0.0000 0.0000 0.0000
# 3 17.1220 37.4264 110.2103 0.0000 0.0000 0.0000
# 4 0.0000 0.0000 0.0000 29.5365 0.0000 0.0000
# 5 0.0000 0.0000 0.0000 0.0000 40.6826 0.0000
# 6 0.0000 0.0000 0.0000 0.0000 0.0000 23.4740
#
#
#
# Elastic Compliance Matrix: (Units=1/GPa)
#
#
# Indices 1 2 3 4 5 6 
#
# 1 0.013275 -0.002769 -0.001122 0.000000 0.000000 0.000000
# 2 -0.002769 0.016872 -0.005299 0.000000 0.000000 0.000000
# 3 -0.001122 -0.005299 0.011047 0.000000 0.000000 0.000000
# 4 0.000000 0.000000 0.000000 0.033856 0.000000 0.000000
# 5 0.000000 0.000000 0.000000 0.000000 0.024581 0.000000
# 6 0.000000 0.000000 0.000000 0.000000 0.000000 0.042600
#
#
# Mechanical properties :
#
#
# Convention : Reuss Voigt Hill
#
# Bulk Modulus (GPa) = 43.83382 45.69789 44.76586
# Shear Modulus (GPa) = 29.72332 31.52419 30.62375
#
# Velocity S-wave (km/s) = 3.84457 3.95933 3.90237
# Velocity P-wave (km/s) = 6.44245 6.60501 6.52424
#
# Compressibility (1/GPa) = 0.02281343
#
# Stress axis : x y z
#
# Youngs Moduli (GPa) = 75.32699 59.26994 90.51847
#
# Poissons Ratio (x) = 0.16415 0.10156
# Poissons Ratio (y) = 0.20861 0.47969
# Poissons Ratio (z) = 0.08451 0.31409
#
# Static dielectric constant tensor:
#      x y z
#    x 3.937050 0.000000 0.000000 
#    y 0.000000 3.478540 0.000000 
#    z 0.000000 0.000000 3.837150 
# 
# 
# High freq. dielectric constant tensor:
#      x y z
#    x 1.804390 0.000000 0.000000 
#    y 0.000000 1.760720 0.000000 
#    z 0.000000 0.000000 1.799770 
# 
# From -- ./inp_files/31913.got.cif
#   From: 2010.03.12/outbox.cif.g09.slc.cpg/sg62_16_cif.got.tgz:31913.got - 2010.04.10 19:12:36.
