data_PCOD8251133
_publ_section_title
;
Structure prediction by ZEFSAII (Michael W. Deem and Ramdas Pophale) SiO2 
 PCOD8251133
Probable space group: P N M A
;
_chemical_formula_sum "Si O2"
_cell_formula_units_Z 64
_cell_length_a 23.221220
_cell_length_b 8.967334
_cell_length_c 18.816570
_cell_angle_alpha 90.000000
_cell_angle_beta 90.000000
_cell_angle_gamma 90.000000
_cell_volume 3918.220201
_symmetry_space_group_name_H-M "P N M A"
_symmetry_group_IT_number 62
_symmetry_cell_setting 'orthorhombic'
loop_
_space_group_symop_operation_xyz
x,y,z
1/2-x,-y,1/2+z
1/2+x,1/2-y,1/2-z
-x,1/2+y,-z
-x,-y,-z
1/2+x,y,1/2-z
1/2-x,1/2+y,1/2+z
x,1/2-y,z
loop_
_atom_site_type_symbol
_atom_site_label
_atom_site_fract_x
_atom_site_fract_y
_atom_site_fract_z
Si Si1 0.280880 0.076393 0.866166
Si Si2 0.170960 0.077627 0.772025
Si Si3 0.385180 0.074023 0.502955
Si Si4 0.433688 0.577315 0.367095
Si Si5 0.732894 0.575774 0.849151
Si Si6 0.746052 0.572970 0.494342
Si Si7 0.843330 0.924655 0.756673
Si Si8 0.935151 0.076130 0.847362
O O1 0.293127 0.250000 0.877193
O O2 0.218888 0.045804 0.831466
O O3 0.283100 0.994509 0.941640
O O4 0.330758 0.007910 0.817097
O O5 0.171698 0.250000 0.748711
O O6 0.110024 0.028136 0.805006
O O7 0.181870 0.976612 0.703051
O O8 0.387290 0.250000 0.497271
O O9 0.319698 0.015731 0.499432
O O10 0.413600 0.018701 0.576126
O O11 0.422708 0.010442 0.439192
O O12 0.424848 0.750000 0.385429
O O13 0.497397 0.543315 0.339212
O O14 0.726581 0.750000 0.864368
O O15 0.794101 0.535542 0.813889
O O16 0.726404 0.485825 0.921757
O O17 0.749816 0.750000 0.496068
O O18 0.846319 0.750000 0.741502
O O19 0.903906 0.982989 0.786023
O O20 0.920445 0.250000 0.837578
#
# Coordination Sequence:
#
# PCOD8251133 Si02
#       8
#     8   8   8   8   8   8   8   8
#     4  10  19  32  51  71  97 129 163 203 248 296
#     4   9  18  32  48  69  95 127 162 203 248 287
#     4  10  20  31  45  68 100 135 170 203 239 283
#     4  10  20  33  50  70  97 133 173 208 241 288
#     4  10  20  32  49  71  95 126 163 204 247 294
#     4  11  20  31  49  73 101 132 163 200 245 295
#     4  10  20  33  49  71  97 127 166 209 249 291
#     4  10  20  34  49  69  98 135 173 206 244 288
#
# _framework density 16.333946999999998
#
# number of rings (size 3 to 8) (size 9 to 14) (size 15 to 20)
#    0.000    2.000    2.500    1.875    0.000    3.500 
#    0.000    0.000    0.000    0.000    0.000    0.875 
#    0.000    0.000    0.000    0.000    0.000    0.000 
#
# Total GULP energy -793895.469341 kJ/mol
# GULP energy per Si atom -12404.616708 kJ/mol
# Density = 1.629677 g / cm^3
# Si number density = 16.333947 Si / 1000 Ang^3
#
#
#
# Elastic Constant Matrix: (Units=GPa)
#
#
# Indices 1 2 3 4 5 6 
#
# 1 76.6303 26.6312 42.9120 0.0000 0.0000 0.0000
# 2 26.6312 63.1585 45.8423 0.0000 0.0000 0.0000
# 3 42.9120 45.8423 103.4004 0.0000 0.0000 0.0000
# 4 0.0000 0.0000 0.0000 32.1919 0.0000 0.0000
# 5 0.0000 0.0000 0.0000 0.0000 23.6508 0.0000
# 6 0.0000 0.0000 0.0000 0.0000 0.0000 20.8553
#
#
#
# Elastic Compliance Matrix: (Units=1/GPa)
#
#
# Indices 1 2 3 4 5 6 
#
# 1 0.017400 -0.003090 -0.005851 0.000000 0.000000 0.000000
# 2 -0.003090 0.023894 -0.009311 0.000000 0.000000 0.000000
# 3 -0.005851 -0.009311 0.016228 0.000000 0.000000 0.000000
# 4 0.000000 0.000000 0.000000 0.031064 0.000000 0.000000
# 5 0.000000 0.000000 0.000000 0.000000 0.042282 0.000000
# 6 0.000000 0.000000 0.000000 0.000000 0.000000 0.047949
#
#
# Mechanical properties :
#
#
# Convention : Reuss Voigt Hill
#
# Bulk Modulus (GPa) = 47.57966 52.66225 50.12096
# Shear Modulus (GPa) = 22.48936 23.85987 23.17461
#
# Velocity S-wave (km/s) = 3.71462 3.82613 3.77078
# Velocity P-wave (km/s) = 6.89858 7.19930 7.05054
#
# Compressibility (1/GPa) = 0.02101738
#
# Stress axis : x y z
#
# Youngs Moduli (GPa) = 57.47075 41.85089 61.62350
#
# Poissons Ratio (x) = 0.12931 0.36058
# Poissons Ratio (y) = 0.17757 0.57379
# Poissons Ratio (z) = 0.33628 0.38968
#
# Static dielectric constant tensor:
#      x y z
#    x 2.958400 0.000000 0.000000 
#    y 0.000000 3.059750 0.000000 
#    z 0.000000 0.000000 3.006690 
# 
# 
# High freq. dielectric constant tensor:
#      x y z
#    x 1.602610 0.000000 0.000000 
#    y 0.000000 1.635550 0.000000 
#    z 0.000000 0.000000 1.623070 
# 
# From -- ./inp_files/24698.got.cif
#   From: 2010.03.12/outbox.cif.g09.slc.cpg/sg62_13_cif.got.tgz:24698.got - 2010.04.10 19:12:36.
