data_PCOD8251349
_publ_section_title
;
Structure prediction by ZEFSAII (Michael W. Deem and Ramdas Pophale) SiO2 
 PCOD8251349
Probable space group: P N M A
;
_chemical_formula_sum "Si O2"
_cell_formula_units_Z 64
_cell_length_a 16.714799
_cell_length_b 8.740110
_cell_length_c 21.466830
_cell_angle_alpha 90.000000
_cell_angle_beta 90.000000
_cell_angle_gamma 90.000000
_cell_volume 3136.071632
_symmetry_space_group_name_H-M "P N M A"
_symmetry_group_IT_number 62
_symmetry_cell_setting 'orthorhombic'
loop_
_space_group_symop_operation_xyz
x,y,z
1/2-x,-y,1/2+z
1/2+x,1/2-y,1/2-z
-x,1/2+y,-z
-x,-y,-z
1/2+x,y,1/2-z
1/2-x,1/2+y,1/2+z
x,1/2-y,z
loop_
_atom_site_type_symbol
_atom_site_label
_atom_site_fract_x
_atom_site_fract_y
_atom_site_fract_z
Si Si1 0.274634 0.080100 0.234398
Si Si2 0.849315 0.928269 0.145644
Si Si3 0.441343 0.428583 0.792320
Si Si4 0.495432 0.066841 0.570408
Si Si5 0.584803 0.928491 0.993655
Si Si6 0.180761 0.929790 0.393550
Si Si7 0.610008 0.430871 0.326064
Si Si8 0.416537 0.080739 0.142572
O O1 0.253853 0.250000 0.259593
O O2 0.194438 0.006512 0.202977
O O3 0.335501 0.086799 0.178893
O O4 0.323227 0.989656 0.287121
O O5 0.862969 0.750000 0.154670
O O6 0.928346 0.994692 0.111383
O O7 0.774105 0.969469 0.101922
O O8 0.435720 0.250000 0.776211
O O9 0.362469 0.489581 0.830047
O O10 0.453074 0.521891 0.727871
O O11 0.519681 0.457611 0.833600
O O12 0.494619 0.250000 0.565356
O O13 0.500000 0.000000 0.500000
O O14 0.416369 0.008961 0.608179
O O15 0.579386 0.750000 0.006857
O O16 0.615755 0.967236 0.925187
O O17 0.642401 0.005347 0.045148
O O18 0.500000 0.000000 0.000000
O O19 0.166405 0.750000 0.392833
O O20 0.612176 0.250000 0.337462
O O21 0.457372 0.250000 0.141515
#
# Coordination Sequence:
#
# PCOD8251349 Si02
#       8
#     8   8   8   8   8   8   8   8
#     4  10  22  38  58  88 121 156 197 247 306 360
#     4  10  21  40  64  89 116 154 203 254 306 364
#     4  11  20  34  58  86 117 154 196 241 298 361
#     4  11  25  44  68  95 125 166 213 262 319 379
#     4  10  19  33  52  76 109 148 186 226 276 339
#     4   9  18  33  56  83 112 150 194 242 293 353
#     4  11  23  40  63  90 121 157 202 254 310 370
#     4  10  21  35  54  81 116 153 192 239 291 353
#
# _framework density 20.407696000000001
#
# number of rings (size 3 to 8) (size 9 to 14) (size 15 to 20)
#    0.000    1.750    2.500    1.875    0.000    5.000 
#    0.000    4.375    0.000    1.500    0.000    0.000 
#    0.000    0.000    0.000    0.000    0.000    0.000 
#
# Total GULP energy -792988.695709 kJ/mol
# GULP energy per Si atom -12390.448370 kJ/mol
# Density = 2.036125 g / cm^3
# Si number density = 20.407696 Si / 1000 Ang^3
#
#
#
# Elastic Constant Matrix: (Units=GPa)
#
#
# Indices 1 2 3 4 5 6 
#
# 1 87.3533 23.5274 53.1843 0.0000 0.0000 0.0000
# 2 23.5274 46.6707 34.6390 0.0000 0.0000 0.0000
# 3 53.1843 34.6390 146.0169 0.0000 0.0000 0.0000
# 4 0.0000 0.0000 0.0000 26.6923 0.0000 0.0000
# 5 0.0000 0.0000 0.0000 0.0000 29.6181 0.0000
# 6 0.0000 0.0000 0.0000 0.0000 0.0000 25.5429
#
#
#
# Elastic Compliance Matrix: (Units=1/GPa)
#
#
# Indices 1 2 3 4 5 6 
#
# 1 0.015412 -0.004373 -0.004576 0.000000 0.000000 0.000000
# 2 -0.004373 0.027246 -0.004871 0.000000 0.000000 0.000000
# 3 -0.004576 -0.004871 0.009671 0.000000 0.000000 0.000000
# 4 0.000000 0.000000 0.000000 0.037464 0.000000 0.000000
# 5 0.000000 0.000000 0.000000 0.000000 0.033763 0.000000
# 6 0.000000 0.000000 0.000000 0.000000 0.000000 0.039150
#
#
# Mechanical properties :
#
#
# Convention : Reuss Voigt Hill
#
# Bulk Modulus (GPa) = 40.50358 55.86026 48.18192
# Shear Modulus (GPa) = 25.17943 27.61667 26.39805
#
# Velocity S-wave (km/s) = 3.51639 3.68264 3.60048
# Velocity P-wave (km/s) = 6.03133 6.74641 6.39887
#
# Compressibility (1/GPa) = 0.02468918
#
# Stress axis : x y z
#
# Youngs Moduli (GPa) = 64.88600 36.70233 103.40457
#
# Poissons Ratio (x) = 0.16050 0.47319
# Poissons Ratio (y) = 0.28374 0.50366
# Poissons Ratio (z) = 0.29692 0.17877
#
# Static dielectric constant tensor:
#      x y z
#    x 3.881100 0.000000 0.000000 
#    y 0.000000 -3.041060 0.000000 
#    z 0.000000 0.000000 3.913580 
# 
# 
# High freq. dielectric constant tensor:
#      x y z
#    x 1.798040 0.000000 0.000000 
#    y 0.000000 1.776240 0.000000 
#    z 0.000000 0.000000 1.810370 
# 
# From -- ./inp_files/27781.got.cif
#   From: 2010.03.12/outbox.cif.g09.slc.cpg/sg62_14_cif.got.tgz:27781.got - 2010.04.10 19:12:36.
