data_PCOD8251615
_publ_section_title
;
Structure prediction by ZEFSAII (Michael W. Deem and Ramdas Pophale) SiO2 
 PCOD8251615
Probable space group: P N M A
;
_chemical_formula_sum "Si O2"
_cell_formula_units_Z 48
_cell_length_a 9.393487
_cell_length_b 17.316975
_cell_length_c 15.485881
_cell_angle_alpha 90.000000
_cell_angle_beta 90.000000
_cell_angle_gamma 90.000000
_cell_volume 2519.038391
_symmetry_space_group_name_H-M "P N M A"
_symmetry_group_IT_number 62
_symmetry_cell_setting 'orthorhombic'
loop_
_space_group_symop_operation_xyz
x,y,z
1/2-x,-y,1/2+z
1/2+x,1/2-y,1/2-z
-x,1/2+y,-z
-x,-y,-z
1/2+x,y,1/2-z
1/2-x,1/2+y,1/2+z
x,1/2-y,z
loop_
_atom_site_type_symbol
_atom_site_label
_atom_site_fract_x
_atom_site_fract_y
_atom_site_fract_z
Si Si1 0.494914 0.341502 0.321663
Si Si2 0.671369 0.840543 0.333474
Si Si3 0.006763 0.590961 0.505114
Si Si4 0.800563 0.342105 0.023178
Si Si5 0.494603 0.658936 0.176288
Si Si6 0.181593 0.658102 0.656651
O O1 0.490680 0.250000 0.324537
O O2 0.407082 0.373699 0.403821
O O3 0.418742 0.370645 0.234711
O O4 0.657494 0.370433 0.324414
O O5 0.645987 0.750000 0.330948
O O6 0.636548 0.869953 0.430435
O O7 0.831433 0.862865 0.310351
O O8 0.573016 0.878213 0.259604
O O9 0.856591 0.624398 0.537974
O O10 0.053071 0.622209 0.411530
O O11 0.000000 0.500000 0.500000
O O12 0.130180 0.616980 0.570044
O O13 0.783949 0.250000 0.025709
O O14 0.519506 0.750000 0.168802
O O15 0.174880 0.750000 0.644862
#
# Coordination Sequence:
#
# PCOD8251615 Si02
#       6
#     8   8   8   8   8   8
#     4   9  18  32  58  87 106 130 172 219 270 322
#     4   8  15  27  48  73  97 123 158 202 252 300
#     4  11  22  35  50  73 106 145 182 214 254 309
#     4   9  17  34  55  76 103 136 170 216 269 318
#     4   9  17  32  52  74  97 127 164 210 258 301
#     4  10  19  34  55  81 107 135 172 219 267 318
#
# _framework density 19.054891000000001
#
# number of rings (size 3 to 8) (size 9 to 14) (size 15 to 20)
#    0.000    2.667    0.000    3.500    0.000    4.000 
#    0.000   12.500    0.000    0.000    0.000    0.000 
#    0.000    0.000    0.000    0.000    0.000    0.000 
#
# Total GULP energy -595076.616983 kJ/mol
# GULP energy per Si atom -12397.429520 kJ/mol
# Density = 1.901152 g / cm^3
# Si number density = 19.054891 Si / 1000 Ang^3
#
#
#
# Elastic Constant Matrix: (Units=GPa)
#
#
# Indices 1 2 3 4 5 6 
#
# 1 117.3931 12.3426 75.1184 0.0000 0.0000 0.0000
# 2 12.3426 46.5307 13.0219 0.0000 0.0000 0.0000
# 3 75.1184 13.0219 143.2557 0.0000 0.0000 0.0000
# 4 0.0000 0.0000 0.0000 6.1587 0.0000 0.0000
# 5 0.0000 0.0000 0.0000 0.0000 45.4572 0.0000
# 6 0.0000 0.0000 0.0000 0.0000 0.0000 8.4397
#
#
#
# Elastic Compliance Matrix: (Units=1/GPa)
#
#
# Indices 1 2 3 4 5 6 
#
# 1 0.012931 -0.001572 -0.006638 0.000000 0.000000 0.000000
# 2 -0.001572 0.022243 -0.001197 0.000000 0.000000 0.000000
# 3 -0.006638 -0.001197 0.010570 0.000000 0.000000 0.000000
# 4 0.000000 0.000000 0.000000 0.162372 0.000000 0.000000
# 5 0.000000 0.000000 0.000000 0.000000 0.021999 0.000000
# 6 0.000000 0.000000 0.000000 0.000000 0.000000 0.118487
#
#
# Mechanical properties :
#
#
# Convention : Reuss Voigt Hill
#
# Bulk Modulus (GPa) = 37.13415 56.46058 46.79737
# Shear Modulus (GPa) = 13.28396 25.79091 19.53743
#
# Velocity S-wave (km/s) = 2.64321 3.68299 3.20554
# Velocity P-wave (km/s) = 5.37082 6.91236 6.18977
#
# Compressibility (1/GPa) = 0.02692939
#
# Stress axis : x y z
#
# Youngs Moduli (GPa) = 77.33302 44.95715 94.60786
#
# Poissons Ratio (x) = 0.07069 0.62798
# Poissons Ratio (y) = 0.12160 0.11328
# Poissons Ratio (z) = 0.51331 0.05383
#
# Static dielectric constant tensor:
#      x y z
#    x 3.598410 0.000000 0.000000 
#    y 0.000000 2.973670 0.000000 
#    z 0.000000 0.000000 3.701460 
# 
# 
# High freq. dielectric constant tensor:
#      x y z
#    x 1.740470 0.000000 0.000000 
#    y 0.000000 1.689660 0.000000 
#    z 0.000000 0.000000 1.761000 
# 
# From -- ./inp_files/16962.got.cif
#   From: 2010.03.12/outbox.cif.g09.slc.cpg/sg62_9_cif.got.tgz:16962.got - 2010.04.10 19:12:36.
