data_PCOD8251579
_publ_section_title
;
Structure prediction by ZEFSAII (Michael W. Deem and Ramdas Pophale) SiO2 
 PCOD8251579
Probable space group: P N M A
;
_chemical_formula_sum "Si O2"
_cell_formula_units_Z 64
_cell_length_a 14.691406
_cell_length_b 9.448574
_cell_length_c 24.127048
_cell_angle_alpha 90.000000
_cell_angle_beta 90.000000
_cell_angle_gamma 90.000000
_cell_volume 3349.143975
_symmetry_space_group_name_H-M "P N M A"
_symmetry_group_IT_number 62
_symmetry_cell_setting 'orthorhombic'
loop_
_space_group_symop_operation_xyz
x,y,z
1/2-x,-y,1/2+z
1/2+x,1/2-y,1/2-z
-x,1/2+y,-z
-x,-y,-z
1/2+x,y,1/2-z
1/2-x,1/2+y,1/2+z
x,1/2-y,z
loop_
_atom_site_type_symbol
_atom_site_label
_atom_site_fract_x
_atom_site_fract_y
_atom_site_fract_z
Si Si1 0.467533 0.959354 0.440397
Si Si2 0.888376 0.404385 0.156813
Si Si3 0.839721 0.404097 0.910728
Si Si4 0.076468 0.417578 0.297812
Si Si5 0.203245 0.584497 0.212612
Si Si6 0.782230 0.595346 0.013295
Si Si7 0.300426 0.909627 0.897322
Si Si8 0.588531 0.415204 0.758656
O O1 0.444331 0.092610 0.400942
O O2 0.500000 0.000000 0.500000
O O3 0.551355 0.876246 0.413285
O O4 0.372603 0.876927 0.449240
O O5 0.904222 0.250000 0.184111
O O6 0.782424 0.428755 0.145365
O O7 0.924858 0.528735 0.196068
O O8 0.793284 0.250000 0.919505
O O9 0.815987 0.464115 0.850248
O O10 0.803262 0.511339 0.957013
O O11 0.069463 0.250000 0.284872
O O12 0.142750 0.489257 0.252928
O O13 0.111083 0.443686 0.360575
O O14 0.978628 0.493957 0.297283
O O15 0.179351 0.750000 0.222022
O O16 0.309130 0.554824 0.222762
O O17 0.742984 0.750000 0.997790
O O18 0.707057 0.513018 0.049857
O O19 0.302344 0.750000 0.920831
O O20 0.562909 0.250000 0.760850
#
# Coordination Sequence:
#
# PCOD8251579 Si02
#       8
#     8   8   8   8   8   8   8   8
#     4   9  19  31  48  77 111 145 183 225 274 332
#     4  10  19  34  54  76 106 144 186 228 271 328
#     4  10  20  35  53  73 106 149 187 226 276 335
#     4  11  22  37  59  84 110 146 190 235 281 335
#     4  10  22  39  58  83 116 152 191 236 287 342
#     4  10  20  32  51  80 110 143 183 228 279 336
#     4   9  19  35  54  77 106 140 180 224 273 326
#     4  11  23  37  55  82 115 149 186 232 288 343
#
# _framework density 19.109362000000001
#
# number of rings (size 3 to 8) (size 9 to 14) (size 15 to 20)
#    0.000    2.000    1.250    2.250    0.000   10.500 
#    0.000    0.000    0.000    0.750    0.000    0.000 
#    0.000    0.000    0.000    0.000    0.000    0.000 
#
# Total GULP energy -793086.900291 kJ/mol
# GULP energy per Si atom -12391.982817 kJ/mol
# Density = 1.906587 g / cm^3
# Si number density = 19.109362 Si / 1000 Ang^3
#
#
#
# Elastic Constant Matrix: (Units=GPa)
#
#
# Indices 1 2 3 4 5 6 
#
# 1 61.6769 22.7322 22.8284 0.0000 0.0000 0.0000
# 2 22.7322 112.1900 33.6348 0.0000 0.0000 0.0000
# 3 22.8284 33.6348 82.8066 0.0000 0.0000 0.0000
# 4 0.0000 0.0000 0.0000 28.0831 0.0000 0.0000
# 5 0.0000 0.0000 0.0000 0.0000 26.1966 0.0000
# 6 0.0000 0.0000 0.0000 0.0000 0.0000 21.6941
#
#
#
# Elastic Compliance Matrix: (Units=1/GPa)
#
#
# Indices 1 2 3 4 5 6 
#
# 1 0.018676 -0.002551 -0.004112 0.000000 0.000000 0.000000
# 2 -0.002551 0.010498 -0.003561 0.000000 0.000000 0.000000
# 3 -0.004112 -0.003561 0.014656 0.000000 0.000000 0.000000
# 4 0.000000 0.000000 0.000000 0.035609 0.000000 0.000000
# 5 0.000000 0.000000 0.000000 0.000000 0.038173 0.000000
# 6 0.000000 0.000000 0.000000 0.000000 0.000000 0.046096
#
#
# Mechanical properties :
#
#
# Convention : Reuss Voigt Hill
#
# Bulk Modulus (GPa) = 42.76891 46.11824 44.44358
# Shear Modulus (GPa) = 26.04848 27.02664 26.53756
#
# Velocity S-wave (km/s) = 3.69606 3.76482 3.73060
# Velocity P-wave (km/s) = 6.37528 6.56389 6.47027
#
# Compressibility (1/GPa) = 0.02338147
#
# Stress axis : x y z
#
# Youngs Moduli (GPa) = 53.54477 95.25709 68.22972
#
# Poissons Ratio (x) = 0.24303 0.28059
# Poissons Ratio (y) = 0.13661 0.24295
# Poissons Ratio (z) = 0.22020 0.33919
#
# Static dielectric constant tensor:
#      x y z
#    x 3.870620 0.000000 0.000000 
#    y 0.000000 3.482490 0.000000 
#    z 0.000000 0.000000 3.448230 
# 
# 
# High freq. dielectric constant tensor:
#      x y z
#    x 1.721240 0.000000 0.000000 
#    y 0.000000 1.746970 0.000000 
#    z 0.000000 0.000000 1.737100 
# 
# From -- ./inp_files/29879.got.cif
#   From: 2010.03.12/outbox.cif.g09.slc.cpg/sg62_15_cif.got.tgz:29879.got - 2010.04.10 19:12:36.
