data_PCOD8251040
_publ_section_title
;
Structure prediction by ZEFSAII (Michael W. Deem and Ramdas Pophale) SiO2 
 PCOD8251040
Probable space group: P N M A
;
_chemical_formula_sum "Si O2"
_cell_formula_units_Z 48
_cell_length_a 31.336564
_cell_length_b 8.638435
_cell_length_c 9.852649
_cell_angle_alpha 90.000000
_cell_angle_beta 90.000000
_cell_angle_gamma 90.000000
_cell_volume 2667.100963
_symmetry_space_group_name_H-M "P N M A"
_symmetry_group_IT_number 62
_symmetry_cell_setting 'orthorhombic'
loop_
_space_group_symop_operation_xyz
x,y,z
1/2-x,-y,1/2+z
1/2+x,1/2-y,1/2-z
-x,1/2+y,-z
-x,-y,-z
1/2+x,y,1/2-z
1/2-x,1/2+y,1/2+z
x,1/2-y,z
loop_
_atom_site_type_symbol
_atom_site_label
_atom_site_fract_x
_atom_site_fract_y
_atom_site_fract_z
Si Si1 0.210696 0.432916 0.414596
Si Si2 0.965572 0.064344 0.897591
Si Si3 0.965600 0.932992 0.601505
Si Si4 0.783095 0.434946 0.878301
Si Si5 0.377581 0.078856 0.915615
Si Si6 0.126049 0.581169 0.094585
O O1 0.208196 0.250000 0.404843
O O2 0.225529 0.498174 0.270211
O O3 0.245577 0.489291 0.523441
O O4 0.165280 0.495451 0.467482
O O5 0.965404 0.250000 0.895190
O O6 0.918676 0.999439 0.947637
O O7 0.975793 0.004149 0.748155
O O8 0.000000 0.000000 0.000000
O O9 0.969181 0.750000 0.610379
O O10 0.918988 0.979071 0.544524
O O11 0.000000 0.000000 0.500000
O O12 0.786501 0.250000 0.866348
O O13 0.828624 0.501820 0.938956
O O14 0.380857 0.250000 0.982091
O O15 0.375275 0.096633 0.755718
O O16 0.126520 0.750000 0.025548
#
# Coordination Sequence:
#
# PCOD8251040 Si02
#       6
#     8   8   8   8   8   8
#     4  10  19  31  51  77 101 131 171 211 254 304
#     4  10  19  33  53  77 104 137 176 215 257 305
#     4  11  21  35  55  79 105 135 173 215 259 308
#     4   9  18  33  51  72 100 132 168 211 255 300
#     4   9  17  32  52  73 100 135 170 206 252 306
#     4   7  13  28  49  68  91 128 169 206 245 293
#
# _framework density 17.997069
#
# number of rings (size 3 to 8) (size 9 to 14) (size 15 to 20)
#    0.000    2.667    0.000    5.000    0.000    1.333 
#    0.000    2.500    0.000    6.000    0.000    0.000 
#    0.000    0.000    0.000    0.000    0.000    0.000 
#
# Total GULP energy -594708.827923 kJ/mol
# GULP energy per Si atom -12389.767248 kJ/mol
# Density = 1.795611 g / cm^3
# Si number density = 17.997069 Si / 1000 Ang^3
#
#
#
# Elastic Constant Matrix: (Units=GPa)
#
#
# Indices 1 2 3 4 5 6 
#
# 1 194.8478 52.3487 78.5645 0.0000 0.0000 0.0000
# 2 52.3487 87.1098 33.7378 0.0000 0.0000 0.0000
# 3 78.5645 33.7378 74.4430 0.0000 0.0000 0.0000
# 4 0.0000 0.0000 0.0000 23.3870 0.0000 0.0000
# 5 0.0000 0.0000 0.0000 0.0000 31.9751 0.0000
# 6 0.0000 0.0000 0.0000 0.0000 0.0000 28.3648
#
#
#
# Elastic Compliance Matrix: (Units=1/GPa)
#
#
# Indices 1 2 3 4 5 6 
#
# 1 0.009257 -0.002158 -0.008791 0.000000 0.000000 0.000000
# 2 -0.002158 0.014427 -0.004261 0.000000 0.000000 0.000000
# 3 -0.008791 -0.004261 0.024642 0.000000 0.000000 0.000000
# 4 0.000000 0.000000 0.000000 0.042759 0.000000 0.000000
# 5 0.000000 0.000000 0.000000 0.000000 0.031274 0.000000
# 6 0.000000 0.000000 0.000000 0.000000 0.000000 0.035255
#
#
# Mechanical properties :
#
#
# Convention : Reuss Voigt Hill
#
# Bulk Modulus (GPa) = 55.84860 76.18918 66.01889
# Shear Modulus (GPa) = 25.77293 29.52870 27.65081
#
# Velocity S-wave (km/s) = 3.78837 4.05501 3.92395
# Velocity P-wave (km/s) = 7.08767 8.02186 7.56919
#
# Compressibility (1/GPa) = 0.01790555
#
# Stress axis : x y z
#
# Youngs Moduli (GPa) = 108.03037 69.31529 40.58109
#
# Poissons Ratio (x) = 0.14958 0.35675
# Poissons Ratio (y) = 0.23312 0.17291
# Poissons Ratio (z) = 0.94971 0.29534
#
# Static dielectric constant tensor:
#      x y z
#    x 4.083280 0.000000 0.000000 
#    y 0.000000 3.319190 0.000000 
#    z 0.000000 0.000000 2.935420 
# 
# 
# High freq. dielectric constant tensor:
#      x y z
#    x 1.723550 0.000000 0.000000 
#    y 0.000000 1.691450 0.000000 
#    z 0.000000 0.000000 1.653350 
# 
# From -- ./inp_files/15610.got.cif
#   From: 2010.03.12/outbox.cif.g09.slc.cpg/sg62_8_cif.got.tgz:15610.got - 2010.04.10 19:12:36.
