data_PCOD8251373
_publ_section_title
;
Structure prediction by ZEFSAII (Michael W. Deem and Ramdas Pophale) SiO2 
 PCOD8251373
Probable space group: P N M A
;
_chemical_formula_sum "Si O2"
_cell_formula_units_Z 56
_cell_length_a 17.971966
_cell_length_b 8.790180
_cell_length_c 18.942896
_cell_angle_alpha 90.000000
_cell_angle_beta 90.000000
_cell_angle_gamma 90.000000
_cell_volume 2992.538398
_symmetry_space_group_name_H-M "P N M A"
_symmetry_group_IT_number 62
_symmetry_cell_setting 'orthorhombic'
loop_
_space_group_symop_operation_xyz
x,y,z
1/2-x,-y,1/2+z
1/2+x,1/2-y,1/2-z
-x,1/2+y,-z
-x,-y,-z
1/2+x,y,1/2-z
1/2-x,1/2+y,1/2+z
x,1/2-y,z
loop_
_atom_site_type_symbol
_atom_site_label
_atom_site_fract_x
_atom_site_fract_y
_atom_site_fract_z
Si Si1 0.196820 0.922452 0.107238
Si Si2 0.472927 0.073502 0.571505
Si Si3 0.144216 0.574953 0.254509
Si Si4 0.504715 0.573146 0.709830
Si Si5 0.873635 0.569984 0.607756
Si Si6 0.832480 0.428749 0.462342
Si Si7 0.460309 0.429904 0.140137
O O1 0.215239 0.750000 0.083476
O O2 0.113238 0.966461 0.084396
O O3 0.205634 0.937259 0.192432
O O4 0.251948 0.040026 0.070513
O O5 0.486765 0.250000 0.565551
O O6 0.500000 0.000000 0.500000
O O7 0.523206 0.015350 0.637496
O O8 0.116063 0.750000 0.259402
O O9 0.078809 0.460632 0.233679
O O10 0.173730 0.514396 0.330104
O O11 0.514463 0.750000 0.693642
O O12 0.554659 0.521915 0.777778
O O13 0.866144 0.750000 0.616539
O O14 0.838232 0.519101 0.534750
O O15 0.959425 0.512390 0.612112
O O16 0.842260 0.250000 0.475650
O O17 0.895328 0.495721 0.409399
O O18 0.460011 0.250000 0.135594
#
# Coordination Sequence:
#
# PCOD8251373 Si02
#       7
#     8   8   8   8   8   8   8
#     4   9  20  37  53  73 103 136 169 209 260 312
#     4  10  20  35  56  80 104 132 171 219 266 313
#     4   9  17  32  53  74  97 127 168 213 253 303
#     4   9  16  30  52  76 102 130 164 207 256 308
#     4  10  19  33  53  76 104 137 174 215 261 309
#     4  11  21  33  51  76 107 140 175 213 254 306
#     4   8  17  32  50  75 104 136 173 212 254 303
#
# _framework density 18.71321
#
# number of rings (size 3 to 8) (size 9 to 14) (size 15 to 20)
#    0.000    2.571    0.000    4.286    0.000    3.429 
#    0.000    9.286    0.000    5.143    0.000    0.000 
#    0.000    0.000    0.000    0.000    0.000    0.000 
#
# Total GULP energy -694060.065280 kJ/mol
# GULP energy per Si atom -12393.929737 kJ/mol
# Density = 1.867062 g / cm^3
# Si number density = 18.713210 Si / 1000 Ang^3
#
#
#
# Elastic Constant Matrix: (Units=GPa)
#
#
# Indices 1 2 3 4 5 6 
#
# 1 46.6367 27.2346 43.2365 0.0000 0.0000 0.0000
# 2 27.2346 69.7030 50.4243 0.0000 0.0000 0.0000
# 3 43.2365 50.4243 174.9500 0.0000 0.0000 0.0000
# 4 0.0000 0.0000 0.0000 35.3037 0.0000 0.0000
# 5 0.0000 0.0000 0.0000 0.0000 20.7043 0.0000
# 6 0.0000 0.0000 0.0000 0.0000 0.0000 21.6089
#
#
#
# Elastic Compliance Matrix: (Units=1/GPa)
#
#
# Indices 1 2 3 4 5 6 
#
# 1 0.031254 -0.008369 -0.005312 0.000000 0.000000 0.000000
# 2 -0.008369 0.020367 -0.003802 0.000000 0.000000 0.000000
# 3 -0.005312 -0.003802 0.008124 0.000000 0.000000 0.000000
# 4 0.000000 0.000000 0.000000 0.028326 0.000000 0.000000
# 5 0.000000 0.000000 0.000000 0.000000 0.048299 0.000000
# 6 0.000000 0.000000 0.000000 0.000000 0.000000 0.046277
#
#
# Mechanical properties :
#
#
# Convention : Reuss Voigt Hill
#
# Bulk Modulus (GPa) = 40.35516 59.23115 49.79315
# Shear Modulus (GPa) = 22.13629 26.88300 24.50964
#
# Velocity S-wave (km/s) = 3.44310 3.79433 3.62297
# Velocity P-wave (km/s) = 6.11706 7.13560 6.64587
#
# Compressibility (1/GPa) = 0.02477998
#
# Stress axis : x y z
#
# Youngs Moduli (GPa) = 31.99555 49.09925 123.08480
#
# Poissons Ratio (x) = 0.41091 0.65382
# Poissons Ratio (y) = 0.26777 0.46795
# Poissons Ratio (z) = 0.16996 0.18667
#
# Static dielectric constant tensor:
#      x y z
#    x 3.135040 0.000000 0.000000 
#    y 0.000000 3.371590 0.000000 
#    z 0.000000 0.000000 3.946450 
# 
# 
# High freq. dielectric constant tensor:
#      x y z
#    x 1.677480 0.000000 0.000000 
#    y 0.000000 1.725900 0.000000 
#    z 0.000000 0.000000 1.748820 
# 
# From -- ./inp_files/24576.got.cif
#   From: 2010.03.12/outbox.cif.g09.slc.cpg/sg62_13_cif.got.tgz:24576.got - 2010.04.10 19:12:36.
