data_PCOD8251246
_publ_section_title
;
Structure prediction by ZEFSAII (Michael W. Deem and Ramdas Pophale) SiO2 
 PCOD8251246
Probable space group: P N M A
;
_chemical_formula_sum "Si O2"
_cell_formula_units_Z 64
_cell_length_a 19.383293
_cell_length_b 9.045839
_cell_length_c 20.646288
_cell_angle_alpha 90.000000
_cell_angle_beta 90.000000
_cell_angle_gamma 90.000000
_cell_volume 3620.081896
_symmetry_space_group_name_H-M "P N M A"
_symmetry_group_IT_number 62
_symmetry_cell_setting 'orthorhombic'
loop_
_space_group_symop_operation_xyz
x,y,z
1/2-x,-y,1/2+z
1/2+x,1/2-y,1/2-z
-x,1/2+y,-z
-x,-y,-z
1/2+x,y,1/2-z
1/2-x,1/2+y,1/2+z
x,1/2-y,z
loop_
_atom_site_type_symbol
_atom_site_label
_atom_site_fract_x
_atom_site_fract_y
_atom_site_fract_z
Si Si1 0.777560 0.920965 0.565699
Si Si2 0.205655 0.922057 0.563140
Si Si3 0.416566 0.580397 0.866716
Si Si4 0.930388 0.078713 0.374289
Si Si5 0.414506 0.076664 0.733622
Si Si6 0.289766 0.578030 0.314950
Si Si7 0.432344 0.581074 0.257842
Si Si8 0.215330 0.423408 0.194891
O O1 0.756935 0.750000 0.567774
O O2 0.858835 0.945588 0.579202
O O3 0.761238 0.985081 0.495007
O O4 0.731830 0.005505 0.617912
O O5 0.211544 0.750000 0.545387
O O6 0.125738 0.973182 0.572703
O O7 0.246412 0.960369 0.628430
O O8 0.415289 0.750000 0.841414
O O9 0.491629 0.542537 0.897526
O O10 0.400854 0.471381 0.807647
O O11 0.918415 0.250000 0.362099
O O12 0.912979 0.007883 0.305794
O O13 0.399908 0.250000 0.726748
O O14 0.492987 0.033753 0.713348
O O15 0.362267 0.986848 0.687802
O O16 0.269462 0.750000 0.314599
O O17 0.372526 0.555846 0.310497
O O18 0.252590 0.501763 0.254699
O O19 0.437020 0.750000 0.235538
O O20 0.213172 0.250000 0.209444
#
# Coordination Sequence:
#
# PCOD8251246 Si02
#       8
#     8   8   8   8   8   8   8   8
#     4  11  23  36  52  77 110 144 183 225 265 319
#     4  10  22  37  53  75 107 145 184 223 268 318
#     4   9  18  32  50  74 107 143 180 218 258 309
#     4   9  17  32  52  74 104 145 182 215 258 311
#     4  10  19  32  53  81 109 139 175 219 269 319
#     4  11  21  35  57  81 108 141 178 223 270 317
#     4   9  19  33  52  81 110 136 174 221 268 317
#     4  11  21  35  55  81 109 140 181 225 267 316
#
# _framework density 17.679158999999999
#
# number of rings (size 3 to 8) (size 9 to 14) (size 15 to 20)
#    0.000    2.000    2.500    1.500    0.000    3.500 
#    0.000    0.000    0.000    0.750    0.000    0.000 
#    0.000    0.000    0.000    0.000    0.000    0.000 
#
# Total GULP energy -793535.198351 kJ/mol
# GULP energy per Si atom -12398.987474 kJ/mol
# Density = 1.763892 g / cm^3
# Si number density = 17.679159 Si / 1000 Ang^3
#
#
#
# Elastic Constant Matrix: (Units=GPa)
#
#
# Indices 1 2 3 4 5 6 
#
# 1 97.2447 46.5622 47.0046 0.0000 0.0000 0.0000
# 2 46.5622 85.8936 48.6583 0.0000 0.0000 0.0000
# 3 47.0046 48.6583 88.6467 0.0000 0.0000 0.0000
# 4 0.0000 0.0000 0.0000 27.5077 0.0000 0.0000
# 5 0.0000 0.0000 0.0000 0.0000 21.7104 0.0000
# 6 0.0000 0.0000 0.0000 0.0000 0.0000 25.7999
#
#
#
# Elastic Compliance Matrix: (Units=1/GPa)
#
#
# Indices 1 2 3 4 5 6 
#
# 1 0.015376 -0.005394 -0.005192 0.000000 0.000000 0.000000
# 2 -0.005394 0.018788 -0.007453 0.000000 0.000000 0.000000
# 3 -0.005192 -0.007453 0.018125 0.000000 0.000000 0.000000
# 4 0.000000 0.000000 0.000000 0.036353 0.000000 0.000000
# 5 0.000000 0.000000 0.000000 0.000000 0.046061 0.000000
# 6 0.000000 0.000000 0.000000 0.000000 0.000000 0.038760
#
#
# Mechanical properties :
#
#
# Convention : Reuss Voigt Hill
#
# Bulk Modulus (GPa) = 61.68649 61.80392 61.74521
# Shear Modulus (GPa) = 23.26186 23.64093 23.45140
#
# Velocity S-wave (km/s) = 3.63130 3.66077 3.64607
# Velocity P-wave (km/s) = 7.24912 7.27343 7.26129
#
# Compressibility (1/GPa) = 0.01621100
#
# Stress axis : x y z
#
# Youngs Moduli (GPa) = 65.03789 53.22502 55.17279
#
# Poissons Ratio (x) = 0.28707 0.28648
# Poissons Ratio (y) = 0.35079 0.41120
# Poissons Ratio (z) = 0.33770 0.39668
#
# Static dielectric constant tensor:
#      x y z
#    x 3.724970 0.000000 0.000000 
#    y 0.000000 3.364040 0.000000 
#    z 0.000000 0.000000 2.950310 
# 
# 
# High freq. dielectric constant tensor:
#      x y z
#    x 1.694150 0.000000 0.000000 
#    y 0.000000 1.693000 0.000000 
#    z 0.000000 0.000000 1.648970 
# 
# From -- ./inp_files/24683.got.cif
#   From: 2010.03.12/outbox.cif.g09.slc.cpg/sg62_13_cif.got.tgz:24683.got - 2010.04.10 19:12:36.
