data_PCOD8251948
_publ_section_title
;
Structure prediction by ZEFSAII (Michael W. Deem and Ramdas Pophale) SiO2 
 PCOD8251948
Probable space group: P N M A
;
_chemical_formula_sum "Si O2"
_cell_formula_units_Z 56
_cell_length_a 20.966504
_cell_length_b 8.912383
_cell_length_c 14.836919
_cell_angle_alpha 90.000000
_cell_angle_beta 90.000000
_cell_angle_gamma 90.000000
_cell_volume 2772.449145
_symmetry_space_group_name_H-M "P N M A"
_symmetry_group_IT_number 62
_symmetry_cell_setting 'orthorhombic'
loop_
_space_group_symop_operation_xyz
x,y,z
1/2-x,-y,1/2+z
1/2+x,1/2-y,1/2-z
-x,1/2+y,-z
-x,-y,-z
1/2+x,y,1/2-z
1/2-x,1/2+y,1/2+z
x,1/2-y,z
loop_
_atom_site_type_symbol
_atom_site_label
_atom_site_fract_x
_atom_site_fract_y
_atom_site_fract_z
Si Si1 0.233282 0.929647 0.173208
Si Si2 0.226376 0.419023 0.982545
Si Si3 0.901402 0.072067 0.750563
Si Si4 0.447589 0.917133 0.056999
Si Si5 0.331117 0.427741 0.317537
Si Si6 0.540822 0.079236 0.732066
Si Si7 0.134431 0.915801 0.439681
O O1 0.241142 0.750000 0.171709
O O2 0.160872 0.982317 0.195419
O O3 0.285170 0.993702 0.244020
O O4 0.244029 0.997907 0.074891
O O5 0.199589 0.250000 0.000147
O O6 0.179697 0.515843 0.919753
O O7 0.290385 0.407088 0.923771
O O8 0.898968 0.250000 0.742082
O O9 0.897021 0.007348 0.648775
O O10 0.968966 0.025867 0.797849
O O11 0.445553 0.750000 0.022223
O O12 0.460138 0.928151 0.161234
O O13 0.500000 0.000000 0.000000
O O14 0.379933 0.990529 0.030174
O O15 0.321017 0.250000 0.311344
O O16 0.405387 0.466866 0.302495
O O17 0.554837 0.250000 0.699241
O O18 0.105356 0.750000 0.453485
#
# Coordination Sequence:
#
# PCOD8251948 Si02
#       7
#     8   8   8   8   8   8   8
#     4  11  22  41  67  94 125 163 208 259 313 369
#     4  11  23  41  65  92 123 160 205 259 313 368
#     4   9  18  37  62  86 115 157 201 246 302 363
#     4  11  21  32  52  83 118 155 195 241 299 367
#     4  12  25  41  62  93 128 165 208 255 308 370
#     4  10  21  39  60  83 118 163 205 251 310 367
#     4  10  19  36  58  82 115 155 196 244 302 363
#
# _framework density 20.198747000000001
#
# number of rings (size 3 to 8) (size 9 to 14) (size 15 to 20)
#    0.000    1.429    2.857    3.429    0.000    4.571 
#    0.000    2.143    0.000    0.000    0.000    0.000 
#    0.000    0.000    0.000    0.000    0.000    0.000 
#
# Total GULP energy -693990.008236 kJ/mol
# GULP energy per Si atom -12392.678718 kJ/mol
# Density = 2.015277 g / cm^3
# Si number density = 20.198747 Si / 1000 Ang^3
#
#
#
# Elastic Constant Matrix: (Units=GPa)
#
#
# Indices 1 2 3 4 5 6 
#
# 1 118.9949 27.7439 20.6170 0.0000 0.0000 0.0000
# 2 27.7439 102.3302 26.4915 0.0000 0.0000 0.0000
# 3 20.6170 26.4915 60.9364 0.0000 0.0000 0.0000
# 4 0.0000 0.0000 0.0000 27.5906 0.0000 0.0000
# 5 0.0000 0.0000 0.0000 0.0000 32.0401 0.0000
# 6 0.0000 0.0000 0.0000 0.0000 0.0000 25.7326
#
#
#
# Elastic Compliance Matrix: (Units=1/GPa)
#
#
# Indices 1 2 3 4 5 6 
#
# 1 0.009248 -0.001912 -0.002297 0.000000 0.000000 0.000000
# 2 -0.001912 0.011407 -0.004312 0.000000 0.000000 0.000000
# 3 -0.002297 -0.004312 0.019062 0.000000 0.000000 0.000000
# 4 0.000000 0.000000 0.000000 0.036244 0.000000 0.000000
# 5 0.000000 0.000000 0.000000 0.000000 0.031211 0.000000
# 6 0.000000 0.000000 0.000000 0.000000 0.000000 0.038861
#
#
# Mechanical properties :
#
#
# Convention : Reuss Voigt Hill
#
# Bulk Modulus (GPa) = 44.10460 47.99625 46.05043
# Shear Modulus (GPa) = 29.30225 30.89992 30.10109
#
# Velocity S-wave (km/s) = 3.81293 3.91550 3.86456
# Velocity P-wave (km/s) = 6.42397 6.65245 6.53921
#
# Compressibility (1/GPa) = 0.02267337
#
# Stress axis : x y z
#
# Youngs Moduli (GPa) = 108.13547 87.66450 52.45912
#
# Poissons Ratio (x) = 0.16766 0.12052
# Poissons Ratio (y) = 0.20681 0.22621
# Poissons Ratio (z) = 0.24843 0.37802
#
# Static dielectric constant tensor:
#      x y z
#    x 4.170880 0.000000 0.000000 
#    y 0.000000 3.674950 0.000000 
#    z 0.000000 0.000000 3.747280 
# 
# 
# High freq. dielectric constant tensor:
#      x y z
#    x 1.801860 0.000000 0.000000 
#    y 0.000000 1.777450 0.000000 
#    z 0.000000 0.000000 1.772540 
# 
# From -- ./inp_files/20401.got.cif
#   From: 2010.03.12/outbox.cif.g09.slc.cpg/sg62_11_cif.got.tgz:20401.got - 2010.04.10 19:12:36.
