data_PCOD8251312
_publ_section_title
;
Structure prediction by ZEFSAII (Michael W. Deem and Ramdas Pophale) SiO2 
 PCOD8251312
Probable space group: P N M A
;
_chemical_formula_sum "Si O2"
_cell_formula_units_Z 64
_cell_length_a 32.725017
_cell_length_b 9.087629
_cell_length_c 11.347113
_cell_angle_alpha 90.000000
_cell_angle_beta 90.000000
_cell_angle_gamma 90.000000
_cell_volume 3374.549860
_symmetry_space_group_name_H-M "P N M A"
_symmetry_group_IT_number 62
_symmetry_cell_setting 'orthorhombic'
loop_
_space_group_symop_operation_xyz
x,y,z
1/2-x,-y,1/2+z
1/2+x,1/2-y,1/2-z
-x,1/2+y,-z
-x,-y,-z
1/2+x,y,1/2-z
1/2-x,1/2+y,1/2+z
x,1/2-y,z
loop_
_atom_site_type_symbol
_atom_site_label
_atom_site_fract_x
_atom_site_fract_y
_atom_site_fract_z
Si Si1 0.476490 0.577845 0.670442
Si Si2 0.636029 0.077754 0.712822
Si Si3 0.553341 0.420815 0.585831
Si Si4 0.200109 0.924665 0.939929
Si Si5 0.167399 0.575698 0.187830
Si Si6 0.365883 0.081677 0.048516
Si Si7 0.783660 0.079526 0.590894
Si Si8 0.912173 0.422116 0.686180
O O1 0.480003 0.750000 0.690581
O O2 0.521968 0.512925 0.665229
O O3 0.451879 0.536950 0.551185
O O4 0.453450 0.508126 0.782309
O O5 0.645136 0.250000 0.714075
O O6 0.598942 0.037517 0.625378
O O7 0.676750 0.994442 0.670692
O O8 0.624858 0.025953 0.843697
O O9 0.543806 0.250000 0.607103
O O10 0.199024 0.750000 0.929174
O O11 0.246463 0.977385 0.946868
O O12 0.177999 0.982180 0.058376
O O13 0.165099 0.750000 0.194043
O O14 0.202414 0.526064 0.279438
O O15 0.123452 0.514568 0.228300
O O16 0.370068 0.250000 0.090565
O O17 0.320469 0.053543 0.999992
O O18 0.399513 0.046948 0.948513
O O19 0.770109 0.250000 0.591164
O O20 0.919357 0.250000 0.707525
#
# Coordination Sequence:
#
# PCOD8251312 Si02
#       8
#     8   8   8   8   8   8   8   8
#     4  10  19  32  56  86 113 139 176 227 274 322
#     4  11  23  38  56  78 109 147 182 222 273 324
#     4   9  20  37  54  79 113 147 181 220 272 328
#     4  11  22  34  53  81 107 137 179 221 267 325
#     4   8  17  34  54  75 102 136 175 217 261 318
#     4   9  20  38  58  79 108 145 185 227 272 324
#     4   9  19  37  56  76 105 139 177 223 272 317
#     4   9  17  34  58  79 104 143 180 218 271 323
#
# _framework density 18.965492999999999
#
# number of rings (size 3 to 8) (size 9 to 14) (size 15 to 20)
#    0.000    2.500    0.000    3.375    1.750    2.500 
#    0.000    3.750    0.000    0.000    0.000    0.000 
#    0.000    0.000    0.000    0.000    0.000    0.000 
#
# Total GULP energy -793711.217037 kJ/mol
# GULP energy per Si atom -12401.737766 kJ/mol
# Density = 1.892233 g / cm^3
# Si number density = 18.965493 Si / 1000 Ang^3
#
#
#
# Elastic Constant Matrix: (Units=GPa)
#
#
# Indices 1 2 3 4 5 6 
#
# 1 60.2712 33.8722 13.3770 0.0000 0.0000 0.0000
# 2 33.8722 68.7913 30.2032 0.0000 0.0000 0.0000
# 3 13.3770 30.2032 66.5541 0.0000 0.0000 0.0000
# 4 0.0000 0.0000 0.0000 29.2742 0.0000 0.0000
# 5 0.0000 0.0000 0.0000 0.0000 22.2508 0.0000
# 6 0.0000 0.0000 0.0000 0.0000 0.0000 31.8130
#
#
#
# Elastic Compliance Matrix: (Units=1/GPa)
#
#
# Indices 1 2 3 4 5 6 
#
# 1 0.022962 -0.011589 0.000644 0.000000 0.000000 0.000000
# 2 -0.011589 0.024003 -0.008564 0.000000 0.000000 0.000000
# 3 0.000644 -0.008564 0.018782 0.000000 0.000000 0.000000
# 4 0.000000 0.000000 0.000000 0.034160 0.000000 0.000000
# 5 0.000000 0.000000 0.000000 0.000000 0.044942 0.000000
# 6 0.000000 0.000000 0.000000 0.000000 0.000000 0.031434
#
#
# Mechanical properties :
#
#
# Convention : Reuss Voigt Hill
#
# Bulk Modulus (GPa) = 37.41126 38.94683 38.17905
# Shear Modulus (GPa) = 22.30060 24.54521 23.42290
#
# Velocity S-wave (km/s) = 3.43279 3.60141 3.51811
# Velocity P-wave (km/s) = 5.95658 6.15416 6.05618
#
# Compressibility (1/GPa) = 0.02672992
#
# Stress axis : x y z
#
# Youngs Moduli (GPa) = 43.55090 41.66165 53.24193
#
# Poissons Ratio (x) = 0.48281 -0.03429
# Poissons Ratio (y) = 0.50471 0.45594
# Poissons Ratio (z) = -0.02805 0.35677
#
# Static dielectric constant tensor:
#      x y z
#    x 3.401570 0.000000 0.000000 
#    y 0.000000 3.256060 0.000000 
#    z 0.000000 0.000000 3.502970 
# 
# 
# High freq. dielectric constant tensor:
#      x y z
#    x 1.735980 0.000000 0.000000 
#    y 0.000000 1.725230 0.000000 
#    z 0.000000 0.000000 1.733760 
# 
# From -- ./inp_files/15800.got.cif
#   From: 2010.03.12/outbox.cif.g09.slc.cpg/sg62_8_cif.got.tgz:15800.got - 2010.04.10 19:12:36.
