data_PCOD8251279
_publ_section_title
;
Structure prediction by ZEFSAII (Michael W. Deem and Ramdas Pophale) SiO2 
 PCOD8251279
Probable space group: P N M A
;
_chemical_formula_sum "Si O2"
_cell_formula_units_Z 48
_cell_length_a 19.803751
_cell_length_b 9.206848
_cell_length_c 14.756982
_cell_angle_alpha 90.000000
_cell_angle_beta 90.000000
_cell_angle_gamma 90.000000
_cell_volume 2690.642377
_symmetry_space_group_name_H-M "P N M A"
_symmetry_group_IT_number 62
_symmetry_cell_setting 'orthorhombic'
loop_
_space_group_symop_operation_xyz
x,y,z
1/2-x,-y,1/2+z
1/2+x,1/2-y,1/2-z
-x,1/2+y,-z
-x,-y,-z
1/2+x,y,1/2-z
1/2-x,1/2+y,1/2+z
x,1/2-y,z
loop_
_atom_site_type_symbol
_atom_site_label
_atom_site_fract_x
_atom_site_fract_y
_atom_site_fract_z
Si Si1 0.946148 0.082933 0.940261
Si Si2 0.033101 0.919442 0.583414
Si Si3 0.198423 0.582174 0.000262
Si Si4 0.155825 0.917959 0.803791
Si Si5 0.310116 0.414955 0.107314
Si Si6 0.023556 0.082111 0.763324
O O1 0.948765 0.250000 0.971644
O O2 0.871444 0.018994 0.958833
O O3 0.962117 0.066351 0.833918
O O4 0.000000 0.000000 0.000000
O O5 0.014009 0.750000 0.582334
O O6 0.113073 0.943891 0.578498
O O7 0.003722 0.991039 0.674653
O O8 0.000000 0.000000 0.500000
O O9 0.203628 0.750000 0.024035
O O10 0.262619 0.509849 0.045140
O O11 0.201527 0.554492 0.892062
O O12 0.131278 0.750000 0.797977
O O13 0.198721 0.956039 0.713642
O O14 0.090371 0.019010 0.810791
O O15 0.289278 0.250000 0.090175
O O16 0.036026 0.250000 0.737317
#
# Coordination Sequence:
#
# PCOD8251279 Si02
#       6
#     8   8   8   8   8   8
#     4  10  20  33  53  82 112 142 179 223 270 323
#     4  10  21  39  61  82 108 143 184 229 276 327
#     4  10  20  35  55  78 109 145 181 225 272 325
#     4   9  18  35  56  75 104 143 182 220 270 325
#     4   9  20  37  55  78 107 139 178 224 269 323
#     4  10  19  32  54  83 111 139 179 224 272 327
#
# _framework density 17.839607000000001
#
# number of rings (size 3 to 8) (size 9 to 14) (size 15 to 20)
#    0.000    2.333    1.667    2.000    0.000    5.333 
#    3.000    0.000    0.000    0.000    0.000    0.000 
#    0.000    0.000    0.000    0.000    0.000    0.000 
#
# Total GULP energy -595209.477145 kJ/mol
# GULP energy per Si atom -12400.197441 kJ/mol
# Density = 1.779900 g / cm^3
# Si number density = 17.839607 Si / 1000 Ang^3
#
#
#
# Elastic Constant Matrix: (Units=GPa)
#
#
# Indices 1 2 3 4 5 6 
#
# 1 66.7487 41.2509 60.4820 0.0000 0.0000 0.0000
# 2 41.2509 88.9827 61.1984 0.0000 0.0000 0.0000
# 3 60.4820 61.1984 135.9503 0.0000 0.0000 0.0000
# 4 0.0000 0.0000 0.0000 33.5126 0.0000 0.0000
# 5 0.0000 0.0000 0.0000 0.0000 33.8481 0.0000
# 6 0.0000 0.0000 0.0000 0.0000 0.0000 31.3089
#
#
#
# Elastic Compliance Matrix: (Units=1/GPa)
#
#
# Indices 1 2 3 4 5 6 
#
# 1 0.027293 -0.006231 -0.009337 0.000000 0.000000 0.000000
# 2 -0.006231 0.017700 -0.005196 0.000000 0.000000 0.000000
# 3 -0.009337 -0.005196 0.013849 0.000000 0.000000 0.000000
# 4 0.000000 0.000000 0.000000 0.029840 0.000000 0.000000
# 5 0.000000 0.000000 0.000000 0.000000 0.029544 0.000000
# 6 0.000000 0.000000 0.000000 0.000000 0.000000 0.031940
#
#
# Mechanical properties :
#
#
# Convention : Reuss Voigt Hill
#
# Bulk Modulus (GPa) = 57.75750 68.61602 63.18676
# Shear Modulus (GPa) = 25.32112 28.31726 26.81919
#
# Velocity S-wave (km/s) = 3.77155 3.98845 3.88151
# Velocity P-wave (km/s) = 7.17024 7.73023 7.45550
#
# Compressibility (1/GPa) = 0.01731377
#
# Stress axis : x y z
#
# Youngs Moduli (GPa) = 36.63957 56.49715 72.20965
#
# Poissons Ratio (x) = 0.35202 0.67425
# Poissons Ratio (y) = 0.22829 0.37518
# Poissons Ratio (z) = 0.34212 0.29355
#
# Static dielectric constant tensor:
#      x y z
#    x 3.158770 0.000000 0.000000 
#    y 0.000000 3.355620 0.000000 
#    z 0.000000 0.000000 3.492290 
# 
# 
# High freq. dielectric constant tensor:
#      x y z
#    x 1.667880 0.000000 0.000000 
#    y 0.000000 1.694320 0.000000 
#    z 0.000000 0.000000 1.703540 
# 
# From -- ./inp_files/20038.got.cif
#   From: 2010.03.12/outbox.cif.g09.slc.cpg/sg62_11_cif.got.tgz:20038.got - 2010.04.10 19:12:36.
