data_PCOD8251729
_publ_section_title
;
Structure prediction by ZEFSAII (Michael W. Deem and Ramdas Pophale) SiO2 
 PCOD8251729
Probable space group: P N M A
;
_chemical_formula_sum "Si O2"
_cell_formula_units_Z 48
_cell_length_a 16.494627
_cell_length_b 8.920370
_cell_length_c 17.663754
_cell_angle_alpha 90.000000
_cell_angle_beta 90.000000
_cell_angle_gamma 90.000000
_cell_volume 2599.012542
_symmetry_space_group_name_H-M "P N M A"
_symmetry_group_IT_number 62
_symmetry_cell_setting 'orthorhombic'
loop_
_space_group_symop_operation_xyz
x,y,z
1/2-x,-y,1/2+z
1/2+x,1/2-y,1/2-z
-x,1/2+y,-z
-x,-y,-z
1/2+x,y,1/2-z
1/2-x,1/2+y,1/2+z
x,1/2-y,z
loop_
_atom_site_type_symbol
_atom_site_label
_atom_site_fract_x
_atom_site_fract_y
_atom_site_fract_z
Si Si1 0.994523 0.423793 0.579842
Si Si2 0.413725 0.425843 0.487455
Si Si3 0.186291 0.921615 0.401926
Si Si4 0.330080 0.076676 0.330140
Si Si5 0.853362 0.927412 0.325316
Si Si6 0.736424 0.075265 0.439387
O O1 0.006625 0.250000 0.564643
O O2 0.907080 0.456459 0.616923
O O3 0.000000 0.500000 0.500000
O O4 0.064096 0.484517 0.635226
O O5 0.500000 0.500000 0.500000
O O6 0.418278 0.250000 0.504114
O O7 0.387157 0.459030 0.401497
O O8 0.350029 0.498347 0.545589
O O9 0.209323 0.750000 0.382768
O O10 0.203182 0.953913 0.490408
O O11 0.238087 0.031536 0.349622
O O12 0.332082 0.250000 0.307491
O O13 0.361351 0.977859 0.261030
O O14 0.843137 0.750000 0.329848
O O15 0.775853 0.002912 0.364928
O O16 0.721750 0.250000 0.424621
#
# Coordination Sequence:
#
# PCOD8251729 Si02
#       6
#     8   8   8   8   8   8
#     4  10  20  34  56  86 116 148 187 229 277 335
#     4  10  21  39  62  86 112 147 195 242 286 339
#     4   9  18  35  57  81 110 146 185 226 275 333
#     4  10  22  39  58  81 112 150 190 236 285 335
#     4  11  22  36  56  84 118 152 187 233 286 340
#     4  10  19  34  59  84 111 147 186 230 281 338
#
# _framework density 18.468553
#
# number of rings (size 3 to 8) (size 9 to 14) (size 15 to 20)
#    0.000    2.000    1.667    2.000    0.000    4.000 
#    3.000    0.000    0.000    0.000    0.000    0.000 
#    0.000    0.000    0.000    0.000    0.000    0.000 
#
# Total GULP energy -595370.607958 kJ/mol
# GULP energy per Si atom -12403.554332 kJ/mol
# Density = 1.842652 g / cm^3
# Si number density = 18.468553 Si / 1000 Ang^3
#
#
#
# Elastic Constant Matrix: (Units=GPa)
#
#
# Indices 1 2 3 4 5 6 
#
# 1 139.3107 61.4531 55.0274 0.0000 0.0000 0.0000
# 2 61.4531 92.1444 47.8149 0.0000 0.0000 0.0000
# 3 55.0274 47.8149 93.2900 0.0000 0.0000 0.0000
# 4 0.0000 0.0000 0.0000 34.3453 0.0000 0.0000
# 5 0.0000 0.0000 0.0000 0.0000 20.5170 0.0000
# 6 0.0000 0.0000 0.0000 0.0000 0.0000 31.7414
#
#
#
# Elastic Compliance Matrix: (Units=1/GPa)
#
#
# Indices 1 2 3 4 5 6 
#
# 1 0.011049 -0.005431 -0.003733 0.000000 0.000000 0.000000
# 2 -0.005431 0.017455 -0.005743 0.000000 0.000000 0.000000
# 3 -0.003733 -0.005743 0.015865 0.000000 0.000000 0.000000
# 4 0.000000 0.000000 0.000000 0.029116 0.000000 0.000000
# 5 0.000000 0.000000 0.000000 0.000000 0.048740 0.000000
# 6 0.000000 0.000000 0.000000 0.000000 0.000000 0.031505
#
#
# Mechanical properties :
#
#
# Convention : Reuss Voigt Hill
#
# Bulk Modulus (GPa) = 68.71137 72.59288 70.65212
# Shear Modulus (GPa) = 26.54003 28.01737 27.27870
#
# Velocity S-wave (km/s) = 3.79494 3.89913 3.84739
# Velocity P-wave (km/s) = 7.51581 7.72415 7.62069
#
# Compressibility (1/GPa) = 0.01455363
#
# Stress axis : x y z
#
# Youngs Moduli (GPa) = 90.50777 57.29117 63.03314
#
# Poissons Ratio (x) = 0.31117 0.23533
# Poissons Ratio (y) = 0.49158 0.36197
# Poissons Ratio (z) = 0.33790 0.32900
#
# Static dielectric constant tensor:
#      x y z
#    x 3.573840 0.000000 0.000000 
#    y 0.000000 3.466340 0.000000 
#    z 0.000000 0.000000 3.249640 
# 
# 
# High freq. dielectric constant tensor:
#      x y z
#    x 1.721770 0.000000 0.000000 
#    y 0.000000 1.726290 0.000000 
#    z 0.000000 0.000000 1.703010 
# 
# From -- ./inp_files/23671.got.cif
#   From: 2010.03.12/outbox.cif.g09.slc.cpg/sg62_12_cif.got.tgz:23671.got - 2010.04.10 19:12:36.
