data_PCOD8251085
_publ_section_title
;
Structure prediction by ZEFSAII (Michael W. Deem and Ramdas Pophale) SiO2 
 PCOD8251085
Probable space group: P N M A
;
_chemical_formula_sum "Si O2"
_cell_formula_units_Z 48
_cell_length_a 13.985576
_cell_length_b 8.710128
_cell_length_c 18.806722
_cell_angle_alpha 90.000000
_cell_angle_beta 90.000000
_cell_angle_gamma 90.000000
_cell_volume 2290.962602
_symmetry_space_group_name_H-M "P N M A"
_symmetry_group_IT_number 62
_symmetry_cell_setting 'orthorhombic'
loop_
_space_group_symop_operation_xyz
x,y,z
1/2-x,-y,1/2+z
1/2+x,1/2-y,1/2-z
-x,1/2+y,-z
-x,-y,-z
1/2+x,y,1/2-z
1/2-x,1/2+y,1/2+z
x,1/2-y,z
loop_
_atom_site_type_symbol
_atom_site_label
_atom_site_fract_x
_atom_site_fract_y
_atom_site_fract_z
Si Si1 0.156041 0.071355 0.486053
Si Si2 0.670527 0.929239 0.275853
Si Si3 0.548666 0.075338 0.391312
Si Si4 0.130974 0.925508 0.973473
Si Si5 0.860935 0.567341 0.355110
Si Si6 0.941194 0.931913 0.652849
O O1 0.137876 0.250000 0.495536
O O2 0.260331 0.039029 0.452777
O O3 0.146563 0.997211 0.564608
O O4 0.080880 0.007631 0.427687
O O5 0.676071 0.750000 0.259950
O O6 0.770782 0.991056 0.308571
O O7 0.584911 0.960875 0.331020
O O8 0.646009 0.016419 0.203134
O O9 0.569894 0.250000 0.367871
O O10 0.435070 0.049059 0.403885
O O11 0.601849 0.042621 0.465072
O O12 0.119839 0.750000 0.001708
O O13 0.860714 0.750000 0.356042
O O14 0.959079 0.505434 0.320901
O O15 0.949047 0.750000 0.655618
#
# Coordination Sequence:
#
# PCOD8251085 Si02
#       6
#     8   8   8   8   8   8
#     4   9  18  37  62  87 117 158 200 242 295 353
#     4  11  23  41  63  84 118 164 205 247 301 366
#     4  10  19  31  54  88 120 152 197 246 294 348
#     4   9  17  33  56  84 119 156 191 235 295 356
#     4  10  21  41  66  86 113 159 206 245 297 361
#     4  11  24  39  60  91 124 154 196 253 306 358
#
# _framework density 20.951889999999999
#
# number of rings (size 3 to 8) (size 9 to 14) (size 15 to 20)
#    0.000    2.000    1.667    2.000    0.000    3.333 
#    0.000    4.167    0.000    0.000    0.000    0.000 
#    0.000    0.000    0.000    0.000    0.000    0.000 
#
# Total GULP energy -595102.473625 kJ/mol
# GULP energy per Si atom -12397.968201 kJ/mol
# Density = 2.090420 g / cm^3
# Si number density = 20.951890 Si / 1000 Ang^3
#
#
#
# Elastic Constant Matrix: (Units=GPa)
#
#
# Indices 1 2 3 4 5 6 
#
# 1 117.2464 26.0653 48.2749 0.0000 0.0000 0.0000
# 2 26.0653 32.0318 16.3041 0.0000 0.0000 0.0000
# 3 48.2749 16.3041 99.1535 0.0000 0.0000 0.0000
# 4 0.0000 0.0000 0.0000 29.1984 0.0000 0.0000
# 5 0.0000 0.0000 0.0000 0.0000 30.7464 0.0000
# 6 0.0000 0.0000 0.0000 0.0000 0.0000 27.1367
#
#
#
# Elastic Compliance Matrix: (Units=1/GPa)
#
#
# Indices 1 2 3 4 5 6 
#
# 1 0.012114 -0.007482 -0.004668 0.000000 0.000000 0.000000
# 2 -0.007482 0.038691 -0.002719 0.000000 0.000000 0.000000
# 3 -0.004668 -0.002719 0.012805 0.000000 0.000000 0.000000
# 4 0.000000 0.000000 0.000000 0.034248 0.000000 0.000000
# 5 0.000000 0.000000 0.000000 0.000000 0.032524 0.000000
# 6 0.000000 0.000000 0.000000 0.000000 0.000000 0.036850
#
#
# Mechanical properties :
#
#
# Convention : Reuss Voigt Hill
#
# Bulk Modulus (GPa) = 29.52237 47.74670 38.63454
# Shear Modulus (GPa) = 24.00809 27.93545 25.97177
#
# Velocity S-wave (km/s) = 3.38874 3.65542 3.52460
# Velocity P-wave (km/s) = 5.42518 6.37607 5.91975
#
# Compressibility (1/GPa) = 0.03387262
#
# Stress axis : x y z
#
# Youngs Moduli (GPa) = 82.54713 25.84550 78.09346
#
# Poissons Ratio (x) = 0.19337 0.36453
# Poissons Ratio (y) = 0.61761 0.21237
# Poissons Ratio (z) = 0.38532 0.07029
#
# Static dielectric constant tensor:
#      x y z
#    x 3.995490 0.000000 0.000000 
#    y 0.000000 3.497950 0.000000 
#    z 0.000000 0.000000 3.835010 
# 
# 
# High freq. dielectric constant tensor:
#      x y z
#    x 1.830170 0.000000 0.000000 
#    y 0.000000 1.797930 0.000000 
#    z 0.000000 0.000000 1.809590 
# 
# From -- ./inp_files/23717.got.cif
#   From: 2010.03.12/outbox.cif.g09.slc.cpg/sg62_12_cif.got.tgz:23717.got - 2010.04.10 19:12:36.
