data_PCOD8251993
_publ_section_title
;
Structure prediction by ZEFSAII (Michael W. Deem and Ramdas Pophale) SiO2 
 PCOD8251993
Probable space group: P N M A
;
_chemical_formula_sum "Si O2"
_cell_formula_units_Z 64
_cell_length_a 8.728672
_cell_length_b 16.911619
_cell_length_c 20.948867
_cell_angle_alpha 90.000000
_cell_angle_beta 90.000000
_cell_angle_gamma 90.000000
_cell_volume 3092.387432
_symmetry_space_group_name_H-M "P N M A"
_symmetry_group_IT_number 62
_symmetry_cell_setting 'orthorhombic'
loop_
_space_group_symop_operation_xyz
x,y,z
1/2-x,-y,1/2+z
1/2+x,1/2-y,1/2-z
-x,1/2+y,-z
-x,-y,-z
1/2+x,y,1/2-z
1/2-x,1/2+y,1/2+z
x,1/2-y,z
loop_
_atom_site_type_symbol
_atom_site_label
_atom_site_fract_x
_atom_site_fract_y
_atom_site_fract_z
Si Si1 0.823367 0.583067 0.058628
Si Si2 0.662421 0.097017 0.189926
Si Si3 0.684703 0.905439 0.427716
Si Si4 0.182295 0.086359 0.446129
Si Si5 0.180815 0.159056 0.697816
Si Si6 0.320824 0.421639 0.067422
Si Si7 0.341927 0.160545 0.197744
Si Si8 0.850558 0.412333 0.684766
O O1 0.784496 0.491772 0.048635
O O2 0.741281 0.616392 0.121931
O O3 0.003195 0.595419 0.064166
O O4 0.758277 0.622445 0.993248
O O5 0.728694 0.127231 0.121202
O O6 0.522813 0.154193 0.205541
O O7 0.781514 0.103768 0.246627
O O8 0.611757 0.005699 0.181342
O O9 0.765908 0.865546 0.490561
O O10 0.723966 0.852419 0.366855
O O11 0.750042 0.993146 0.416483
O O12 0.001217 0.068417 0.446571
O O13 0.191838 0.250000 0.718967
O O14 0.248661 0.104502 0.753393
O O15 0.005641 0.136431 0.686845
O O16 0.286877 0.367244 0.128409
O O17 0.287890 0.250000 0.208729
#
# Coordination Sequence:
#
# PCOD8251993 Si02
#       8
#     8   8   8   8   8   8   8   8
#     4  10  20  34  60  91 115 146 199 256 298 345
#     4  10  21  38  61  85 113 155 199 241 289 348
#     4  11  20  36  60  88 119 152 197 249 298 359
#     4   9  18  34  58  88 116 149 201 254 295 342
#     4  12  25  41  60  88 122 156 192 245 305 362
#     4  10  19  36  60  85 117 157 201 248 297 354
#     4  11  23  38  56  86 121 154 191 240 295 350
#     4  11  22  41  63  87 115 155 203 245 294 360
#
# _framework density 20.695982999999998
#
# number of rings (size 3 to 8) (size 9 to 14) (size 15 to 20)
#    0.000    1.500    0.000    9.000    0.000    4.000 
#    0.000    8.125    0.000    0.000    0.000    0.000 
#    0.000    0.000    0.000    0.000    0.000    0.000 
#
# Total GULP energy -793401.651631 kJ/mol
# GULP energy per Si atom -12396.900807 kJ/mol
# Density = 2.064888 g / cm^3
# Si number density = 20.695983 Si / 1000 Ang^3
#
#
#
# Elastic Constant Matrix: (Units=GPa)
#
#
# Indices 1 2 3 4 5 6 
#
# 1 112.1946 15.7439 47.3847 0.0000 0.0000 0.0000
# 2 15.7439 54.3207 23.0726 0.0000 0.0000 0.0000
# 3 47.3847 23.0726 148.5740 0.0000 0.0000 0.0000
# 4 0.0000 0.0000 0.0000 10.6170 0.0000 0.0000
# 5 0.0000 0.0000 0.0000 0.0000 41.5012 0.0000
# 6 0.0000 0.0000 0.0000 0.0000 0.0000 18.2895
#
#
#
# Elastic Compliance Matrix: (Units=1/GPa)
#
#
# Indices 1 2 3 4 5 6 
#
# 1 0.010450 -0.001727 -0.003065 0.000000 0.000000 0.000000
# 2 -0.001727 0.019995 -0.002554 0.000000 0.000000 0.000000
# 3 -0.003065 -0.002554 0.008105 0.000000 0.000000 0.000000
# 4 0.000000 0.000000 0.000000 0.094189 0.000000 0.000000
# 5 0.000000 0.000000 0.000000 0.000000 0.024096 0.000000
# 6 0.000000 0.000000 0.000000 0.000000 0.000000 0.054676
#
#
# Mechanical properties :
#
#
# Convention : Reuss Voigt Hill
#
# Bulk Modulus (GPa) = 41.91563 54.16573 48.04068
# Shear Modulus (GPa) = 21.35348 29.34074 25.34711
#
# Velocity S-wave (km/s) = 3.21560 3.76932 3.50342
# Velocity P-wave (km/s) = 5.83813 6.72106 6.29509
#
# Compressibility (1/GPa) = 0.02385745
#
# Stress axis : x y z
#
# Youngs Moduli (GPa) = 95.69635 50.01345 123.38547
#
# Poissons Ratio (x) = 0.08637 0.37812
# Poissons Ratio (y) = 0.16527 0.31516
# Poissons Ratio (z) = 0.29326 0.12775
#
# Static dielectric constant tensor:
#      x y z
#    x 3.678600 0.000000 0.000000 
#    y 0.000000 3.301720 0.000000 
#    z 0.000000 0.000000 4.688090 
# 
# 
# High freq. dielectric constant tensor:
#      x y z
#    x 1.813360 0.000000 0.000000 
#    y 0.000000 1.767710 0.000000 
#    z 0.000000 0.000000 1.844070 
# 
# From -- ./inp_files/26150.got.cif
#   From: 2010.03.12/outbox.cif.g09.slc.cpg/sg62_14_cif.got.tgz:26150.got - 2010.04.10 19:12:36.
