data_PCOD8251423
_publ_section_title
;
Structure prediction by ZEFSAII (Michael W. Deem and Ramdas Pophale) SiO2 
 PCOD8251423
Probable space group: P N M A
;
_chemical_formula_sum "Si O2"
_cell_formula_units_Z 64
_cell_length_a 15.002473
_cell_length_b 9.219973
_cell_length_c 24.853061
_cell_angle_alpha 90.000000
_cell_angle_beta 90.000000
_cell_angle_gamma 90.000000
_cell_volume 3437.734945
_symmetry_space_group_name_H-M "P N M A"
_symmetry_group_IT_number 62
_symmetry_cell_setting 'orthorhombic'
loop_
_space_group_symop_operation_xyz
x,y,z
1/2-x,-y,1/2+z
1/2+x,1/2-y,1/2-z
-x,1/2+y,-z
-x,-y,-z
1/2+x,y,1/2-z
1/2-x,1/2+y,1/2+z
x,1/2-y,z
loop_
_atom_site_type_symbol
_atom_site_label
_atom_site_fract_x
_atom_site_fract_y
_atom_site_fract_z
Si Si1 0.308427 0.582327 0.439756
Si Si2 0.195203 0.422093 0.354916
Si Si3 0.690995 0.916928 0.848072
Si Si4 0.500787 0.579293 0.396719
Si Si5 0.528250 0.914594 0.277378
Si Si6 0.829248 0.918160 0.937677
Si Si7 0.999048 0.585074 0.674785
Si Si8 0.767424 0.416652 0.751062
O O1 0.292092 0.750000 0.424485
O O2 0.237284 0.482996 0.409363
O O3 0.408493 0.535552 0.424487
O O4 0.293244 0.553354 0.502610
O O5 0.208213 0.250000 0.352298
O O6 0.244556 0.495684 0.304343
O O7 0.090591 0.469314 0.355061
O O8 0.713875 0.750000 0.834294
O O9 0.751517 0.972183 0.897375
O O10 0.585869 0.933088 0.863485
O O11 0.704343 0.014277 0.795654
O O12 0.519051 0.750000 0.398488
O O13 0.498140 0.523393 0.335156
O O14 0.580104 0.504608 0.429056
O O15 0.496633 0.750000 0.270921
O O16 0.633785 0.930698 0.273810
O O17 0.481056 0.002431 0.230238
O O18 0.851170 0.750000 0.928738
O O19 0.983714 0.750000 0.691844
O O20 0.740135 0.250000 0.740668
#
# Coordination Sequence:
#
# PCOD8251423 Si02
#       8
#     8   8   8   8   8   8   8   8
#     4  10  22  38  56  80 110 148 187 228 278 326
#     4  10  21  38  57  79 107 142 184 229 275 323
#     4  10  20  35  55  81 111 145 184 226 272 323
#     4  10  20  35  54  79 112 145 182 225 270 327
#     4   9  18  32  50  77 109 141 174 216 270 324
#     4  10  21  37  57  81 112 147 186 229 274 326
#     4   9  20  36  54  77 109 144 180 226 272 322
#     4  10  19  33  54  79 109 142 175 219 272 326
#
# _framework density 18.616909
#
# number of rings (size 3 to 8) (size 9 to 14) (size 15 to 20)
#    0.000    2.250    1.250    1.125    1.750    3.000 
#    0.000    0.625    0.000    0.000    0.000    0.000 
#    0.000    0.000    0.000    0.000    0.000    0.000 
#
# Total GULP energy -793656.106673 kJ/mol
# GULP energy per Si atom -12400.876667 kJ/mol
# Density = 1.857454 g / cm^3
# Si number density = 18.616909 Si / 1000 Ang^3
#
#
#
# Elastic Constant Matrix: (Units=GPa)
#
#
# Indices 1 2 3 4 5 6 
#
# 1 96.4211 39.2819 54.9683 0.0000 0.0000 0.0000
# 2 39.2819 62.8681 34.9874 0.0000 0.0000 0.0000
# 3 54.9683 34.9874 88.5842 0.0000 0.0000 0.0000
# 4 0.0000 0.0000 0.0000 29.1531 0.0000 0.0000
# 5 0.0000 0.0000 0.0000 0.0000 25.0627 0.0000
# 6 0.0000 0.0000 0.0000 0.0000 0.0000 22.4085
#
#
#
# Elastic Compliance Matrix: (Units=1/GPa)
#
#
# Indices 1 2 3 4 5 6 
#
# 1 0.017852 -0.006395 -0.008551 0.000000 0.000000 0.000000
# 2 -0.006395 0.022679 -0.004989 0.000000 0.000000 0.000000
# 3 -0.008551 -0.004989 0.018565 0.000000 0.000000 0.000000
# 4 0.000000 0.000000 0.000000 0.034302 0.000000 0.000000
# 5 0.000000 0.000000 0.000000 0.000000 0.039900 0.000000
# 6 0.000000 0.000000 0.000000 0.000000 0.000000 0.044626
#
#
# Mechanical properties :
#
#
# Convention : Reuss Voigt Hill
#
# Bulk Modulus (GPa) = 52.01631 56.26096 54.13864
# Shear Modulus (GPa) = 22.30126 23.23390 22.76758
#
# Velocity S-wave (km/s) = 3.46483 3.53654 3.50087
# Velocity P-wave (km/s) = 6.63383 6.85289 6.74425
#
# Compressibility (1/GPa) = 0.01922474
#
# Stress axis : x y z
#
# Youngs Moduli (GPa) = 56.01728 44.09435 53.86345
#
# Poissons Ratio (x) = 0.28199 0.46061
# Poissons Ratio (y) = 0.35824 0.26872
# Poissons Ratio (z) = 0.47903 0.21998
#
# Static dielectric constant tensor:
#      x y z
#    x 3.443560 0.000000 0.000000 
#    y 0.000000 3.407240 0.000000 
#    z 0.000000 0.000000 3.359740 
# 
# 
# High freq. dielectric constant tensor:
#      x y z
#    x 1.726410 0.000000 0.000000 
#    y 0.000000 1.719400 0.000000 
#    z 0.000000 0.000000 1.712030 
# 
# From -- ./inp_files/29737.got.cif
#   From: 2010.03.12/outbox.cif.g09.slc.cpg/sg62_15_cif.got.tgz:29737.got - 2010.04.10 19:12:36.
