data_PCOD8251995
_publ_section_title
;
Structure prediction by ZEFSAII (Michael W. Deem and Ramdas Pophale) SiO2 
 PCOD8251995
Probable space group: P N M A
;
_chemical_formula_sum "Si O2"
_cell_formula_units_Z 40
_cell_length_a 8.889050
_cell_length_b 10.338171
_cell_length_c 22.180180
_cell_angle_alpha 90.000000
_cell_angle_beta 90.000000
_cell_angle_gamma 90.000000
_cell_volume 2038.281331
_symmetry_space_group_name_H-M "P N M A"
_symmetry_group_IT_number 62
_symmetry_cell_setting 'orthorhombic'
loop_
_space_group_symop_operation_xyz
x,y,z
1/2-x,-y,1/2+z
1/2+x,1/2-y,1/2-z
-x,1/2+y,-z
-x,-y,-z
1/2+x,y,1/2-z
1/2-x,1/2+y,1/2+z
x,1/2-y,z
loop_
_atom_site_type_symbol
_atom_site_label
_atom_site_fract_x
_atom_site_fract_y
_atom_site_fract_z
Si Si1 0.033167 0.403687 0.823712
Si Si2 0.017038 0.608375 0.926091
Si Si3 0.253006 0.474603 0.000348
Si Si4 0.129995 0.597557 0.296237
Si Si5 0.511047 0.104362 0.915896
O O1 0.020189 0.250000 0.838780
O O2 0.985984 0.489709 0.880678
O O3 0.199226 0.446288 0.804192
O O4 0.925718 0.446961 0.769093
O O5 0.026865 0.750000 0.894442
O O6 0.878190 0.614927 0.972823
O O7 0.173288 0.588685 0.962176
O O8 0.353501 0.526156 0.055089
O O9 0.359688 0.393522 0.956008
O O10 0.117869 0.750000 0.301605
O O11 0.027709 0.540658 0.350664
O O12 0.568235 0.250000 0.907950
#
# Coordination Sequence:
#
# PCOD8251995 Si02
#       5
#     8   8   8   8   8
#     4  10  21  38  61  86 114 150 196 246 288 340
#     4  11  23  39  58  87 123 157 194 238 293 354
#     4  10  22  36  58  83 118 157 195 236 290 352
#     4   9  19  35  59  86 111 142 192 245 288 334
#     4  10  19  36  60  86 112 147 196 247 291 339
#
# _framework density 19.624376999999999
#
# number of rings (size 3 to 8) (size 9 to 14) (size 15 to 20)
#    0.000    2.000    2.000    1.200    2.800    4.000 
#    0.000    1.000    0.000    0.000    0.000    0.000 
#    0.000    0.000    0.000    0.000    0.000    0.000 
#
# Total GULP energy -495840.682315 kJ/mol
# GULP energy per Si atom -12396.017058 kJ/mol
# Density = 1.957971 g / cm^3
# Si number density = 19.624377 Si / 1000 Ang^3
#
#
#
# Elastic Constant Matrix: (Units=GPa)
#
#
# Indices 1 2 3 4 5 6 
#
# 1 67.3351 10.1837 18.8850 0.0000 0.0000 0.0000
# 2 10.1837 77.9757 30.3786 0.0000 0.0000 0.0000
# 3 18.8850 30.3786 93.7265 0.0000 0.0000 0.0000
# 4 0.0000 0.0000 0.0000 24.8164 0.0000 0.0000
# 5 0.0000 0.0000 0.0000 0.0000 31.7207 0.0000
# 6 0.0000 0.0000 0.0000 0.0000 0.0000 9.5378
#
#
#
# Elastic Compliance Matrix: (Units=1/GPa)
#
#
# Indices 1 2 3 4 5 6 
#
# 1 0.015801 -0.000942 -0.002878 0.000000 0.000000 0.000000
# 2 -0.000942 0.014734 -0.004586 0.000000 0.000000 0.000000
# 3 -0.002878 -0.004586 0.012736 0.000000 0.000000 0.000000
# 4 0.000000 0.000000 0.000000 0.040296 0.000000 0.000000
# 5 0.000000 0.000000 0.000000 0.000000 0.031525 0.000000
# 6 0.000000 0.000000 0.000000 0.000000 0.000000 0.104846
#
#
# Mechanical properties :
#
#
# Convention : Reuss Voigt Hill
#
# Bulk Modulus (GPa) = 37.79581 39.77023 38.78302
# Shear Modulus (GPa) = 20.36086 25.18767 22.77426
#
# Velocity S-wave (km/s) = 3.22456 3.58647 3.41032
# Velocity P-wave (km/s) = 5.75892 6.12046 5.94244
#
# Compressibility (1/GPa) = 0.02645796
#
# Stress axis : x y z
#
# Youngs Moduli (GPa) = 63.28770 67.86961 78.51985
#
# Poissons Ratio (x) = 0.06395 0.22601
# Poissons Ratio (y) = 0.05963 0.36007
# Poissons Ratio (z) = 0.18216 0.31123
#
# Static dielectric constant tensor:
#      x y z
#    x 3.741670 0.000000 0.000000 
#    y 0.000000 3.147610 0.000000 
#    z 0.000000 0.000000 3.822230 
# 
# 
# High freq. dielectric constant tensor:
#      x y z
#    x 1.778090 0.000000 0.000000 
#    y 0.000000 1.723860 0.000000 
#    z 0.000000 0.000000 1.770620 
# 
# From -- ./inp_files/25763.got.cif
#   From: 2010.03.12/outbox.cif.g09.slc.cpg/sg62_13_cif.got.tgz:25763.got - 2010.04.10 19:12:36.
