data_PCOD8251932
_publ_section_title
;
Structure prediction by ZEFSAII (Michael W. Deem and Ramdas Pophale) SiO2 
 PCOD8251932
Probable space group: P N M A
;
_chemical_formula_sum "Si O2"
_cell_formula_units_Z 48
_cell_length_a 15.483054
_cell_length_b 18.120404
_cell_length_c 8.987704
_cell_angle_alpha 90.000000
_cell_angle_beta 90.000000
_cell_angle_gamma 90.000000
_cell_volume 2521.582987
_symmetry_space_group_name_H-M "P N M A"
_symmetry_group_IT_number 62
_symmetry_cell_setting 'orthorhombic'
loop_
_space_group_symop_operation_xyz
x,y,z
1/2-x,-y,1/2+z
1/2+x,1/2-y,1/2-z
-x,1/2+y,-z
-x,-y,-z
1/2+x,y,1/2-z
1/2-x,1/2+y,1/2+z
x,1/2-y,z
loop_
_atom_site_type_symbol
_atom_site_label
_atom_site_fract_x
_atom_site_fract_y
_atom_site_fract_z
Si Si1 0.271322 0.463037 0.316166
Si Si2 0.853490 0.830749 0.955294
Si Si3 0.000114 0.918765 0.438037
Si Si4 0.808043 0.412405 0.507406
Si Si5 0.442563 0.540592 0.383465
Si Si6 0.348071 0.835945 0.889566
O O1 0.208704 0.531981 0.354758
O O2 0.276362 0.456748 0.138630
O O3 0.368197 0.480471 0.362348
O O4 0.237058 0.388554 0.400660
O O5 0.880762 0.750000 0.005757
O O6 0.911537 0.884558 0.046631
O O7 0.753019 0.840638 0.003799
O O8 0.875490 0.841630 0.781743
O O9 0.093155 0.884229 0.483721
O O10 0.990794 0.930727 0.262839
O O11 0.924499 0.867489 0.505753
O O12 0.000000 0.000000 0.500000
O O13 0.500000 0.500000 0.500000
O O14 0.327632 0.750000 0.932786
#
# Coordination Sequence:
#
# PCOD8251932 Si02
#       6
#     8   8   8   8   8   8
#     4  10  19  36  55  85 114 152 195 237 289 351
#     4   9  21  41  59  83 119 159 195 237 299 364
#     4  12  21  37  59  93 120 149 199 253 293 349
#     4  10  21  34  62  85 116 150 194 242 291 354
#     4  11  23  36  61  86 118 157 199 247 299 351
#     4  10  21  38  61  85 118 156 195 243 298 353
#
# _framework density 19.035661000000001
#
# number of rings (size 3 to 8) (size 9 to 14) (size 15 to 20)
#    0.000    1.667    3.333    1.000    4.667    1.333 
#    0.000    0.833    0.000    0.000    0.000    0.000 
#    0.000    0.000    0.000    0.000    0.000    0.000 
#
# Total GULP energy -594702.241013 kJ/mol
# GULP energy per Si atom -12389.630021 kJ/mol
# Density = 1.899234 g / cm^3
# Si number density = 19.035661 Si / 1000 Ang^3
#
#
#
# Elastic Constant Matrix: (Units=GPa)
#
#
# Indices 1 2 3 4 5 6 
#
# 1 98.6697 21.2948 44.3446 0.0000 0.0000 0.0000
# 2 21.2948 72.9005 46.3235 0.0000 0.0000 0.0000
# 3 44.3446 46.3235 95.1213 0.0000 0.0000 0.0000
# 4 0.0000 0.0000 0.0000 9.7227 0.0000 0.0000
# 5 0.0000 0.0000 0.0000 0.0000 28.1544 0.0000
# 6 0.0000 0.0000 0.0000 0.0000 0.0000 15.3589
#
#
#
# Elastic Compliance Matrix: (Units=1/GPa)
#
#
# Indices 1 2 3 4 5 6 
#
# 1 0.012821 0.000077 -0.006015 0.000000 0.000000 0.000000
# 2 0.000077 0.019865 -0.009710 0.000000 0.000000 0.000000
# 3 -0.006015 -0.009710 0.018045 0.000000 0.000000 0.000000
# 4 0.000000 0.000000 0.000000 0.102852 0.000000 0.000000
# 5 0.000000 0.000000 0.000000 0.000000 0.035518 0.000000
# 6 0.000000 0.000000 0.000000 0.000000 0.000000 0.065109
#
#
# Mechanical properties :
#
#
# Convention : Reuss Voigt Hill
#
# Bulk Modulus (GPa) = 51.45017 54.51303 52.98160
# Shear Modulus (GPa) = 17.12418 20.96243 19.04330
#
# Velocity S-wave (km/s) = 3.00256 3.32206 3.16634
# Velocity P-wave (km/s) = 6.25360 6.58895 6.42346
#
# Compressibility (1/GPa) = 0.01943628
#
# Stress axis : x y z
#
# Youngs Moduli (GPa) = 77.99481 50.34006 55.41578
#
# Poissons Ratio (x) = -0.00386 0.33330
# Poissons Ratio (y) = -0.00597 0.53808
# Poissons Ratio (z) = 0.46910 0.48879
#
# Static dielectric constant tensor:
#      x y z
#    x 3.281310 0.000000 0.000000 
#    y 0.000000 4.125470 0.000000 
#    z 0.000000 0.000000 3.586170 
# 
# 
# High freq. dielectric constant tensor:
#      x y z
#    x 1.740000 0.000000 0.000000 
#    y 0.000000 1.733340 0.000000 
#    z 0.000000 0.000000 1.745200 
# 
# From -- ./inp_files/6430.got.cif
#   From: 2010.03.12/outbox.cif.g09.slc.cpg/sg62_4_cif.got.tgz:6430.got - 2010.04.10 19:12:36.
