data_PCOD8251862
_publ_section_title
;
Structure prediction by ZEFSAII (Michael W. Deem and Ramdas Pophale) SiO2 
 PCOD8251862
Probable space group: P N M A
;
_chemical_formula_sum "Si O2"
_cell_formula_units_Z 64
_cell_length_a 12.003793
_cell_length_b 8.839811
_cell_length_c 30.951825
_cell_angle_alpha 90.000000
_cell_angle_beta 90.000000
_cell_angle_gamma 90.000000
_cell_volume 3284.337193
_symmetry_space_group_name_H-M "P N M A"
_symmetry_group_IT_number 62
_symmetry_cell_setting 'orthorhombic'
loop_
_space_group_symop_operation_xyz
x,y,z
1/2-x,-y,1/2+z
1/2+x,1/2-y,1/2-z
-x,1/2+y,-z
-x,-y,-z
1/2+x,y,1/2-z
1/2-x,1/2+y,1/2+z
x,1/2-y,z
loop_
_atom_site_type_symbol
_atom_site_label
_atom_site_fract_x
_atom_site_fract_y
_atom_site_fract_z
Si Si1 0.605037 0.929914 0.627336
Si Si2 0.239500 0.072368 0.448818
Si Si3 0.220757 0.074791 0.706014
Si Si4 0.496493 0.072279 0.073153
Si Si5 0.503784 0.575812 0.162170
Si Si6 0.278869 0.927134 0.044192
Si Si7 0.743569 0.571167 0.198590
Si Si8 0.637439 0.569387 0.374393
O O1 0.597726 0.750000 0.627396
O O2 0.672264 0.993830 0.585550
O O3 0.664764 0.985310 0.670628
O O4 0.483406 0.998584 0.625456
O O5 0.232114 0.250000 0.441129
O O6 0.277616 0.034162 0.497818
O O7 0.116669 0.003795 0.440145
O O8 0.250362 0.250000 0.707505
O O9 0.249935 0.005428 0.752702
O O10 0.295739 0.005853 0.667344
O O11 0.089889 0.047337 0.698256
O O12 0.492486 0.250000 0.066551
O O13 0.472981 0.030894 0.122598
O O14 0.400756 0.000812 0.043710
O O15 0.501930 0.750000 0.146678
O O16 0.621851 0.529375 0.181556
O O17 0.297459 0.750000 0.049872
O O18 0.201094 0.989041 0.082607
O O19 0.767823 0.750000 0.196783
O O20 0.628961 0.750000 0.374405
#
# Coordination Sequence:
#
# PCOD8251862 Si02
#       8
#     8   8   8   8   8   8   8   8
#     4  11  23  40  57  79 117 154 184 227 284 341
#     4   9  20  37  57  81 113 151 184 227 284 333
#     4   9  19  36  59  87 114 143 184 239 284 317
#     4  11  20  34  56  85 120 150 178 224 282 337
#     4  10  19  35  59  86 112 147 187 228 278 330
#     4  10  20  38  61  83 109 146 191 234 278 329
#     4  10  21  36  61  88 111 144 192 238 275 327
#     4  10  21  38  60  83 109 145 191 239 279 326
#
# _framework density 19.486426999999999
#
# number of rings (size 3 to 8) (size 9 to 14) (size 15 to 20)
#    0.000    2.000    2.500    1.125    1.750    1.000 
#    0.000    3.125    0.000    0.000    0.000    0.000 
#    0.000    0.000    0.000    0.000    0.000    0.000 
#
# Total GULP energy -793597.187014 kJ/mol
# GULP energy per Si atom -12399.956047 kJ/mol
# Density = 1.944207 g / cm^3
# Si number density = 19.486427 Si / 1000 Ang^3
#
#
#
# Elastic Constant Matrix: (Units=GPa)
#
#
# Indices 1 2 3 4 5 6 
#
# 1 136.7161 23.5915 53.5036 0.0000 0.0000 0.0000
# 2 23.5915 26.2726 19.2410 0.0000 0.0000 0.0000
# 3 53.5036 19.2410 143.9928 0.0000 0.0000 0.0000
# 4 0.0000 0.0000 0.0000 14.0231 0.0000 0.0000
# 5 0.0000 0.0000 0.0000 0.0000 27.6344 0.0000
# 6 0.0000 0.0000 0.0000 0.0000 0.0000 25.9358
#
#
#
# Elastic Compliance Matrix: (Units=1/GPa)
#
#
# Indices 1 2 3 4 5 6 
#
# 1 0.009485 -0.006580 -0.002645 0.000000 0.000000 0.000000
# 2 -0.006580 0.046756 -0.003803 0.000000 0.000000 0.000000
# 3 -0.002645 -0.003803 0.008436 0.000000 0.000000 0.000000
# 4 0.000000 0.000000 0.000000 0.071311 0.000000 0.000000
# 5 0.000000 0.000000 0.000000 0.000000 0.036187 0.000000
# 6 0.000000 0.000000 0.000000 0.000000 0.000000 0.038557
#
#
# Mechanical properties :
#
#
# Convention : Reuss Voigt Hill
#
# Bulk Modulus (GPa) = 25.89265 55.51708 40.70486
# Shear Modulus (GPa) = 20.02718 27.56168 23.79443
#
# Velocity S-wave (km/s) = 3.20933 3.76494 3.49818
# Velocity P-wave (km/s) = 5.20091 6.88851 6.10332
#
# Compressibility (1/GPa) = 0.03862100
#
# Stress axis : x y z
#
# Youngs Moduli (GPa) = 105.42967 21.38769 118.54241
#
# Poissons Ratio (x) = 0.14073 0.31356
# Poissons Ratio (y) = 0.69371 0.45080
# Poissons Ratio (z) = 0.27887 0.08133
#
# Static dielectric constant tensor:
#      x y z
#    x 3.642520 0.000000 0.000000 
#    y 0.000000 3.225560 0.000000 
#    z 0.000000 0.000000 3.908700 
# 
# 
# High freq. dielectric constant tensor:
#      x y z
#    x 1.765100 0.000000 0.000000 
#    y 0.000000 1.723420 0.000000 
#    z 0.000000 0.000000 1.773730 
# 
# From -- ./inp_files/32457.got.cif
#   From: 2010.03.12/outbox.cif.g09.slc.cpg/sg62_17_cif.got.tgz:32457.got - 2010.04.10 19:12:36.
