data_PCOD8251710
_publ_section_title
;
Structure prediction by ZEFSAII (Michael W. Deem and Ramdas Pophale) SiO2 
 PCOD8251710
Probable space group: P N M A
;
_chemical_formula_sum "Si O2"
_cell_formula_units_Z 64
_cell_length_a 12.842320
_cell_length_b 9.138884
_cell_length_c 28.717144
_cell_angle_alpha 90.000000
_cell_angle_beta 90.000000
_cell_angle_gamma 90.000000
_cell_volume 3370.372465
_symmetry_space_group_name_H-M "P N M A"
_symmetry_group_IT_number 62
_symmetry_cell_setting 'orthorhombic'
loop_
_space_group_symop_operation_xyz
x,y,z
1/2-x,-y,1/2+z
1/2+x,1/2-y,1/2-z
-x,1/2+y,-z
-x,-y,-z
1/2+x,y,1/2-z
1/2-x,1/2+y,1/2+z
x,1/2-y,z
loop_
_atom_site_type_symbol
_atom_site_label
_atom_site_fract_x
_atom_site_fract_y
_atom_site_fract_z
Si Si1 0.084230 0.915965 0.426101
Si Si2 0.361821 0.420514 0.301842
Si Si3 0.328011 0.577400 0.558440
Si Si4 0.780213 0.424680 0.036094
Si Si5 0.539523 0.579258 0.604358
Si Si6 0.460426 0.079203 0.206010
Si Si7 0.389843 0.080179 0.104318
Si Si8 0.153692 0.586166 0.320376
O O1 0.076463 0.750000 0.445245
O O2 0.121465 0.918886 0.373576
O O3 0.166241 0.005498 0.456965
O O4 0.970140 0.990304 0.428195
O O5 0.333835 0.250000 0.302850
O O6 0.449554 0.457206 0.340721
O O7 0.395079 0.471710 0.250652
O O8 0.262219 0.508967 0.316011
O O9 0.334093 0.750000 0.546526
O O10 0.325624 0.481880 0.512185
O O11 0.428981 0.518248 0.586427
O O12 0.227197 0.542687 0.589663
O O13 0.768702 0.250000 0.035831
O O14 0.860864 0.481763 0.075642
O O15 0.538142 0.750000 0.595392
O O16 0.484487 0.250000 0.208206
O O17 0.399758 0.036184 0.158772
O O18 0.569722 0.997829 0.210545
O O19 0.416883 0.250000 0.097388
O O20 0.162091 0.750000 0.301375
#
# Coordination Sequence:
#
# PCOD8251710 Si02
#       8
#     8   8   8   8   8   8   8   8
#     4  10  20  35  57  81 107 143 185 227 273 327
#     4  10  19  34  58  85 110 141 185 231 275 328
#     4  10  21  37  55  77 112 150 183 222 277 337
#     4  11  21  35  57  83 110 143 185 232 279 326
#     4   9  19  35  56  82 112 144 179 229 280 326
#     4   9  19  34  56  83 108 142 185 227 274 329
#     4   9  19  36  56  80 111 146 182 228 279 327
#     4  10  20  34  53  78 110 145 178 224 277 327
#
# _framework density 18.988999
#
# number of rings (size 3 to 8) (size 9 to 14) (size 15 to 20)
#    0.000    2.250    1.250    1.500    0.000    3.500 
#    0.000    5.000    0.000    1.500    0.000    0.000 
#    0.000    0.000    0.000    0.000    0.000    0.000 
#
# Total GULP energy -793580.853243 kJ/mol
# GULP energy per Si atom -12399.700832 kJ/mol
# Density = 1.894578 g / cm^3
# Si number density = 18.988999 Si / 1000 Ang^3
#
#
#
# Elastic Constant Matrix: (Units=GPa)
#
#
# Indices 1 2 3 4 5 6 
#
# 1 110.8646 37.9156 29.9107 0.0000 0.0000 0.0000
# 2 37.9156 57.9020 22.6027 0.0000 0.0000 0.0000
# 3 29.9107 22.6027 63.2743 0.0000 0.0000 0.0000
# 4 0.0000 0.0000 0.0000 19.3177 0.0000 0.0000
# 5 0.0000 0.0000 0.0000 0.0000 9.2896 0.0000
# 6 0.0000 0.0000 0.0000 0.0000 0.0000 14.1317
#
#
#
# Elastic Compliance Matrix: (Units=1/GPa)
#
#
# Indices 1 2 3 4 5 6 
#
# 1 0.012218 -0.006677 -0.003391 0.000000 0.000000 0.000000
# 2 -0.006677 0.023718 -0.005316 0.000000 0.000000 0.000000
# 3 -0.003391 -0.005316 0.019306 0.000000 0.000000 0.000000
# 4 0.000000 0.000000 0.000000 0.051766 0.000000 0.000000
# 5 0.000000 0.000000 0.000000 0.000000 0.107647 0.000000
# 6 0.000000 0.000000 0.000000 0.000000 0.000000 0.070763
#
#
# Mechanical properties :
#
#
# Convention : Reuss Voigt Hill
#
# Bulk Modulus (GPa) = 40.85863 45.87764 43.36813
# Shear Modulus (GPa) = 15.41571 17.98861 16.70216
#
# Velocity S-wave (km/s) = 2.85234 3.08119 2.96897
# Velocity P-wave (km/s) = 5.69311 6.07214 5.88568
#
# Compressibility (1/GPa) = 0.02447463
#
# Stress axis : x y z
#
# Youngs Moduli (GPa) = 81.84364 42.16161 51.79742
#
# Poissons Ratio (x) = 0.28153 0.17562
# Poissons Ratio (y) = 0.54650 0.27536
# Poissons Ratio (z) = 0.27750 0.22414
#
# Static dielectric constant tensor:
#      x y z
#    x 3.704310 0.000000 0.000000 
#    y 0.000000 3.495760 0.000000 
#    z 0.000000 0.000000 3.857290 
# 
# 
# High freq. dielectric constant tensor:
#      x y z
#    x 1.744310 0.000000 0.000000 
#    y 0.000000 1.724400 0.000000 
#    z 0.000000 0.000000 1.736560 
# 
# From -- ./inp_files/32440.got.cif
#   From: 2010.03.12/outbox.cif.g09.slc.cpg/sg62_17_cif.got.tgz:32440.got - 2010.04.10 19:12:36.
