data_PCOD8251324
_publ_section_title
;
Structure prediction by ZEFSAII (Michael W. Deem and Ramdas Pophale) SiO2 
 PCOD8251324
Probable space group: P N M A
;
_chemical_formula_sum "Si O2"
_cell_formula_units_Z 64
_cell_length_a 9.161285
_cell_length_b 24.629900
_cell_length_c 16.457860
_cell_angle_alpha 90.000000
_cell_angle_beta 90.000000
_cell_angle_gamma 90.000000
_cell_volume 3713.576767
_symmetry_space_group_name_H-M "P N M A"
_symmetry_group_IT_number 62
_symmetry_cell_setting 'orthorhombic'
loop_
_space_group_symop_operation_xyz
x,y,z
1/2-x,-y,1/2+z
1/2+x,1/2-y,1/2-z
-x,1/2+y,-z
-x,-y,-z
1/2+x,y,1/2-z
1/2-x,1/2+y,1/2+z
x,1/2-y,z
loop_
_atom_site_type_symbol
_atom_site_label
_atom_site_fract_x
_atom_site_fract_y
_atom_site_fract_z
Si Si1 0.302050 0.687120 0.713620
Si Si2 0.035663 0.410436 0.139520
Si Si3 0.032961 0.398050 0.494263
Si Si4 0.752439 0.040426 0.107217
Si Si5 0.255303 0.459436 0.024193
Si Si6 0.653749 0.450399 0.857402
Si Si7 0.394550 0.487029 0.748794
Si Si8 0.992947 0.812034 0.638150
O O1 0.330337 0.750000 0.689265
O O2 0.416893 0.648994 0.667631
O O3 0.344959 0.678890 0.808913
O O4 0.136085 0.668816 0.691517
O O5 0.864614 0.409477 0.117118
O O6 0.128586 0.422686 0.059830
O O7 0.049302 0.458832 0.204624
O O8 0.100094 0.437166 0.425662
O O9 0.127644 0.400314 0.578454
O O10 0.873608 0.420106 0.517909
O O11 0.020074 0.339941 0.450214
O O12 0.728436 0.008191 0.189883
O O13 0.819151 0.997738 0.042847
O O14 0.341466 0.493460 0.092785
O O15 0.522918 0.453757 0.792308
O O16 0.810300 0.445068 0.811872
O O17 0.015819 0.750000 0.615992
#
# Coordination Sequence:
#
# PCOD8251324 Si02
#       8
#     8   8   8   8   8   8   8   8
#     4  10  22  36  51  74 100 133 178 215 245 287
#     4  11  22  30  48  71  99 138 170 208 252 294
#     4  11  19  35  52  71 101 136 171 206 254 297
#     4  11  20  31  47  71 105 135 170 204 250 303
#     4  10  19  33  48  69 100 137 173 204 244 299
#     4  10  20  32  48  72 102 132 165 208 245 302
#     4  11  19  30  47  73  97 132 171 204 243 302
#     4  10  22  38  55  74  99 133 174 215 251 295
#
# _framework density 17.234058999999998
#
# number of rings (size 3 to 8) (size 9 to 14) (size 15 to 20)
#    0.000    1.500    5.000    1.875    3.500    0.000 
#    0.000    0.000    0.000    0.000    0.000    0.875 
#    0.000    0.000    0.000    0.000    0.000    0.000 
#
# Total GULP energy -793080.870312 kJ/mol
# GULP energy per Si atom -12391.888599 kJ/mol
# Density = 1.719483 g / cm^3
# Si number density = 17.234059 Si / 1000 Ang^3
#
#
#
# Elastic Constant Matrix: (Units=GPa)
#
#
# Indices 1 2 3 4 5 6 
#
# 1 62.5038 14.9711 21.5098 0.0000 0.0000 0.0000
# 2 14.9711 43.8778 14.1225 0.0000 0.0000 0.0000
# 3 21.5098 14.1225 50.9116 0.0000 0.0000 0.0000
# 4 0.0000 0.0000 0.0000 28.4996 0.0000 0.0000
# 5 0.0000 0.0000 0.0000 0.0000 28.1425 0.0000
# 6 0.0000 0.0000 0.0000 0.0000 0.0000 19.3095
#
#
#
# Elastic Compliance Matrix: (Units=1/GPa)
#
#
# Indices 1 2 3 4 5 6 
#
# 1 0.019460 -0.004385 -0.007005 0.000000 0.000000 0.000000
# 2 -0.004385 0.026013 -0.005363 0.000000 0.000000 0.000000
# 3 -0.007005 -0.005363 0.024089 0.000000 0.000000 0.000000
# 4 0.000000 0.000000 0.000000 0.035088 0.000000 0.000000
# 5 0.000000 0.000000 0.000000 0.000000 0.035533 0.000000
# 6 0.000000 0.000000 0.000000 0.000000 0.000000 0.051788
#
#
# Mechanical properties :
#
#
# Convention : Reuss Voigt Hill
#
# Bulk Modulus (GPa) = 27.73526 28.72224 28.22875
# Shear Modulus (GPa) = 21.05284 22.30297 21.67790
#
# Velocity S-wave (km/s) = 3.49891 3.60129 3.55047
# Velocity P-wave (km/s) = 5.69661 5.83049 5.76394
#
# Compressibility (1/GPa) = 0.03605519
#
# Stress axis : x y z
#
# Youngs Moduli (GPa) = 51.38704 38.44245 41.51218
#
# Poissons Ratio (x) = 0.16857 0.29081
# Poissons Ratio (y) = 0.22533 0.22264
# Poissons Ratio (z) = 0.35999 0.20617
#
# Static dielectric constant tensor:
#      x y z
#    x 3.400320 0.000000 0.000000 
#    y 0.000000 2.941200 0.000000 
#    z 0.000000 0.000000 3.302780 
# 
# 
# High freq. dielectric constant tensor:
#      x y z
#    x 1.679370 0.000000 0.000000 
#    y 0.000000 1.618020 0.000000 
#    z 0.000000 0.000000 1.658090 
# 
# From -- ./inp_files/22643.got.cif
#   From: 2010.03.12/outbox.cif.g09.slc.cpg/sg62_12_cif.got.tgz:22643.got - 2010.04.10 19:12:36.
