data_PCOD8252170
_publ_section_title
;
Structure prediction by ZEFSAII (Michael W. Deem and Ramdas Pophale) SiO2 
 PCOD8252170
Probable space group: P N M A
;
_chemical_formula_sum "Si O2"
_cell_formula_units_Z 40
_cell_length_a 14.648171
_cell_length_b 13.771485
_cell_length_c 9.172405
_cell_angle_alpha 90.000000
_cell_angle_beta 90.000000
_cell_angle_gamma 90.000000
_cell_volume 1850.322360
_symmetry_space_group_name_H-M "P N M A"
_symmetry_group_IT_number 62
_symmetry_cell_setting 'orthorhombic'
loop_
_space_group_symop_operation_xyz
x,y,z
1/2-x,-y,1/2+z
1/2+x,1/2-y,1/2-z
-x,1/2+y,-z
-x,-y,-z
1/2+x,y,1/2-z
1/2-x,1/2+y,1/2+z
x,1/2-y,z
loop_
_atom_site_type_symbol
_atom_site_label
_atom_site_fract_x
_atom_site_fract_y
_atom_site_fract_z
Si Si1 0.701068 0.453708 0.863795
Si Si2 0.985435 0.913318 0.254008
Si Si3 0.851421 0.945410 0.696446
Si Si4 0.206438 0.750000 0.205097
Si Si5 0.556586 0.750000 0.059177
Si Si6 0.958387 0.750000 0.722650
Si Si7 0.021921 0.750000 0.043987
O O1 0.606439 0.473726 0.779302
O O2 0.768977 0.537746 0.809793
O O3 0.733386 0.345690 0.817652
O O4 0.685617 0.468767 0.035279
O O5 0.000338 0.844323 0.392684
O O6 0.070218 0.984399 0.244757
O O7 0.976833 0.847866 0.108699
O O8 0.888950 0.837748 0.702135
O O9 0.158115 0.750000 0.367218
O O10 0.128616 0.750000 0.082581
O O11 0.546856 0.750000 0.884828
O O12 0.009094 0.750000 0.874335
#
# Coordination Sequence:
#
# PCOD8252170 Si02
#       7
#     8   8   8   4   4   4   4
#     4  12  24  44  74 102 144 184 232 295 343 422
#     4  10  22  47  75  95 140 197 228 271 373 420
#     4  12  27  46  69 109 139 184 242 285 351 425
#     4  10  21  46  71 103 141 183 241 272 366 416
#     4  10  19  45  74 100 134 187 231 284 342 437
#     4  12  27  43  70 108 148 174 242 299 346 397
#     4  10  23  44  75 103 139 186 230 297 336 424
#
# _framework density 21.617854999999999
#
# number of rings (size 3 to 8) (size 9 to 14) (size 15 to 20)
#    0.000    1.200    6.000    2.400    2.800    2.400 
#    0.000    3.000    0.000    0.000    0.000    0.000 
#    0.000    0.000    0.000    0.000    0.000    0.000 
#
# Total GULP energy -495899.194935 kJ/mol
# GULP energy per Si atom -12397.479873 kJ/mol
# Density = 2.156865 g / cm^3
# Si number density = 21.617855 Si / 1000 Ang^3
#
#
#
# Elastic Constant Matrix: (Units=GPa)
#
#
# Indices 1 2 3 4 5 6 
#
# 1 109.5820 11.9566 40.7895 0.0000 0.0000 0.0000
# 2 11.9566 68.9371 13.0587 0.0000 0.0000 0.0000
# 3 40.7895 13.0587 145.4716 0.0000 0.0000 0.0000
# 4 0.0000 0.0000 0.0000 20.9963 0.0000 0.0000
# 5 0.0000 0.0000 0.0000 0.0000 21.0367 0.0000
# 6 0.0000 0.0000 0.0000 0.0000 0.0000 21.5231
#
#
#
# Elastic Compliance Matrix: (Units=1/GPa)
#
#
# Indices 1 2 3 4 5 6 
#
# 1 0.010296 -0.001260 -0.002774 0.000000 0.000000 0.000000
# 2 -0.001260 0.014911 -0.000985 0.000000 0.000000 0.000000
# 3 -0.002774 -0.000985 0.007740 0.000000 0.000000 0.000000
# 4 0.000000 0.000000 0.000000 0.047627 0.000000 0.000000
# 5 0.000000 0.000000 0.000000 0.000000 0.047536 0.000000
# 6 0.000000 0.000000 0.000000 0.000000 0.000000 0.046462
#
#
# Mechanical properties :
#
#
# Convention : Reuss Voigt Hill
#
# Bulk Modulus (GPa) = 43.65131 50.62225 47.13678
# Shear Modulus (GPa) = 26.00824 29.92361 27.96592
#
# Velocity S-wave (km/s) = 3.47232 3.72453 3.60064
# Velocity P-wave (km/s) = 6.02595 6.47795 6.25604
#
# Compressibility (1/GPa) = 0.02290882
#
# Stress axis : x y z
#
# Youngs Moduli (GPa) = 97.12943 67.06379 129.19297
#
# Poissons Ratio (x) = 0.08452 0.35834
# Poissons Ratio (y) = 0.12241 0.12728
# Poissons Ratio (z) = 0.26941 0.06607
#
# Static dielectric constant tensor:
#      x y z
#    x 3.971340 0.000000 0.000000 
#    y 0.000000 6.134010 0.000000 
#    z 0.000000 0.000000 3.832320 
# 
# 
# High freq. dielectric constant tensor:
#      x y z
#    x 1.855550 0.000000 0.000000 
#    y 0.000000 1.852960 0.000000 
#    z 0.000000 0.000000 1.843590 
# 
# From -- ./inp_files/6159.got.cif
#   From: 2010.03.12/outbox.cif.g09.slc.cpg/sg62_4_cif.got.tgz:6159.got - 2010.04.10 19:12:36.
