data_PCOD8252066
_publ_section_title
;
Structure prediction by ZEFSAII (Michael W. Deem and Ramdas Pophale) SiO2 
 PCOD8252066
Probable space group: P N M A
;
_chemical_formula_sum "Si O2"
_cell_formula_units_Z 64
_cell_length_a 15.243796
_cell_length_b 9.232051
_cell_length_c 23.562309
_cell_angle_alpha 90.000000
_cell_angle_beta 90.000000
_cell_angle_gamma 90.000000
_cell_volume 3315.959139
_symmetry_space_group_name_H-M "P N M A"
_symmetry_group_IT_number 62
_symmetry_cell_setting 'orthorhombic'
loop_
_space_group_symop_operation_xyz
x,y,z
1/2-x,-y,1/2+z
1/2+x,1/2-y,1/2-z
-x,1/2+y,-z
-x,-y,-z
1/2+x,y,1/2-z
1/2-x,1/2+y,1/2+z
x,1/2-y,z
loop_
_atom_site_type_symbol
_atom_site_label
_atom_site_fract_x
_atom_site_fract_y
_atom_site_fract_z
Si Si1 0.394706 0.583093 0.124227
Si Si2 0.837008 0.578966 0.501164
Si Si3 0.077493 0.416043 0.878728
Si Si4 0.406353 0.918887 0.619468
Si Si5 0.743122 0.921643 0.803994
Si Si6 0.408265 0.083373 0.896959
Si Si7 0.752100 0.420167 0.686698
Si Si8 0.341813 0.917265 0.497075
O O1 0.368581 0.750000 0.134349
O O2 0.367456 0.532778 0.061378
O O3 0.346399 0.485419 0.170589
O O4 0.498209 0.558936 0.132947
O O5 0.835727 0.750000 0.508618
O O6 0.904602 0.512758 0.546414
O O7 0.741618 0.516398 0.513931
O O8 0.057722 0.250000 0.865542
O O9 0.162900 0.467177 0.844498
O O10 0.091269 0.442293 0.945643
O O11 0.993461 0.504326 0.857365
O O12 0.422626 0.750000 0.625592
O O13 0.323293 0.969527 0.655941
O O14 0.389810 0.964975 0.554544
O O15 0.733784 0.750000 0.799803
O O16 0.761886 0.986899 0.742894
O O17 0.396343 0.250000 0.915442
O O18 0.333144 0.036625 0.853185
O O19 0.752992 0.250000 0.701091
O O20 0.310688 0.750000 0.499931
#
# Coordination Sequence:
#
# PCOD8252066 Si02
#       8
#     8   8   8   8   8   8   8   8
#     4  10  22  39  61  90 120 154 196 238 287 350
#     4  11  21  33  57  93 124 152 190 240 291 344
#     4  10  21  37  61  88 114 152 195 235 286 346
#     4  10  22  38  59  87 119 154 189 236 296 347
#     4  11  24  41  61  84 115 155 195 244 297 342
#     4  10  21  40  63  85 118 159 195 237 290 350
#     4  10  22  41  62  83 112 154 200 242 288 344
#     4  10  19  37  60  84 119 157 191 231 290 358
#
# _framework density 19.300599999999999
#
# number of rings (size 3 to 8) (size 9 to 14) (size 15 to 20)
#    0.000    1.750    2.500    1.500    0.000    5.000 
#    0.000    3.750    0.000    0.000    0.000    0.000 
#    0.000    0.000    0.000    0.000    0.000    0.000 
#
# Total GULP energy -793928.639996 kJ/mol
# GULP energy per Si atom -12405.135000 kJ/mol
# Density = 1.925667 g / cm^3
# Si number density = 19.300600 Si / 1000 Ang^3
#
#
#
# Elastic Constant Matrix: (Units=GPa)
#
#
# Indices 1 2 3 4 5 6 
#
# 1 108.5484 33.2616 26.2825 0.0000 0.0000 0.0000
# 2 33.2616 55.2708 36.5877 0.0000 0.0000 0.0000
# 3 26.2825 36.5877 85.9663 0.0000 0.0000 0.0000
# 4 0.0000 0.0000 0.0000 35.5811 0.0000 0.0000
# 5 0.0000 0.0000 0.0000 0.0000 13.2331 0.0000
# 6 0.0000 0.0000 0.0000 0.0000 0.0000 29.8690
#
#
#
# Elastic Compliance Matrix: (Units=1/GPa)
#
#
# Indices 1 2 3 4 5 6 
#
# 1 0.011333 -0.006302 -0.000783 0.000000 0.000000 0.000000
# 2 -0.006302 0.028694 -0.010286 0.000000 0.000000 0.000000
# 3 -0.000783 -0.010286 0.016249 0.000000 0.000000 0.000000
# 4 0.000000 0.000000 0.000000 0.028105 0.000000 0.000000
# 5 0.000000 0.000000 0.000000 0.000000 0.075568 0.000000
# 6 0.000000 0.000000 0.000000 0.000000 0.000000 0.033480
#
#
# Mechanical properties :
#
#
# Convention : Reuss Voigt Hill
#
# Bulk Modulus (GPa) = 46.43430 49.11657 47.77544
# Shear Modulus (GPa) = 21.24511 25.98021 23.61266
#
# Velocity S-wave (km/s) = 3.32135 3.67288 3.50153
# Velocity P-wave (km/s) = 6.23051 6.59471 6.41519
#
# Compressibility (1/GPa) = 0.02153580
#
# Stress axis : x y z
#
# Youngs Moduli (GPa) = 88.23732 34.85043 61.54082
#
# Poissons Ratio (x) = 0.21963 0.04817
# Poissons Ratio (y) = 0.55608 0.63299
# Poissons Ratio (z) = 0.06906 0.35846
#
# Static dielectric constant tensor:
#      x y z
#    x 3.542220 0.000000 0.000000 
#    y 0.000000 3.443900 0.000000 
#    z 0.000000 0.000000 3.521730 
# 
# 
# High freq. dielectric constant tensor:
#      x y z
#    x 1.760140 0.000000 0.000000 
#    y 0.000000 1.745190 0.000000 
#    z 0.000000 0.000000 1.750130 
# 
# From -- ./inp_files/29725.got.cif
#   From: 2010.03.12/outbox.cif.g09.slc.cpg/sg62_15_cif.got.tgz:29725.got - 2010.04.10 19:12:36.
