data_PCOD8252151
_publ_section_title
;
Structure prediction by ZEFSAII (Michael W. Deem and Ramdas Pophale) SiO2 
 PCOD8252151
Probable space group: P N M A
;
_chemical_formula_sum "Si O2"
_cell_formula_units_Z 48
_cell_length_a 10.119216
_cell_length_b 16.690857
_cell_length_c 13.816479
_cell_angle_alpha 90.000000
_cell_angle_beta 90.000000
_cell_angle_gamma 90.000000
_cell_volume 2333.581020
_symmetry_space_group_name_H-M "P N M A"
_symmetry_group_IT_number 62
_symmetry_cell_setting 'orthorhombic'
loop_
_space_group_symop_operation_xyz
x,y,z
1/2-x,-y,1/2+z
1/2+x,1/2-y,1/2-z
-x,1/2+y,-z
-x,-y,-z
1/2+x,y,1/2-z
1/2-x,1/2+y,1/2+z
x,1/2-y,z
loop_
_atom_site_type_symbol
_atom_site_label
_atom_site_fract_x
_atom_site_fract_y
_atom_site_fract_z
Si Si1 0.365858 0.845910 0.822964
Si Si2 0.447767 0.845022 0.032720
Si Si3 0.511479 0.408925 0.530639
Si Si4 0.427887 0.342977 0.330829
Si Si5 0.725137 0.844575 0.113949
Si Si6 0.293593 0.155497 0.662765
O O1 0.362349 0.750000 0.822416
O O2 0.460508 0.881549 0.738961
O O3 0.217055 0.879898 0.808009
O O4 0.421300 0.877761 0.925139
O O5 0.448431 0.750000 0.034441
O O6 0.588258 0.876857 0.069606
O O7 0.333171 0.875709 0.103895
O O8 0.500000 0.500000 0.500000
O O9 0.464342 0.353728 0.442407
O O10 0.662053 0.390721 0.556294
O O11 0.422640 0.390071 0.624090
O O12 0.422246 0.250000 0.306923
O O13 0.744139 0.750000 0.098889
O O14 0.728969 0.867584 0.226318
O O15 0.317836 0.250000 0.650444
#
# Coordination Sequence:
#
# PCOD8252151 Si02
#       6
#     8   8   8   8   8   8
#     4   9  18  32  56  88 113 141 187 239 297 355
#     4   9  17  32  57  89 116 140 188 256 310 350
#     4  12  25  41  56  89 129 167 201 243 316 383
#     4  10  20  37  61  84 113 153 200 251 292 350
#     4  10  21  37  65  94 116 154 211 268 308 358
#     4  10  19  39  66  88 116 158 211 268 315 356
#
# _framework density 20.569244000000001
#
# number of rings (size 3 to 8) (size 9 to 14) (size 15 to 20)
#    0.000    2.000    1.667    2.500    2.333    2.667 
#    3.000    0.833    0.000    0.000    0.000    0.000 
#    0.000    0.000    0.000    0.000    0.000    0.000 
#
# Total GULP energy -595283.941660 kJ/mol
# GULP energy per Si atom -12401.748785 kJ/mol
# Density = 2.052243 g / cm^3
# Si number density = 20.569244 Si / 1000 Ang^3
#
#
#
# Elastic Constant Matrix: (Units=GPa)
#
#
# Indices 1 2 3 4 5 6 
#
# 1 175.3239 17.9121 65.1747 0.0000 0.0000 0.0000
# 2 17.9121 28.0238 10.8003 0.0000 0.0000 0.0000
# 3 65.1747 10.8003 117.9195 0.0000 0.0000 0.0000
# 4 0.0000 0.0000 0.0000 9.7486 0.0000 0.0000
# 5 0.0000 0.0000 0.0000 0.0000 50.3775 0.0000
# 6 0.0000 0.0000 0.0000 0.0000 0.0000 12.0585
#
#
#
# Elastic Compliance Matrix: (Units=1/GPa)
#
#
# Indices 1 2 3 4 5 6 
#
# 1 0.007461 -0.003296 -0.003822 0.000000 0.000000 0.000000
# 2 -0.003296 0.038446 -0.001700 0.000000 0.000000 0.000000
# 3 -0.003822 -0.001700 0.010748 0.000000 0.000000 0.000000
# 4 0.000000 0.000000 0.000000 0.102579 0.000000 0.000000
# 5 0.000000 0.000000 0.000000 0.000000 0.019850 0.000000
# 6 0.000000 0.000000 0.000000 0.000000 0.000000 0.082929
#
#
# Mechanical properties :
#
#
# Convention : Reuss Voigt Hill
#
# Bulk Modulus (GPa) = 25.62768 56.56014 41.09391
# Shear Modulus (GPa) = 17.08492 29.59560 23.34026
#
# Velocity S-wave (km/s) = 2.88515 3.79730 3.37221
# Velocity P-wave (km/s) = 4.85644 6.83982 5.93162
#
# Compressibility (1/GPa) = 0.03902031
#
# Stress axis : x y z
#
# Youngs Moduli (GPa) = 134.02586 26.01069 93.03668
#
# Poissons Ratio (x) = 0.08573 0.35558
# Poissons Ratio (y) = 0.44176 0.15812
# Poissons Ratio (z) = 0.51224 0.04421
#
# Static dielectric constant tensor:
#      x y z
#    x 4.094500 0.000000 0.000000 
#    y 0.000000 3.128640 0.000000 
#    z 0.000000 0.000000 3.917530 
# 
# 
# High freq. dielectric constant tensor:
#      x y z
#    x 1.825180 0.000000 0.000000 
#    y 0.000000 1.748430 0.000000 
#    z 0.000000 0.000000 1.816060 
# 
# From -- ./inp_files/16970.got.cif
#   From: 2010.03.12/outbox.cif.g09.slc.cpg/sg62_9_cif.got.tgz:16970.got - 2010.04.10 19:12:36.
