data_PCOD8252471
_publ_section_title
;
Structure prediction by ZEFSAII (Michael W. Deem and Ramdas Pophale) SiO2 
 PCOD8252471
Probable space group: P N M A
;
_chemical_formula_sum "Si O2"
_cell_formula_units_Z 48
_cell_length_a 30.016404
_cell_length_b 9.238370
_cell_length_c 9.070091
_cell_angle_alpha 90.000000
_cell_angle_beta 90.000000
_cell_angle_gamma 90.000000
_cell_volume 2515.160236
_symmetry_space_group_name_H-M "P N M A"
_symmetry_group_IT_number 62
_symmetry_cell_setting 'orthorhombic'
loop_
_space_group_symop_operation_xyz
x,y,z
1/2-x,-y,1/2+z
1/2+x,1/2-y,1/2-z
-x,1/2+y,-z
-x,-y,-z
1/2+x,y,1/2-z
1/2-x,1/2+y,1/2+z
x,1/2-y,z
loop_
_atom_site_type_symbol
_atom_site_label
_atom_site_fract_x
_atom_site_fract_y
_atom_site_fract_z
Si Si1 0.865985 0.416905 0.171124
Si Si2 0.448547 0.084660 0.131069
Si Si3 0.793511 0.082693 0.651515
Si Si4 0.879908 0.418551 0.838350
Si Si5 0.208957 0.080582 0.652017
Si Si6 0.950031 0.918973 0.660209
O O1 0.851465 0.250000 0.187912
O O2 0.915447 0.442718 0.233770
O O3 0.831756 0.514047 0.259328
O O4 0.865496 0.466117 0.001754
O O5 0.446272 0.250000 0.074964
O O6 0.498001 0.046395 0.186927
O O7 0.433976 0.984665 0.995120
O O8 0.791979 0.250000 0.603664
O O9 0.840133 0.044161 0.727447
O O10 0.754725 0.044944 0.765727
O O11 0.787492 0.984891 0.509560
O O12 0.892324 0.250000 0.835828
O O13 0.923339 0.508347 0.793348
O O14 0.200689 0.250000 0.636714
O O15 0.939652 0.750000 0.658152
#
# Coordination Sequence:
#
# PCOD8252471 Si02
#       6
#     8   8   8   8   8   8
#     4  10  21  38  58  79 109 148 184 220 269 328
#     4   9  19  36  56  78 107 145 184 221 271 332
#     4  10  22  39  57  79 110 144 176 215 267 324
#     4  10  21  37  56  78 107 146 185 218 265 329
#     4  11  23  38  59  86 111 139 181 227 267 313
#     4  10  20  34  54  81 110 140 180 230 275 317
#
# _framework density 19.084271000000001
#
# number of rings (size 3 to 8) (size 9 to 14) (size 15 to 20)
#    0.000    2.000    0.000    3.000    0.000   10.000 
#    0.000    0.000    0.000    0.000    0.000    0.000 
#    0.000    0.000    0.000    0.000    0.000    0.000 
#
# Total GULP energy -595460.640278 kJ/mol
# GULP energy per Si atom -12405.430006 kJ/mol
# Density = 1.904083 g / cm^3
# Si number density = 19.084271 Si / 1000 Ang^3
#
#
#
# Elastic Constant Matrix: (Units=GPa)
#
#
# Indices 1 2 3 4 5 6 
#
# 1 81.9394 48.8753 33.1322 0.0000 0.0000 0.0000
# 2 48.8753 88.0354 65.1368 0.0000 0.0000 0.0000
# 3 33.1322 65.1368 108.0838 0.0000 0.0000 0.0000
# 4 0.0000 0.0000 0.0000 33.8020 0.0000 0.0000
# 5 0.0000 0.0000 0.0000 0.0000 31.2931 0.0000
# 6 0.0000 0.0000 0.0000 0.0000 0.0000 32.4139
#
#
#
# Elastic Compliance Matrix: (Units=1/GPa)
#
#
# Indices 1 2 3 4 5 6 
#
# 1 0.018298 -0.010844 0.000926 0.000000 0.000000 0.000000
# 2 -0.010844 0.026926 -0.012903 0.000000 0.000000 0.000000
# 3 0.000926 -0.012903 0.016744 0.000000 0.000000 0.000000
# 4 0.000000 0.000000 0.000000 0.029584 0.000000 0.000000
# 5 0.000000 0.000000 0.000000 0.000000 0.031956 0.000000
# 6 0.000000 0.000000 0.000000 0.000000 0.000000 0.030851
#
#
# Mechanical properties :
#
#
# Convention : Reuss Voigt Hill
#
# Bulk Modulus (GPa) = 61.24951 63.59413 62.42182
# Shear Modulus (GPa) = 24.33773 28.22942 26.28358
#
# Velocity S-wave (km/s) = 3.57498 3.85021 3.71514
# Velocity P-wave (km/s) = 7.01459 7.29113 7.15420
#
# Compressibility (1/GPa) = 0.01632666
#
# Stress axis : x y z
#
# Youngs Moduli (GPa) = 54.65160 37.13892 59.72203
#
# Poissons Ratio (x) = 0.40272 -0.05529
# Poissons Ratio (y) = 0.59261 0.77059
# Poissons Ratio (z) = -0.05060 0.47920
#
# Static dielectric constant tensor:
#      x y z
#    x 3.650630 0.000000 0.000000 
#    y 0.000000 3.534930 0.000000 
#    z 0.000000 0.000000 3.512650 
# 
# 
# High freq. dielectric constant tensor:
#      x y z
#    x 1.754300 0.000000 0.000000 
#    y 0.000000 1.741550 0.000000 
#    z 0.000000 0.000000 1.745720 
# 
# From -- ./inp_files/10198.got.cif
#   From: 2010.03.12/outbox.cif.g09.slc.cpg/sg62_6_cif.got.tgz:10198.got - 2010.04.10 19:12:36.
