data_PCOD8252548
_publ_section_title
;
Structure prediction by ZEFSAII (Michael W. Deem and Ramdas Pophale) SiO2 
 PCOD8252548
Probable space group: P N M A
;
_chemical_formula_sum "Si O2"
_cell_formula_units_Z 40
_cell_length_a 25.102368
_cell_length_b 9.103290
_cell_length_c 9.451628
_cell_angle_alpha 90.000000
_cell_angle_beta 90.000000
_cell_angle_gamma 90.000000
_cell_volume 2159.830602
_symmetry_space_group_name_H-M "P N M A"
_symmetry_group_IT_number 62
_symmetry_cell_setting 'orthorhombic'
loop_
_space_group_symop_operation_xyz
x,y,z
1/2-x,-y,1/2+z
1/2+x,1/2-y,1/2-z
-x,1/2+y,-z
-x,-y,-z
1/2+x,y,1/2-z
1/2-x,1/2+y,1/2+z
x,1/2-y,z
loop_
_atom_site_type_symbol
_atom_site_label
_atom_site_fract_x
_atom_site_fract_y
_atom_site_fract_z
Si Si1 0.712188 0.918372 0.879049
Si Si2 0.589092 0.921883 0.152223
Si Si3 0.907430 0.417866 0.329080
Si Si4 0.508378 0.076617 0.649130
Si Si5 0.303766 0.577531 0.835767
O O1 0.718569 0.750000 0.928720
O O2 0.655416 0.938000 0.801499
O O3 0.758804 0.967997 0.775392
O O4 0.716136 0.021975 0.013594
O O5 0.601226 0.750000 0.162248
O O6 0.539260 0.969849 0.246480
O O7 0.640803 0.004733 0.211612
O O8 0.578096 0.966109 0.989419
O O9 0.925226 0.250000 0.302275
O O10 0.936851 0.522850 0.218715
O O11 0.510925 0.250000 0.626318
O O12 0.500000 0.000000 0.500000
O O13 0.312358 0.750000 0.843153
#
# Coordination Sequence:
#
# PCOD8252548 Si02
#       5
#     8   8   8   8   8
#     4   9  20  37  54  78 112 143 173 216 268 313
#     4   9  20  38  57  77 106 142 175 215 269 317
#     4   9  18  36  58  77 103 139 177 218 264 315
#     4  11  23  37  54  79 109 140 175 217 266 315
#     4  10  20  34  56  83 107 138 181 220 256 310
#
# _framework density 18.519971000000002
#
# number of rings (size 3 to 8) (size 9 to 14) (size 15 to 20)
#    0.000    2.400    0.000    3.000    0.000    8.000 
#    0.000    6.000    0.000    0.000    0.000    0.000 
#    0.000    0.000    0.000    0.000    0.000    0.000 
#
# Total GULP energy -496116.902918 kJ/mol
# GULP energy per Si atom -12402.922573 kJ/mol
# Density = 1.847782 g / cm^3
# Si number density = 18.519971 Si / 1000 Ang^3
#
#
#
# Elastic Constant Matrix: (Units=GPa)
#
#
# Indices 1 2 3 4 5 6 
#
# 1 59.3239 24.5159 13.2526 0.0000 0.0000 0.0000
# 2 24.5159 53.7018 20.4047 0.0000 0.0000 0.0000
# 3 13.2526 20.4047 44.4708 0.0000 0.0000 0.0000
# 4 0.0000 0.0000 0.0000 33.0632 0.0000 0.0000
# 5 0.0000 0.0000 0.0000 0.0000 36.7154 0.0000
# 6 0.0000 0.0000 0.0000 0.0000 0.0000 32.1607
#
#
#
# Elastic Compliance Matrix: (Units=1/GPa)
#
#
# Indices 1 2 3 4 5 6 
#
# 1 0.020960 -0.008715 -0.002248 0.000000 0.000000 0.000000
# 2 -0.008715 0.026177 -0.009414 0.000000 0.000000 0.000000
# 3 -0.002248 -0.009414 0.027476 0.000000 0.000000 0.000000
# 4 0.000000 0.000000 0.000000 0.030245 0.000000 0.000000
# 5 0.000000 0.000000 0.000000 0.000000 0.027236 0.000000
# 6 0.000000 0.000000 0.000000 0.000000 0.000000 0.031094
#
#
# Mechanical properties :
#
#
# Convention : Reuss Voigt Hill
#
# Bulk Modulus (GPa) = 29.53296 30.42700 29.97998
# Shear Modulus (GPa) = 23.23131 27.00942 25.12037
#
# Velocity S-wave (km/s) = 3.54558 3.82304 3.68692
# Velocity P-wave (km/s) = 5.72212 5.99603 5.86068
#
# Compressibility (1/GPa) = 0.03386047
#
# Stress axis : x y z
#
# Youngs Moduli (GPa) = 47.70972 38.20208 36.39571
#
# Poissons Ratio (x) = 0.33292 0.08181
# Poissons Ratio (y) = 0.41577 0.34262
# Poissons Ratio (z) = 0.10724 0.35962
#
# Static dielectric constant tensor:
#      x y z
#    x 3.518190 0.000000 0.000000 
#    y 0.000000 3.369210 0.000000 
#    z 0.000000 0.000000 3.367210 
# 
# 
# High freq. dielectric constant tensor:
#      x y z
#    x 1.727990 0.000000 0.000000 
#    y 0.000000 1.721120 0.000000 
#    z 0.000000 0.000000 1.712300 
# 
# From -- ./inp_files/9097.got.cif
#   From: 2010.03.12/outbox.cif.g09.slc.cpg/sg62_5_cif.got.tgz:9097.got - 2010.04.10 19:12:36.
