data_PCOD8252304
_publ_section_title
;
Structure prediction by ZEFSAII (Michael W. Deem and Ramdas Pophale) SiO2 
 PCOD8252304
Probable space group: P N M A
;
_chemical_formula_sum "Si O2"
_cell_formula_units_Z 36
_cell_length_a 5.031178
_cell_length_b 31.940441
_cell_length_c 12.502096
_cell_angle_alpha 90.000000
_cell_angle_beta 90.000000
_cell_angle_gamma 90.000000
_cell_volume 2009.062374
_symmetry_space_group_name_H-M "P N M A"
_symmetry_group_IT_number 62
_symmetry_cell_setting 'orthorhombic'
loop_
_space_group_symop_operation_xyz
x,y,z
1/2-x,-y,1/2+z
1/2+x,1/2-y,1/2-z
-x,1/2+y,-z
-x,-y,-z
1/2+x,y,1/2-z
1/2-x,1/2+y,1/2+z
x,1/2-y,z
loop_
_atom_site_type_symbol
_atom_site_label
_atom_site_fract_x
_atom_site_fract_y
_atom_site_fract_z
Si Si1 0.202963 0.441502 0.314345
Si Si2 0.374734 0.026374 0.904087
Si Si3 0.364040 0.340024 0.675980
Si Si4 0.653779 0.922473 0.447741
Si Si5 0.609555 0.750000 0.324249
O O1 0.424891 0.425385 0.232131
O O2 0.204370 0.492600 0.314226
O O3 0.244279 0.421510 0.430650
O O4 0.610293 0.058811 0.870757
O O5 0.111395 0.050154 0.941469
O O6 0.500000 0.000000 0.000000
O O7 0.575030 0.344522 0.771487
O O8 0.409191 0.375490 0.587709
O O9 0.393782 0.294779 0.613377
O O10 0.369913 0.750000 0.244589
#
# Coordination Sequence:
#
# PCOD8252304 Si02
#       5
#     8   8   8   8   4
#     4  11  21  33  48  66  93 132 165 196 237 276
#     4  10  20  34  47  64  94 127 164 207 240 272
#     4  10  20  33  52  76 102 128 156 196 248 298
#     4  11  21  34  50  73  97 124 167 207 237 286
#     4   8  16  32  50  72 100 126 152 188 242 308
#
# _framework density 17.918806
#
# number of rings (size 3 to 8) (size 9 to 14) (size 15 to 20)
#    0.000    1.778    0.000    8.000    0.000    5.333 
#    0.000    0.000    0.000    0.000    0.000    1.556 
#    0.000    0.000    0.000    0.222    0.000    0.000 
#
# Total GULP energy -446054.574386 kJ/mol
# GULP energy per Si atom -12390.404844 kJ/mol
# Density = 1.787802 g / cm^3
# Si number density = 17.918806 Si / 1000 Ang^3
#
#
#
# Elastic Constant Matrix: (Units=GPa)
#
#
# Indices 1 2 3 4 5 6 
#
# 1 112.4660 20.6139 13.5520 0.0000 0.0000 0.0000
# 2 20.6139 122.1300 37.5550 0.0000 0.0000 0.0000
# 3 13.5520 37.5550 41.2677 0.0000 0.0000 0.0000
# 4 0.0000 0.0000 0.0000 19.9690 0.0000 0.0000
# 5 0.0000 0.0000 0.0000 0.0000 19.9052 0.0000
# 6 0.0000 0.0000 0.0000 0.0000 0.0000 20.4084
#
#
#
# Elastic Compliance Matrix: (Units=1/GPa)
#
#
# Indices 1 2 3 4 5 6 
#
# 1 0.009325 -0.000878 -0.002263 0.000000 0.000000 0.000000
# 2 -0.000878 0.011452 -0.010134 0.000000 0.000000 0.000000
# 3 -0.002263 -0.010134 0.034197 0.000000 0.000000 0.000000
# 4 0.000000 0.000000 0.000000 0.050078 0.000000 0.000000
# 5 0.000000 0.000000 0.000000 0.000000 0.050238 0.000000
# 6 0.000000 0.000000 0.000000 0.000000 0.000000 0.048999
#
#
# Mechanical properties :
#
#
# Convention : Reuss Voigt Hill
#
# Bulk Modulus (GPa) = 35.18050 46.58950 40.88500
# Shear Modulus (GPa) = 20.80603 25.66604 23.23603
#
# Velocity S-wave (km/s) = 3.41123 3.78875 3.60493
# Velocity P-wave (km/s) = 5.93222 6.72282 6.33985
#
# Compressibility (1/GPa) = 0.02842484
#
# Stress axis : x y z
#
# Youngs Moduli (GPa) = 107.23601 87.31874 29.24212
#
# Poissons Ratio (x) = 0.07667 0.06618
# Poissons Ratio (y) = 0.09415 0.29633
# Poissons Ratio (z) = 0.24271 0.88486
#
# Static dielectric constant tensor:
#      x y z
#    x 3.724170 0.000000 0.000000 
#    y 0.000000 3.868230 0.000000 
#    z 0.000000 0.000000 2.956770 
# 
# 
# High freq. dielectric constant tensor:
#      x y z
#    x 1.729010 0.000000 0.000000 
#    y 0.000000 1.677800 0.000000 
#    z 0.000000 0.000000 1.649520 
# 
# From -- ./inp_files/10717.got.cif
#   From: 2010.03.12/outbox.cif.g09.slc.cpg/sg62_6_cif.got.tgz:10717.got - 2010.04.10 19:12:36.
