data_PCOD8252659
_publ_section_title
;
Structure prediction by ZEFSAII (Michael W. Deem and Ramdas Pophale) SiO2 
 PCOD8252659
Probable space group: P N M A
;
_chemical_formula_sum "Si O2"
_cell_formula_units_Z 64
_cell_length_a 7.852742
_cell_length_b 18.352689
_cell_length_c 22.073157
_cell_angle_alpha 90.000000
_cell_angle_beta 90.000000
_cell_angle_gamma 90.000000
_cell_volume 3181.159807
_symmetry_space_group_name_H-M "P N M A"
_symmetry_group_IT_number 62
_symmetry_cell_setting 'orthorhombic'
loop_
_space_group_symop_operation_xyz
x,y,z
1/2-x,-y,1/2+z
1/2+x,1/2-y,1/2-z
-x,1/2+y,-z
-x,-y,-z
1/2+x,y,1/2-z
1/2-x,1/2+y,1/2+z
x,1/2-y,z
loop_
_atom_site_type_symbol
_atom_site_label
_atom_site_fract_x
_atom_site_fract_y
_atom_site_fract_z
Si Si1 0.196449 0.169202 0.839033
Si Si2 0.671710 0.669017 0.284835
Si Si3 0.807018 0.460688 0.591756
Si Si4 0.330494 0.955521 0.138290
Si Si5 0.160392 0.032231 0.032003
Si Si6 0.413438 0.666691 0.610770
Si Si7 0.258271 0.394151 0.333163
Si Si8 0.372400 0.394526 0.197062
O O1 0.234266 0.250000 0.865614
O O2 0.329727 0.146053 0.786157
O O3 0.193824 0.110115 0.892336
O O4 0.020014 0.167884 0.804733
O O5 0.752044 0.750000 0.291258
O O6 0.778158 0.616159 0.327026
O O7 0.804716 0.472869 0.519492
O O8 0.741801 0.528045 0.632744
O O9 0.998601 0.438218 0.603253
O O10 0.357758 0.020153 0.185315
O O11 0.192612 0.980291 0.088957
O O12 0.134050 0.115165 0.054225
O O13 0.000000 0.000000 0.000000
O O14 0.389427 0.750000 0.590390
O O15 0.613698 0.656726 0.628139
O O16 0.278367 0.650643 0.664925
O O17 0.352536 0.391974 0.268818
O O18 0.061316 0.366471 0.325477
#
# Coordination Sequence:
#
# PCOD8252659 Si02
#       8
#     8   8   8   8   8   8   8   8
#     4  10  21  34  55  87 122 158 196 242 300 359
#     4  10  20  35  54  85 124 157 193 244 303 357
#     4  11  22  37  64  87 116 159 204 248 301 355
#     4  10  22  37  60  89 118 156 202 249 297 361
#     4  11  22  42  64  84 118 156 201 254 293 353
#     4  11  25  43  64  91 124 164 202 254 316 368
#     4  11  21  39  63  95 124 159 204 250 305 372
#     4  10  22  38  63  95 127 158 202 249 308 373
#
# _framework density 20.118448999999998
#
# number of rings (size 3 to 8) (size 9 to 14) (size 15 to 20)
#    0.000    1.500    2.500    2.625    1.750    5.000 
#    0.000    0.625    0.000    0.000    0.000    0.000 
#    0.000    0.000    0.000    0.000    0.000    0.000 
#
# Total GULP energy -793168.637470 kJ/mol
# GULP energy per Si atom -12393.259960 kJ/mol
# Density = 2.007266 g / cm^3
# Si number density = 20.118449 Si / 1000 Ang^3
#
#
#
# Elastic Constant Matrix: (Units=GPa)
#
#
# Indices 1 2 3 4 5 6 
#
# 1 82.6147 21.0390 5.0637 0.0000 0.0000 0.0000
# 2 21.0390 92.0491 21.5809 0.0000 0.0000 0.0000
# 3 5.0637 21.5809 62.8066 0.0000 0.0000 0.0000
# 4 0.0000 0.0000 0.0000 22.6207 0.0000 0.0000
# 5 0.0000 0.0000 0.0000 0.0000 26.6438 0.0000
# 6 0.0000 0.0000 0.0000 0.0000 0.0000 24.6921
#
#
#
# Elastic Compliance Matrix: (Units=1/GPa)
#
#
# Indices 1 2 3 4 5 6 
#
# 1 0.012853 -0.002931 -0.000029 0.000000 0.000000 0.000000
# 2 -0.002931 0.012484 -0.004053 0.000000 0.000000 0.000000
# 3 -0.000029 -0.004053 0.017317 0.000000 0.000000 0.000000
# 4 0.000000 0.000000 0.000000 0.044207 0.000000 0.000000
# 5 0.000000 0.000000 0.000000 0.000000 0.037532 0.000000
# 6 0.000000 0.000000 0.000000 0.000000 0.000000 0.040499
#
#
# Mechanical properties :
#
#
# Convention : Reuss Voigt Hill
#
# Bulk Modulus (GPa) = 34.93213 36.98197 35.95705
# Shear Modulus (GPa) = 26.53077 27.44379 26.98728
#
# Velocity S-wave (km/s) = 3.63537 3.69739 3.66651
# Velocity P-wave (km/s) = 5.91795 6.05390 5.98631
#
# Compressibility (1/GPa) = 0.02862694
#
# Stress axis : x y z
#
# Youngs Moduli (GPa) = 77.80571 80.10300 57.74679
#
# Poissons Ratio (x) = 0.23476 0.00169
# Poissons Ratio (y) = 0.22803 0.23406
# Poissons Ratio (z) = 0.00227 0.32468
#
# Static dielectric constant tensor:
#      x y z
#    x 4.123870 0.000000 0.000000 
#    y 0.000000 4.791760 0.000000 
#    z 0.000000 0.000000 2.845530 
# 
# 
# High freq. dielectric constant tensor:
#      x y z
#    x 1.801890 0.000000 0.000000 
#    y 0.000000 1.774660 0.000000 
#    z 0.000000 0.000000 1.780350 
# 
# From -- ./inp_files/26166.got.cif
#   From: 2010.03.12/outbox.cif.g09.slc.cpg/sg62_14_cif.got.tgz:26166.got - 2010.04.10 19:12:36.
