data_PCOD8252910
_publ_section_title
;
Structure prediction by ZEFSAII (Michael W. Deem and Ramdas Pophale) SiO2 
 PCOD8252910
Probable space group: P N M A
;
_chemical_formula_sum "Si O2"
_cell_formula_units_Z 56
_cell_length_a 14.654452
_cell_length_b 8.709961
_cell_length_c 21.698145
_cell_angle_alpha 90.000000
_cell_angle_beta 90.000000
_cell_angle_gamma 90.000000
_cell_volume 2769.544835
_symmetry_space_group_name_H-M "P N M A"
_symmetry_group_IT_number 62
_symmetry_cell_setting 'orthorhombic'
loop_
_space_group_symop_operation_xyz
x,y,z
1/2-x,-y,1/2+z
1/2+x,1/2-y,1/2-z
-x,1/2+y,-z
-x,-y,-z
1/2+x,y,1/2-z
1/2-x,1/2+y,1/2+z
x,1/2-y,z
loop_
_atom_site_type_symbol
_atom_site_label
_atom_site_fract_x
_atom_site_fract_y
_atom_site_fract_z
Si Si1 0.581815 0.567617 0.960687
Si Si2 0.807700 0.426481 0.215791
Si Si3 0.410577 0.069014 0.614227
Si Si4 0.884748 0.570943 0.097753
Si Si5 0.392762 0.571701 0.746643
Si Si6 0.273241 0.430782 0.510134
Si Si7 0.438235 0.429362 0.176905
O O1 0.576569 0.750000 0.961866
O O2 0.574027 0.499814 0.891139
O O3 0.500000 0.500000 0.000000
O O4 0.676930 0.515667 0.989869
O O5 0.829983 0.250000 0.198239
O O6 0.853721 0.540157 0.167479
O O7 0.700185 0.457029 0.216437
O O8 0.848061 0.464843 0.283292
O O9 0.407592 0.250000 0.617647
O O10 0.510430 0.016466 0.591141
O O11 0.335398 0.006798 0.566267
O O12 0.387219 0.007143 0.680998
O O13 0.872782 0.750000 0.082162
O O14 0.823448 0.468380 0.053380
O O15 0.410569 0.750000 0.734034
O O16 0.473665 0.499748 0.788168
O O17 0.256668 0.250000 0.514445
O O18 0.455155 0.250000 0.168898
#
# Coordination Sequence:
#
# PCOD8252910 Si02
#       7
#     8   8   8   8   8   8   8
#     4  11  24  43  65  93 127 164 211 259 306 363
#     4  10  20  36  60  89 119 157 202 247 300 362
#     4  10  22  40  61  91 126 158 199 255 315 369
#     4  11  23  39  60  91 124 156 200 257 315 370
#     4  10  20  35  61  90 117 157 201 243 296 364
#     4  11  24  42  63  87 120 165 209 253 309 370
#     4   9  19  37  59  87 121 157 198 244 295 359
#
# _framework density 20.219930000000002
#
# number of rings (size 3 to 8) (size 9 to 14) (size 15 to 20)
#    0.000    1.714    1.429    2.571    2.000    3.429 
#    0.000    2.857    0.000    0.000    0.000    0.000 
#    0.000    0.000    0.000    0.000    0.000    0.000 
#
# Total GULP energy -694603.183859 kJ/mol
# GULP energy per Si atom -12403.628283 kJ/mol
# Density = 2.017391 g / cm^3
# Si number density = 20.219930 Si / 1000 Ang^3
#
#
#
# Elastic Constant Matrix: (Units=GPa)
#
#
# Indices 1 2 3 4 5 6 
#
# 1 130.1468 25.8463 31.9209 0.0000 0.0000 0.0000
# 2 25.8463 28.8071 20.4366 0.0000 0.0000 0.0000
# 3 31.9209 20.4366 100.3020 0.0000 0.0000 0.0000
# 4 0.0000 0.0000 0.0000 33.7982 0.0000 0.0000
# 5 0.0000 0.0000 0.0000 0.0000 33.8659 0.0000
# 6 0.0000 0.0000 0.0000 0.0000 0.0000 21.4913
#
#
#
# Elastic Compliance Matrix: (Units=1/GPa)
#
#
# Indices 1 2 3 4 5 6 
#
# 1 0.009541 -0.007489 -0.001511 0.000000 0.000000 0.000000
# 2 -0.007489 0.046458 -0.007082 0.000000 0.000000 0.000000
# 3 -0.001511 -0.007082 0.011894 0.000000 0.000000 0.000000
# 4 0.000000 0.000000 0.000000 0.029587 0.000000 0.000000
# 5 0.000000 0.000000 0.000000 0.000000 0.029528 0.000000
# 6 0.000000 0.000000 0.000000 0.000000 0.000000 0.046530
#
#
# Mechanical properties :
#
#
# Convention : Reuss Voigt Hill
#
# Bulk Modulus (GPa) = 27.98889 46.18484 37.08687
# Shear Modulus (GPa) = 22.97664 29.90122 26.43893
#
# Velocity S-wave (km/s) = 3.37462 3.84969 3.61995
# Velocity P-wave (km/s) = 5.39039 6.53077 5.98779
#
# Compressibility (1/GPa) = 0.03572846
#
# Stress axis : x y z
#
# Youngs Moduli (GPa) = 104.80605 21.52505 84.07828
#
# Poissons Ratio (x) = 0.16120 0.12701
# Poissons Ratio (y) = 0.78490 0.59547
# Poissons Ratio (z) = 0.15832 0.15245
#
# Static dielectric constant tensor:
#      x y z
#    x 3.928770 0.000000 0.000000 
#    y 0.000000 3.468810 0.000000 
#    z 0.000000 0.000000 3.772610 
# 
# 
# High freq. dielectric constant tensor:
#      x y z
#    x 1.807140 0.000000 0.000000 
#    y 0.000000 1.768610 0.000000 
#    z 0.000000 0.000000 1.797680 
# 
# From -- ./inp_files/27106.got.cif
#   From: 2010.03.12/outbox.cif.g09.slc.cpg/sg62_14_cif.got.tgz:27106.got - 2010.04.10 19:12:36.
