data_PCOD8252381
_publ_section_title
;
Structure prediction by ZEFSAII (Michael W. Deem and Ramdas Pophale) SiO2 
 PCOD8252381
Probable space group: P N M A
;
_chemical_formula_sum "Si O2"
_cell_formula_units_Z 64
_cell_length_a 24.602704
_cell_length_b 8.976119
_cell_length_c 15.208340
_cell_angle_alpha 90.000000
_cell_angle_beta 90.000000
_cell_angle_gamma 90.000000
_cell_volume 3358.561121
_symmetry_space_group_name_H-M "P N M A"
_symmetry_group_IT_number 62
_symmetry_cell_setting 'orthorhombic'
loop_
_space_group_symop_operation_xyz
x,y,z
1/2-x,-y,1/2+z
1/2+x,1/2-y,1/2-z
-x,1/2+y,-z
-x,-y,-z
1/2+x,y,1/2-z
1/2-x,1/2+y,1/2+z
x,1/2-y,z
loop_
_atom_site_type_symbol
_atom_site_label
_atom_site_fract_x
_atom_site_fract_y
_atom_site_fract_z
Si Si1 0.636482 0.425340 0.093690
Si Si2 0.133156 0.920449 0.592485
Si Si3 0.364373 0.573526 0.395225
Si Si4 0.061022 0.427399 0.251289
Si Si5 0.062954 0.572925 0.753722
Si Si6 0.368878 0.579531 0.594912
Si Si7 0.256633 0.421737 0.399763
Si Si8 0.251907 0.582186 0.575429
O O1 0.631800 0.250000 0.078859
O O2 0.591806 0.486748 0.162012
O O3 0.696133 0.464063 0.134789
O O4 0.624851 0.498413 0.999702
O O5 0.117389 0.750000 0.576177
O O6 0.094220 0.987728 0.667422
O O7 0.195545 0.935394 0.628765
O O8 0.366748 0.750000 0.387806
O O9 0.412753 0.502231 0.340063
O O10 0.372193 0.514593 0.495723
O O11 0.305580 0.518736 0.358026
O O12 0.065815 0.250000 0.249340
O O13 0.089898 0.497286 0.164007
O O14 0.999071 0.480502 0.254299
O O15 0.068360 0.750000 0.762756
O O16 0.386254 0.750000 0.588056
O O17 0.306828 0.563263 0.633132
O O18 0.270410 0.250000 0.381976
O O19 0.253406 0.453884 0.503209
O O20 0.253652 0.750000 0.532429
#
# Coordination Sequence:
#
# PCOD8252381 Si02
#       8
#     8   8   8   8   8   8   8   8
#     4   9  18  32  53  78 102 132 168 206 249 300
#     4   9  18  32  50  73 102 133 164 204 255 306
#     4  10  20  34  52  74 101 133 168 208 257 307
#     4   9  18  33  51  73 101 132 172 215 250 295
#     4  10  21  35  51  73 100 134 176 215 251 296
#     4   8  15  29  50  72  94 126 163 200 247 299
#     4   9  16  28  49  77 104 127 159 203 251 304
#     4   8  14  27  48  72  98 128 162 198 244 303
#
# _framework density 19.055781
#
# number of rings (size 3 to 8) (size 9 to 14) (size 15 to 20)
#    0.000    3.000    0.000    1.500    0.000    3.000 
#    0.000    4.375    0.000    6.750    0.000    0.000 
#    0.000    0.000    0.000    0.000    0.000    0.000 
#
# Total GULP energy -792937.879648 kJ/mol
# GULP energy per Si atom -12389.654369 kJ/mol
# Density = 1.901241 g / cm^3
# Si number density = 19.055781 Si / 1000 Ang^3
#
#
#
# Elastic Constant Matrix: (Units=GPa)
#
#
# Indices 1 2 3 4 5 6 
#
# 1 174.5479 32.1870 83.0659 0.0000 0.0000 0.0000
# 2 32.1870 32.2131 23.8257 0.0000 0.0000 0.0000
# 3 83.0659 23.8257 109.7006 0.0000 0.0000 0.0000
# 4 0.0000 0.0000 0.0000 20.1008 0.0000 0.0000
# 5 0.0000 0.0000 0.0000 0.0000 37.2509 0.0000
# 6 0.0000 0.0000 0.0000 0.0000 0.0000 20.1113
#
#
#
# Elastic Compliance Matrix: (Units=1/GPa)
#
#
# Indices 1 2 3 4 5 6 
#
# 1 0.009592 -0.005019 -0.006173 0.000000 0.000000 0.000000
# 2 -0.005019 0.039610 -0.004803 0.000000 0.000000 0.000000
# 3 -0.006173 -0.004803 0.014833 0.000000 0.000000 0.000000
# 4 0.000000 0.000000 0.000000 0.049749 0.000000 0.000000
# 5 0.000000 0.000000 0.000000 0.000000 0.026845 0.000000
# 6 0.000000 0.000000 0.000000 0.000000 0.000000 0.049723
#
#
# Mechanical properties :
#
#
# Convention : Reuss Voigt Hill
#
# Bulk Modulus (GPa) = 31.20482 66.06875 48.63678
# Shear Modulus (GPa) = 21.45691 27.31813 24.38752
#
# Velocity S-wave (km/s) = 3.35924 3.79038 3.58131
# Velocity P-wave (km/s) = 5.60866 7.34183 6.53298
#
# Compressibility (1/GPa) = 0.03204633
#
# Stress axis : x y z
#
# Youngs Moduli (GPa) = 104.24895 25.24608 67.41557
#
# Poissons Ratio (x) = 0.12670 0.41619
# Poissons Ratio (y) = 0.52319 0.32378
# Poissons Ratio (z) = 0.64357 0.12125
#
# Static dielectric constant tensor:
#      x y z
#    x 3.851820 0.000000 0.000000 
#    y 0.000000 3.179570 0.000000 
#    z 0.000000 0.000000 3.374240 
# 
# 
# High freq. dielectric constant tensor:
#      x y z
#    x 1.752820 0.000000 0.000000 
#    y 0.000000 1.707150 0.000000 
#    z 0.000000 0.000000 1.721170 
# 
# From -- ./inp_files/20991.got.cif
#   From: 2010.03.12/outbox.cif.g09.slc.cpg/sg62_11_cif.got.tgz:20991.got - 2010.04.10 19:12:36.
