data_PCOD8252458
_publ_section_title
;
Structure prediction by ZEFSAII (Michael W. Deem and Ramdas Pophale) SiO2 
 PCOD8252458
Probable space group: P N M A
;
_chemical_formula_sum "Si O2"
_cell_formula_units_Z 48
_cell_length_a 17.859217
_cell_length_b 9.026194
_cell_length_c 15.475629
_cell_angle_alpha 90.000000
_cell_angle_beta 90.000000
_cell_angle_gamma 90.000000
_cell_volume 2494.683115
_symmetry_space_group_name_H-M "P N M A"
_symmetry_group_IT_number 62
_symmetry_cell_setting 'orthorhombic'
loop_
_space_group_symop_operation_xyz
x,y,z
1/2-x,-y,1/2+z
1/2+x,1/2-y,1/2-z
-x,1/2+y,-z
-x,-y,-z
1/2+x,y,1/2-z
1/2-x,1/2+y,1/2+z
x,1/2-y,z
loop_
_atom_site_type_symbol
_atom_site_label
_atom_site_fract_x
_atom_site_fract_y
_atom_site_fract_z
Si Si1 0.961253 0.077520 0.745915
Si Si2 0.787619 0.077038 0.748450
Si Si3 0.712591 0.074150 0.573789
Si Si4 0.533735 0.925086 0.916133
Si Si5 0.042735 0.075324 0.921974
Si Si6 0.205458 0.574928 0.595760
O O1 0.973815 0.250000 0.723634
O O2 0.874538 0.041272 0.760264
O O3 0.004726 0.029703 0.832040
O O4 0.990356 0.979059 0.667973
O O5 0.770711 0.250000 0.758517
O O6 0.759971 0.017527 0.655650
O O7 0.741011 0.992116 0.819473
O O8 0.713717 0.250000 0.571561
O O9 0.627683 0.015638 0.579591
O O10 0.751492 0.010230 0.487813
O O11 0.525385 0.750000 0.925044
O O12 0.619642 0.974485 0.909118
O O13 0.500000 0.000000 0.000000
O O14 0.039240 0.250000 0.936337
O O15 0.000000 0.000000 0.000000
O O16 0.213561 0.750000 0.600282
#
# Coordination Sequence:
#
# PCOD8252458 Si02
#       6
#     8   8   8   8   8   8
#     4  10  21  37  57  83 114 146 185 232 281 338
#     4  10  20  36  58  81 108 144 182 224 275 329
#     4   9  18  34  54  74 103 143 177 210 265 328
#     4  11  23  38  58  83 112 148 189 236 287 338
#     4  10  20  34  54  79 107 141 179 221 270 326
#     4  10  21  37  56  80 110 144 184 229 275 327
#
# _framework density 19.240922000000001
#
# number of rings (size 3 to 8) (size 9 to 14) (size 15 to 20)
#    0.000    2.000    0.000    3.500    0.000    6.667 
#    0.000    1.667    0.000    0.000    0.000    0.000 
#    0.000    0.000    0.000    0.000    0.000    0.000 
#
# Total GULP energy -595390.239459 kJ/mol
# GULP energy per Si atom -12403.963322 kJ/mol
# Density = 1.919713 g / cm^3
# Si number density = 19.240922 Si / 1000 Ang^3
#
#
#
# Elastic Constant Matrix: (Units=GPa)
#
#
# Indices 1 2 3 4 5 6 
#
# 1 105.0172 28.3475 29.2387 0.0000 0.0000 0.0000
# 2 28.3475 25.5881 25.9355 0.0000 0.0000 0.0000
# 3 29.2387 25.9355 113.9077 0.0000 0.0000 0.0000
# 4 0.0000 0.0000 0.0000 37.6772 0.0000 0.0000
# 5 0.0000 0.0000 0.0000 0.0000 44.5987 0.0000
# 6 0.0000 0.0000 0.0000 0.0000 0.0000 21.7777
#
#
#
# Elastic Compliance Matrix: (Units=1/GPa)
#
#
# Indices 1 2 3 4 5 6 
#
# 1 0.013585 -0.014971 -0.000079 0.000000 0.000000 0.000000
# 2 -0.014971 0.067303 -0.011481 0.000000 0.000000 0.000000
# 3 -0.000079 -0.011481 0.011413 0.000000 0.000000 0.000000
# 4 0.000000 0.000000 0.000000 0.026541 0.000000 0.000000
# 5 0.000000 0.000000 0.000000 0.000000 0.022422 0.000000
# 6 0.000000 0.000000 0.000000 0.000000 0.000000 0.045918
#
#
# Mechanical properties :
#
#
# Convention : Reuss Voigt Hill
#
# Bulk Modulus (GPa) = 25.48384 45.72849 35.60616
# Shear Modulus (GPa) = 19.73753 31.54346 25.64050
#
# Velocity S-wave (km/s) = 3.20630 4.05334 3.65444
# Velocity P-wave (km/s) = 5.19428 6.76195 6.02928
#
# Compressibility (1/GPa) = 0.03924056
#
# Stress axis : x y z
#
# Youngs Moduli (GPa) = 73.60984 14.85819 87.61645
#
# Poissons Ratio (x) = 0.22244 0.00688
# Poissons Ratio (y) = 1.10198 1.00596
# Poissons Ratio (z) = 0.00578 0.17059
#
# Static dielectric constant tensor:
#      x y z
#    x 3.835740 0.000000 0.000000 
#    y 0.000000 3.269950 0.000000 
#    z 0.000000 0.000000 3.459860 
# 
# 
# High freq. dielectric constant tensor:
#      x y z
#    x 1.769740 0.000000 0.000000 
#    y 0.000000 1.723370 0.000000 
#    z 0.000000 0.000000 1.767490 
# 
# From -- ./inp_files/19522.got.cif
#   From: 2010.03.12/outbox.cif.g09.slc.cpg/sg62_10_cif.got.tgz:19522.got - 2010.04.10 19:12:36.
