data_PCOD8252154
_publ_section_title
;
Structure prediction by ZEFSAII (Michael W. Deem and Ramdas Pophale) SiO2 
 PCOD8252154
Probable space group: P N M A
;
_chemical_formula_sum "Si O2"
_cell_formula_units_Z 56
_cell_length_a 10.568996
_cell_length_b 11.492095
_cell_length_c 23.351405
_cell_angle_alpha 90.000000
_cell_angle_beta 90.000000
_cell_angle_gamma 90.000000
_cell_volume 2836.259458
_symmetry_space_group_name_H-M "P N M A"
_symmetry_group_IT_number 62
_symmetry_cell_setting 'orthorhombic'
loop_
_space_group_symop_operation_xyz
x,y,z
1/2-x,-y,1/2+z
1/2+x,1/2-y,1/2-z
-x,1/2+y,-z
-x,-y,-z
1/2+x,y,1/2-z
1/2-x,1/2+y,1/2+z
x,1/2-y,z
loop_
_atom_site_type_symbol
_atom_site_label
_atom_site_fract_x
_atom_site_fract_y
_atom_site_fract_z
Si Si1 0.906571 0.516266 0.142250
Si Si2 0.831701 0.381482 0.426046
Si Si3 0.278859 0.617172 0.456358
Si Si4 0.512872 0.750000 0.191619
Si Si5 0.144396 0.382543 0.175049
Si Si6 0.817742 0.750000 0.204076
Si Si7 0.040049 0.541642 0.386313
Si Si8 0.306731 0.616491 0.804442
O O1 0.879478 0.529923 0.074033
O O2 0.856236 0.635993 0.169139
O O3 0.832161 0.410372 0.171702
O O4 0.051153 0.482729 0.151802
O O5 0.883636 0.250000 0.437044
O O6 0.732293 0.413407 0.476471
O O7 0.766987 0.388040 0.364393
O O8 0.941823 0.476851 0.427856
O O9 0.323484 0.750000 0.448119
O O10 0.143634 0.600273 0.426477
O O11 0.662668 0.750000 0.213288
O O12 0.405698 0.750000 0.240194
O O13 0.478077 0.859988 0.152808
O O14 0.088628 0.250000 0.173950
O O15 0.185309 0.421342 0.238289
O O16 0.090262 0.447836 0.341745
O O17 0.337524 0.750000 0.811429
#
# Coordination Sequence:
#
# PCOD8252154 Si02
#       8
#     8   8   8   4   8   4   8   8
#     4  11  21  38  62  83 117 159 200 238 305 365
#     4  10  23  38  61  87 117 155 202 257 302 362
#     4  10  19  40  61  83 117 156 203 245 306 360
#     4  12  24  38  62  90 132 162 206 248 312 373
#     4  10  23  39  56  88 120 155 197 248 309 360
#     4  12  24  40  60  96 122 172 198 248 310 381
#     4  11  20  38  60  88 117 156 198 249 304 357
#     4  10  21  35  58  85 117 150 191 242 297 358
#
# _framework density 19.744316000000001
#
# number of rings (size 3 to 8) (size 9 to 14) (size 15 to 20)
#    0.000    1.429    4.286    2.143    4.000    0.571 
#    0.000    0.000    3.143    0.000    0.000    0.000 
#    0.000    0.000    0.000    0.000    0.000    0.000 
#
# Total GULP energy -694169.775477 kJ/mol
# GULP energy per Si atom -12395.888848 kJ/mol
# Density = 1.969938 g / cm^3
# Si number density = 19.744316 Si / 1000 Ang^3
#
#
#
# Elastic Constant Matrix: (Units=GPa)
#
#
# Indices 1 2 3 4 5 6 
#
# 1 30.9205 13.5325 7.6129 0.0000 0.0000 0.0000
# 2 13.5325 51.2158 4.9216 0.0000 0.0000 0.0000
# 3 7.6129 4.9216 62.9182 0.0000 0.0000 0.0000
# 4 0.0000 0.0000 0.0000 25.5843 0.0000 0.0000
# 5 0.0000 0.0000 0.0000 0.0000 19.9421 0.0000
# 6 0.0000 0.0000 0.0000 0.0000 0.0000 18.5779
#
#
#
# Elastic Compliance Matrix: (Units=1/GPa)
#
#
# Indices 1 2 3 4 5 6 
#
# 1 0.037444 -0.009530 -0.003785 0.000000 0.000000 0.000000
# 2 -0.009530 0.022099 -0.000576 0.000000 0.000000 0.000000
# 3 -0.003785 -0.000576 0.016397 0.000000 0.000000 0.000000
# 4 0.000000 0.000000 0.000000 0.039087 0.000000 0.000000
# 5 0.000000 0.000000 0.000000 0.000000 0.050145 0.000000
# 6 0.000000 0.000000 0.000000 0.000000 0.000000 0.053827
#
#
# Mechanical properties :
#
#
# Convention : Reuss Voigt Hill
#
# Bulk Modulus (GPa) = 20.76500 21.90984 21.33742
# Shear Modulus (GPa) = 19.02360 20.75337 19.88848
#
# Velocity S-wave (km/s) = 3.10739 3.24559 3.17724
# Velocity P-wave (km/s) = 4.83883 5.01658 4.92851
#
# Compressibility (1/GPa) = 0.04815796
#
# Stress axis : x y z
#
# Youngs Moduli (GPa) = 26.70679 45.25184 60.98806
#
# Poissons Ratio (x) = 0.43124 0.23085
# Poissons Ratio (y) = 0.25451 0.03510
# Poissons Ratio (z) = 0.10109 0.02604
#
# Static dielectric constant tensor:
#      x y z
#    x 3.382870 0.000000 0.000000 
#    y 0.000000 3.653360 0.000000 
#    z 0.000000 0.000000 3.840480 
# 
# 
# High freq. dielectric constant tensor:
#      x y z
#    x 1.746210 0.000000 0.000000 
#    y 0.000000 1.778440 0.000000 
#    z 0.000000 0.000000 1.780400 
# 
# From -- ./inp_files/26656.got.cif
#   From: 2010.03.12/outbox.cif.g09.slc.cpg/sg62_14_cif.got.tgz:26656.got - 2010.04.10 19:12:36.
