data_PCOD8252278
_publ_section_title
;
Structure prediction by ZEFSAII (Michael W. Deem and Ramdas Pophale) SiO2 
 PCOD8252278
Probable space group: P N M A
;
_chemical_formula_sum "Si O2"
_cell_formula_units_Z 64
_cell_length_a 19.502315
_cell_length_b 9.263851
_cell_length_c 20.107422
_cell_angle_alpha 90.000000
_cell_angle_beta 90.000000
_cell_angle_gamma 90.000000
_cell_volume 3632.738367
_symmetry_space_group_name_H-M "P N M A"
_symmetry_group_IT_number 62
_symmetry_cell_setting 'orthorhombic'
loop_
_space_group_symop_operation_xyz
x,y,z
1/2-x,-y,1/2+z
1/2+x,1/2-y,1/2-z
-x,1/2+y,-z
-x,-y,-z
1/2+x,y,1/2-z
1/2-x,1/2+y,1/2+z
x,1/2-y,z
loop_
_atom_site_type_symbol
_atom_site_label
_atom_site_fract_x
_atom_site_fract_y
_atom_site_fract_z
Si Si1 0.679425 0.417338 0.573249
Si Si2 0.415845 0.080603 0.682766
Si Si3 0.082645 0.083042 0.313770
Si Si4 0.574720 0.581805 0.815274
Si Si5 0.572840 0.082024 0.684744
Si Si6 0.671080 0.582740 0.933862
Si Si7 0.171592 0.413664 0.078425
Si Si8 0.682996 0.080008 0.067288
O O1 0.700222 0.250000 0.581754
O O2 0.618102 0.463717 0.621684
O O3 0.654235 0.446252 0.498375
O O4 0.745129 0.513270 0.590699
O O5 0.404783 0.250000 0.689150
O O6 0.494717 0.038986 0.668610
O O7 0.390691 0.008463 0.751177
O O8 0.371377 0.024105 0.621847
O O9 0.090890 0.250000 0.294702
O O10 0.127129 0.041325 0.377366
O O11 0.004146 0.044553 0.330918
O O12 0.586681 0.750000 0.803061
O O13 0.600301 0.501364 0.749236
O O14 0.619710 0.527143 0.877107
O O15 0.579438 0.250000 0.700484
O O16 0.658336 0.750000 0.951949
O O17 0.748204 0.559775 0.908043
O O18 0.656385 0.488940 0.998993
O O19 0.151195 0.250000 0.097131
O O20 0.691958 0.250000 0.057401
#
# Coordination Sequence:
#
# PCOD8252278 Si02
#       8
#     8   8   8   8   8   8   8   8
#     4   9  19  36  54  72  99 133 164 199 248 298
#     4  10  20  33  51  75 100 128 165 206 245 290
#     4   9  19  35  52  72 101 133 164 202 246 291
#     4   9  18  34  54  74  98 132 170 201 238 294
#     4   9  19  35  52  73 101 129 162 207 251 288
#     4   9  19  35  53  73 100 133 166 201 244 294
#     4   9  18  33  51  71  99 133 163 197 245 295
#     4  10  20  33  51  76 102 128 164 207 245 287
#
# _framework density 17.617564000000002
#
# number of rings (size 3 to 8) (size 9 to 14) (size 15 to 20)
#    0.000    2.750    0.000    1.500    0.000    6.500 
#    0.000    3.750    0.000    0.000    0.000    0.000 
#    0.000    0.000    0.000    0.000    0.000    0.000 
#
# Total GULP energy -793773.068686 kJ/mol
# GULP energy per Si atom -12402.704198 kJ/mol
# Density = 1.757747 g / cm^3
# Si number density = 17.617564 Si / 1000 Ang^3
#
#
#
# Elastic Constant Matrix: (Units=GPa)
#
#
# Indices 1 2 3 4 5 6 
#
# 1 87.6806 50.2659 86.2241 0.0000 0.0000 0.0000
# 2 50.2659 71.9290 69.1064 0.0000 0.0000 0.0000
# 3 86.2241 69.1064 142.9175 0.0000 0.0000 0.0000
# 4 0.0000 0.0000 0.0000 35.6197 0.0000 0.0000
# 5 0.0000 0.0000 0.0000 0.0000 34.2319 0.0000
# 6 0.0000 0.0000 0.0000 0.0000 0.0000 25.4914
#
#
#
# Elastic Compliance Matrix: (Units=1/GPa)
#
#
# Indices 1 2 3 4 5 6 
#
# 1 0.029628 -0.006595 -0.014686 0.000000 0.000000 0.000000
# 2 -0.006595 0.027433 -0.009286 0.000000 0.000000 0.000000
# 3 -0.014686 -0.009286 0.020347 0.000000 0.000000 0.000000
# 4 0.000000 0.000000 0.000000 0.028074 0.000000 0.000000
# 5 0.000000 0.000000 0.000000 0.000000 0.029212 0.000000
# 6 0.000000 0.000000 0.000000 0.000000 0.000000 0.039229
#
#
# Mechanical properties :
#
#
# Convention : Reuss Voigt Hill
#
# Bulk Modulus (GPa) = 61.44693 79.30221 70.37457
# Shear Modulus (GPa) = 20.79148 25.53066 23.16107
#
# Velocity S-wave (km/s) = 3.43907 3.81091 3.62975
# Velocity P-wave (km/s) = 7.12204 8.02963 7.58942
#
# Compressibility (1/GPa) = 0.01627421
#
# Stress axis : x y z
#
# Youngs Moduli (GPa) = 33.75205 36.45227 49.14623
#
# Poissons Ratio (x) = 0.24041 0.72175
# Poissons Ratio (y) = 0.22260 0.45638
# Poissons Ratio (z) = 0.49568 0.33850
#
# Static dielectric constant tensor:
#      x y z
#    x 3.289260 0.000000 0.000000 
#    y 0.000000 3.240780 0.000000 
#    z 0.000000 0.000000 3.322670 
# 
# 
# High freq. dielectric constant tensor:
#      x y z
#    x 1.678270 0.000000 0.000000 
#    y 0.000000 1.681400 0.000000 
#    z 0.000000 0.000000 1.684740 
# 
# From -- ./inp_files/27733.got.cif
#   From: 2010.03.12/outbox.cif.g09.slc.cpg/sg62_14_cif.got.tgz:27733.got - 2010.04.10 19:12:36.
