data_PCOD8252462
_publ_section_title
;
Structure prediction by ZEFSAII (Michael W. Deem and Ramdas Pophale) SiO2 
 PCOD8252462
Probable space group: P N M A
;
_chemical_formula_sum "Si O2"
_cell_formula_units_Z 64
_cell_length_a 21.843378
_cell_length_b 9.340437
_cell_length_c 16.521914
_cell_angle_alpha 90.000000
_cell_angle_beta 90.000000
_cell_angle_gamma 90.000000
_cell_volume 3370.911526
_symmetry_space_group_name_H-M "P N M A"
_symmetry_group_IT_number 62
_symmetry_cell_setting 'orthorhombic'
loop_
_space_group_symop_operation_xyz
x,y,z
1/2-x,-y,1/2+z
1/2+x,1/2-y,1/2-z
-x,1/2+y,-z
-x,-y,-z
1/2+x,y,1/2-z
1/2-x,1/2+y,1/2+z
x,1/2-y,z
loop_
_atom_site_type_symbol
_atom_site_label
_atom_site_fract_x
_atom_site_fract_y
_atom_site_fract_z
Si Si1 0.556757 0.090290 0.605626
Si Si2 0.629604 0.084635 0.036775
Si Si3 0.573893 0.584555 0.334687
Si Si4 0.144058 0.584656 0.791270
Si Si5 0.233101 0.583276 0.929204
Si Si6 0.642996 0.417510 0.460633
Si Si7 0.464157 0.582114 0.824432
Si Si8 0.100600 0.915726 0.623126
O O1 0.575976 0.250000 0.631053
O O2 0.483843 0.072723 0.604669
O O3 0.584245 0.055685 0.517712
O O4 0.583793 0.988088 0.673540
O O5 0.624141 0.250000 0.014805
O O6 0.695372 0.048446 0.075643
O O7 0.578041 0.038736 0.099977
O O8 0.621562 0.001870 0.953965
O O9 0.592757 0.750000 0.321216
O O10 0.629633 0.498130 0.376189
O O11 0.558162 0.513161 0.249677
O O12 0.129847 0.750000 0.801680
O O13 0.204865 0.540691 0.841223
O O14 0.148604 0.547809 0.695823
O O15 0.220414 0.750000 0.948862
O O16 0.202952 0.486892 0.998975
O O17 0.655242 0.250000 0.444076
O O18 0.457893 0.750000 0.802509
O O19 0.532887 0.539965 0.848306
O O20 0.102151 0.750000 0.599570
#
# Coordination Sequence:
#
# PCOD8252462 Si02
#       8
#     8   8   8   8   8   8   8   8
#     4   9  18  31  50  79 112 144 183 226 275 330
#     4  10  22  39  59  81 111 148 185 233 284 337
#     4  11  21  33  52  81 116 149 183 229 282 335
#     4   9  17  32  56  81 108 145 182 227 278 329
#     4   9  19  38  58  78 109 146 187 228 277 333
#     4  10  20  34  54  80 110 148 188 228 274 333
#     4  10  21  38  57  82 113 147 189 235 288 340
#     4  10  20  35  58  86 113 142 187 237 282 339
#
# _framework density 18.985963999999999
#
# number of rings (size 3 to 8) (size 9 to 14) (size 15 to 20)
#    0.000    2.250    1.250    1.500    0.000    3.000 
#    2.250    0.000    0.000    0.000    0.000    0.000 
#    0.000    0.000    0.000    0.000    0.000    0.000 
#
# Total GULP energy -793552.803238 kJ/mol
# GULP energy per Si atom -12399.262551 kJ/mol
# Density = 1.894275 g / cm^3
# Si number density = 18.985964 Si / 1000 Ang^3
#
#
#
# Elastic Constant Matrix: (Units=GPa)
#
#
# Indices 1 2 3 4 5 6 
#
# 1 80.4232 36.6879 53.0409 0.0000 0.0000 0.0000
# 2 36.6879 73.2230 53.4832 0.0000 0.0000 0.0000
# 3 53.0409 53.4832 109.1225 0.0000 0.0000 0.0000
# 4 0.0000 0.0000 0.0000 37.0798 0.0000 0.0000
# 5 0.0000 0.0000 0.0000 0.0000 22.4609 0.0000
# 6 0.0000 0.0000 0.0000 0.0000 0.0000 22.4922
#
#
#
# Elastic Compliance Matrix: (Units=1/GPa)
#
#
# Indices 1 2 3 4 5 6 
#
# 1 0.019153 -0.004356 -0.007175 0.000000 0.000000 0.000000
# 2 -0.004356 0.022263 -0.008794 0.000000 0.000000 0.000000
# 3 -0.007175 -0.008794 0.016962 0.000000 0.000000 0.000000
# 4 0.000000 0.000000 0.000000 0.026969 0.000000 0.000000
# 5 0.000000 0.000000 0.000000 0.000000 0.044522 0.000000
# 6 0.000000 0.000000 0.000000 0.000000 0.000000 0.044460
#
#
# Mechanical properties :
#
#
# Convention : Reuss Voigt Hill
#
# Bulk Modulus (GPa) = 56.40859 61.02142 58.71500
# Shear Modulus (GPa) = 22.63592 24.37702 23.50647
#
# Velocity S-wave (km/s) = 3.45664 3.58711 3.52248
# Velocity P-wave (km/s) = 6.76064 7.02613 6.89467
#
# Compressibility (1/GPa) = 0.01772780
#
# Stress axis : x y z
#
# Youngs Moduli (GPa) = 52.21014 44.91780 58.95643
#
# Poissons Ratio (x) = 0.19566 0.42300
# Poissons Ratio (y) = 0.22743 0.51847
# Poissons Ratio (z) = 0.37460 0.39501
#
# Static dielectric constant tensor:
#      x y z
#    x 3.467340 0.000000 0.000000 
#    y 0.000000 3.490780 0.000000 
#    z 0.000000 0.000000 3.456300 
# 
# 
# High freq. dielectric constant tensor:
#      x y z
#    x 1.725370 0.000000 0.000000 
#    y 0.000000 1.738900 0.000000 
#    z 0.000000 0.000000 1.736690 
# 
# From -- ./inp_files/20959.got.cif
#   From: 2010.03.12/outbox.cif.g09.slc.cpg/sg62_11_cif.got.tgz:20959.got - 2010.04.10 19:12:36.
