data_PCOD8252478
_publ_section_title
;
Structure prediction by ZEFSAII (Michael W. Deem and Ramdas Pophale) SiO2 
 PCOD8252478
Probable space group: P N M A
;
_chemical_formula_sum "Si O2"
_cell_formula_units_Z 64
_cell_length_a 19.775475
_cell_length_b 19.901623
_cell_length_c 8.909071
_cell_angle_alpha 90.000000
_cell_angle_beta 90.000000
_cell_angle_gamma 90.000000
_cell_volume 3506.290048
_symmetry_space_group_name_H-M "P N M A"
_symmetry_group_IT_number 62
_symmetry_cell_setting 'orthorhombic'
loop_
_space_group_symop_operation_xyz
x,y,z
1/2-x,-y,1/2+z
1/2+x,1/2-y,1/2-z
-x,1/2+y,-z
-x,-y,-z
1/2+x,y,1/2-z
1/2-x,1/2+y,1/2+z
x,1/2-y,z
loop_
_atom_site_type_symbol
_atom_site_label
_atom_site_fract_x
_atom_site_fract_y
_atom_site_fract_z
Si Si1 0.907005 0.052097 0.924363
Si Si2 0.658618 0.326690 0.075706
Si Si3 0.407005 0.052097 0.924362
Si Si4 0.841382 0.826690 0.924294
Si Si5 0.443330 0.915273 0.075516
Si Si6 0.726826 0.930861 0.926583
Si Si7 0.943330 0.915273 0.075516
Si Si8 0.273174 0.069139 0.426583
O O1 0.888731 0.049505 0.750000
O O2 0.976609 0.091756 0.955483
O O3 0.847072 0.089891 0.011915
O O4 0.911909 0.975865 0.980892
O O5 0.676463 0.250000 0.037698
O O6 0.641126 0.336442 0.250000
O O7 0.722609 0.371358 0.027358
O O8 0.592899 0.347508 0.979284
O O9 0.476609 0.091756 0.955482
O O10 0.347071 0.089891 0.011915
O O11 0.411909 0.975865 0.980891
O O12 0.823537 0.750000 0.962302
O O13 0.777391 0.871358 0.972642
O O14 0.907101 0.847508 0.020716
O O15 0.429312 0.929040 0.250000
O O16 0.723355 0.940964 0.750000
O O17 0.750000 0.000000 1.000000
#
# Coordination Sequence:
#
# PCOD8252478 Si02
#       8
#     8   8   8   8   8   8   8   8
#     4  10  20  34  54  82 113 142 180 229 278 329
#     4  10  22  39  57  79 111 150 188 229 280 339
#     4  10  20  34  54  82 113 142 180 229 278 329
#     4  10  22  39  57  79 111 150 188 229 280 339
#     4  10  20  34  55  82 110 143 183 228 278 330
#     4  11  21  34  56  84 113 146 187 233 280 330
#     4  10  20  34  55  82 110 143 183 228 278 330
#     4  11  21  34  56  84 113 146 187 233 280 330
#
# _framework density 18.252911000000001
#
# number of rings (size 3 to 8) (size 9 to 14) (size 15 to 20)
#    0.000    1.750    2.500    2.250    0.000    4.500 
#    0.000    1.250    0.000    4.500    0.000    0.000 
#    0.000    0.000    0.000    0.000    0.000    0.000 
#
# Total GULP energy -793835.831693 kJ/mol
# GULP energy per Si atom -12403.684870 kJ/mol
# Density = 1.821137 g / cm^3
# Si number density = 18.252911 Si / 1000 Ang^3
#
#
#
# Elastic Constant Matrix: (Units=GPa)
#
#
# Indices 1 2 3 4 5 6 
#
# 1 143.7437 68.4234 62.7726 0.0000 0.0000 0.0000
# 2 68.4234 111.3596 46.8772 0.0000 0.0000 0.0000
# 3 62.7726 46.8772 83.7025 0.0000 0.0000 0.0000
# 4 0.0000 0.0000 0.0000 24.5087 0.0000 0.0000
# 5 0.0000 0.0000 0.0000 0.0000 37.2183 0.0000
# 6 0.0000 0.0000 0.0000 0.0000 0.0000 27.6060
#
#
#
# Elastic Compliance Matrix: (Units=1/GPa)
#
#
# Indices 1 2 3 4 5 6 
#
# 1 0.011953 -0.004672 -0.006347 0.000000 0.000000 0.000000
# 2 -0.004672 0.013576 -0.004099 0.000000 0.000000 0.000000
# 3 -0.006347 -0.004099 0.019003 0.000000 0.000000 0.000000
# 4 0.000000 0.000000 0.000000 0.040802 0.000000 0.000000
# 5 0.000000 0.000000 0.000000 0.000000 0.026869 0.000000
# 6 0.000000 0.000000 0.000000 0.000000 0.000000 0.036224
#
#
# Mechanical properties :
#
#
# Convention : Reuss Voigt Hill
#
# Bulk Modulus (GPa) = 69.95812 77.21692 73.58752
# Shear Modulus (GPa) = 27.25848 28.58210 27.92029
#
# Velocity S-wave (km/s) = 3.86862 3.96143 3.91530
# Velocity P-wave (km/s) = 7.63971 7.95736 7.80016
#
# Compressibility (1/GPa) = 0.01429427
#
# Stress axis : x y z
#
# Youngs Moduli (GPa) = 83.66310 73.65720 52.62311
#
# Poissons Ratio (x) = 0.34415 0.33401
# Poissons Ratio (y) = 0.39090 0.21573
# Poissons Ratio (z) = 0.53103 0.30195
#
# Static dielectric constant tensor:
#      x y z
#    x 3.750210 0.000000 0.000000 
#    y 0.000000 3.123220 0.000000 
#    z 0.000000 0.000000 3.449420 
# 
# 
# High freq. dielectric constant tensor:
#      x y z
#    x 1.722990 0.000000 0.000000 
#    y 0.000000 1.673520 0.000000 
#    z 0.000000 0.000000 1.719630 
# 
# From -- ./inp_files/8914.got.cif
#   From: 2010.03.12/outbox.cif.g09.slc.cpg/sg62_5_cif.got.tgz:8914.got - 2010.04.10 19:12:36.
