data_PCOD8252008
_publ_section_title
;
Structure prediction by ZEFSAII (Michael W. Deem and Ramdas Pophale) SiO2 
 PCOD8252008
Probable space group: P N M A
;
_chemical_formula_sum "Si O2"
_cell_formula_units_Z 64
_cell_length_a 14.688833
_cell_length_b 8.933706
_cell_length_c 24.457720
_cell_angle_alpha 90.000000
_cell_angle_beta 90.000000
_cell_angle_gamma 90.000000
_cell_volume 3209.481807
_symmetry_space_group_name_H-M "P N M A"
_symmetry_group_IT_number 62
_symmetry_cell_setting 'orthorhombic'
loop_
_space_group_symop_operation_xyz
x,y,z
1/2-x,-y,1/2+z
1/2+x,1/2-y,1/2-z
-x,1/2+y,-z
-x,-y,-z
1/2+x,y,1/2-z
1/2-x,1/2+y,1/2+z
x,1/2-y,z
loop_
_atom_site_type_symbol
_atom_site_label
_atom_site_fract_x
_atom_site_fract_y
_atom_site_fract_z
Si Si1 0.335724 0.574964 0.734845
Si Si2 0.742236 0.575075 0.054632
Si Si3 0.935702 0.583771 0.362282
Si Si4 0.906965 0.575737 0.482379
Si Si5 0.873029 0.425436 0.258061
Si Si6 0.135708 0.583543 0.341834
Si Si7 0.993410 0.072228 0.828484
Si Si8 0.949754 0.926190 0.050610
O O1 0.344646 0.750000 0.723079
O O2 0.231376 0.520621 0.736935
O O3 0.376684 0.536103 0.793823
O O4 0.394294 0.489644 0.688825
O O5 0.727810 0.750000 0.043021
O O6 0.716482 0.537272 0.117349
O O7 0.845310 0.523135 0.046830
O O8 0.680673 0.483323 0.013472
O O9 0.906944 0.750000 0.341457
O O10 0.885357 0.543425 0.418577
O O11 0.916313 0.461425 0.316466
O O12 0.042911 0.582714 0.376541
O O13 0.918439 0.750000 0.494126
O O14 0.000000 0.500000 0.500000
O O15 0.880302 0.250000 0.246174
O O16 0.925531 0.509517 0.209512
O O17 0.153489 0.750000 0.317221
O O18 0.994365 0.250000 0.822274
O O19 0.009410 0.021417 0.891081
O O20 0.959581 0.750000 0.045025
O O21 0.000000 0.000000 0.000000
#
# Coordination Sequence:
#
# PCOD8252008 Si02
#       8
#     8   8   8   8   8   8   8   8
#     4  11  24  39  59  91 126 160 199 248 306 359
#     4  10  21  40  63  89 121 159 204 253 305 359
#     4  10  21  37  58  85 119 159 198 242 295 354
#     4  11  22  37  58  87 122 159 199 245 296 356
#     4  11  24  40  60  90 126 161 198 247 305 360
#     4  10  19  36  61  87 118 158 202 247 296 356
#     4  11  23  42  67  92 119 161 208 249 300 360
#     4  10  24  44  67  91 120 159 203 254 305 356
#
# _framework density 19.940913999999999
#
# number of rings (size 3 to 8) (size 9 to 14) (size 15 to 20)
#    0.000    1.500    2.500    2.250    0.000    7.000 
#    0.000    5.000    0.000    0.000    0.000    0.000 
#    0.000    0.000    0.000    0.000    0.000    0.000 
#
# Total GULP energy -793654.779405 kJ/mol
# GULP energy per Si atom -12400.855928 kJ/mol
# Density = 1.989553 g / cm^3
# Si number density = 19.940914 Si / 1000 Ang^3
#
#
#
# Elastic Constant Matrix: (Units=GPa)
#
#
# Indices 1 2 3 4 5 6 
#
# 1 125.3374 45.6827 69.4186 0.0000 0.0000 0.0000
# 2 45.6827 75.2645 53.5732 0.0000 0.0000 0.0000
# 3 69.4186 53.5732 141.7776 0.0000 0.0000 0.0000
# 4 0.0000 0.0000 0.0000 34.6471 0.0000 0.0000
# 5 0.0000 0.0000 0.0000 0.0000 35.2038 0.0000
# 6 0.0000 0.0000 0.0000 0.0000 0.0000 33.2353
#
#
#
# Elastic Compliance Matrix: (Units=1/GPa)
#
#
# Indices 1 2 3 4 5 6 
#
# 1 0.011838 -0.004185 -0.004215 0.000000 0.000000 0.000000
# 2 -0.004185 0.019655 -0.005378 0.000000 0.000000 0.000000
# 3 -0.004215 -0.005378 0.011149 0.000000 0.000000 0.000000
# 4 0.000000 0.000000 0.000000 0.028862 0.000000 0.000000
# 5 0.000000 0.000000 0.000000 0.000000 0.028406 0.000000
# 6 0.000000 0.000000 0.000000 0.000000 0.000000 0.030088
#
#
# Mechanical properties :
#
#
# Convention : Reuss Voigt Hill
#
# Bulk Modulus (GPa) = 66.28483 75.52539 70.90511
# Shear Modulus (GPa) = 30.75347 32.19758 31.47553
#
# Velocity S-wave (km/s) = 3.93138 4.02263 3.97727
# Velocity P-wave (km/s) = 7.34306 7.71571 7.53169
#
# Compressibility (1/GPa) = 0.01508641
#
# Stress axis : x y z
#
# Youngs Moduli (GPa) = 84.47113 50.87884 89.69347
#
# Poissons Ratio (x) = 0.21294 0.37805
# Poissons Ratio (y) = 0.35353 0.48233
# Poissons Ratio (z) = 0.35604 0.27361
#
# Static dielectric constant tensor:
#      x y z
#    x 3.910490 0.000000 0.000000 
#    y 0.000000 3.560870 0.000000 
#    z 0.000000 0.000000 3.637670 
# 
# 
# High freq. dielectric constant tensor:
#      x y z
#    x 1.784870 0.000000 0.000000 
#    y 0.000000 1.776380 0.000000 
#    z 0.000000 0.000000 1.780520 
# 
# From -- ./inp_files/29933.got.cif
#   From: 2010.03.12/outbox.cif.g09.slc.cpg/sg62_15_cif.got.tgz:29933.got - 2010.04.10 19:12:36.
