data_PCOD8252682
_publ_section_title
;
Structure prediction by ZEFSAII (Michael W. Deem and Ramdas Pophale) SiO2 
 PCOD8252682
Probable space group: P N M A
;
_chemical_formula_sum "Si O2"
_cell_formula_units_Z 56
_cell_length_a 13.353311
_cell_length_b 9.227162
_cell_length_c 23.045734
_cell_angle_alpha 90.000000
_cell_angle_beta 90.000000
_cell_angle_gamma 90.000000
_cell_volume 2839.537799
_symmetry_space_group_name_H-M "P N M A"
_symmetry_group_IT_number 62
_symmetry_cell_setting 'orthorhombic'
loop_
_space_group_symop_operation_xyz
x,y,z
1/2-x,-y,1/2+z
1/2+x,1/2-y,1/2-z
-x,1/2+y,-z
-x,-y,-z
1/2+x,y,1/2-z
1/2-x,1/2+y,1/2+z
x,1/2-y,z
loop_
_atom_site_type_symbol
_atom_site_label
_atom_site_fract_x
_atom_site_fract_y
_atom_site_fract_z
Si Si1 0.286440 0.913833 0.959918
Si Si2 0.313591 0.586429 0.627213
Si Si3 0.914983 0.084984 0.966781
Si Si4 0.111990 0.912786 0.553782
Si Si5 0.017965 0.084742 0.651780
Si Si6 0.708579 0.081364 0.776887
Si Si7 0.291547 0.415434 0.844572
O O1 0.323726 0.750000 0.951487
O O2 0.185155 0.919468 0.995954
O O3 0.263382 0.982849 0.897779
O O4 0.374496 0.000403 0.993471
O O5 0.352113 0.750000 0.637716
O O6 0.398993 0.493922 0.594899
O O7 0.215371 0.586549 0.588095
O O8 0.290349 0.511656 0.688428
O O9 0.949157 0.250000 0.955357
O O10 0.000000 0.000000 0.000000
O O11 0.077442 0.750000 0.539026
O O12 0.028817 0.987962 0.594072
O O13 0.038573 0.250000 0.633006
O O14 0.096343 0.040071 0.702291
O O15 0.906432 0.062292 0.675999
O O16 0.732289 0.250000 0.788036
O O17 0.719553 0.043175 0.709053
O O18 0.273816 0.250000 0.864173
#
# Coordination Sequence:
#
# PCOD8252682 Si02
#       7
#     8   8   8   8   8   8   8
#     4  10  21  36  54  78 111 144 176 221 277 324
#     4   9  17  31  53  78 104 136 177 222 268 319
#     4  10  20  35  55  80 110 143 181 225 273 329
#     4   9  17  31  54  80 105 135 174 215 264 324
#     4   9  18  34  55  77 104 139 180 224 270 323
#     4   9  18  35  55  75 104 141 183 228 270 318
#     4  10  21  36  54  78 110 145 184 226 273 327
#
# _framework density 19.721520000000002
#
# number of rings (size 3 to 8) (size 9 to 14) (size 15 to 20)
#    0.000    2.571    0.000    1.714    0.000    6.857 
#    2.571    0.000    0.000    0.000    0.000    0.000 
#    0.000    0.000    0.000    0.000    0.000    0.000 
#
# Total GULP energy -694471.354595 kJ/mol
# GULP energy per Si atom -12401.274189 kJ/mol
# Density = 1.967663 g / cm^3
# Si number density = 19.721520 Si / 1000 Ang^3
#
#
#
# Elastic Constant Matrix: (Units=GPa)
#
#
# Indices 1 2 3 4 5 6 
#
# 1 25.7642 15.9438 4.9198 0.0000 0.0000 0.0000
# 2 15.9438 128.8290 55.0688 0.0000 0.0000 0.0000
# 3 4.9198 55.0688 100.9423 0.0000 0.0000 0.0000
# 4 0.0000 0.0000 0.0000 36.5326 0.0000 0.0000
# 5 0.0000 0.0000 0.0000 0.0000 25.5089 0.0000
# 6 0.0000 0.0000 0.0000 0.0000 0.0000 23.9969
#
#
#
# Elastic Compliance Matrix: (Units=1/GPa)
#
#
# Indices 1 2 3 4 5 6 
#
# 1 0.042115 -0.005653 0.001031 0.000000 0.000000 0.000000
# 2 -0.005653 0.010882 -0.005661 0.000000 0.000000 0.000000
# 3 0.001031 -0.005661 0.012945 0.000000 0.000000 0.000000
# 4 0.000000 0.000000 0.000000 0.027373 0.000000 0.000000
# 5 0.000000 0.000000 0.000000 0.000000 0.039202 0.000000
# 6 0.000000 0.000000 0.000000 0.000000 0.000000 0.041672
#
#
# Mechanical properties :
#
#
# Convention : Reuss Voigt Hill
#
# Bulk Modulus (GPa) = 22.03802 45.26671 33.65237
# Shear Modulus (GPa) = 23.82331 29.18124 26.50227
#
# Velocity S-wave (km/s) = 3.47938 3.85081 3.66980
# Velocity P-wave (km/s) = 5.22880 6.54022 5.92093
#
# Compressibility (1/GPa) = 0.04537612
#
# Stress axis : x y z
#
# Youngs Moduli (GPa) = 23.74454 91.89797 77.25181
#
# Poissons Ratio (x) = 0.51950 -0.07967
# Poissons Ratio (y) = 0.13423 0.43732
# Poissons Ratio (z) = -0.02449 0.52023
#
# Static dielectric constant tensor:
#      x y z
#    x 3.602110 0.000000 0.000000 
#    y 0.000000 3.814830 0.000000 
#    z 0.000000 0.000000 3.492750 
# 
# 
# High freq. dielectric constant tensor:
#      x y z
#    x 1.752420 0.000000 0.000000 
#    y 0.000000 1.775300 0.000000 
#    z 0.000000 0.000000 1.760130 
# 
# From -- ./inp_files/27229.got.cif
#   From: 2010.03.12/outbox.cif.g09.slc.cpg/sg62_14_cif.got.tgz:27229.got - 2010.04.10 19:12:36.
