data_PCOD8252169
_publ_section_title
;
Structure prediction by ZEFSAII (Michael W. Deem and Ramdas Pophale) SiO2 
 PCOD8252169
Probable space group: P N M A
;
_chemical_formula_sum "Si O2"
_cell_formula_units_Z 40
_cell_length_a 14.591065
_cell_length_b 14.201098
_cell_length_c 9.519562
_cell_angle_alpha 90.000000
_cell_angle_beta 90.000000
_cell_angle_gamma 90.000000
_cell_volume 1972.540293
_symmetry_space_group_name_H-M "P N M A"
_symmetry_group_IT_number 62
_symmetry_cell_setting 'orthorhombic'
loop_
_space_group_symop_operation_xyz
x,y,z
1/2-x,-y,1/2+z
1/2+x,1/2-y,1/2-z
-x,1/2+y,-z
-x,-y,-z
1/2+x,y,1/2-z
1/2-x,1/2+y,1/2+z
x,1/2-y,z
loop_
_atom_site_type_symbol
_atom_site_label
_atom_site_fract_x
_atom_site_fract_y
_atom_site_fract_z
Si Si1 0.289647 0.750000 0.009402
Si Si2 0.565856 0.435510 0.689067
Si Si3 0.812215 0.750000 0.800483
Si Si4 0.758797 0.407452 0.789699
Si Si5 0.017007 0.250000 0.648530
Si Si6 0.187337 0.750000 0.426291
Si Si7 0.093240 0.437457 0.139263
O O1 0.260697 0.750000 0.847806
O O2 0.243255 0.842212 0.073872
O O3 0.398897 0.750000 0.039524
O O4 0.660952 0.457513 0.766514
O O5 0.520023 0.340826 0.750368
O O6 0.500097 0.525440 0.711771
O O7 0.581758 0.421224 0.525016
O O8 0.879651 0.838445 0.796951
O O9 0.736003 0.750000 0.922219
O O10 0.780673 0.344154 0.653436
O O11 0.830201 0.487558 0.820902
O O12 0.922772 0.250000 0.559924
#
# Coordination Sequence:
#
# PCOD8252169 Si02
#       7
#     4   8   4   8   4   4   8
#     4   9  24  41  63  94 135 161 215 279 318 395
#     4  10  21  40  67  96 125 168 216 274 313 399
#     4  12  25  42  57  94 136 160 213 279 320 371
#     4  10  21  43  68  94 124 176 221 259 329 394
#     4  10  19  44  69  93 125 174 225 263 335 390
#     4  11  20  41  71  93 126 175 213 265 321 398
#     4  11  23  39  65  96 131 168 219 267 334 375
#
# _framework density 20.278420000000001
#
# number of rings (size 3 to 8) (size 9 to 14) (size 15 to 20)
#    0.000    1.600    4.000    1.200    2.800    0.000 
#    3.600    2.000    0.000    0.000    0.000    0.000 
#    0.000    0.000    0.000    0.000    0.000    0.000 
#
# Total GULP energy -495998.093468 kJ/mol
# GULP energy per Si atom -12399.952337 kJ/mol
# Density = 2.023227 g / cm^3
# Si number density = 20.278420 Si / 1000 Ang^3
#
#
#
# Elastic Constant Matrix: (Units=GPa)
#
#
# Indices 1 2 3 4 5 6 
#
# 1 104.6408 56.2741 33.5965 0.0000 0.0000 0.0000
# 2 56.2741 120.4044 47.9791 0.0000 0.0000 0.0000
# 3 33.5965 47.9791 122.7420 0.0000 0.0000 0.0000
# 4 0.0000 0.0000 0.0000 58.2031 0.0000 0.0000
# 5 0.0000 0.0000 0.0000 0.0000 21.5721 0.0000
# 6 0.0000 0.0000 0.0000 0.0000 0.0000 179.2005
#
#
#
# Elastic Compliance Matrix: (Units=1/GPa)
#
#
# Indices 1 2 3 4 5 6 
#
# 1 0.012964 -0.005502 -0.001398 0.000000 0.000000 0.000000
# 2 -0.005502 0.012173 -0.003252 0.000000 0.000000 0.000000
# 3 -0.001398 -0.003252 0.009801 0.000000 0.000000 0.000000
# 4 0.000000 0.000000 0.000000 0.017181 0.000000 0.000000
# 5 0.000000 0.000000 0.000000 0.000000 0.046356 0.000000
# 6 0.000000 0.000000 0.000000 0.000000 0.000000 0.005580
#
#
# Mechanical properties :
#
#
# Convention : Reuss Voigt Hill
#
# Bulk Modulus (GPa) = 68.33509 69.27630 68.80569
# Shear Modulus (GPa) = 38.68820 65.79097 52.23959
#
# Velocity S-wave (km/s) = 4.37263 5.70213 5.08105
# Velocity P-wave (km/s) = 7.69836 8.80847 8.27206
#
# Compressibility (1/GPa) = 0.01463377
#
# Stress axis : x y z
#
# Youngs Moduli (GPa) = 77.13507 82.14952 102.02981
#
# Poissons Ratio (x) = 0.45200 0.14261
# Poissons Ratio (y) = 0.42441 0.33183
# Poissons Ratio (z) = 0.10782 0.26717
#
# Static dielectric constant tensor:
#      x y z
#    x 3.802210 0.000000 0.000000 
#    y 0.000000 3.985990 0.000000 
#    z 0.000000 0.000000 3.537460 
# 
# 
# High freq. dielectric constant tensor:
#      x y z
#    x 1.802210 0.000000 0.000000 
#    y 0.000000 1.797290 0.000000 
#    z 0.000000 0.000000 1.783430 
# 
# From -- ./inp_files/6160.got.cif
#   From: 2010.03.12/outbox.cif.g09.slc.cpg/sg62_4_cif.got.tgz:6160.got - 2010.04.10 19:12:36.
