data_PCOD8252651
_publ_section_title
;
Structure prediction by ZEFSAII (Michael W. Deem and Ramdas Pophale) SiO2 
 PCOD8252651
Probable space group: P N M A
;
_chemical_formula_sum "Si O2"
_cell_formula_units_Z 64
_cell_length_a 15.178861
_cell_length_b 8.780201
_cell_length_c 24.513797
_cell_angle_alpha 90.000000
_cell_angle_beta 90.000000
_cell_angle_gamma 90.000000
_cell_volume 3267.038312
_symmetry_space_group_name_H-M "P N M A"
_symmetry_group_IT_number 62
_symmetry_cell_setting 'orthorhombic'
loop_
_space_group_symop_operation_xyz
x,y,z
1/2-x,-y,1/2+z
1/2+x,1/2-y,1/2-z
-x,1/2+y,-z
-x,-y,-z
1/2+x,y,1/2-z
1/2-x,1/2+y,1/2+z
x,1/2-y,z
loop_
_atom_site_type_symbol
_atom_site_label
_atom_site_fract_x
_atom_site_fract_y
_atom_site_fract_z
Si Si1 0.377785 0.570099 0.192555
Si Si2 0.018683 0.572950 0.220418
Si Si3 0.063179 0.073994 0.573043
Si Si4 0.463317 0.573062 0.400850
Si Si5 0.306332 0.928788 0.687911
Si Si6 0.697166 0.572072 0.541378
Si Si7 0.872302 0.075446 0.533854
Si Si8 0.362705 0.571284 0.567371
O O1 0.369508 0.750000 0.197878
O O2 0.453576 0.508917 0.233073
O O3 0.403509 0.519261 0.131760
O O4 0.284460 0.499036 0.209629
O O5 0.037997 0.750000 0.229030
O O6 0.112522 0.488826 0.224222
O O7 0.971195 0.540144 0.163162
O O8 0.086998 0.250000 0.561348
O O9 0.958195 0.049622 0.570776
O O10 0.110188 0.969338 0.528741
O O11 0.477470 0.750000 0.414598
O O12 0.367787 0.520513 0.419740
O O13 0.534965 0.475745 0.434147
O O14 0.302040 0.750000 0.694456
O O15 0.320507 0.977367 0.624996
O O16 0.679851 0.750000 0.548114
O O17 0.796016 0.529128 0.559691
O O18 0.688409 0.521930 0.478555
O O19 0.841412 0.250000 0.534476
O O20 0.354619 0.750000 0.555845
#
# Coordination Sequence:
#
# PCOD8252651 Si02
#       8
#     8   8   8   8   8   8   8   8
#     4  10  20  37  61  86 109 142 188 232 275 326
#     4   9  20  39  60  81 108 145 188 234 278 326
#     4   9  19  36  58  82 109 141 179 226 274 323
#     4  10  20  36  55  76 106 143 182 227 278 327
#     4  10  21  36  57  85 114 145 180 227 283 331
#     4  12  23  34  51  78 110 147 185 222 269 329
#     4  10  20  35  54  79 113 147 179 221 271 326
#     4  10  20  35  55  80 110 143 182 226 273 328
#
# _framework density 19.589607000000001
#
# number of rings (size 3 to 8) (size 9 to 14) (size 15 to 20)
#    0.000    2.000    0.000    3.750    0.000    5.500 
#    2.250    0.000    0.000    0.000    0.000    0.000 
#    0.000    0.000    0.000    0.000    0.000    0.000 
#
# Total GULP energy -793901.022322 kJ/mol
# GULP energy per Si atom -12404.703474 kJ/mol
# Density = 1.954502 g / cm^3
# Si number density = 19.589607 Si / 1000 Ang^3
#
#
#
# Elastic Constant Matrix: (Units=GPa)
#
#
# Indices 1 2 3 4 5 6 
#
# 1 136.8329 31.1973 43.3664 0.0000 0.0000 0.0000
# 2 31.1973 53.0129 20.8784 0.0000 0.0000 0.0000
# 3 43.3664 20.8784 52.2507 0.0000 0.0000 0.0000
# 4 0.0000 0.0000 0.0000 21.7793 0.0000 0.0000
# 5 0.0000 0.0000 0.0000 0.0000 26.3118 0.0000
# 6 0.0000 0.0000 0.0000 0.0000 0.0000 35.1292
#
#
#
# Elastic Compliance Matrix: (Units=1/GPa)
#
#
# Indices 1 2 3 4 5 6 
#
# 1 0.010359 -0.003216 -0.007313 0.000000 0.000000 0.000000
# 2 -0.003216 0.023385 -0.006675 0.000000 0.000000 0.000000
# 3 -0.007313 -0.006675 0.027875 0.000000 0.000000 0.000000
# 4 0.000000 0.000000 0.000000 0.045915 0.000000 0.000000
# 5 0.000000 0.000000 0.000000 0.000000 0.038006 0.000000
# 6 0.000000 0.000000 0.000000 0.000000 0.000000 0.028466
#
#
# Mechanical properties :
#
#
# Convention : Reuss Voigt Hill
#
# Bulk Modulus (GPa) = 36.74905 48.10894 42.42900
# Shear Modulus (GPa) = 22.99027 26.42102 24.70564
#
# Velocity S-wave (km/s) = 3.42949 3.67648 3.55513
# Velocity P-wave (km/s) = 5.87215 6.52945 6.20950
#
# Compressibility (1/GPa) = 0.02721158
#
# Stress axis : x y z
#
# Youngs Moduli (GPa) = 96.53431 42.76285 35.87473
#
# Poissons Ratio (x) = 0.13753 0.26233
# Poissons Ratio (y) = 0.31047 0.23946
# Poissons Ratio (z) = 0.70591 0.28543
#
# Static dielectric constant tensor:
#      x y z
#    x 3.712530 0.000000 0.000000 
#    y 0.000000 3.529040 0.000000 
#    z 0.000000 0.000000 3.462790 
# 
# 
# High freq. dielectric constant tensor:
#      x y z
#    x 1.776600 0.000000 0.000000 
#    y 0.000000 1.764130 0.000000 
#    z 0.000000 0.000000 1.743190 
# 
# From -- ./inp_files/29774.got.cif
#   From: 2010.03.12/outbox.cif.g09.slc.cpg/sg62_15_cif.got.tgz:29774.got - 2010.04.10 19:12:36.
