data_PCOD8252690
_publ_section_title
;
Structure prediction by ZEFSAII (Michael W. Deem and Ramdas Pophale) SiO2 
 PCOD8252690
Probable space group: P N M A
;
_chemical_formula_sum "Si O2"
_cell_formula_units_Z 64
_cell_length_a 16.370391
_cell_length_b 8.607836
_cell_length_c 22.656994
_cell_angle_alpha 90.000000
_cell_angle_beta 90.000000
_cell_angle_gamma 90.000000
_cell_volume 3192.679518
_symmetry_space_group_name_H-M "P N M A"
_symmetry_group_IT_number 62
_symmetry_cell_setting 'orthorhombic'
loop_
_space_group_symop_operation_xyz
x,y,z
1/2-x,-y,1/2+z
1/2+x,1/2-y,1/2-z
-x,1/2+y,-z
-x,-y,-z
1/2+x,y,1/2-z
1/2-x,1/2+y,1/2+z
x,1/2-y,z
loop_
_atom_site_type_symbol
_atom_site_label
_atom_site_fract_x
_atom_site_fract_y
_atom_site_fract_z
Si Si1 0.607639 0.570921 0.208322
Si Si2 0.582040 0.931663 0.970704
Si Si3 0.742173 0.431028 0.515546
Si Si4 0.547391 0.926901 0.838876
Si Si5 0.745476 0.072730 0.138287
Si Si6 0.449520 0.430920 0.668329
Si Si7 0.423404 0.434749 0.537309
Si Si8 0.393664 0.075431 0.283650
O O1 0.635765 0.750000 0.204138
O O2 0.519008 0.553742 0.179475
O O3 0.658946 0.458238 0.167229
O O4 0.606854 0.510050 0.276687
O O5 0.578636 0.750000 0.983273
O O6 0.585072 0.973140 0.901572
O O7 0.668399 0.997755 0.995796
O O8 0.500000 0.000000 0.000000
O O9 0.735074 0.250000 0.500107
O O10 0.735801 0.456985 0.585132
O O11 0.665590 0.517556 0.486207
O O12 0.512423 0.750000 0.841317
O O13 0.615157 0.940793 0.787243
O O14 0.750912 0.250000 0.115748
O O15 0.806524 0.032954 0.190831
O O16 0.436151 0.250000 0.663371
O O17 0.428123 0.503019 0.604359
O O18 0.542707 0.462289 0.685085
O O19 0.500000 0.500000 0.500000
O O20 0.431025 0.250000 0.535553
O O21 0.420896 0.250000 0.300576
#
# Coordination Sequence:
#
# PCOD8252690 Si02
#       8
#     8   8   8   8   8   8   8   8
#     4  10  20  35  55  81 110 142 180 226 278 337
#     4  10  22  38  58  82 112 149 188 230 280 334
#     4  11  24  40  58  85 117 152 194 240 288 347
#     4   9  18  36  57  78 105 139 180 227 276 329
#     4  11  22  36  55  81 110 143 183 230 282 336
#     4   9  20  37  56  79 110 144 181 224 277 335
#     4  11  23  40  61  86 117 156 197 240 289 344
#     4   9  19  34  55  80 105 135 177 225 273 326
#
# _framework density 20.045857999999999
#
# number of rings (size 3 to 8) (size 9 to 14) (size 15 to 20)
#    0.000    2.000    0.000    3.000    0.000    9.000 
#    0.000    1.250    0.000    0.000    0.000    0.000 
#    0.000    0.000    0.000    0.000    0.000    0.000 
#
# Total GULP energy -793168.364393 kJ/mol
# GULP energy per Si atom -12393.255694 kJ/mol
# Density = 2.000023 g / cm^3
# Si number density = 20.045858 Si / 1000 Ang^3
#
#
#
# Elastic Constant Matrix: (Units=GPa)
#
#
# Indices 1 2 3 4 5 6 
#
# 1 98.6335 24.6153 47.4693 0.0000 0.0000 0.0000
# 2 24.6153 35.4030 31.2296 0.0000 0.0000 0.0000
# 3 47.4693 31.2296 143.2399 0.0000 0.0000 0.0000
# 4 0.0000 0.0000 0.0000 28.6843 0.0000 0.0000
# 5 0.0000 0.0000 0.0000 0.0000 30.9721 0.0000
# 6 0.0000 0.0000 0.0000 0.0000 0.0000 30.7856
#
#
#
# Elastic Compliance Matrix: (Units=1/GPa)
#
#
# Indices 1 2 3 4 5 6 
#
# 1 0.013195 -0.006583 -0.002938 0.000000 0.000000 0.000000
# 2 -0.006583 0.038256 -0.006159 0.000000 0.000000 0.000000
# 3 -0.002938 -0.006159 0.009298 0.000000 0.000000 0.000000
# 4 0.000000 0.000000 0.000000 0.034862 0.000000 0.000000
# 5 0.000000 0.000000 0.000000 0.000000 0.032287 0.000000
# 6 0.000000 0.000000 0.000000 0.000000 0.000000 0.032483
#
#
# Mechanical properties :
#
#
# Convention : Reuss Voigt Hill
#
# Bulk Modulus (GPa) = 34.02572 53.76721 43.89646
# Shear Modulus (GPa) = 24.80925 29.68589 27.24757
#
# Velocity S-wave (km/s) = 3.52181 3.85242 3.69082
# Velocity P-wave (km/s) = 5.79209 6.83144 6.33312
#
# Compressibility (1/GPa) = 0.02938953
#
# Stress axis : x y z
#
# Youngs Moduli (GPa) = 75.78498 26.13936 107.55418
#
# Poissons Ratio (x) = 0.17208 0.31595
# Poissons Ratio (y) = 0.49891 0.66244
# Poissons Ratio (z) = 0.22262 0.16100
#
# Static dielectric constant tensor:
#      x y z
#    x 3.579110 0.000000 0.000000 
#    y 0.000000 3.529870 0.000000 
#    z 0.000000 0.000000 4.129760 
# 
# 
# High freq. dielectric constant tensor:
#      x y z
#    x 1.773680 0.000000 0.000000 
#    y 0.000000 1.774040 0.000000 
#    z 0.000000 0.000000 1.800640 
# 
# From -- ./inp_files/27668.got.cif
#   From: 2010.03.12/outbox.cif.g09.slc.cpg/sg62_14_cif.got.tgz:27668.got - 2010.04.10 19:12:36.
