data_PCOD8252017
_publ_section_title
;
Structure prediction by ZEFSAII (Michael W. Deem and Ramdas Pophale) SiO2 
 PCOD8252017
Probable space group: P N M A
;
_chemical_formula_sum "Si O2"
_cell_formula_units_Z 56
_cell_length_a 14.891894
_cell_length_b 8.968740
_cell_length_c 21.240907
_cell_angle_alpha 90.000000
_cell_angle_beta 90.000000
_cell_angle_gamma 90.000000
_cell_volume 2836.967940
_symmetry_space_group_name_H-M "P N M A"
_symmetry_group_IT_number 62
_symmetry_cell_setting 'orthorhombic'
loop_
_space_group_symop_operation_xyz
x,y,z
1/2-x,-y,1/2+z
1/2+x,1/2-y,1/2-z
-x,1/2+y,-z
-x,-y,-z
1/2+x,y,1/2-z
1/2-x,1/2+y,1/2+z
x,1/2-y,z
loop_
_atom_site_type_symbol
_atom_site_label
_atom_site_fract_x
_atom_site_fract_y
_atom_site_fract_z
Si Si1 0.482001 0.422086 0.741790
Si Si2 0.061220 0.074400 0.361978
Si Si3 0.556943 0.419372 0.947789
Si Si4 0.265188 0.419864 0.526948
Si Si5 0.686482 0.073023 0.729420
Si Si6 0.735145 0.927133 0.096514
Si Si7 0.682331 0.577757 0.339168
O O1 0.480876 0.250000 0.764184
O O2 0.426708 0.524061 0.790326
O O3 0.583328 0.481500 0.734439
O O4 0.422638 0.440566 0.678739
O O5 0.065174 0.250000 0.370263
O O6 0.137187 0.001899 0.406241
O O7 0.964801 0.007240 0.383045
O O8 0.524367 0.250000 0.941373
O O9 0.660173 0.428932 0.962147
O O10 0.500000 0.500000 0.000000
O O11 0.297573 0.250000 0.515856
O O12 0.290785 0.515344 0.464687
O O13 0.308319 0.491635 0.590627
O O14 0.691683 0.250000 0.730011
O O15 0.719469 0.015943 0.661243
O O16 0.748917 0.008614 0.786411
O O17 0.727648 0.750000 0.093710
O O18 0.710230 0.750000 0.345156
#
# Coordination Sequence:
#
# PCOD8252017 Si02
#       7
#     8   8   8   8   8   8   8
#     4  10  19  36  62  84 108 144 192 240 281 332
#     4  12  23  35  53  81 116 149 185 229 286 344
#     4  11  21  33  52  78 111 146 184 227 275 334
#     4  10  21  36  55  81 115 149 187 233 284 341
#     4   9  18  34  59  88 108 140 195 241 279 334
#     4  11  21  36  58  81 111 148 191 234 280 334
#     4   9  17  33  57  84 111 144 186 234 283 335
#
# _framework density 19.739384000000001
#
# number of rings (size 3 to 8) (size 9 to 14) (size 15 to 20)
#    0.000    1.714    2.857    3.000    0.000    2.857 
#    0.000    2.857    0.000    0.000    0.000    0.000 
#    0.000    0.000    0.000    0.000    0.000    0.000 
#
# Total GULP energy -694102.862638 kJ/mol
# GULP energy per Si atom -12394.693976 kJ/mol
# Density = 1.969446 g / cm^3
# Si number density = 19.739384 Si / 1000 Ang^3
#
#
#
# Elastic Constant Matrix: (Units=GPa)
#
#
# Indices 1 2 3 4 5 6 
#
# 1 67.1703 13.5106 22.2194 0.0000 0.0000 0.0000
# 2 13.5106 78.8466 31.0575 0.0000 0.0000 0.0000
# 3 22.2194 31.0575 133.7967 0.0000 0.0000 0.0000
# 4 0.0000 0.0000 0.0000 30.4389 0.0000 0.0000
# 5 0.0000 0.0000 0.0000 0.0000 32.0898 0.0000
# 6 0.0000 0.0000 0.0000 0.0000 0.0000 11.9763
#
#
#
# Elastic Compliance Matrix: (Units=1/GPa)
#
#
# Indices 1 2 3 4 5 6 
#
# 1 0.015998 -0.001865 -0.002224 0.000000 0.000000 0.000000
# 2 -0.001865 0.014177 -0.002981 0.000000 0.000000 0.000000
# 3 -0.002224 -0.002981 0.008535 0.000000 0.000000 0.000000
# 4 0.000000 0.000000 0.000000 0.032853 0.000000 0.000000
# 5 0.000000 0.000000 0.000000 0.000000 0.031163 0.000000
# 6 0.000000 0.000000 0.000000 0.000000 0.000000 0.083498
#
#
# Mechanical properties :
#
#
# Convention : Reuss Voigt Hill
#
# Bulk Modulus (GPa) = 40.70010 45.93205 43.31607
# Shear Modulus (GPa) = 23.97457 29.10275 26.53866
#
# Velocity S-wave (km/s) = 3.48883 3.84389 3.67066
# Velocity P-wave (km/s) = 6.07394 6.55900 6.32112
#
# Compressibility (1/GPa) = 0.02456997
#
# Stress axis : x y z
#
# Youngs Moduli (GPa) = 62.50639 70.53828 117.16069
#
# Poissons Ratio (x) = 0.13158 0.26054
# Poissons Ratio (y) = 0.11660 0.34925
# Poissons Ratio (z) = 0.13900 0.21027
#
# Static dielectric constant tensor:
#      x y z
#    x 3.874490 0.000000 0.000000 
#    y 0.000000 3.363180 0.000000 
#    z 0.000000 0.000000 3.919210 
# 
# 
# High freq. dielectric constant tensor:
#      x y z
#    x 1.751510 0.000000 0.000000 
#    y 0.000000 1.731880 0.000000 
#    z 0.000000 0.000000 1.785010 
# 
# From -- ./inp_files/27299.got.cif
#   From: 2010.03.12/outbox.cif.g09.slc.cpg/sg62_14_cif.got.tgz:27299.got - 2010.04.10 19:12:36.
