data_PCOD8252887
_publ_section_title
;
Structure prediction by ZEFSAII (Michael W. Deem and Ramdas Pophale) SiO2 
 PCOD8252887
Probable space group: P N M A
;
_chemical_formula_sum "Si O2"
_cell_formula_units_Z 56
_cell_length_a 14.515278
_cell_length_b 13.383085
_cell_length_c 14.487651
_cell_angle_alpha 90.000000
_cell_angle_beta 90.000000
_cell_angle_gamma 90.000000
_cell_volume 2814.359483
_symmetry_space_group_name_H-M "P N M A"
_symmetry_group_IT_number 62
_symmetry_cell_setting 'orthorhombic'
loop_
_space_group_symop_operation_xyz
x,y,z
1/2-x,-y,1/2+z
1/2+x,1/2-y,1/2-z
-x,1/2+y,-z
-x,-y,-z
1/2+x,y,1/2-z
1/2-x,1/2+y,1/2+z
x,1/2-y,z
loop_
_atom_site_type_symbol
_atom_site_label
_atom_site_fract_x
_atom_site_fract_y
_atom_site_fract_z
Si Si1 0.113977 0.637668 0.558973
Si Si2 0.895535 0.363332 0.649530
Si Si3 0.299160 0.962449 0.591556
Si Si4 0.042907 0.508211 0.721248
Si Si5 0.316882 0.135282 0.456890
Si Si6 0.482776 0.863647 0.612244
Si Si7 0.761208 0.000404 0.207643
O O1 0.103068 0.750000 0.598016
O O2 0.072486 0.630505 0.456550
O O3 0.221933 0.612049 0.553749
O O4 0.059629 0.560579 0.623009
O O5 0.889727 0.250000 0.684559
O O6 0.794133 0.410766 0.660236
O O7 0.971405 0.418262 0.711470
O O8 0.398873 0.920453 0.561619
O O9 0.294409 0.964793 0.702315
O O10 0.284930 0.071966 0.546065
O O11 0.137443 0.462829 0.762441
O O12 0.001380 0.591143 0.787639
O O13 0.284493 0.250000 0.469139
O O14 0.427362 0.128149 0.451685
O O15 0.269723 0.092621 0.363794
O O16 0.453396 0.750000 0.627992
#
# Coordination Sequence:
#
# PCOD8252887 Si02
#       7
#     8   8   8   8   8   8   8
#     4  10  21  37  61  87 118 157 201 254 308 366
#     4  11  22  40  61  85 122 162 203 253 314 375
#     4  11  20  37  63  89 121 160 205 254 312 368
#     4  10  21  39  62  87 120 158 203 257 307 365
#     4  10  22  40  60  88 125 164 207 260 312 368
#     4  10  20  35  59  89 122 158 203 255 309 363
#     4  10  22  40  62  89 122 159 204 259 302 366
#
# _framework density 19.897956000000001
#
# number of rings (size 3 to 8) (size 9 to 14) (size 15 to 20)
#    0.000    1.714    2.857    1.714    0.000    5.143 
#    0.000    2.143    0.000    0.000    0.000    0.000 
#    0.000    0.000    0.000    0.000    0.000    0.000 
#
# Total GULP energy -694484.128327 kJ/mol
# GULP energy per Si atom -12401.502292 kJ/mol
# Density = 1.985267 g / cm^3
# Si number density = 19.897956 Si / 1000 Ang^3
#
#
#
# Elastic Constant Matrix: (Units=GPa)
#
#
# Indices 1 2 3 4 5 6 
#
# 1 67.8565 39.9284 9.8602 0.0000 0.0000 0.0000
# 2 39.9284 136.6909 29.8601 0.0000 0.0000 0.0000
# 3 9.8602 29.8601 59.0964 0.0000 0.0000 0.0000
# 4 0.0000 0.0000 0.0000 27.7593 0.0000 0.0000
# 5 0.0000 0.0000 0.0000 0.0000 23.3540 0.0000
# 6 0.0000 0.0000 0.0000 0.0000 0.0000 28.4844
#
#
#
# Elastic Compliance Matrix: (Units=1/GPa)
#
#
# Indices 1 2 3 4 5 6 
#
# 1 0.017804 -0.005116 -0.000385 0.000000 0.000000 0.000000
# 2 -0.005116 0.009694 -0.004044 0.000000 0.000000 0.000000
# 3 -0.000385 -0.004044 0.019029 0.000000 0.000000 0.000000
# 4 0.000000 0.000000 0.000000 0.036024 0.000000 0.000000
# 5 0.000000 0.000000 0.000000 0.000000 0.042819 0.000000
# 6 0.000000 0.000000 0.000000 0.000000 0.000000 0.035107
#
#
# Mechanical properties :
#
#
# Convention : Reuss Voigt Hill
#
# Bulk Modulus (GPa) = 36.45045 46.99349 41.72197
# Shear Modulus (GPa) = 26.49512 28.18587 27.34050
#
# Velocity S-wave (km/s) = 3.65300 3.76775 3.71082
# Velocity P-wave (km/s) = 6.01257 6.52660 6.27485
#
# Compressibility (1/GPa) = 0.02743450
#
# Stress axis : x y z
#
# Youngs Moduli (GPa) = 56.16849 103.15867 52.55042
#
# Poissons Ratio (x) = 0.52780 0.02025
# Poissons Ratio (y) = 0.28738 0.21254
# Poissons Ratio (z) = 0.02164 0.41722
#
# Static dielectric constant tensor:
#      x y z
#    x 3.660790 0.000000 0.000000 
#    y 0.000000 3.544710 0.000000 
#    z 0.000000 0.000000 3.554620 
# 
# 
# High freq. dielectric constant tensor:
#      x y z
#    x 1.777840 0.000000 0.000000 
#    y 0.000000 1.769840 0.000000 
#    z 0.000000 0.000000 1.775640 
# 
# From -- ./inp_files/18994.got.cif
#   From: 2010.03.12/outbox.cif.g09.slc.cpg/sg62_10_cif.got.tgz:18994.got - 2010.04.10 19:12:36.
