data_PCOD8252446
_publ_section_title
;
Structure prediction by ZEFSAII (Michael W. Deem and Ramdas Pophale) SiO2 
 PCOD8252446
Probable space group: P N M A
;
_chemical_formula_sum "Si O2"
_cell_formula_units_Z 40
_cell_length_a 5.071908
_cell_length_b 12.470728
_cell_length_c 34.009510
_cell_angle_alpha 90.000000
_cell_angle_beta 90.000000
_cell_angle_gamma 90.000000
_cell_volume 2151.114605
_symmetry_space_group_name_H-M "P N M A"
_symmetry_group_IT_number 62
_symmetry_cell_setting 'orthorhombic'
loop_
_space_group_symop_operation_xyz
x,y,z
1/2-x,-y,1/2+z
1/2+x,1/2-y,1/2-z
-x,1/2+y,-z
-x,-y,-z
1/2+x,y,1/2-z
1/2-x,1/2+y,1/2+z
x,1/2-y,z
loop_
_atom_site_type_symbol
_atom_site_label
_atom_site_fract_x
_atom_site_fract_y
_atom_site_fract_z
Si Si1 0.484728 0.508696 0.851912
Si Si2 0.942442 0.478876 0.955058
Si Si3 0.012992 0.123792 0.117534
Si Si4 0.059029 0.627880 0.425700
Si Si5 0.499077 0.871508 0.224193
O O1 0.262304 0.596187 0.861674
O O2 0.465399 0.407380 0.880698
O O3 0.450818 0.460942 0.808671
O O4 0.764016 0.566766 0.856551
O O5 0.983425 0.584006 0.927841
O O6 0.142659 0.387497 0.940310
O O7 0.641634 0.440284 0.952333
O O8 0.000000 0.500000 0.000000
O O9 0.057655 0.250000 0.117195
O O10 0.976851 0.750000 0.429165
O O11 0.708125 0.889663 0.258839
O O12 0.526365 0.750000 0.207315
#
# Coordination Sequence:
#
# PCOD8252446 Si02
#       5
#     8   8   8   8   8
#     4  10  20  36  56  78 108 137 175 220 255 314
#     4  10  21  36  52  78 108 135 176 222 264 312
#     4  10  21  36  56  77 102 145 187 219 258 304
#     4  10  20  34  54  78 104 137 170 209 266 318
#     4  10  20  34  56  85 112 138 167 208 270 328
#
# _framework density 18.595009999999998
#
# number of rings (size 3 to 8) (size 9 to 14) (size 15 to 20)
#    0.000    2.000    0.000    3.600    0.000    1.600 
#    0.000    6.000    0.000   12.000    0.000    0.000 
#    0.000    0.000    0.000    0.000    0.000    0.000 
#
# Total GULP energy -496092.958624 kJ/mol
# GULP energy per Si atom -12402.323966 kJ/mol
# Density = 1.855269 g / cm^3
# Si number density = 18.595010 Si / 1000 Ang^3
#
#
#
# Elastic Constant Matrix: (Units=GPa)
#
#
# Indices 1 2 3 4 5 6 
#
# 1 75.3908 3.9760 9.8817 0.0000 0.0000 0.0000
# 2 3.9760 86.8630 50.0074 0.0000 0.0000 0.0000
# 3 9.8817 50.0074 89.2146 0.0000 0.0000 0.0000
# 4 0.0000 0.0000 0.0000 13.4909 0.0000 0.0000
# 5 0.0000 0.0000 0.0000 0.0000 16.7857 0.0000
# 6 0.0000 0.0000 0.0000 0.0000 0.0000 13.2125
#
#
#
# Elastic Compliance Matrix: (Units=1/GPa)
#
#
# Indices 1 2 3 4 5 6 
#
# 1 0.013467 0.000358 -0.001692 0.000000 0.000000 0.000000
# 2 0.000358 0.017007 -0.009573 0.000000 0.000000 0.000000
# 3 -0.001692 -0.009573 0.016762 0.000000 0.000000 0.000000
# 4 0.000000 0.000000 0.000000 0.074124 0.000000 0.000000
# 5 0.000000 0.000000 0.000000 0.000000 0.059575 0.000000
# 6 0.000000 0.000000 0.000000 0.000000 0.000000 0.075686
#
#
# Mechanical properties :
#
#
# Convention : Reuss Voigt Hill
#
# Bulk Modulus (GPa) = 39.33567 42.13320 40.73443
# Shear Modulus (GPa) = 17.42714 21.20470 19.31592
#
# Velocity S-wave (km/s) = 3.06468 3.38056 3.22649
# Velocity P-wave (km/s) = 5.80714 6.15996 5.98615
#
# Compressibility (1/GPa) = 0.02542222
#
# Stress axis : x y z
#
# Youngs Moduli (GPa) = 74.25474 58.79951 59.65860
#
# Poissons Ratio (x) = -0.02104 0.10095
# Poissons Ratio (y) = -0.02657 0.57108
# Poissons Ratio (z) = 0.12565 0.56286
#
# Static dielectric constant tensor:
#      x y z
#    x 3.784600 0.000000 0.000000 
#    y 0.000000 3.217650 0.000000 
#    z 0.000000 0.000000 3.229230 
# 
# 
# High freq. dielectric constant tensor:
#      x y z
#    x 1.744620 0.000000 0.000000 
#    y 0.000000 1.710700 0.000000 
#    z 0.000000 0.000000 1.711260 
# 
# From -- ./inp_files/30237.got.cif
#   From: 2010.03.12/outbox.cif.g09.slc.cpg/sg62_16_cif.got.tgz:30237.got - 2010.04.10 19:12:36.
