data_PCOD8252660
_publ_section_title
;
Structure prediction by ZEFSAII (Michael W. Deem and Ramdas Pophale) SiO2 
 PCOD8252660
Probable space group: P N M A
;
_chemical_formula_sum "Si O2"
_cell_formula_units_Z 64
_cell_length_a 23.803820
_cell_length_b 14.893719
_cell_length_c 9.187208
_cell_angle_alpha 90.000000
_cell_angle_beta 90.000000
_cell_angle_gamma 90.000000
_cell_volume 3257.117023
_symmetry_space_group_name_H-M "P N M A"
_symmetry_group_IT_number 62
_symmetry_cell_setting 'orthorhombic'
loop_
_space_group_symop_operation_xyz
x,y,z
1/2-x,-y,1/2+z
1/2+x,1/2-y,1/2-z
-x,1/2+y,-z
-x,-y,-z
1/2+x,y,1/2-z
1/2-x,1/2+y,1/2+z
x,1/2-y,z
loop_
_atom_site_type_symbol
_atom_site_label
_atom_site_fract_x
_atom_site_fract_y
_atom_site_fract_z
Si Si1 0.398255 0.030072 0.977494
Si Si2 0.803902 0.908475 0.177979
Si Si3 0.614041 0.848371 0.447816
Si Si4 0.596005 0.349768 0.871459
Si Si5 0.270831 0.849511 0.639775
Si Si6 0.525271 0.851576 0.220429
Si Si7 0.188802 0.968248 0.238486
Si Si8 0.847535 0.404527 0.240773
O O1 0.393236 0.072399 0.136885
O O2 0.404831 0.922301 0.997549
O O3 0.449878 0.075498 0.892971
O O4 0.340310 0.050136 0.893063
O O5 0.849349 0.852018 0.268157
O O6 0.748574 0.919775 0.276784
O O7 0.827962 0.007708 0.151573
O O8 0.783523 0.861169 0.031113
O O9 0.634234 0.750000 0.392451
O O10 0.551465 0.865984 0.382335
O O11 0.653218 0.927257 0.391223
O O12 0.617850 0.846057 0.623216
O O13 0.593540 0.250000 0.941465
O O14 0.541401 0.366860 0.769557
O O15 0.291396 0.750000 0.685218
O O16 0.205046 0.855536 0.682766
O O17 0.306524 0.924089 0.724503
O O18 0.538780 0.750000 0.165081
#
# Coordination Sequence:
#
# PCOD8252660 Si02
#       8
#     8   8   8   8   8   8   8   8
#     4  10  20  37  62  83 116 153 190 241 296 334
#     4  10  20  36  55  80 116 154 184 232 294 344
#     4  10  20  36  59  83 112 150 193 241 292 337
#     4  10  21  37  60  87 118 154 198 236 284 353
#     4  11  21  33  55  83 117 152 185 232 291 350
#     4   9  20  38  60  86 115 152 196 243 288 343
#     4  10  21  38  55  83 120 147 189 238 283 353
#     4  10  20  35  54  86 113 144 191 241 284 344
#
# _framework density 19.649277999999999
#
# number of rings (size 3 to 8) (size 9 to 14) (size 15 to 20)
#    0.000    2.000    2.500    1.125    0.000    2.500 
#    0.000    2.500    2.750    0.000    0.000    0.000 
#    0.000    0.000    0.000    0.000    0.000    0.000 
#
# Total GULP energy -793060.961086 kJ/mol
# GULP energy per Si atom -12391.577517 kJ/mol
# Density = 1.960456 g / cm^3
# Si number density = 19.649278 Si / 1000 Ang^3
#
#
#
# Elastic Constant Matrix: (Units=GPa)
#
#
# Indices 1 2 3 4 5 6 
#
# 1 101.9016 45.5540 37.4616 0.0000 0.0000 0.0000
# 2 45.5540 103.7935 39.7041 0.0000 0.0000 0.0000
# 3 37.4616 39.7041 96.4041 0.0000 0.0000 0.0000
# 4 0.0000 0.0000 0.0000 24.0902 0.0000 0.0000
# 5 0.0000 0.0000 0.0000 0.0000 21.7815 0.0000
# 6 0.0000 0.0000 0.0000 0.0000 0.0000 24.3504
#
#
#
# Elastic Compliance Matrix: (Units=1/GPa)
#
#
# Indices 1 2 3 4 5 6 
#
# 1 0.012993 -0.004476 -0.003205 0.000000 0.000000 0.000000
# 2 -0.004476 0.012978 -0.003606 0.000000 0.000000 0.000000
# 3 -0.003205 -0.003606 0.013104 0.000000 0.000000 0.000000
# 4 0.000000 0.000000 0.000000 0.041511 0.000000 0.000000
# 5 0.000000 0.000000 0.000000 0.000000 0.045911 0.000000
# 6 0.000000 0.000000 0.000000 0.000000 0.000000 0.041067
#
#
# Mechanical properties :
#
#
# Convention : Reuss Voigt Hill
#
# Bulk Modulus (GPa) = 60.60555 60.83764 60.72159
# Shear Modulus (GPa) = 25.55743 26.00305 25.78024
#
# Velocity S-wave (km/s) = 3.61041 3.64175 3.62611
# Velocity P-wave (km/s) = 6.94915 6.97940 6.96429
#
# Compressibility (1/GPa) = 0.01650014
#
# Stress axis : x y z
#
# Youngs Moduli (GPa) = 76.96558 77.05091 76.31511
#
# Poissons Ratio (x) = 0.34490 0.24461
# Poissons Ratio (y) = 0.34452 0.27517
# Poissons Ratio (z) = 0.24670 0.27783
#
# Static dielectric constant tensor:
#      x y z
#    x 3.502890 0.000000 0.000000 
#    y 0.000000 3.732990 0.000000 
#    z 0.000000 0.000000 3.399290 
# 
# 
# High freq. dielectric constant tensor:
#      x y z
#    x 1.753850 0.000000 0.000000 
#    y 0.000000 1.774380 0.000000 
#    z 0.000000 0.000000 1.750150 
# 
# From -- ./inp_files/9476.got.cif
#   From: 2010.03.12/outbox.cif.g09.slc.cpg/sg62_5_cif.got.tgz:9476.got - 2010.04.10 19:12:36.
