data_PCOD8252361
_publ_section_title
;
Structure prediction by ZEFSAII (Michael W. Deem and Ramdas Pophale) SiO2 
 PCOD8252361
Probable space group: P N M A
;
_chemical_formula_sum "Si O2"
_cell_formula_units_Z 64
_cell_length_a 14.271828
_cell_length_b 9.063464
_cell_length_c 29.979362
_cell_angle_alpha 90.000000
_cell_angle_beta 90.000000
_cell_angle_gamma 90.000000
_cell_volume 3877.896408
_symmetry_space_group_name_H-M "P N M A"
_symmetry_group_IT_number 62
_symmetry_cell_setting 'orthorhombic'
loop_
_space_group_symop_operation_xyz
x,y,z
1/2-x,-y,1/2+z
1/2+x,1/2-y,1/2-z
-x,1/2+y,-z
-x,-y,-z
1/2+x,y,1/2-z
1/2-x,1/2+y,1/2+z
x,1/2-y,z
loop_
_atom_site_type_symbol
_atom_site_label
_atom_site_fract_x
_atom_site_fract_y
_atom_site_fract_z
Si Si1 0.602512 0.081639 0.956943
Si Si2 0.702883 0.924588 0.134525
Si Si3 0.535230 0.415430 0.174645
Si Si4 0.461606 0.584977 0.722811
Si Si5 0.137157 0.082033 0.639982
Si Si6 0.271689 0.078261 0.719935
Si Si7 0.666295 0.924460 0.698081
Si Si8 0.388353 0.076915 0.956220
O O1 0.600599 0.250000 0.972561
O O2 0.664827 0.060727 0.912173
O O3 0.495736 0.027832 0.947292
O O4 0.648765 0.990876 0.997377
O O5 0.716317 0.750000 0.137240
O O6 0.676629 0.978517 0.084615
O O7 0.620508 0.972714 0.167873
O O8 0.796072 0.005796 0.151913
O O9 0.562453 0.250000 0.158943
O O10 0.508258 0.417522 0.226021
O O11 0.445560 0.468371 0.147933
O O12 0.430105 0.750000 0.708682
O O13 0.378222 0.472606 0.712861
O O14 0.556107 0.536819 0.697289
O O15 0.100944 0.250000 0.647466
O O16 0.223544 0.047143 0.672222
O O17 0.269621 0.250000 0.732557
O O18 0.219618 0.991105 0.759134
O O19 0.684618 0.750000 0.699189
O O20 0.379665 0.250000 0.959949
#
# Coordination Sequence:
#
# PCOD8252361 Si02
#       8
#     8   8   8   8   8   8   8   8
#     4   9  17  31  48  68  99 132 162 200 243 292
#     4  11  21  34  50  72 101 133 166 206 249 291
#     4  11  20  30  48  72  99 135 171 204 242 290
#     4  10  22  37  50  68 101 135 167 211 248 284
#     4  10  20  34  49  72 102 134 169 206 246 291
#     4  11  22  33  52  75  98 131 169 206 246 293
#     4  11  22  36  51  71  99 132 170 206 244 291
#     4   9  18  31  47  70  99 129 161 200 245 294
#
# _framework density 16.503792000000001
#
# number of rings (size 3 to 8) (size 9 to 14) (size 15 to 20)
#    0.000    1.750    3.750    1.500    0.000    3.500 
#    0.000    0.000    0.000    0.000    0.000    0.875 
#    0.000    0.000    0.000    0.000    0.000    0.000 
#
# Total GULP energy -793505.403651 kJ/mol
# GULP energy per Si atom -12398.521932 kJ/mol
# Density = 1.646623 g / cm^3
# Si number density = 16.503792 Si / 1000 Ang^3
#
#
#
# Elastic Constant Matrix: (Units=GPa)
#
#
# Indices 1 2 3 4 5 6 
#
# 1 57.2321 27.9078 21.2999 0.0000 0.0000 0.0000
# 2 27.9078 60.0803 29.7737 0.0000 0.0000 0.0000
# 3 21.2999 29.7737 90.5349 0.0000 0.0000 0.0000
# 4 0.0000 0.0000 0.0000 26.4679 0.0000 0.0000
# 5 0.0000 0.0000 0.0000 0.0000 24.9310 0.0000
# 6 0.0000 0.0000 0.0000 0.0000 0.0000 23.5156
#
#
#
# Elastic Compliance Matrix: (Units=1/GPa)
#
#
# Indices 1 2 3 4 5 6 
#
# 1 0.022971 -0.009548 -0.002264 0.000000 0.000000 0.000000
# 2 -0.009548 0.023854 -0.005598 0.000000 0.000000 0.000000
# 3 -0.002264 -0.005598 0.013419 0.000000 0.000000 0.000000
# 4 0.000000 0.000000 0.000000 0.037782 0.000000 0.000000
# 5 0.000000 0.000000 0.000000 0.000000 0.040111 0.000000
# 6 0.000000 0.000000 0.000000 0.000000 0.000000 0.042525
#
#
# Mechanical properties :
#
#
# Convention : Reuss Voigt Hill
#
# Bulk Modulus (GPa) = 39.33480 40.64557 39.99019
# Shear Modulus (GPa) = 22.32560 23.57396 22.94978
#
# Velocity S-wave (km/s) = 3.68197 3.78351 3.73309
# Velocity P-wave (km/s) = 6.47776 6.61575 6.54712
#
# Compressibility (1/GPa) = 0.02542278
#
# Stress axis : x y z
#
# Youngs Moduli (GPa) = 43.53236 41.92166 74.51966
#
# Poissons Ratio (x) = 0.40028 0.16874
# Poissons Ratio (y) = 0.41566 0.41719
# Poissons Ratio (z) = 0.09857 0.23469
#
# Static dielectric constant tensor:
#      x y z
#    x 2.993590 0.000000 0.000000 
#    y 0.000000 3.208900 0.000000 
#    z 0.000000 0.000000 3.192020 
# 
# 
# High freq. dielectric constant tensor:
#      x y z
#    x 1.603020 0.000000 0.000000 
#    y 0.000000 1.645930 0.000000 
#    z 0.000000 0.000000 1.628460 
# 
# From -- ./inp_files/32693.got.cif
#   From: 2010.03.12/outbox.cif.g09.slc.cpg/sg62_17_cif.got.tgz:32693.got - 2010.04.10 19:12:36.
