data_PCOD8252309
_publ_section_title
;
Structure prediction by ZEFSAII (Michael W. Deem and Ramdas Pophale) SiO2 
 PCOD8252309
Probable space group: P N M A
;
_chemical_formula_sum "Si O2"
_cell_formula_units_Z 48
_cell_length_a 30.956701
_cell_length_b 9.049686
_cell_length_c 9.527787
_cell_angle_alpha 90.000000
_cell_angle_beta 90.000000
_cell_angle_gamma 90.000000
_cell_volume 2669.194509
_symmetry_space_group_name_H-M "P N M A"
_symmetry_group_IT_number 62
_symmetry_cell_setting 'orthorhombic'
loop_
_space_group_symop_operation_xyz
x,y,z
1/2-x,-y,1/2+z
1/2+x,1/2-y,1/2-z
-x,1/2+y,-z
-x,-y,-z
1/2+x,y,1/2-z
1/2-x,1/2+y,1/2+z
x,1/2-y,z
loop_
_atom_site_type_symbol
_atom_site_label
_atom_site_fract_x
_atom_site_fract_y
_atom_site_fract_z
Si Si1 0.711338 0.077809 0.076920
Si Si2 0.878423 0.579673 0.897265
Si Si3 0.961991 0.075409 0.915981
Si Si4 0.534401 0.582059 0.092841
Si Si5 0.217428 0.081275 0.095674
Si Si6 0.870835 0.421341 0.605746
O O1 0.702173 0.250000 0.053949
O O2 0.719674 0.040488 0.239840
O O3 0.669782 0.985165 0.018002
O O4 0.752648 0.030868 0.987963
O O5 0.892707 0.750000 0.896077
O O6 0.915922 0.485431 0.974613
O O7 0.831112 0.560887 0.967143
O O8 0.873133 0.523487 0.740556
O O9 0.963191 0.250000 0.937316
O O10 0.966476 0.027051 0.753712
O O11 0.000000 0.000000 0.000000
O O12 0.519871 0.750000 0.089899
O O13 0.582780 0.562103 0.027700
O O14 0.500000 0.500000 0.000000
O O15 0.232752 0.250000 0.073006
O O16 0.863340 0.250000 0.646644
#
# Coordination Sequence:
#
# PCOD8252309 Si02
#       6
#     8   8   8   8   8   8
#     4  10  20  33  52  77 100 129 169 206 246 296
#     4   9  17  31  51  74  99 130 168 205 244 297
#     4  10  20  34  52  76 102 131 168 208 250 296
#     4   9  19  33  51  75 100 128 164 203 245 294
#     4   9  19  34  51  74 102 129 162 205 247 292
#     4   9  17  31  50  72  99 131 166 203 244 293
#
# _framework density 17.982952999999998
#
# number of rings (size 3 to 8) (size 9 to 14) (size 15 to 20)
#    0.000    2.667    0.000    4.000    0.000    8.000 
#    0.000    1.667    0.000    0.000    0.000    0.000 
#    0.000    0.000    0.000    0.000    0.000    0.000 
#
# Total GULP energy -594853.781161 kJ/mol
# GULP energy per Si atom -12392.787108 kJ/mol
# Density = 1.794202 g / cm^3
# Si number density = 17.982953 Si / 1000 Ang^3
#
#
#
# Elastic Constant Matrix: (Units=GPa)
#
#
# Indices 1 2 3 4 5 6 
#
# 1 150.0406 71.7965 48.3427 0.0000 0.0000 0.0000
# 2 71.7965 97.4804 37.3124 0.0000 0.0000 0.0000
# 3 48.3427 37.3124 45.0203 0.0000 0.0000 0.0000
# 4 0.0000 0.0000 0.0000 27.1622 0.0000 0.0000
# 5 0.0000 0.0000 0.0000 0.0000 26.6136 0.0000
# 6 0.0000 0.0000 0.0000 0.0000 0.0000 41.7748
#
#
#
# Elastic Compliance Matrix: (Units=1/GPa)
#
#
# Indices 1 2 3 4 5 6 
#
# 1 0.012048 -0.005744 -0.008177 0.000000 0.000000 0.000000
# 2 -0.005744 0.017763 -0.008554 0.000000 0.000000 0.000000
# 3 -0.008177 -0.008554 0.038082 0.000000 0.000000 0.000000
# 4 0.000000 0.000000 0.000000 0.036816 0.000000 0.000000
# 5 0.000000 0.000000 0.000000 0.000000 0.037575 0.000000
# 6 0.000000 0.000000 0.000000 0.000000 0.000000 0.023938
#
#
# Mechanical properties :
#
#
# Convention : Reuss Voigt Hill
#
# Bulk Modulus (GPa) = 43.58508 67.49386 55.53947
# Shear Modulus (GPa) = 22.84997 28.11609 25.48303
#
# Velocity S-wave (km/s) = 3.56848 3.95838 3.76848
# Velocity P-wave (km/s) = 6.42404 7.64888 7.06306
#
# Compressibility (1/GPa) = 0.02294363
#
# Stress axis : x y z
#
# Youngs Moduli (GPa) = 83.00274 56.29609 26.25920
#
# Poissons Ratio (x) = 0.32335 0.21471
# Poissons Ratio (y) = 0.47675 0.22463
# Poissons Ratio (z) = 0.67867 0.48158
#
# Static dielectric constant tensor:
#      x y z
#    x 3.882730 0.000000 0.000000 
#    y 0.000000 3.519810 0.000000 
#    z 0.000000 0.000000 2.830880 
# 
# 
# High freq. dielectric constant tensor:
#      x y z
#    x 1.718630 0.000000 0.000000 
#    y 0.000000 1.710340 0.000000 
#    z 0.000000 0.000000 1.641540 
# 
# From -- ./inp_files/15152.got.cif
#   From: 2010.03.12/outbox.cif.g09.slc.cpg/sg62_8_cif.got.tgz:15152.got - 2010.04.10 19:12:36.
