data_PCOD8252547
_publ_section_title
;
Structure prediction by ZEFSAII (Michael W. Deem and Ramdas Pophale) SiO2 
 PCOD8252547
Probable space group: P N M A
;
_chemical_formula_sum "Si O2"
_cell_formula_units_Z 48
_cell_length_a 8.830797
_cell_length_b 28.313048
_cell_length_c 8.657616
_cell_angle_alpha 90.000000
_cell_angle_beta 90.000000
_cell_angle_gamma 90.000000
_cell_volume 2164.635845
_symmetry_space_group_name_H-M "P N M A"
_symmetry_group_IT_number 62
_symmetry_cell_setting 'orthorhombic'
loop_
_space_group_symop_operation_xyz
x,y,z
1/2-x,-y,1/2+z
1/2+x,1/2-y,1/2-z
-x,1/2+y,-z
-x,-y,-z
1/2+x,y,1/2-z
1/2-x,1/2+y,1/2+z
x,1/2-y,z
loop_
_atom_site_type_symbol
_atom_site_label
_atom_site_fract_x
_atom_site_fract_y
_atom_site_fract_z
Si Si1 0.757829 0.007294 0.987525
Si Si2 0.507268 0.057958 0.330798
Si Si3 0.887056 0.839565 0.840671
Si Si4 0.446370 0.163221 0.035009
Si Si5 0.124965 0.750000 0.337626
Si Si6 0.980067 0.062703 0.535302
Si Si7 0.543865 0.250000 0.536085
O O1 0.868486 0.981633 0.868774
O O2 0.666194 0.967679 0.087763
O O3 0.632576 0.039041 0.894551
O O4 0.846444 0.042920 0.098914
O O5 0.551466 0.109511 0.398601
O O6 0.489089 0.060570 0.149741
O O7 0.707408 0.837868 0.865318
O O8 0.917087 0.832813 0.657882
O O9 0.967616 0.796965 0.932278
O O10 0.463053 0.117518 0.922524
O O11 0.454581 0.205452 0.915827
O O12 0.303762 0.750000 0.363049
O O13 0.096064 0.750000 0.154583
#
# Coordination Sequence:
#
# PCOD8252547 Si02
#       7
#     8   8   8   8   4   8   4
#     4  10  20  34  56  82 118 152 186 244 290 348
#     4  10  20  36  57  84 116 152 199 241 295 337
#     4  10  21  38  65  92 118 152 204 250 292 350
#     4  10  21  38  65  92 118 152 204 250 292 350
#     4  10  23  44  62  88 126 158 191 242 304 364
#     4  10  20  36  57  84 116 152 199 241 295 337
#     4  10  23  44  62  88 126 158 191 242 304 364
#
# _framework density 22.174630000000001
#
# number of rings (size 3 to 8) (size 9 to 14) (size 15 to 20)
#    0.000    2.000    1.667    1.500    7.000    1.333 
#    0.000   10.000    0.000    0.000    0.000    0.000 
#    0.000    0.000    0.000    0.000    0.000    0.000 
#
# Total GULP energy -595120.058788 kJ/mol
# GULP energy per Si atom -12398.334558 kJ/mol
# Density = 2.212416 g / cm^3
# Si number density = 22.174630 Si / 1000 Ang^3
#
#
#
# Elastic Constant Matrix: (Units=GPa)
#
#
# Indices 1 2 3 4 5 6 
#
# 1 72.8419 20.9704 -2.0626 0.0000 0.0000 0.0000
# 2 20.9704 160.3502 22.9948 0.0000 0.0000 0.0000
# 3 -2.0626 22.9948 30.1916 0.0000 0.0000 0.0000
# 4 0.0000 0.0000 0.0000 22.4535 0.0000 0.0000
# 5 0.0000 0.0000 0.0000 0.0000 26.4160 0.0000
# 6 0.0000 0.0000 0.0000 0.0000 0.0000 34.5478
#
#
#
# Elastic Compliance Matrix: (Units=1/GPa)
#
#
# Indices 1 2 3 4 5 6 
#
# 1 0.014463 -0.002282 0.002726 0.000000 0.000000 0.000000
# 2 -0.002282 0.007361 -0.005762 0.000000 0.000000 0.000000
# 3 0.002726 -0.005762 0.037697 0.000000 0.000000 0.000000
# 4 0.000000 0.000000 0.000000 0.044536 0.000000 0.000000
# 5 0.000000 0.000000 0.000000 0.000000 0.037856 0.000000
# 6 0.000000 0.000000 0.000000 0.000000 0.000000 0.028945
#
#
# Mechanical properties :
#
#
# Convention : Reuss Voigt Hill
#
# Bulk Modulus (GPa) = 20.45668 38.57653 29.51660
# Shear Modulus (GPa) = 25.27936 31.44887 28.36412
#
# Velocity S-wave (km/s) = 3.38007 3.77003 3.58037
# Velocity P-wave (km/s) = 4.94757 6.03203 5.51651
#
# Compressibility (1/GPa) = 0.04888380
#
# Stress axis : x y z
#
# Youngs Moduli (GPa) = 69.14370 135.84775 26.52745
#
# Poissons Ratio (x) = 0.31005 -0.07232
# Poissons Ratio (y) = 0.15781 0.15286
# Poissons Ratio (z) = -0.18851 0.78281
#
# Static dielectric constant tensor:
#      x y z
#    x 4.156220 0.000000 0.000000 
#    y 0.000000 4.625910 0.000000 
#    z 0.000000 0.000000 3.509150 
# 
# 
# High freq. dielectric constant tensor:
#      x y z
#    x 1.880480 0.000000 0.000000 
#    y 0.000000 1.893880 0.000000 
#    z 0.000000 0.000000 1.835230 
# 
# From -- ./inp_files/4551.got.cif
#   From: 2010.03.12/outbox.cif.g09.slc.cpg/sg62_3_cif.got.tgz:4551.got - 2010.04.10 19:12:36.
