data_PCOD8252022
_publ_section_title
;
Structure prediction by ZEFSAII (Michael W. Deem and Ramdas Pophale) SiO2 
 PCOD8252022
Probable space group: P N M A
;
_chemical_formula_sum "Si O2"
_cell_formula_units_Z 64
_cell_length_a 21.490944
_cell_length_b 8.512120
_cell_length_c 17.571571
_cell_angle_alpha 90.000000
_cell_angle_beta 90.000000
_cell_angle_gamma 90.000000
_cell_volume 3214.428882
_symmetry_space_group_name_H-M "P N M A"
_symmetry_group_IT_number 62
_symmetry_cell_setting 'orthorhombic'
loop_
_space_group_symop_operation_xyz
x,y,z
1/2-x,-y,1/2+z
1/2+x,1/2-y,1/2-z
-x,1/2+y,-z
-x,-y,-z
1/2+x,y,1/2-z
1/2-x,1/2+y,1/2+z
x,1/2-y,z
loop_
_atom_site_type_symbol
_atom_site_label
_atom_site_fract_x
_atom_site_fract_y
_atom_site_fract_z
Si Si1 0.903238 0.429052 0.145065
Si Si2 0.838163 0.436542 0.568765
Si Si3 0.300973 0.562703 0.462731
Si Si4 0.857656 0.569510 0.877752
Si Si5 0.970744 0.429241 0.291335
Si Si6 0.606022 0.935119 0.227030
Si Si7 0.517801 0.570118 0.421236
Si Si8 0.441663 0.436323 0.043803
O O1 0.916676 0.250000 0.117296
O O2 0.839688 0.485817 0.106462
O O3 0.909340 0.437225 0.236774
O O4 0.955636 0.556208 0.126408
O O5 0.838599 0.250000 0.572350
O O6 0.768622 0.496429 0.552803
O O7 0.865386 0.503705 0.648401
O O8 0.879922 0.499111 0.498704
O O9 0.308894 0.750000 0.459076
O O10 0.321697 0.501635 0.547314
O O11 0.839750 0.750000 0.868198
O O12 0.846924 0.486356 0.795861
O O13 0.930543 0.546117 0.889662
O O14 0.991598 0.250000 0.302927
O O15 0.033850 0.513822 0.261681
O O16 0.945904 0.502535 0.370417
O O17 0.605730 0.750000 0.225593
O O18 0.500000 0.500000 0.500000
O O19 0.541499 0.750000 0.423737
O O20 0.441538 0.250000 0.042693
O O21 0.500000 0.500000 0.000000
#
# Coordination Sequence:
#
# PCOD8252022 Si02
#       8
#     8   8   8   8   8   8   8   8
#     4  11  22  36  55  84 120 155 194 242 293 346
#     4   9  20  40  62  84 112 154 201 244 296 358
#     4  10  22  41  61  79 111 161 206 241 290 355
#     4  11  22  36  56  85 117 152 198 244 293 353
#     4  10  21  35  56  88 122 147 182 238 299 353
#     4  11  21  35  60  88 116 149 190 240 298 356
#     4  12  22  33  54  83 114 152 192 237 292 344
#     4  10  19  36  62  88 115 147 188 240 296 353
#
# _framework density 19.910223999999999
#
# number of rings (size 3 to 8) (size 9 to 14) (size 15 to 20)
#    0.000    1.500    3.750    2.250    0.000    1.000 
#    2.250    1.875    0.000    0.000    0.000    0.000 
#    0.000    0.000    0.000    0.000    0.000    0.000 
#
# Total GULP energy -792883.958195 kJ/mol
# GULP energy per Si atom -12388.811847 kJ/mol
# Density = 1.986491 g / cm^3
# Si number density = 19.910224 Si / 1000 Ang^3
#
#
#
# Elastic Constant Matrix: (Units=GPa)
#
#
# Indices 1 2 3 4 5 6 
#
# 1 130.9761 14.2550 67.2055 0.0000 0.0000 0.0000
# 2 14.2550 44.3271 25.3646 0.0000 0.0000 0.0000
# 3 67.2055 25.3646 164.6353 0.0000 0.0000 0.0000
# 4 0.0000 0.0000 0.0000 25.8076 0.0000 0.0000
# 5 0.0000 0.0000 0.0000 0.0000 28.8161 0.0000
# 6 0.0000 0.0000 0.0000 0.0000 0.0000 20.1565
#
#
#
# Elastic Compliance Matrix: (Units=1/GPa)
#
#
# Indices 1 2 3 4 5 6 
#
# 1 0.009693 -0.000935 -0.003813 0.000000 0.000000 0.000000
# 2 -0.000935 0.024831 -0.003444 0.000000 0.000000 0.000000
# 3 -0.003813 -0.003444 0.008161 0.000000 0.000000 0.000000
# 4 0.000000 0.000000 0.000000 0.038748 0.000000 0.000000
# 5 0.000000 0.000000 0.000000 0.000000 0.034703 0.000000
# 6 0.000000 0.000000 0.000000 0.000000 0.000000 0.049612
#
#
# Mechanical properties :
#
#
# Convention : Reuss Voigt Hill
#
# Bulk Modulus (GPa) = 38.02099 61.50983 49.76541
# Shear Modulus (GPa) = 26.19189 30.49694 28.34441
#
# Velocity S-wave (km/s) = 3.63092 3.91797 3.77717
# Velocity P-wave (km/s) = 6.05935 7.17133 6.63866
#
# Compressibility (1/GPa) = 0.02630126
#
# Stress axis : x y z
#
# Youngs Moduli (GPa) = 103.16577 40.27229 122.53464
#
# Poissons Ratio (x) = 0.03767 0.46719
# Poissons Ratio (y) = 0.09651 0.42197
# Poissons Ratio (z) = 0.39334 0.13869
#
# Static dielectric constant tensor:
#      x y z
#    x 3.546520 0.000000 0.000000 
#    y 0.000000 3.241770 0.000000 
#    z 0.000000 0.000000 4.192300 
# 
# 
# High freq. dielectric constant tensor:
#      x y z
#    x 1.751260 0.000000 0.000000 
#    y 0.000000 1.760120 0.000000 
#    z 0.000000 0.000000 1.800030 
# 
# From -- ./inp_files/24700.got.cif
#   From: 2010.03.12/outbox.cif.g09.slc.cpg/sg62_13_cif.got.tgz:24700.got - 2010.04.10 19:12:36.
