data_PCOD8252246
_publ_section_title
;
Structure prediction by ZEFSAII (Michael W. Deem and Ramdas Pophale) SiO2 
 PCOD8252246
Probable space group: P N M A
;
_chemical_formula_sum "Si O2"
_cell_formula_units_Z 48
_cell_length_a 7.367830
_cell_length_b 26.476210
_cell_length_c 14.882755
_cell_angle_alpha 90.000000
_cell_angle_beta 90.000000
_cell_angle_gamma 90.000000
_cell_volume 2903.211973
_symmetry_space_group_name_H-M "P N M A"
_symmetry_group_IT_number 62
_symmetry_cell_setting 'orthorhombic'
loop_
_space_group_symop_operation_xyz
x,y,z
1/2-x,-y,1/2+z
1/2+x,1/2-y,1/2-z
-x,1/2+y,-z
-x,-y,-z
1/2+x,y,1/2-z
1/2-x,1/2+y,1/2+z
x,1/2-y,z
loop_
_atom_site_type_symbol
_atom_site_label
_atom_site_fract_x
_atom_site_fract_y
_atom_site_fract_z
Si Si1 0.642433 0.693902 0.370730
Si Si2 0.760844 0.660700 0.177179
Si Si3 0.626025 0.954032 0.978537
Si Si4 0.725989 0.476743 0.832961
Si Si5 0.370426 0.551371 0.349563
Si Si6 0.570321 0.119790 0.922132
O O1 0.692090 0.750000 0.405384
O O2 0.716312 0.688344 0.269707
O O3 0.424001 0.688695 0.375710
O O4 0.742732 0.651399 0.432748
O O5 0.834327 0.605031 0.197939
O O6 0.576233 0.658464 0.119846
O O7 0.785407 0.952609 0.052332
O O8 0.511547 0.901083 0.982453
O O9 0.500000 0.000000 0.000000
O O10 0.701284 0.967954 0.879615
O O11 0.708577 0.487407 0.725783
O O12 0.584785 0.432396 0.863669
O O13 0.918365 0.455765 0.863484
#
# Coordination Sequence:
#
# PCOD8252246 Si02
#       6
#     8   8   8   8   8   8
#     4  12  21  29  43  64  87 120 165 205 237 276
#     4  11  19  30  43  62  87 123 161 199 233 273
#     4   9  20  31  46  69  92 124 171 197 235 289
#     4  11  18  31  48  69  93 126 169 199 238 288
#     4  11  18  30  50  67  96 130 161 205 237 285
#     4  10  20  33  45  61  91 124 158 202 237 277
#
# _framework density 16.533412999999999
#
# number of rings (size 3 to 8) (size 9 to 14) (size 15 to 20)
#    0.000    1.333    5.000    4.000    0.000    0.667 
#    0.000    0.000    0.000    0.000    0.000    0.000 
#    0.000    0.000    0.000   13.500    0.000    4.667 
#
# Total GULP energy -594642.059942 kJ/mol
# GULP energy per Si atom -12388.376249 kJ/mol
# Density = 1.649578 g / cm^3
# Si number density = 16.533413 Si / 1000 Ang^3
#
#
#
# Elastic Constant Matrix: (Units=GPa)
#
#
# Indices 1 2 3 4 5 6 
#
# 1 79.6630 20.2374 0.0201 0.0000 0.0000 0.0000
# 2 20.2374 66.7729 29.4898 0.0000 0.0000 0.0000
# 3 0.0201 29.4898 41.5990 0.0000 0.0000 0.0000
# 4 0.0000 0.0000 0.0000 21.7957 0.0000 0.0000
# 5 0.0000 0.0000 0.0000 0.0000 8.2056 0.0000
# 6 0.0000 0.0000 0.0000 0.0000 0.0000 19.8705
#
#
#
# Elastic Compliance Matrix: (Units=1/GPa)
#
#
# Indices 1 2 3 4 5 6 
#
# 1 0.014135 -0.006232 0.004411 0.000000 0.000000 0.000000
# 2 -0.006232 0.024550 -0.017401 0.000000 0.000000 0.000000
# 3 0.004411 -0.017401 0.036372 0.000000 0.000000 0.000000
# 4 0.000000 0.000000 0.000000 0.045881 0.000000 0.000000
# 5 0.000000 0.000000 0.000000 0.000000 0.121868 0.000000
# 6 0.000000 0.000000 0.000000 0.000000 0.000000 0.050326
#
#
# Mechanical properties :
#
#
# Convention : Reuss Voigt Hill
#
# Bulk Modulus (GPa) = 27.31188 31.94772 29.62980
# Shear Modulus (GPa) = 14.54421 19.19353 16.86887
#
# Velocity S-wave (km/s) = 2.96917 3.41089 3.19766
# Velocity P-wave (km/s) = 5.32068 5.90570 5.62081
#
# Compressibility (1/GPa) = 0.03661410
#
# Stress axis : x y z
#
# Youngs Moduli (GPa) = 70.74650 40.73355 27.49345
#
# Poissons Ratio (x) = 0.25386 -0.12128
# Poissons Ratio (y) = 0.44091 0.47840
# Poissons Ratio (z) = -0.31208 0.70879
#
# Static dielectric constant tensor:
#      x y z
#    x 3.369940 0.000000 0.000000 
#    y 0.000000 3.186700 0.000000 
#    z 0.000000 0.000000 3.322350 
# 
# 
# High freq. dielectric constant tensor:
#      x y z
#    x 1.665220 0.000000 0.000000 
#    y 0.000000 1.608930 0.000000 
#    z 0.000000 0.000000 1.576930 
# 
# From -- ./inp_files/17277.got.cif
#   From: 2010.03.12/outbox.cif.g09.slc.cpg/sg62_9_cif.got.tgz:17277.got - 2010.04.10 19:12:36.
