data_PCOD8252068
_publ_section_title
;
Structure prediction by ZEFSAII (Michael W. Deem and Ramdas Pophale) SiO2 
 PCOD8252068
Probable space group: P N M A
;
_chemical_formula_sum "Si O2"
_cell_formula_units_Z 48
_cell_length_a 12.518967
_cell_length_b 13.753876
_cell_length_c 13.880020
_cell_angle_alpha 90.000000
_cell_angle_beta 90.000000
_cell_angle_gamma 90.000000
_cell_volume 2389.921802
_symmetry_space_group_name_H-M "P N M A"
_symmetry_group_IT_number 62
_symmetry_cell_setting 'orthorhombic'
loop_
_space_group_symop_operation_xyz
x,y,z
1/2-x,-y,1/2+z
1/2+x,1/2-y,1/2-z
-x,1/2+y,-z
-x,-y,-z
1/2+x,y,1/2-z
1/2-x,1/2+y,1/2+z
x,1/2-y,z
loop_
_atom_site_type_symbol
_atom_site_label
_atom_site_fract_x
_atom_site_fract_y
_atom_site_fract_z
Si Si1 0.160076 0.467171 0.464703
Si Si2 0.191137 0.864654 0.814043
Si Si3 0.773339 0.499508 0.838705
Si Si4 0.013086 0.991940 0.886603
Si Si5 0.981282 0.360579 0.577867
Si Si6 0.373162 0.859328 0.261674
O O1 0.218176 0.406663 0.382909
O O2 0.241631 0.489762 0.550327
O O3 0.122460 0.570535 0.421225
O O4 0.061475 0.400508 0.496806
O O5 0.198145 0.750000 0.809134
O O6 0.212470 0.907517 0.707198
O O7 0.074401 0.894047 0.854273
O O8 0.736619 0.404069 0.779579
O O9 0.900408 0.508834 0.831729
O O10 0.085622 0.083224 0.854890
O O11 0.000000 0.000000 0.000000
O O12 0.948410 0.250000 0.552287
O O13 0.035449 0.365425 0.681594
O O14 0.348008 0.750000 0.293479
#
# Coordination Sequence:
#
# PCOD8252068 Si02
#       6
#     8   8   8   8   8   8
#     4  10  19  37  60  87 125 166 206 264 314 369
#     4  11  24  41  63  90 123 169 214 257 318 383
#     4  10  22  40  62  88 127 163 205 260 312 371
#     4  11  22  41  63  91 128 165 207 259 319 376
#     4   9  18  34  60  90 119 160 212 257 308 366
#     4   9  20  38  61  91 120 158 208 257 310 369
#
# _framework density 20.084339
#
# number of rings (size 3 to 8) (size 9 to 14) (size 15 to 20)
#    0.000    2.000    1.667    1.500    0.000    4.667 
#    0.000    5.000    0.000    0.000    0.000    0.000 
#    0.000    0.000    0.000    0.000    0.000    0.000 
#
# Total GULP energy -595322.431704 kJ/mol
# GULP energy per Si atom -12402.550660 kJ/mol
# Density = 2.003863 g / cm^3
# Si number density = 20.084339 Si / 1000 Ang^3
#
#
#
# Elastic Constant Matrix: (Units=GPa)
#
#
# Indices 1 2 3 4 5 6 
#
# 1 77.9091 26.0435 -2.2220 0.0000 0.0000 0.0000
# 2 26.0435 164.5064 22.6885 0.0000 0.0000 0.0000
# 3 -2.2220 22.6885 50.2026 0.0000 0.0000 0.0000
# 4 0.0000 0.0000 0.0000 21.8197 0.0000 0.0000
# 5 0.0000 0.0000 0.0000 0.0000 19.2798 0.0000
# 6 0.0000 0.0000 0.0000 0.0000 0.0000 29.1990
#
#
#
# Elastic Compliance Matrix: (Units=1/GPa)
#
#
# Indices 1 2 3 4 5 6 
#
# 1 0.013686 -0.002400 0.001690 0.000000 0.000000 0.000000
# 2 -0.002400 0.006904 -0.003226 0.000000 0.000000 0.000000
# 3 0.001690 -0.003226 0.021452 0.000000 0.000000 0.000000
# 4 0.000000 0.000000 0.000000 0.045830 0.000000 0.000000
# 5 0.000000 0.000000 0.000000 0.000000 0.051868 0.000000
# 6 0.000000 0.000000 0.000000 0.000000 0.000000 0.034248
#
#
# Mechanical properties :
#
#
# Convention : Reuss Voigt Hill
#
# Bulk Modulus (GPa) = 29.26525 42.84869 36.05697
# Shear Modulus (GPa) = 25.87337 30.46690 28.17013
#
# Velocity S-wave (km/s) = 3.59309 3.89903 3.74918
# Velocity P-wave (km/s) = 5.64062 6.45373 6.06082
#
# Compressibility (1/GPa) = 0.03417022
#
# Stress axis : x y z
#
# Youngs Moduli (GPa) = 73.06804 144.85058 46.61537
#
# Poissons Ratio (x) = 0.34761 -0.07879
# Poissons Ratio (y) = 0.17535 0.15039
# Poissons Ratio (z) = -0.12351 0.46732
#
# Static dielectric constant tensor:
#      x y z
#    x 3.697330 0.000000 0.000000 
#    y 0.000000 3.724030 0.000000 
#    z 0.000000 0.000000 3.629600 
# 
# 
# High freq. dielectric constant tensor:
#      x y z
#    x 1.788810 0.000000 0.000000 
#    y 0.000000 1.778440 0.000000 
#    z 0.000000 0.000000 1.788720 
# 
# From -- ./inp_files/18002.got.cif
#   From: 2010.03.12/outbox.cif.g09.slc.cpg/sg62_10_cif.got.tgz:18002.got - 2010.04.10 19:12:36.
