data_PCOD8252189
_publ_section_title
;
Structure prediction by ZEFSAII (Michael W. Deem and Ramdas Pophale) SiO2 
 PCOD8252189
Probable space group: P N M A
;
_chemical_formula_sum "Si O2"
_cell_formula_units_Z 64
_cell_length_a 9.003267
_cell_length_b 21.711075
_cell_length_c 18.705206
_cell_angle_alpha 90.000000
_cell_angle_beta 90.000000
_cell_angle_gamma 90.000000
_cell_volume 3656.317935
_symmetry_space_group_name_H-M "P N M A"
_symmetry_group_IT_number 62
_symmetry_cell_setting 'orthorhombic'
loop_
_space_group_symop_operation_xyz
x,y,z
1/2-x,-y,1/2+z
1/2+x,1/2-y,1/2-z
-x,1/2+y,-z
-x,-y,-z
1/2+x,y,1/2-z
1/2-x,1/2+y,1/2+z
x,1/2-y,z
loop_
_atom_site_type_symbol
_atom_site_label
_atom_site_fract_x
_atom_site_fract_y
_atom_site_fract_z
Si Si1 0.601315 0.415653 0.543272
Si Si2 0.764411 0.462156 0.668915
Si Si3 0.004619 0.619407 0.691795
Si Si4 0.766470 0.912009 0.588629
Si Si5 0.004835 0.679519 0.938992
Si Si6 0.193772 0.181577 0.195540
Si Si7 0.901505 0.984070 0.308773
Si Si8 0.204643 0.521520 0.050881
O O1 0.708424 0.410716 0.612142
O O2 0.554906 0.348678 0.513681
O O3 0.456631 0.452356 0.570249
O O4 0.683381 0.452472 0.479216
O O5 0.723899 0.530144 0.638991
O O6 0.683445 0.450626 0.744208
O O7 0.939889 0.452150 0.678620
O O8 0.130285 0.671023 0.690208
O O9 0.078894 0.554982 0.712064
O O10 0.922633 0.616352 0.614830
O O11 0.881128 0.633316 0.751323
O O12 0.640901 0.859637 0.593308
O O13 0.785496 0.935417 0.507735
O O14 0.055590 0.750000 0.952290
O O15 0.871461 0.675561 0.883289
O O16 0.168622 0.250000 0.226345
O O17 0.805284 0.978983 0.379879
#
# Coordination Sequence:
#
# PCOD8252189 Si02
#       8
#     8   8   8   8   8   8   8   8
#     4   9  18  33  50  71  99 130 159 196 245 290
#     4  10  20  31  49  74 102 130 158 199 246 297
#     4  11  21  32  48  67  99 133 165 205 239 280
#     4   9  20  34  49  72 100 132 164 199 246 290
#     4  10  20  34  52  71  94 128 168 203 238 284
#     4  11  22  33  46  66  94 134 176 208 235 269
#     4  11  20  31  50  76 100 127 161 198 250 300
#     4   9  18  32  51  72 101 130 157 196 245 302
#
# _framework density 17.503948999999999
#
# number of rings (size 3 to 8) (size 9 to 14) (size 15 to 20)
#    0.000    2.000    0.000    5.625    0.000    7.500 
#    0.000    0.000    0.000    0.000    0.000    7.875 
#    0.000    0.000    0.000    0.000    0.000    0.000 
#
# Total GULP energy -793655.684175 kJ/mol
# GULP energy per Si atom -12400.870065 kJ/mol
# Density = 1.746411 g / cm^3
# Si number density = 17.503949 Si / 1000 Ang^3
#
#
#
# Elastic Constant Matrix: (Units=GPa)
#
#
# Indices 1 2 3 4 5 6 
#
# 1 94.1265 18.7507 49.3408 0.0000 0.0000 0.0000
# 2 18.7507 45.0757 15.9888 0.0000 0.0000 0.0000
# 3 49.3408 15.9888 92.4794 0.0000 0.0000 0.0000
# 4 0.0000 0.0000 0.0000 18.9684 0.0000 0.0000
# 5 0.0000 0.0000 0.0000 0.0000 38.4158 0.0000
# 6 0.0000 0.0000 0.0000 0.0000 0.0000 21.9637
#
#
#
# Elastic Compliance Matrix: (Units=1/GPa)
#
#
# Indices 1 2 3 4 5 6 
#
# 1 0.015306 -0.003697 -0.007527 0.000000 0.000000 0.000000
# 2 -0.003697 0.024527 -0.002268 0.000000 0.000000 0.000000
# 3 -0.007527 -0.002268 0.015221 0.000000 0.000000 0.000000
# 4 0.000000 0.000000 0.000000 0.052719 0.000000 0.000000
# 5 0.000000 0.000000 0.000000 0.000000 0.026031 0.000000
# 6 0.000000 0.000000 0.000000 0.000000 0.000000 0.045530
#
#
# Mechanical properties :
#
#
# Convention : Reuss Voigt Hill
#
# Bulk Modulus (GPa) = 35.62490 44.42692 40.02591
# Shear Modulus (GPa) = 23.18291 25.70966 24.44629
#
# Velocity S-wave (km/s) = 3.64323 3.83664 3.74119
# Velocity P-wave (km/s) = 6.17205 6.71287 6.44813
#
# Compressibility (1/GPa) = 0.02807025
#
# Stress axis : x y z
#
# Youngs Moduli (GPa) = 65.33284 40.77082 65.69730
#
# Poissons Ratio (x) = 0.15074 0.49452
# Poissons Ratio (y) = 0.24155 0.14900
# Poissons Ratio (z) = 0.49177 0.09247
#
# Static dielectric constant tensor:
#      x y z
#    x 3.364790 0.000000 0.000000 
#    y 0.000000 3.076450 0.000000 
#    z 0.000000 0.000000 3.234410 
# 
# 
# High freq. dielectric constant tensor:
#      x y z
#    x 1.688570 0.000000 0.000000 
#    y 0.000000 1.637290 0.000000 
#    z 0.000000 0.000000 1.674540 
# 
# From -- ./inp_files/22568.got.cif
#   From: 2010.03.12/outbox.cif.g09.slc.cpg/sg62_12_cif.got.tgz:22568.got - 2010.04.10 19:12:36.
