data_PCOD8252929
_publ_section_title
;
Structure prediction by ZEFSAII (Michael W. Deem and Ramdas Pophale) SiO2 
 PCOD8252929
Probable space group: P N M A
;
_chemical_formula_sum "Si O2"
_cell_formula_units_Z 64
_cell_length_a 12.588983
_cell_length_b 9.205874
_cell_length_c 28.590018
_cell_angle_alpha 90.000000
_cell_angle_beta 90.000000
_cell_angle_gamma 90.000000
_cell_volume 3313.371271
_symmetry_space_group_name_H-M "P N M A"
_symmetry_group_IT_number 62
_symmetry_cell_setting 'orthorhombic'
loop_
_space_group_symop_operation_xyz
x,y,z
1/2-x,-y,1/2+z
1/2+x,1/2-y,1/2-z
-x,1/2+y,-z
-x,-y,-z
1/2+x,y,1/2-z
1/2-x,1/2+y,1/2+z
x,1/2-y,z
loop_
_atom_site_type_symbol
_atom_site_label
_atom_site_fract_x
_atom_site_fract_y
_atom_site_fract_z
Si Si1 0.897009 0.081109 0.018025
Si Si2 0.611792 0.580551 0.135264
Si Si3 0.753717 0.418309 0.931379
Si Si4 0.006757 0.921279 0.800993
Si Si5 0.977369 0.915695 0.453619
Si Si6 0.561016 0.577003 0.801804
Si Si7 0.788269 0.921097 0.841015
Si Si8 0.829298 0.077231 0.121256
O O1 0.925348 0.250000 0.020258
O O2 0.802077 0.047730 0.982132
O O3 0.861009 0.025675 0.069109
O O4 0.000000 0.000000 0.000000
O O5 0.621111 0.750000 0.148676
O O6 0.572832 0.561057 0.082205
O O7 0.529210 0.503467 0.169320
O O8 0.724138 0.502283 0.139138
O O9 0.765012 0.250000 0.918388
O O10 0.631928 0.471568 0.930863
O O11 0.812233 0.509126 0.891378
O O12 0.012920 0.750000 0.801123
O O13 0.884575 0.971649 0.807432
O O14 0.050497 0.978036 0.751534
O O15 0.078734 0.977629 0.843785
O O16 0.962054 0.750000 0.468361
O O17 0.000000 0.000000 0.500000
O O18 0.545816 0.750000 0.806776
O O19 0.677144 0.526138 0.819054
O O20 0.788691 0.750000 0.848095
O O21 0.810300 0.250000 0.123033
#
# Coordination Sequence:
#
# PCOD8252929 Si02
#       8
#     8   8   8   8   8   8   8   8
#     4  10  21  36  58  86 117 156 198 239 288 346
#     4  11  23  39  58  84 119 154 190 239 294 350
#     4  10  20  36  55  79 115 154 187 229 288 346
#     4   9  20  37  61  90 116 146 193 249 293 338
#     4  10  21  36  55  79 110 146 187 233 282 336
#     4  10  21  37  61  88 113 149 194 242 296 349
#     4  10  20  36  60  89 115 145 195 244 287 345
#     4  10  21  39  62  87 119 158 198 242 290 345
#
# _framework density 19.315674000000001
#
# number of rings (size 3 to 8) (size 9 to 14) (size 15 to 20)
#    0.000    2.000    1.250    1.875    1.750    4.500 
#    0.000    1.875    0.000    0.000    0.000    0.000 
#    0.000    0.000    0.000    0.000    0.000    0.000 
#
# Total GULP energy -793697.700198 kJ/mol
# GULP energy per Si atom -12401.526566 kJ/mol
# Density = 1.927171 g / cm^3
# Si number density = 19.315674 Si / 1000 Ang^3
#
#
#
# Elastic Constant Matrix: (Units=GPa)
#
#
# Indices 1 2 3 4 5 6 
#
# 1 145.1780 42.1086 62.9627 0.0000 0.0000 0.0000
# 2 42.1086 42.4311 40.0323 0.0000 0.0000 0.0000
# 3 62.9627 40.0323 143.7308 0.0000 0.0000 0.0000
# 4 0.0000 0.0000 0.0000 27.7352 0.0000 0.0000
# 5 0.0000 0.0000 0.0000 0.0000 33.6027 0.0000
# 6 0.0000 0.0000 0.0000 0.0000 0.0000 27.4868
#
#
#
# Elastic Compliance Matrix: (Units=1/GPa)
#
#
# Indices 1 2 3 4 5 6 
#
# 1 0.010173 -0.007992 -0.002231 0.000000 0.000000 0.000000
# 2 -0.007992 0.038246 -0.007152 0.000000 0.000000 0.000000
# 3 -0.002231 -0.007152 0.009927 0.000000 0.000000 0.000000
# 4 0.000000 0.000000 0.000000 0.036055 0.000000 0.000000
# 5 0.000000 0.000000 0.000000 0.000000 0.029760 0.000000
# 6 0.000000 0.000000 0.000000 0.000000 0.000000 0.036381
#
#
# Mechanical properties :
#
#
# Convention : Reuss Voigt Hill
#
# Bulk Modulus (GPa) = 42.37640 69.06082 55.71861
# Shear Modulus (GPa) = 24.61172 30.18069 27.39620
#
# Velocity S-wave (km/s) = 3.57344 3.95713 3.77017
# Velocity P-wave (km/s) = 6.24600 7.53060 6.91818
#
# Compressibility (1/GPa) = 0.02359804
#
# Stress axis : x y z
#
# Youngs Moduli (GPa) = 98.29463 26.14674 100.74009
#
# Poissons Ratio (x) = 0.20895 0.22473
# Poissons Ratio (y) = 0.78552 0.72045
# Poissons Ratio (z) = 0.21927 0.18699
#
# Static dielectric constant tensor:
#      x y z
#    x 3.943540 0.000000 0.000000 
#    y 0.000000 3.352940 0.000000 
#    z 0.000000 0.000000 3.733890 
# 
# 
# High freq. dielectric constant tensor:
#      x y z
#    x 1.764810 0.000000 0.000000 
#    y 0.000000 1.728870 0.000000 
#    z 0.000000 0.000000 1.761700 
# 
# From -- ./inp_files/32490.got.cif
#   From: 2010.03.12/outbox.cif.g09.slc.cpg/sg62_17_cif.got.tgz:32490.got - 2010.04.10 19:12:36.
