data_PCOD8252822
_publ_section_title
;
Structure prediction by ZEFSAII (Michael W. Deem and Ramdas Pophale) SiO2 
 PCOD8252822
Probable space group: P N M A
;
_chemical_formula_sum "Si O2"
_cell_formula_units_Z 56
_cell_length_a 14.266708
_cell_length_b 11.607635
_cell_length_c 17.576919
_cell_angle_alpha 90.000000
_cell_angle_beta 90.000000
_cell_angle_gamma 90.000000
_cell_volume 2910.785932
_symmetry_space_group_name_H-M "P N M A"
_symmetry_group_IT_number 62
_symmetry_cell_setting 'orthorhombic'
loop_
_space_group_symop_operation_xyz
x,y,z
1/2-x,-y,1/2+z
1/2+x,1/2-y,1/2-z
-x,1/2+y,-z
-x,-y,-z
1/2+x,y,1/2-z
1/2-x,1/2+y,1/2+z
x,1/2-y,z
loop_
_atom_site_type_symbol
_atom_site_label
_atom_site_fract_x
_atom_site_fract_y
_atom_site_fract_z
Si Si1 0.332512 0.381718 0.853467
Si Si2 0.713474 0.880632 0.865206
Si Si3 0.934170 0.384984 0.492120
Si Si4 0.839441 0.026163 0.204010
Si Si5 0.566082 0.875739 0.566536
Si Si6 0.113283 0.968358 0.086767
Si Si7 0.023066 0.880554 0.231644
O O1 0.314761 0.250000 0.830789
O O2 0.238139 0.446950 0.834246
O O3 0.418753 0.430278 0.803275
O O4 0.356736 0.395424 0.942008
O O5 0.748668 0.750000 0.872942
O O6 0.617193 0.898896 0.911350
O O7 0.698020 0.907329 0.776987
O O8 0.793177 0.961405 0.898580
O O9 0.977750 0.250000 0.496500
O O10 0.000000 0.500000 0.500000
O O11 0.928642 0.951446 0.226517
O O12 0.867221 0.117845 0.139893
O O13 0.523306 0.750000 0.560167
O O14 0.628375 0.899518 0.491406
O O15 0.477050 0.954683 0.574775
O O16 0.090052 0.885833 0.157618
O O17 0.992774 0.750000 0.246217
#
# Coordination Sequence:
#
# PCOD8252822 Si02
#       7
#     8   8   8   8   8   8   8
#     4  10  20  37  59  84 117 154 197 247 295 351
#     4  11  22  38  59  84 116 155 197 244 298 361
#     4  10  22  41  63  87 121 160 205 254 301 359
#     4  11  21  36  58  84 119 153 193 237 293 357
#     4  10  21  36  56  83 113 148 188 238 290 341
#     4  10  20  37  58  81 114 149 189 239 290 355
#     4  10  20  35  57  85 116 150 193 244 292 348
#
# _framework density 19.238790999999999
#
# number of rings (size 3 to 8) (size 9 to 14) (size 15 to 20)
#    0.000    1.714    1.429    3.429    0.000    0.000 
#    0.000    9.286    0.000    0.000    0.000    0.000 
#    0.000    0.000    0.000    0.000    0.000    0.000 
#
# Total GULP energy -694065.457074 kJ/mol
# GULP energy per Si atom -12394.026019 kJ/mol
# Density = 1.919500 g / cm^3
# Si number density = 19.238791 Si / 1000 Ang^3
#
#
#
# Elastic Constant Matrix: (Units=GPa)
#
#
# Indices 1 2 3 4 5 6 
#
# 1 55.2110 18.7772 2.4603 0.0000 0.0000 0.0000
# 2 18.7772 66.3028 6.7164 0.0000 0.0000 0.0000
# 3 2.4603 6.7164 95.2677 0.0000 0.0000 0.0000
# 4 0.0000 0.0000 0.0000 32.9107 0.0000 0.0000
# 5 0.0000 0.0000 0.0000 0.0000 26.1331 0.0000
# 6 0.0000 0.0000 0.0000 0.0000 0.0000 -747.1479
#
#
#
# Elastic Compliance Matrix: (Units=1/GPa)
#
#
# Indices 1 2 3 4 5 6 
#
# 1 0.020044 -0.005665 -0.000118 0.000000 0.000000 0.000000
# 2 -0.005665 0.016792 -0.001038 0.000000 0.000000 0.000000
# 3 -0.000118 -0.001038 0.010573 0.000000 0.000000 0.000000
# 4 0.000000 0.000000 0.000000 0.030385 0.000000 0.000000
# 5 0.000000 0.000000 0.000000 0.000000 0.038266 0.000000
# 6 0.000000 0.000000 0.000000 0.000000 0.000000 -0.001338
#
#
# Mechanical properties :
#
#
# Convention : Reuss Voigt Hill
#
# Bulk Modulus (GPa) = 29.61391 30.29880 29.95635
# Shear Modulus (GPa) = 35.81198 -125.03232 -44.61017
#
# Velocity S-wave (km/s) = 4.31913 -8.07036 -4.82058
# Velocity P-wave (km/s) = 6.34818 8.42959 3.92165
#
# Compressibility (1/GPa) = 0.03376792
#
# Stress axis : x y z
#
# Youngs Moduli (GPa) = 49.88990 59.55333 94.58110
#
# Poissons Ratio (x) = 0.33735 0.01119
# Poissons Ratio (y) = 0.28261 0.09813
# Poissons Ratio (z) = 0.00590 0.06179
#
# Static dielectric constant tensor:
#      x y z
#    x 3.342930 0.000000 0.000000 
#    y 0.000000 3.599690 0.000000 
#    z 0.000000 0.000000 3.987650 
# 
# 
# High freq. dielectric constant tensor:
#      x y z
#    x 1.735580 0.000000 0.000000 
#    y 0.000000 1.749720 0.000000 
#    z 0.000000 0.000000 1.771370 
# 
# From -- ./inp_files/19011.got.cif
#   From: 2010.03.12/outbox.cif.g09.slc.cpg/sg62_10_cif.got.tgz:19011.got - 2010.04.10 19:12:36.
