data_PCOD8252041
_publ_section_title
;
Structure prediction by ZEFSAII (Michael W. Deem and Ramdas Pophale) SiO2 
 PCOD8252041
Probable space group: P N M A
;
_chemical_formula_sum "Si O2"
_cell_formula_units_Z 56
_cell_length_a 14.494948
_cell_length_b 13.380365
_cell_length_c 13.724802
_cell_angle_alpha 90.000000
_cell_angle_beta 90.000000
_cell_angle_gamma 90.000000
_cell_volume 2661.893711
_symmetry_space_group_name_H-M "P N M A"
_symmetry_group_IT_number 62
_symmetry_cell_setting 'orthorhombic'
loop_
_space_group_symop_operation_xyz
x,y,z
1/2-x,-y,1/2+z
1/2+x,1/2-y,1/2-z
-x,1/2+y,-z
-x,-y,-z
1/2+x,y,1/2-z
1/2-x,1/2+y,1/2+z
x,1/2-y,z
loop_
_atom_site_type_symbol
_atom_site_label
_atom_site_fract_x
_atom_site_fract_y
_atom_site_fract_z
Si Si1 0.072284 0.367969 0.464033
Si Si2 0.856925 0.862043 0.207114
Si Si3 0.931914 0.632801 0.758793
Si Si4 0.017810 0.861628 0.348083
Si Si5 0.723583 0.868626 0.486611
Si Si6 0.561997 0.527351 0.590364
Si Si7 0.677534 0.545624 0.277855
O O1 0.077188 0.250000 0.481361
O O2 0.041292 0.392390 0.353815
O O3 0.174778 0.410919 0.487183
O O4 0.995117 0.408300 0.542463
O O5 0.832051 0.750000 0.172746
O O6 0.765132 0.927927 0.213938
O O7 0.912884 0.859198 0.307931
O O8 0.918543 0.915644 0.127076
O O9 0.913195 0.750000 0.773477
O O10 0.836934 0.574353 0.788383
O O11 0.013510 0.595492 0.828139
O O12 0.059316 0.750000 0.351931
O O13 0.083934 0.923890 0.278337
O O14 0.719970 0.750000 0.492356
O O15 0.654419 0.913647 0.565373
O O16 0.687529 0.901277 0.380965
O O17 0.500000 0.500000 0.500000
#
# Coordination Sequence:
#
# PCOD8252041 Si02
#       7
#     8   8   8   8   8   8   8
#     4   9  20  39  65  91 126 174 215 262 330 407
#     4  11  23  41  67 101 136 170 224 288 342 406
#     4  11  24  43  64  92 132 178 230 284 339 419
#     4  10  19  36  64  97 131 168 215 276 338 405
#     4  11  21  39  66  95 128 175 225 269 337 421
#     4  12  24  43  63  95 132 178 224 282 350 408
#     4  12  22  40  68 101 135 174 226 283 350 405
#
# _framework density 21.037654
#
# number of rings (size 3 to 8) (size 9 to 14) (size 15 to 20)
#    0.000    1.143    4.286    2.571    0.000    2.857 
#    0.000    0.714    0.000    0.000    0.000    0.000 
#    0.000    0.000    0.000    0.000    0.000    0.000 
#
# Total GULP energy -694197.139283 kJ/mol
# GULP energy per Si atom -12396.377487 kJ/mol
# Density = 2.098977 g / cm^3
# Si number density = 21.037654 Si / 1000 Ang^3
#
#
#
# Elastic Constant Matrix: (Units=GPa)
#
#
# Indices 1 2 3 4 5 6 
#
# 1 90.1296 22.3068 44.6234 0.0000 0.0000 0.0000
# 2 22.3068 83.7066 35.0112 0.0000 0.0000 0.0000
# 3 44.6234 35.0112 126.9001 0.0000 0.0000 0.0000
# 4 0.0000 0.0000 0.0000 33.3836 0.0000 0.0000
# 5 0.0000 0.0000 0.0000 0.0000 24.3707 0.0000
# 6 0.0000 0.0000 0.0000 0.0000 0.0000 25.4614
#
#
#
# Elastic Compliance Matrix: (Units=1/GPa)
#
#
# Indices 1 2 3 4 5 6 
#
# 1 0.013682 -0.001847 -0.004302 0.000000 0.000000 0.000000
# 2 -0.001847 0.013754 -0.003145 0.000000 0.000000 0.000000
# 3 -0.004302 -0.003145 0.010261 0.000000 0.000000 0.000000
# 4 0.000000 0.000000 0.000000 0.029955 0.000000 0.000000
# 5 0.000000 0.000000 0.000000 0.000000 0.041033 0.000000
# 6 0.000000 0.000000 0.000000 0.000000 0.000000 0.039275
#
#
# Mechanical properties :
#
#
# Convention : Reuss Voigt Hill
#
# Bulk Modulus (GPa) = 52.33074 56.06880 54.19977
# Shear Modulus (GPa) = 28.91562 29.89613 29.40588
#
# Velocity S-wave (km/s) = 3.71141 3.77381 3.74274
# Velocity P-wave (km/s) = 6.57988 6.76005 6.67058
#
# Compressibility (1/GPa) = 0.01910923
#
# Stress axis : x y z
#
# Youngs Moduli (GPa) = 73.08894 72.70503 97.46005
#
# Poissons Ratio (x) = 0.13428 0.41923
# Poissons Ratio (y) = 0.13499 0.30654
# Poissons Ratio (z) = 0.31440 0.22868
#
# Static dielectric constant tensor:
#      x y z
#    x 3.835120 0.000000 0.000000 
#    y 0.000000 3.988370 0.000000 
#    z 0.000000 0.000000 3.927010 
# 
# 
# High freq. dielectric constant tensor:
#      x y z
#    x 1.816930 0.000000 0.000000 
#    y 0.000000 1.831980 0.000000 
#    z 0.000000 0.000000 1.834040 
# 
# From -- ./inp_files/13413.got.cif
#   From: 2010.03.12/outbox.cif.g09.slc.cpg/sg62_7_cif.got.tgz:13413.got - 2010.04.10 19:12:36.
