data_PCOD8252483
_publ_section_title
;
Structure prediction by ZEFSAII (Michael W. Deem and Ramdas Pophale) SiO2 
 PCOD8252483
Probable space group: P N M A
;
_chemical_formula_sum "Si O2"
_cell_formula_units_Z 64
_cell_length_a 16.369069
_cell_length_b 8.905112
_cell_length_c 23.613056
_cell_angle_alpha 90.000000
_cell_angle_beta 90.000000
_cell_angle_gamma 90.000000
_cell_volume 3442.037222
_symmetry_space_group_name_H-M "P N M A"
_symmetry_group_IT_number 62
_symmetry_cell_setting 'orthorhombic'
loop_
_space_group_symop_operation_xyz
x,y,z
1/2-x,-y,1/2+z
1/2+x,1/2-y,1/2-z
-x,1/2+y,-z
-x,-y,-z
1/2+x,y,1/2-z
1/2-x,1/2+y,1/2+z
x,1/2-y,z
loop_
_atom_site_type_symbol
_atom_site_label
_atom_site_fract_x
_atom_site_fract_y
_atom_site_fract_z
Si Si1 0.497039 0.420794 0.441050
Si Si2 0.235530 0.075121 0.551766
Si Si3 0.186940 0.581955 0.934386
Si Si4 0.698369 0.916116 0.147249
Si Si5 0.644085 0.071636 0.365457
Si Si6 0.437753 0.429207 0.045162
Si Si7 0.480481 0.418965 0.852786
Si Si8 0.886379 0.573957 0.737984
O O1 0.500000 0.500000 0.500000
O O2 0.519510 0.250000 0.452802
O O3 0.406604 0.438390 0.415740
O O4 0.563204 0.487137 0.397682
O O5 0.215738 0.250000 0.561779
O O6 0.300543 0.050608 0.501071
O O7 0.275563 0.006226 0.608426
O O8 0.153291 0.988792 0.534108
O O9 0.217802 0.750000 0.920415
O O10 0.236425 0.463821 0.898403
O O11 0.721231 0.750000 0.169188
O O12 0.608923 0.913598 0.117130
O O13 0.694116 0.028619 0.201236
O O14 0.655981 0.250000 0.368848
O O15 0.630873 0.017766 0.301245
O O16 0.440918 0.250000 0.040250
O O17 0.460968 0.479036 0.108980
O O18 0.500000 0.500000 0.000000
O O19 0.516609 0.250000 0.846847
O O20 0.466211 0.491565 0.789855
O O21 0.902386 0.750000 0.735727
#
# Coordination Sequence:
#
# PCOD8252483 Si02
#       8
#     8   8   8   8   8   8   8   8
#     4  10  20  36  56  83 115 147 187 234 283 338
#     4  11  23  37  57  85 118 154 193 236 290 349
#     4  10  20  34  54  82 114 149 188 232 289 345
#     4   9  19  33  55  82 109 145 189 236 281 333
#     4  10  21  38  60  85 116 154 196 237 289 346
#     4  12  24  38  58  86 120 155 192 236 292 352
#     4   9  19  36  57  82 111 147 193 239 284 336
#     4   9  18  35  59  83 111 155 196 236 287 343
#
# _framework density 18.593639
#
# number of rings (size 3 to 8) (size 9 to 14) (size 15 to 20)
#    0.750    1.250    1.250    3.000    0.000    4.500 
#    0.000    1.250    0.000    6.000    0.000    0.000 
#    0.000    0.000    0.000    0.000    0.000    0.000 
#
# Total GULP energy -793248.466599 kJ/mol
# GULP energy per Si atom -12394.507291 kJ/mol
# Density = 1.855132 g / cm^3
# Si number density = 18.593639 Si / 1000 Ang^3
#
#
#
# Elastic Constant Matrix: (Units=GPa)
#
#
# Indices 1 2 3 4 5 6 
#
# 1 72.4646 33.5941 26.6225 0.0000 0.0000 0.0000
# 2 33.5941 99.6005 36.7490 0.0000 0.0000 0.0000
# 3 26.6225 36.7490 93.9246 0.0000 0.0000 0.0000
# 4 0.0000 0.0000 0.0000 30.6949 0.0000 0.0000
# 5 0.0000 0.0000 0.0000 0.0000 29.5848 0.0000
# 6 0.0000 0.0000 0.0000 0.0000 0.0000 28.0733
#
#
#
# Elastic Compliance Matrix: (Units=1/GPa)
#
#
# Indices 1 2 3 4 5 6 
#
# 1 0.017061 -0.004640 -0.003020 0.000000 0.000000 0.000000
# 2 -0.004640 0.012996 -0.003770 0.000000 0.000000 0.000000
# 3 -0.003020 -0.003770 0.012978 0.000000 0.000000 0.000000
# 4 0.000000 0.000000 0.000000 0.032579 0.000000 0.000000
# 5 0.000000 0.000000 0.000000 0.000000 0.033801 0.000000
# 6 0.000000 0.000000 0.000000 0.000000 0.000000 0.035621
#
#
# Mechanical properties :
#
#
# Convention : Reuss Voigt Hill
#
# Bulk Modulus (GPa) = 49.56736 51.10232 50.33484
# Shear Modulus (GPa) = 28.63365 28.93888 28.78626
#
# Velocity S-wave (km/s) = 3.92850 3.94939 3.93896
# Velocity P-wave (km/s) = 6.87704 6.95272 6.91498
#
# Compressibility (1/GPa) = 0.02017457
#
# Stress axis : x y z
#
# Youngs Moduli (GPa) = 58.61492 76.94699 77.05444
#
# Poissons Ratio (x) = 0.35703 0.23273
# Poissons Ratio (y) = 0.27197 0.29047
# Poissons Ratio (z) = 0.17703 0.29006
#
# Static dielectric constant tensor:
#      x y z
#    x 3.464940 0.000000 0.000000 
#    y 0.000000 3.565040 0.000000 
#    z 0.000000 0.000000 3.327820 
# 
# 
# High freq. dielectric constant tensor:
#      x y z
#    x 1.708150 0.000000 0.000000 
#    y 0.000000 1.729810 0.000000 
#    z 0.000000 0.000000 1.710010 
# 
# From -- ./inp_files/30067.got.cif
#   From: 2010.03.12/outbox.cif.g09.slc.cpg/sg62_16_cif.got.tgz:30067.got - 2010.04.10 19:12:36.
