data_PCOD8252597
_publ_section_title
;
Structure prediction by ZEFSAII (Michael W. Deem and Ramdas Pophale) SiO2 
 PCOD8252597
Probable space group: P N M A
;
_chemical_formula_sum "Si O2"
_cell_formula_units_Z 64
_cell_length_a 18.788291
_cell_length_b 17.399975
_cell_length_c 10.087744
_cell_angle_alpha 90.000000
_cell_angle_beta 90.000000
_cell_angle_gamma 90.000000
_cell_volume 3297.842836
_symmetry_space_group_name_H-M "P N M A"
_symmetry_group_IT_number 62
_symmetry_cell_setting 'orthorhombic'
loop_
_space_group_symop_operation_xyz
x,y,z
1/2-x,-y,1/2+z
1/2+x,1/2-y,1/2-z
-x,1/2+y,-z
-x,-y,-z
1/2+x,y,1/2-z
1/2-x,1/2+y,1/2+z
x,1/2-y,z
loop_
_atom_site_type_symbol
_atom_site_label
_atom_site_fract_x
_atom_site_fract_y
_atom_site_fract_z
Si Si1 0.408350 0.931899 0.508228
Si Si2 0.738257 0.337540 0.229525
Si Si3 0.938136 0.400280 0.933483
Si Si4 0.230443 0.339203 0.960469
Si Si5 0.621856 0.895439 0.155164
Si Si6 0.111032 0.836368 0.814881
Si Si7 0.476435 0.339776 0.074479
Si Si8 0.601936 0.425510 0.185516
O O1 0.477260 0.914361 0.416671
O O2 0.341846 0.888761 0.438479
O O3 0.421372 0.907138 0.662112
O O4 0.397306 0.023716 0.511906
O O5 0.720696 0.250000 0.190736
O O6 0.749137 0.346220 0.386324
O O7 0.810462 0.371335 0.166294
O O8 0.679071 0.390170 0.164539
O O9 0.900722 0.368007 0.801890
O O10 0.930152 0.336485 0.046612
O O11 0.217497 0.250000 0.919751
O O12 0.296045 0.373577 0.874706
O O13 0.607387 0.985734 0.148568
O O14 0.568190 0.852020 0.058031
O O15 0.122816 0.750000 0.764198
O O16 0.067201 0.876821 0.697556
O O17 0.493838 0.250000 0.092516
O O18 0.550297 0.386209 0.077920
#
# Coordination Sequence:
#
# PCOD8252597 Si02
#       8
#     8   8   8   8   8   8   8   8
#     4   9  20  38  61  85 117 155 196 247 299 354
#     4   9  18  35  58  85 113 147 192 246 292 335
#     4  10  21  39  59  87 122 152 195 247 300 355
#     4  10  20  37  59  85 116 155 202 242 288 360
#     4  11  23  37  57  90 123 158 192 238 308 360
#     4  10  20  34  58  85 111 151 198 240 285 342
#     4  11  21  38  60  85 118 154 196 244 293 352
#     4  10  20  36  59  90 115 149 202 249 291 350
#
# _framework density 19.406624999999998
#
# number of rings (size 3 to 8) (size 9 to 14) (size 15 to 20)
#    0.000    2.000    2.500    1.125    1.750    2.000 
#    0.000    1.250    0.000    0.000    0.000    0.000 
#    0.000    0.000    0.000    0.000    0.000    0.000 
#
# Total GULP energy -793298.834291 kJ/mol
# GULP energy per Si atom -12395.294286 kJ/mol
# Density = 1.936245 g / cm^3
# Si number density = 19.406625 Si / 1000 Ang^3
#
#
#
# Elastic Constant Matrix: (Units=GPa)
#
#
# Indices 1 2 3 4 5 6 
#
# 1 121.7441 41.1388 43.7976 0.0000 0.0000 0.0000
# 2 41.1388 69.0598 18.9177 0.0000 0.0000 0.0000
# 3 43.7976 18.9177 76.4454 0.0000 0.0000 0.0000
# 4 0.0000 0.0000 0.0000 23.2553 0.0000 0.0000
# 5 0.0000 0.0000 0.0000 0.0000 30.8751 0.0000
# 6 0.0000 0.0000 0.0000 0.0000 0.0000 17.5989
#
#
#
# Elastic Compliance Matrix: (Units=1/GPa)
#
#
# Indices 1 2 3 4 5 6 
#
# 1 0.012137 -0.005713 -0.005540 0.000000 0.000000 0.000000
# 2 -0.005713 0.018222 -0.001236 0.000000 0.000000 0.000000
# 3 -0.005540 -0.001236 0.016561 0.000000 0.000000 0.000000
# 4 0.000000 0.000000 0.000000 0.043001 0.000000 0.000000
# 5 0.000000 0.000000 0.000000 0.000000 0.032389 0.000000
# 6 0.000000 0.000000 0.000000 0.000000 0.000000 0.056822
#
#
# Mechanical properties :
#
#
# Convention : Reuss Voigt Hill
#
# Bulk Modulus (GPa) = 45.57416 52.77305 49.17361
# Shear Modulus (GPa) = 23.64913 25.23887 24.44400
#
# Velocity S-wave (km/s) = 3.49465 3.61020 3.55289
# Velocity P-wave (km/s) = 6.31017 6.68060 6.49802
#
# Compressibility (1/GPa) = 0.02194226
#
# Stress axis : x y z
#
# Youngs Moduli (GPa) = 82.38999 54.87902 60.38171
#
# Poissons Ratio (x) = 0.31350 0.33452
# Poissons Ratio (y) = 0.47066 0.07466
# Poissons Ratio (z) = 0.45645 0.06785
#
# Static dielectric constant tensor:
#      x y z
#    x 3.668420 0.000000 0.000000 
#    y 0.000000 3.484570 0.000000 
#    z 0.000000 0.000000 3.301770 
# 
# 
# High freq. dielectric constant tensor:
#      x y z
#    x 1.766980 0.000000 0.000000 
#    y 0.000000 1.751240 0.000000 
#    z 0.000000 0.000000 1.730770 
# 
# From -- ./inp_files/14420.got.cif
#   From: 2010.03.12/outbox.cif.g09.slc.cpg/sg62_8_cif.got.tgz:14420.got - 2010.04.10 19:12:36.
