data_PCOD8252893
_publ_section_title
;
Structure prediction by ZEFSAII (Michael W. Deem and Ramdas Pophale) SiO2 
 PCOD8252893
Probable space group: P N M A
;
_chemical_formula_sum "Si O2"
_cell_formula_units_Z 40
_cell_length_a 12.688895
_cell_length_b 8.906142
_cell_length_c 16.378925
_cell_angle_alpha 90.000000
_cell_angle_beta 90.000000
_cell_angle_gamma 90.000000
_cell_volume 1850.967585
_symmetry_space_group_name_H-M "P N M A"
_symmetry_group_IT_number 62
_symmetry_cell_setting 'orthorhombic'
loop_
_space_group_symop_operation_xyz
x,y,z
1/2-x,-y,1/2+z
1/2+x,1/2-y,1/2-z
-x,1/2+y,-z
-x,-y,-z
1/2+x,y,1/2-z
1/2-x,1/2+y,1/2+z
x,1/2-y,z
loop_
_atom_site_type_symbol
_atom_site_label
_atom_site_fract_x
_atom_site_fract_y
_atom_site_fract_z
Si Si1 0.607961 0.913398 0.914677
Si Si2 0.414665 0.413725 0.898208
Si Si3 0.000063 0.571269 0.909714
Si Si4 0.292302 0.075788 0.651274
Si Si5 0.699818 0.425523 0.671801
O O1 0.634592 0.750000 0.876463
O O2 0.510386 0.985110 0.863620
O O3 0.710463 0.019309 0.916945
O O4 0.569440 0.891860 0.006295
O O5 0.422533 0.250000 0.854280
O O6 0.300480 0.482491 0.879848
O O7 0.996859 0.750000 0.918975
O O8 0.101928 0.523436 0.857967
O O9 0.899940 0.516215 0.857373
O O10 0.000000 0.500000 0.000000
O O11 0.318415 0.250000 0.639025
O O12 0.230396 0.042029 0.734886
O O13 0.675005 0.250000 0.656290
#
# Coordination Sequence:
#
# PCOD8252893 Si02
#       5
#     8   8   8   8   8
#     4  10  20  35  59  90 123 159 205 260 314 374
#     4   9  19  37  60  86 118 160 206 255 311 376
#     4  12  26  45  70  98 133 175 224 276 329 395
#     4  11  24  41  64  93 130 172 215 264 322 386
#     4  10  23  42  65  92 127 171 217 265 322 386
#
# _framework density 21.610317999999999
#
# number of rings (size 3 to 8) (size 9 to 14) (size 15 to 20)
#    0.000    1.600    0.000    4.200    2.800    4.800 
#    0.000    0.000    0.000    0.000    0.000    0.000 
#    0.000    0.000    0.000    0.000    0.000    0.000 
#
# Total GULP energy -495889.559713 kJ/mol
# GULP energy per Si atom -12397.238993 kJ/mol
# Density = 2.156113 g / cm^3
# Si number density = 21.610318 Si / 1000 Ang^3
#
#
#
# Elastic Constant Matrix: (Units=GPa)
#
#
# Indices 1 2 3 4 5 6 
#
# 1 171.4489 74.0279 23.0555 0.0000 0.0000 0.0000
# 2 74.0279 146.8084 36.3353 0.0000 0.0000 0.0000
# 3 23.0555 36.3353 45.8173 0.0000 0.0000 0.0000
# 4 0.0000 0.0000 0.0000 20.5620 0.0000 0.0000
# 5 0.0000 0.0000 0.0000 0.0000 32.6950 0.0000
# 6 0.0000 0.0000 0.0000 0.0000 0.0000 34.7894
#
#
#
# Elastic Compliance Matrix: (Units=1/GPa)
#
#
# Indices 1 2 3 4 5 6 
#
# 1 0.007490 -0.003539 -0.000963 0.000000 0.000000 0.000000
# 2 -0.003539 0.010147 -0.006266 0.000000 0.000000 0.000000
# 3 -0.000963 -0.006266 0.027280 0.000000 0.000000 0.000000
# 4 0.000000 0.000000 0.000000 0.048633 0.000000 0.000000
# 5 0.000000 0.000000 0.000000 0.000000 0.030586 0.000000
# 6 0.000000 0.000000 0.000000 0.000000 0.000000 0.028744
#
#
# Mechanical properties :
#
#
# Convention : Reuss Voigt Hill
#
# Bulk Modulus (GPa) = 42.76913 70.10134 56.43523
# Shear Modulus (GPa) = 27.44102 32.98634 30.21368
#
# Velocity S-wave (km/s) = 3.56731 3.91118 3.74319
# Velocity P-wave (km/s) = 6.06643 7.27363 6.69728
#
# Compressibility (1/GPa) = 0.02338135
#
# Stress axis : x y z
#
# Youngs Moduli (GPa) = 133.51199 98.55319 36.65719
#
# Poissons Ratio (x) = 0.34873 0.03529
# Poissons Ratio (y) = 0.47243 0.22971
# Poissons Ratio (z) = 0.12854 0.61756
#
# Static dielectric constant tensor:
#      x y z
#    x 4.016510 0.000000 0.000000 
#    y 0.000000 4.238730 0.000000 
#    z 0.000000 0.000000 3.729960 
# 
# 
# High freq. dielectric constant tensor:
#      x y z
#    x 1.866280 0.000000 0.000000 
#    y 0.000000 1.851360 0.000000 
#    z 0.000000 0.000000 1.833410 
# 
# From -- ./inp_files/22779.got.cif
#   From: 2010.03.12/outbox.cif.g09.slc.cpg/sg62_12_cif.got.tgz:22779.got - 2010.04.10 19:12:36.
