data_PCOD8252917
_publ_section_title
;
Structure prediction by ZEFSAII (Michael W. Deem and Ramdas Pophale) SiO2 
 PCOD8252917
Probable space group: P N M A
;
_chemical_formula_sum "Si O2"
_cell_formula_units_Z 44
_cell_length_a 5.114074
_cell_length_b 19.956960
_cell_length_c 23.219786
_cell_angle_alpha 90.000000
_cell_angle_beta 90.000000
_cell_angle_gamma 90.000000
_cell_volume 2369.843176
_symmetry_space_group_name_H-M "P N M A"
_symmetry_group_IT_number 62
_symmetry_cell_setting 'orthorhombic'
loop_
_space_group_symop_operation_xyz
x,y,z
1/2-x,-y,1/2+z
1/2+x,1/2-y,1/2-z
-x,1/2+y,-z
-x,-y,-z
1/2+x,y,1/2-z
1/2-x,1/2+y,1/2+z
x,1/2-y,z
loop_
_atom_site_type_symbol
_atom_site_label
_atom_site_fract_x
_atom_site_fract_y
_atom_site_fract_z
Si Si1 0.533069 0.824592 0.433594
Si Si2 0.023637 0.514127 0.287287
Si Si3 0.972721 0.640711 0.713004
Si Si4 0.032592 0.628587 0.373842
Si Si5 0.436796 0.250000 0.787723
Si Si6 0.966163 0.750000 0.956996
Si Si7 0.966792 0.750000 0.618645
O O1 0.520177 0.750000 0.404719
O O2 0.304520 0.869922 0.407762
O O3 0.503580 0.816231 0.502843
O O4 0.806499 0.859977 0.420532
O O5 0.293529 0.533020 0.256524
O O6 0.009606 0.436632 0.305275
O O7 0.997848 0.555783 0.345839
O O8 0.695983 0.658962 0.741122
O O9 0.011197 0.683607 0.655882
O O10 0.015955 0.683687 0.324373
O O11 0.641889 0.250000 0.735551
O O12 0.673188 0.750000 0.933029
O O13 0.174043 0.750000 0.905831
#
# Coordination Sequence:
#
# PCOD8252917 Si02
#       7
#     8   8   8   8   4   4   4
#     4  10  20  36  52  74 100 141 184 229 265 307
#     4  10  21  36  52  78 113 149 179 216 265 327
#     4  10  21  37  58  86 117 141 171 209 268 334
#     4  12  19  34  52  71 103 145 189 213 271 315
#     4  12  20  26  40  68  98 124 170 226 254 290
#     4  10  22  36  56  86 108 136 178 234 282 306
#     4  12  20  36  64  86 108 136 176 224 270 332
#
# _framework density 18.566628999999999
#
# number of rings (size 3 to 8) (size 9 to 14) (size 15 to 20)
#    0.545    0.727    1.818    6.000    0.000    0.000 
#    0.000    0.000    0.000    6.545    0.000    0.000 
#    0.000    0.000    0.000    0.000    0.000    0.000 
#
# Total GULP energy -545766.664900 kJ/mol
# GULP energy per Si atom -12403.787839 kJ/mol
# Density = 1.852437 g / cm^3
# Si number density = 18.566629 Si / 1000 Ang^3
#
#
#
# Elastic Constant Matrix: (Units=GPa)
#
#
# Indices 1 2 3 4 5 6 
#
# 1 79.8014 20.3858 9.0119 0.0000 0.0000 0.0000
# 2 20.3858 75.7393 40.8651 0.0000 0.0000 0.0000
# 3 9.0119 40.8651 75.4718 0.0000 0.0000 0.0000
# 4 0.0000 0.0000 0.0000 22.6946 0.0000 0.0000
# 5 0.0000 0.0000 0.0000 0.0000 36.8857 0.0000
# 6 0.0000 0.0000 0.0000 0.0000 0.0000 12.9090
#
#
#
# Elastic Compliance Matrix: (Units=1/GPa)
#
#
# Indices 1 2 3 4 5 6 
#
# 1 0.013470 -0.003896 0.000501 0.000000 0.000000 0.000000
# 2 -0.003896 0.019779 -0.010244 0.000000 0.000000 0.000000
# 3 0.000501 -0.010244 0.018737 0.000000 0.000000 0.000000
# 4 0.000000 0.000000 0.000000 0.044063 0.000000 0.000000
# 5 0.000000 0.000000 0.000000 0.000000 0.027111 0.000000
# 6 0.000000 0.000000 0.000000 0.000000 0.000000 0.077466
#
#
# Mechanical properties :
#
#
# Convention : Reuss Voigt Hill
#
# Bulk Modulus (GPa) = 40.47346 41.28204 40.87775
# Shear Modulus (GPa) = 21.17387 25.21449 23.19418
#
# Velocity S-wave (km/s) = 3.38068 3.68918 3.53829
# Velocity P-wave (km/s) = 6.08975 6.35842 6.22553
#
# Compressibility (1/GPa) = 0.02470755
#
# Stress axis : x y z
#
# Youngs Moduli (GPa) = 74.24047 50.55822 53.36989
#
# Poissons Ratio (x) = 0.19697 -0.02674
# Poissons Ratio (y) = 0.28923 0.54675
# Poissons Ratio (z) = -0.03720 0.51794
#
# Static dielectric constant tensor:
#      x y z
#    x 3.565970 0.000000 0.000000 
#    y 0.000000 3.321550 0.000000 
#    z 0.000000 0.000000 3.193310 
# 
# 
# High freq. dielectric constant tensor:
#      x y z
#    x 1.743690 0.000000 0.000000 
#    y 0.000000 1.702640 0.000000 
#    z 0.000000 0.000000 1.706410 
# 
# From -- ./inp_files/25294.got.cif
#   From: 2010.03.12/outbox.cif.g09.slc.cpg/sg62_13_cif.got.tgz:25294.got - 2010.04.10 19:12:36.
