data_PCOD8252323
_publ_section_title
;
Structure prediction by ZEFSAII (Michael W. Deem and Ramdas Pophale) SiO2 
 PCOD8252323
Probable space group: P N M A
;
_chemical_formula_sum "Si O2"
_cell_formula_units_Z 64
_cell_length_a 22.843030
_cell_length_b 8.536200
_cell_length_c 18.966517
_cell_angle_alpha 90.000000
_cell_angle_beta 90.000000
_cell_angle_gamma 90.000000
_cell_volume 3698.331841
_symmetry_space_group_name_H-M "P N M A"
_symmetry_group_IT_number 62
_symmetry_cell_setting 'orthorhombic'
loop_
_space_group_symop_operation_xyz
x,y,z
1/2-x,-y,1/2+z
1/2+x,1/2-y,1/2-z
-x,1/2+y,-z
-x,-y,-z
1/2+x,y,1/2-z
1/2-x,1/2+y,1/2+z
x,1/2-y,z
loop_
_atom_site_type_symbol
_atom_site_label
_atom_site_fract_x
_atom_site_fract_y
_atom_site_fract_z
Si Si1 0.730595 0.067484 0.857355
Si Si2 0.233378 0.432879 0.351630
Si Si3 0.934362 0.069980 0.870052
Si Si4 0.379951 0.568799 0.492956
Si Si5 0.157552 0.069364 0.775461
Si Si6 0.558610 0.569793 0.640319
Si Si7 0.256044 0.066081 0.997758
Si Si8 0.839364 0.930712 0.781156
O O1 0.747265 0.250000 0.855777
O O2 0.676772 0.032262 0.804599
O O3 0.711984 0.011599 0.935027
O O4 0.786744 0.967886 0.834523
O O5 0.249255 0.250000 0.349821
O O6 0.290328 0.530020 0.329314
O O7 0.214379 0.488807 0.429037
O O8 0.179878 0.470461 0.298704
O O9 0.926805 0.250000 0.891518
O O10 0.913022 0.962325 0.934169
O O11 0.896044 0.032867 0.800552
O O12 0.001437 0.036232 0.852575
O O13 0.387275 0.750000 0.472421
O O14 0.408115 0.464118 0.432327
O O15 0.312340 0.522228 0.500742
O O16 0.141579 0.250000 0.786314
O O17 0.100637 0.967571 0.793569
O O18 0.539984 0.750000 0.642618
O O19 0.267474 0.250000 0.997499
O O20 0.855881 0.750000 0.790137
#
# Coordination Sequence:
#
# PCOD8252323 Si02
#       8
#     8   8   8   8   8   8   8   8
#     4  10  20  33  53  76 103 135 170 211 258 308
#     4  10  20  33  53  76 103 135 170 211 258 308
#     4  12  24  37  54  74 101 139 178 217 256 304
#     4  11  22  36  51  73 105 140 177 217 252 297
#     4  10  20  35  52  75 103 133 171 215 257 303
#     4  12  24  37  54  74 101 139 178 217 256 304
#     4  11  21  32  52  77 107 140 172 212 255 306
#     4  10  20  35  52  75 103 133 171 215 257 303
#
# _framework density 17.305098999999998
#
# number of rings (size 3 to 8) (size 9 to 14) (size 15 to 20)
#    0.000    1.250    2.500    4.875    0.000    4.000 
#    0.000    0.000    0.000    0.000    0.000    0.875 
#    0.000    0.000    0.000    0.000    0.000    0.000 
#
# Total GULP energy -793968.839908 kJ/mol
# GULP energy per Si atom -12405.763124 kJ/mol
# Density = 1.726571 g / cm^3
# Si number density = 17.305099 Si / 1000 Ang^3
#
#
#
# Elastic Constant Matrix: (Units=GPa)
#
#
# Indices 1 2 3 4 5 6 
#
# 1 58.9856 19.2104 35.7888 0.0000 0.0000 0.0000
# 2 19.2104 58.8929 26.4582 0.0000 0.0000 0.0000
# 3 35.7888 26.4582 125.8240 0.0000 0.0000 0.0000
# 4 0.0000 0.0000 0.0000 27.4972 0.0000 0.0000
# 5 0.0000 0.0000 0.0000 0.0000 19.9132 0.0000
# 6 0.0000 0.0000 0.0000 0.0000 0.0000 25.0906
#
#
#
# Elastic Compliance Matrix: (Units=1/GPa)
#
#
# Indices 1 2 3 4 5 6 
#
# 1 0.021624 -0.004738 -0.005154 0.000000 0.000000 0.000000
# 2 -0.004738 0.019790 -0.002814 0.000000 0.000000 0.000000
# 3 -0.005154 -0.002814 0.010005 0.000000 0.000000 0.000000
# 4 0.000000 0.000000 0.000000 0.036367 0.000000 0.000000
# 5 0.000000 0.000000 0.000000 0.000000 0.050218 0.000000
# 6 0.000000 0.000000 0.000000 0.000000 0.000000 0.039856
#
#
# Mechanical properties :
#
#
# Convention : Reuss Voigt Hill
#
# Bulk Modulus (GPa) = 38.45145 45.17969 41.81557
# Shear Modulus (GPa) = 23.59160 25.31654 24.45407
#
# Velocity S-wave (km/s) = 3.69626 3.82901 3.76322
# Velocity P-wave (km/s) = 6.36274 6.76112 6.56495
#
# Compressibility (1/GPa) = 0.02600682
#
# Stress axis : x y z
#
# Youngs Moduli (GPa) = 46.24582 50.53177 99.94675
#
# Poissons Ratio (x) = 0.23941 0.51515
# Poissons Ratio (y) = 0.21911 0.28122
# Poissons Ratio (z) = 0.23836 0.14218
#
# Static dielectric constant tensor:
#      x y z
#    x 3.041970 0.000000 0.000000 
#    y 0.000000 3.287920 0.000000 
#    z 0.000000 0.000000 3.357610 
# 
# 
# High freq. dielectric constant tensor:
#      x y z
#    x 1.633580 0.000000 0.000000 
#    y 0.000000 1.686730 0.000000 
#    z 0.000000 0.000000 1.666910 
# 
# From -- ./inp_files/24832.got.cif
#   From: 2010.03.12/outbox.cif.g09.slc.cpg/sg62_13_cif.got.tgz:24832.got - 2010.04.10 19:12:36.
