data_PCOD8252280
_publ_section_title
;
Structure prediction by ZEFSAII (Michael W. Deem and Ramdas Pophale) SiO2 
 PCOD8252280
Probable space group: P N M A
;
_chemical_formula_sum "Si O2"
_cell_formula_units_Z 48
_cell_length_a 16.172993
_cell_length_b 17.954321
_cell_length_c 8.345509
_cell_angle_alpha 90.000000
_cell_angle_beta 90.000000
_cell_angle_gamma 90.000000
_cell_volume 2423.328076
_symmetry_space_group_name_H-M "P N M A"
_symmetry_group_IT_number 62
_symmetry_cell_setting 'orthorhombic'
loop_
_space_group_symop_operation_xyz
x,y,z
1/2-x,-y,1/2+z
1/2+x,1/2-y,1/2-z
-x,1/2+y,-z
-x,-y,-z
1/2+x,y,1/2-z
1/2-x,1/2+y,1/2+z
x,1/2-y,z
loop_
_atom_site_type_symbol
_atom_site_label
_atom_site_fract_x
_atom_site_fract_y
_atom_site_fract_z
Si Si1 0.262779 0.581186 0.097467
Si Si2 0.871341 0.334299 0.736873
Si Si3 0.145730 0.530206 0.830473
Si Si4 0.074049 0.412266 0.439357
Si Si5 0.413101 0.166229 0.125624
Si Si6 0.486492 0.036328 0.742675
O O1 0.220180 0.647726 0.197757
O O2 0.299347 0.520390 0.216011
O O3 0.192380 0.540499 0.995902
O O4 0.333153 0.616128 0.979897
O O5 0.895887 0.250000 0.782196
O O6 0.870752 0.346640 0.546658
O O7 0.939740 0.389414 0.817415
O O8 0.129191 0.609996 0.748365
O O9 0.057163 0.492552 0.881004
O O10 0.079347 0.472396 0.293651
O O11 0.012278 0.345822 0.388978
O O12 0.040885 0.451280 0.598577
O O13 0.397848 0.250000 0.187446
#
# Coordination Sequence:
#
# PCOD8252280 Si02
#       6
#     8   8   8   8   8   8
#     4  11  20  32  52  80 108 131 172 219 262 304
#     4  10  20  33  51  75 104 134 169 217 264 308
#     4  10  20  33  55  78 103 139 174 215 258 307
#     4   8  15  29  52  74  96 132 174 209 242 304
#     4   9  18  35  55  73  99 138 176 209 256 313
#     4   8  15  32  51  71  98 133 175 206 246 308
#
# _framework density 19.807469000000001
#
# number of rings (size 3 to 8) (size 9 to 14) (size 15 to 20)
#    0.000    2.667    0.000    5.000    0.000    2.000 
#    0.000    2.500    0.000    1.000    0.000    0.000 
#    0.000    0.000    0.000    0.000    0.000    0.000 
#
# Total GULP energy -594918.634770 kJ/mol
# GULP energy per Si atom -12394.138224 kJ/mol
# Density = 1.976239 g / cm^3
# Si number density = 19.807469 Si / 1000 Ang^3
#
#
#
# Elastic Constant Matrix: (Units=GPa)
#
#
# Indices 1 2 3 4 5 6 
#
# 1 116.1174 59.5204 36.8224 0.0000 0.0000 0.0000
# 2 59.5204 108.7912 26.5055 0.0000 0.0000 0.0000
# 3 36.8224 26.5055 32.6861 0.0000 0.0000 0.0000
# 4 0.0000 0.0000 0.0000 19.8763 0.0000 0.0000
# 5 0.0000 0.0000 0.0000 0.0000 34.4617 0.0000
# 6 0.0000 0.0000 0.0000 0.0000 0.0000 25.8119
#
#
#
# Elastic Compliance Matrix: (Units=1/GPa)
#
#
# Indices 1 2 3 4 5 6 
#
# 1 0.015490 -0.005263 -0.013182 0.000000 0.000000 0.000000
# 2 -0.005263 0.013243 -0.004810 0.000000 0.000000 0.000000
# 3 -0.013182 -0.004810 0.049345 0.000000 0.000000 0.000000
# 4 0.000000 0.000000 0.000000 0.050311 0.000000 0.000000
# 5 0.000000 0.000000 0.000000 0.000000 0.029018 0.000000
# 6 0.000000 0.000000 0.000000 0.000000 0.000000 0.038742
#
#
# Mechanical properties :
#
#
# Convention : Reuss Voigt Hill
#
# Bulk Modulus (GPa) = 31.67813 55.92124 43.79968
# Shear Modulus (GPa) = 19.74856 25.01307 22.38081
#
# Velocity S-wave (km/s) = 3.16100 3.55746 3.36507
# Velocity P-wave (km/s) = 5.41759 6.72069 6.10401
#
# Compressibility (1/GPa) = 0.03156752
#
# Stress axis : x y z
#
# Youngs Moduli (GPa) = 64.55759 75.51018 20.26534
#
# Poissons Ratio (x) = 0.39741 0.26715
# Poissons Ratio (y) = 0.33976 0.09748
# Poissons Ratio (z) = 0.85103 0.36321
#
# Static dielectric constant tensor:
#      x y z
#    x 3.928450 0.000000 0.000000 
#    y 0.000000 3.478710 0.000000 
#    z 0.000000 0.000000 3.415950 
# 
# 
# High freq. dielectric constant tensor:
#      x y z
#    x 1.777050 0.000000 0.000000 
#    y 0.000000 1.753700 0.000000 
#    z 0.000000 0.000000 1.757230 
# 
# From -- ./inp_files/6493.got.cif
#   From: 2010.03.12/outbox.cif.g09.slc.cpg/sg62_4_cif.got.tgz:6493.got - 2010.04.10 19:12:36.
