data_PCOD8252275
_publ_section_title
;
Structure prediction by ZEFSAII (Michael W. Deem and Ramdas Pophale) SiO2 
 PCOD8252275
Probable space group: P N M A
;
_chemical_formula_sum "Si O2"
_cell_formula_units_Z 64
_cell_length_a 8.860637
_cell_length_b 22.193860
_cell_length_c 16.107220
_cell_angle_alpha 90.000000
_cell_angle_beta 90.000000
_cell_angle_gamma 90.000000
_cell_volume 3167.512793
_symmetry_space_group_name_H-M "P N M A"
_symmetry_group_IT_number 62
_symmetry_cell_setting 'orthorhombic'
loop_
_space_group_symop_operation_xyz
x,y,z
1/2-x,-y,1/2+z
1/2+x,1/2-y,1/2-z
-x,1/2+y,-z
-x,-y,-z
1/2+x,y,1/2-z
1/2-x,1/2+y,1/2+z
x,1/2-y,z
loop_
_atom_site_type_symbol
_atom_site_label
_atom_site_fract_x
_atom_site_fract_y
_atom_site_fract_z
Si Si1 0.178213 0.682417 0.807766
Si Si2 0.101306 0.076249 0.968903
Si Si3 0.935714 0.511724 0.859626
Si Si4 0.596267 0.979593 0.808548
Si Si5 0.448507 0.445508 0.938265
Si Si6 0.066711 0.682595 0.980780
Si Si7 0.088302 0.182367 0.516489
Si Si8 0.988152 0.853883 0.659397
O O1 0.238706 0.750000 0.825836
O O2 0.070847 0.662852 0.883827
O O3 0.321251 0.637571 0.800939
O O4 0.091108 0.682866 0.722035
O O5 0.062909 0.146792 0.969901
O O6 0.990819 0.051189 0.897831
O O7 0.270226 0.060156 0.945306
O O8 0.059965 0.056203 0.062214
O O9 0.052931 0.532643 0.787718
O O10 0.771502 0.504382 0.818869
O O11 0.495211 0.033448 0.845961
O O12 0.560238 0.918869 0.860571
O O13 0.500000 0.500000 0.000000
O O14 0.517375 0.378099 0.944201
O O15 0.010751 0.750000 0.990345
O O16 0.232270 0.672625 0.019679
O O17 0.049396 0.250000 0.554725
O O18 0.026029 0.185102 0.423162
#
# Coordination Sequence:
#
# PCOD8252275 Si02
#       8
#     8   8   8   8   8   8   8   8
#     4  10  20  33  50  78 116 162 204 252 300 362
#     4  11  23  40  62  91 122 168 203 261 318 369
#     4  11  24  38  61  89 124 162 209 256 316 369
#     4  12  23  40  59  91 125 165 207 263 311 374
#     4  12  23  41  63  91 128 162 207 263 310 373
#     4   9  20  37  57  82 116 159 208 254 305 374
#     4  10  21  38  60  84 116 164 209 254 311 373
#     4  11  20  33  54  77 119 159 207 248 302 359
#
# _framework density 20.205127000000001
#
# number of rings (size 3 to 8) (size 9 to 14) (size 15 to 20)
#    0.000    1.250    2.500    4.875    1.750    2.500 
#    0.000    1.250    0.000    0.750    0.000    0.000 
#    0.000    0.000    0.000    0.000    0.000    0.000 
#
# Total GULP energy -793073.032854 kJ/mol
# GULP energy per Si atom -12391.766138 kJ/mol
# Density = 2.015914 g / cm^3
# Si number density = 20.205127 Si / 1000 Ang^3
#
#
#
# Elastic Constant Matrix: (Units=GPa)
#
#
# Indices 1 2 3 4 5 6 
#
# 1 118.2602 46.8274 33.6924 0.0000 0.0000 0.0000
# 2 46.8274 114.3513 18.7053 0.0000 0.0000 0.0000
# 3 33.6924 18.7053 43.7837 0.0000 0.0000 0.0000
# 4 0.0000 0.0000 0.0000 21.5512 0.0000 0.0000
# 5 0.0000 0.0000 0.0000 0.0000 33.7879 0.0000
# 6 0.0000 0.0000 0.0000 0.0000 0.0000 31.6792
#
#
#
# Elastic Compliance Matrix: (Units=1/GPa)
#
#
# Indices 1 2 3 4 5 6 
#
# 1 0.012130 -0.003699 -0.007754 0.000000 0.000000 0.000000
# 2 -0.003699 0.010530 -0.001652 0.000000 0.000000 0.000000
# 3 -0.007754 -0.001652 0.029512 0.000000 0.000000 0.000000
# 4 0.000000 0.000000 0.000000 0.046401 0.000000 0.000000
# 5 0.000000 0.000000 0.000000 0.000000 0.029596 0.000000
# 6 0.000000 0.000000 0.000000 0.000000 0.000000 0.031566
#
#
# Mechanical properties :
#
#
# Convention : Reuss Voigt Hill
#
# Bulk Modulus (GPa) = 38.51795 52.76058 45.63927
# Shear Modulus (GPa) = 25.69385 29.21501 27.45443
#
# Velocity S-wave (km/s) = 3.56989 3.80665 3.69017
# Velocity P-wave (km/s) = 6.00808 6.74462 6.38698
#
# Compressibility (1/GPa) = 0.02596192
#
# Stress axis : x y z
#
# Youngs Moduli (GPa) = 82.44314 94.96736 33.88445
#
# Poissons Ratio (x) = 0.35126 0.26273
# Poissons Ratio (y) = 0.30494 0.05599
# Poissons Ratio (z) = 0.63924 0.15692
#
# Static dielectric constant tensor:
#      x y z
#    x 3.662050 0.000000 0.000000 
#    y 0.000000 3.788850 0.000000 
#    z 0.000000 0.000000 3.558200 
# 
# 
# High freq. dielectric constant tensor:
#      x y z
#    x 1.792990 0.000000 0.000000 
#    y 0.000000 1.793510 0.000000 
#    z 0.000000 0.000000 1.759430 
# 
# From -- ./inp_files/22562.got.cif
#   From: 2010.03.12/outbox.cif.g09.slc.cpg/sg62_12_cif.got.tgz:22562.got - 2010.04.10 19:12:36.
