data_PCOD8252832
_publ_section_title
;
Structure prediction by ZEFSAII (Michael W. Deem and Ramdas Pophale) SiO2 
 PCOD8252832
Probable space group: P N M A
;
_chemical_formula_sum "Si O2"
_cell_formula_units_Z 56
_cell_length_a 21.023367
_cell_length_b 8.784248
_cell_length_c 14.725499
_cell_angle_alpha 90.000000
_cell_angle_beta 90.000000
_cell_angle_gamma 90.000000
_cell_volume 2719.423716
_symmetry_space_group_name_H-M "P N M A"
_symmetry_group_IT_number 62
_symmetry_cell_setting 'orthorhombic'
loop_
_space_group_symop_operation_xyz
x,y,z
1/2-x,-y,1/2+z
1/2+x,1/2-y,1/2-z
-x,1/2+y,-z
-x,-y,-z
1/2+x,y,1/2-z
1/2-x,1/2+y,1/2+z
x,1/2-y,z
loop_
_atom_site_type_symbol
_atom_site_label
_atom_site_fract_x
_atom_site_fract_y
_atom_site_fract_z
Si Si1 0.103748 0.926911 0.707142
Si Si2 0.011893 0.923900 0.867013
Si Si3 0.731407 0.071202 0.730458
Si Si4 0.596469 0.925343 0.462254
Si Si5 0.568208 0.428993 0.980999
Si Si6 0.719798 0.076416 0.403523
Si Si7 0.315775 0.075531 0.937426
O O1 0.112675 0.750000 0.681802
O O2 0.041445 0.952540 0.768396
O O3 0.165260 0.980953 0.763128
O O4 0.094618 0.023055 0.616742
O O5 0.989759 0.750000 0.879030
O O6 0.064280 0.964802 0.942267
O O7 0.950698 0.031240 0.879400
O O8 0.717072 0.250000 0.724500
O O9 0.770005 0.013041 0.642206
O O10 0.774431 0.034423 0.817701
O O11 0.615656 0.750000 0.453281
O O12 0.658571 0.028941 0.460735
O O13 0.561163 0.250000 0.985956
O O14 0.500000 0.500000 0.000000
O O15 0.618398 0.481965 0.058084
O O16 0.713011 0.250000 0.370530
O O17 0.781464 0.057391 0.465999
O O18 0.333036 0.250000 0.916914
#
# Coordination Sequence:
#
# PCOD8252832 Si02
#       7
#     8   8   8   8   8   8   8
#     4  11  22  40  64  91 125 164 209 259 314 381
#     4   9  20  37  58  85 119 161 203 247 304 370
#     4  11  23  39  63  94 124 161 207 257 312 374
#     4  10  20  35  57  87 122 158 202 255 305 362
#     4  12  26  44  68  93 124 166 213 265 322 383
#     4  11  22  38  61  87 122 163 199 250 309 367
#     4  10  23  43  65  92 128 165 209 263 318 378
#
# _framework density 20.592597999999999
#
# number of rings (size 3 to 8) (size 9 to 14) (size 15 to 20)
#    0.000    1.429    1.429    3.857    0.000    4.571 
#    0.000    0.000    0.000    0.000    0.000    0.000 
#    0.000    0.000    0.000    0.000    0.000    0.000 
#
# Total GULP energy -694686.230360 kJ/mol
# GULP energy per Si atom -12405.111256 kJ/mol
# Density = 2.054573 g / cm^3
# Si number density = 20.592598 Si / 1000 Ang^3
#
#
#
# Elastic Constant Matrix: (Units=GPa)
#
#
# Indices 1 2 3 4 5 6 
#
# 1 115.5001 50.2490 21.5408 0.0000 0.0000 0.0000
# 2 50.2490 94.0491 28.8783 0.0000 0.0000 0.0000
# 3 21.5408 28.8783 73.6196 0.0000 0.0000 0.0000
# 4 0.0000 0.0000 0.0000 31.0312 0.0000 0.0000
# 5 0.0000 0.0000 0.0000 0.0000 30.7774 0.0000
# 6 0.0000 0.0000 0.0000 0.0000 0.0000 38.4694
#
#
#
# Elastic Compliance Matrix: (Units=1/GPa)
#
#
# Indices 1 2 3 4 5 6 
#
# 1 0.011354 -0.005737 -0.001072 0.000000 0.000000 0.000000
# 2 -0.005737 0.014988 -0.004201 0.000000 0.000000 0.000000
# 3 -0.001072 -0.004201 0.015545 0.000000 0.000000 0.000000
# 4 0.000000 0.000000 0.000000 0.032226 0.000000 0.000000
# 5 0.000000 0.000000 0.000000 0.000000 0.032491 0.000000
# 6 0.000000 0.000000 0.000000 0.000000 0.000000 0.025995
#
#
# Mechanical properties :
#
#
# Convention : Reuss Voigt Hill
#
# Bulk Modulus (GPa) = 50.33292 53.83389 52.08340
# Shear Modulus (GPa) = 31.00987 32.22231 31.61609
#
# Velocity S-wave (km/s) = 3.88477 3.95999 3.92256
# Velocity P-wave (km/s) = 6.67961 6.86351 6.77218
#
# Compressibility (1/GPa) = 0.01986771
#
# Stress axis : x y z
#
# Youngs Moduli (GPa) = 88.07608 66.72100 64.33102
#
# Poissons Ratio (x) = 0.38279 0.06894
# Poissons Ratio (y) = 0.50530 0.27022
# Poissons Ratio (z) = 0.09438 0.28026
#
# Static dielectric constant tensor:
#      x y z
#    x 3.776840 0.000000 0.000000 
#    y 0.000000 3.737990 0.000000 
#    z 0.000000 0.000000 3.701790 
# 
# 
# High freq. dielectric constant tensor:
#      x y z
#    x 1.813860 0.000000 0.000000 
#    y 0.000000 1.808110 0.000000 
#    z 0.000000 0.000000 1.802480 
# 
# From -- ./inp_files/20425.got.cif
#   From: 2010.03.12/outbox.cif.g09.slc.cpg/sg62_11_cif.got.tgz:20425.got - 2010.04.10 19:12:36.
