data_PCOD8252572
_publ_section_title
;
Structure prediction by ZEFSAII (Michael W. Deem and Ramdas Pophale) SiO2 
 PCOD8252572
Probable space group: P N M A
;
_chemical_formula_sum "Si O2"
_cell_formula_units_Z 52
_cell_length_a 8.894088
_cell_length_b 26.034104
_cell_length_c 10.775159
_cell_angle_alpha 90.000000
_cell_angle_beta 90.000000
_cell_angle_gamma 90.000000
_cell_volume 2494.983885
_symmetry_space_group_name_H-M "P N M A"
_symmetry_group_IT_number 62
_symmetry_cell_setting 'orthorhombic'
loop_
_space_group_symop_operation_xyz
x,y,z
1/2-x,-y,1/2+z
1/2+x,1/2-y,1/2-z
-x,1/2+y,-z
-x,-y,-z
1/2+x,y,1/2-z
1/2-x,1/2+y,1/2+z
x,1/2-y,z
loop_
_atom_site_type_symbol
_atom_site_label
_atom_site_fract_x
_atom_site_fract_y
_atom_site_fract_z
Si Si1 0.997960 0.640988 0.102776
Si Si2 0.889390 0.250000 0.160238
Si Si3 0.501354 0.550095 0.082632
Si Si4 0.479882 0.861673 0.900950
Si Si5 0.651919 0.860245 0.642854
Si Si6 0.113966 0.250000 0.961217
Si Si7 0.435675 0.250000 0.055258
Si Si8 0.256027 0.086133 0.749202
O O1 0.953328 0.700715 0.109136
O O2 0.856529 0.608727 0.149038
O O3 0.144899 0.631809 0.188049
O O4 0.035918 0.620801 0.962990
O O5 0.807632 0.199258 0.111484
O O6 0.879810 0.250000 0.305816
O O7 0.060640 0.250000 0.106085
O O8 0.631418 0.545218 0.186710
O O9 0.337137 0.556173 0.143872
O O10 0.500000 0.500000 0.000000
O O11 0.546835 0.600628 0.004214
O O12 0.581878 0.865964 0.778562
O O13 0.316196 0.885418 0.866269
O O14 0.474223 0.803931 0.960182
O O15 0.294542 0.250000 0.961189
#
# Coordination Sequence:
#
# PCOD8252572 Si02
#       8
#     8   4   8   8   8   4   4   8
#     4  10  21  41  64  92 134 169 221 260 325 372
#     4   8  19  28  50  78 128 161 202 253 309 364
#     4  11  25  47  69  95 129 166 221 264 330 389
#     4  11  23  37  63  94 133 167 215 268 320 383
#     4  10  21  35  58  92 127 168 212 263 318 379
#     4  10  20  34  56  91 125 177 218 254 306 389
#     4  10  21  32  60  91 131 172 214 257 333 369
#     4  10  23  46  68  89 127 171 205 280 320 379
#
# _framework density 20.841818
#
# number of rings (size 3 to 8) (size 9 to 14) (size 15 to 20)
#    0.000    1.846    1.538    1.385   15.077    1.846 
#    0.000    4.615    0.000    0.000    0.000    0.000 
#    0.000    0.000    0.000    0.000    0.000    0.000 
#
# Total GULP energy -644404.374288 kJ/mol
# GULP energy per Si atom -12392.391813 kJ/mol
# Density = 2.079438 g / cm^3
# Si number density = 20.841818 Si / 1000 Ang^3
#
#
#
# Elastic Constant Matrix: (Units=GPa)
#
#
# Indices 1 2 3 4 5 6 
#
# 1 127.7899 42.8995 50.0112 0.0000 0.0000 0.0000
# 2 42.8995 101.4858 53.5177 0.0000 0.0000 0.0000
# 3 50.0112 53.5177 99.8047 0.0000 0.0000 0.0000
# 4 0.0000 0.0000 0.0000 32.0997 0.0000 0.0000
# 5 0.0000 0.0000 0.0000 0.0000 40.8391 0.0000
# 6 0.0000 0.0000 0.0000 0.0000 0.0000 16.0550
#
#
#
# Elastic Compliance Matrix: (Units=1/GPa)
#
#
# Indices 1 2 3 4 5 6 
#
# 1 0.010083 -0.002228 -0.003858 0.000000 0.000000 0.000000
# 2 -0.002228 0.014231 -0.006515 0.000000 0.000000 0.000000
# 3 -0.003858 -0.006515 0.015446 0.000000 0.000000 0.000000
# 4 0.000000 0.000000 0.000000 0.031153 0.000000 0.000000
# 5 0.000000 0.000000 0.000000 0.000000 0.024486 0.000000
# 6 0.000000 0.000000 0.000000 0.000000 0.000000 0.062286
#
#
# Mechanical properties :
#
#
# Convention : Reuss Voigt Hill
#
# Bulk Modulus (GPa) = 68.68489 69.10414 68.89451
# Shear Modulus (GPa) = 26.63279 29.97555 28.30417
#
# Velocity S-wave (km/s) = 3.57859 3.79653 3.68917
# Velocity P-wave (km/s) = 7.07827 7.24201 7.16061
#
# Compressibility (1/GPa) = 0.01455924
#
# Stress axis : x y z
#
# Youngs Moduli (GPa) = 99.17638 70.27062 64.74174
#
# Poissons Ratio (x) = 0.15655 0.24977
# Poissons Ratio (y) = 0.22095 0.42176
# Poissons Ratio (z) = 0.38261 0.45778
#
# Static dielectric constant tensor:
#      x y z
#    x 3.841040 0.000000 0.000000 
#    y 0.000000 3.676020 0.000000 
#    z 0.000000 0.000000 3.770200 
# 
# 
# High freq. dielectric constant tensor:
#      x y z
#    x 1.826970 0.000000 0.000000 
#    y 0.000000 1.784260 0.000000 
#    z 0.000000 0.000000 1.814870 
# 
# From -- ./inp_files/11425.got.cif
#   From: 2010.03.12/outbox.cif.g09.slc.cpg/sg62_6_cif.got.tgz:11425.got - 2010.04.10 19:12:36.
