data_PCOD8252263
_publ_section_title
;
Structure prediction by ZEFSAII (Michael W. Deem and Ramdas Pophale) SiO2 
 PCOD8252263
Probable space group: P N M A
;
_chemical_formula_sum "Si O2"
_cell_formula_units_Z 64
_cell_length_a 27.395115
_cell_length_b 9.456468
_cell_length_c 14.659366
_cell_angle_alpha 90.000000
_cell_angle_beta 90.000000
_cell_angle_gamma 90.000000
_cell_volume 3797.670431
_symmetry_space_group_name_H-M "P N M A"
_symmetry_group_IT_number 62
_symmetry_cell_setting 'orthorhombic'
loop_
_space_group_symop_operation_xyz
x,y,z
1/2-x,-y,1/2+z
1/2+x,1/2-y,1/2-z
-x,1/2+y,-z
-x,-y,-z
1/2+x,y,1/2-z
1/2-x,1/2+y,1/2+z
x,1/2-y,z
loop_
_atom_site_type_symbol
_atom_site_label
_atom_site_fract_x
_atom_site_fract_y
_atom_site_fract_z
Si Si1 0.629757 0.917323 0.784990
Si Si2 0.670429 0.916016 0.597405
Si Si3 0.227302 0.405543 0.349589
Si Si4 0.942690 0.915186 0.406223
Si Si5 0.857161 0.086257 0.707754
Si Si6 0.320663 0.414850 0.599095
Si Si7 0.445055 0.411814 0.915853
Si Si8 0.765444 0.095736 0.352665
O O1 0.618042 0.750000 0.789587
O O2 0.636243 0.971836 0.679604
O O3 0.678429 0.954270 0.842810
O O4 0.585532 0.007334 0.825017
O O5 0.676077 0.750000 0.616069
O O6 0.725903 0.976407 0.600783
O O7 0.649882 0.949840 0.495474
O O8 0.214110 0.250000 0.389384
O O9 0.180319 0.505978 0.359135
O O10 0.241168 0.390487 0.244974
O O11 0.929003 0.750000 0.409340
O O12 0.999675 0.939635 0.385369
O O13 0.928828 0.985422 0.502640
O O14 0.843687 0.250000 0.700869
O O15 0.852474 0.034569 0.813556
O O16 0.911743 0.055750 0.672516
O O17 0.309966 0.250000 0.605644
O O18 0.267171 0.485620 0.591047
O O19 0.438168 0.250000 0.949285
O O20 0.764029 0.250000 0.400629
#
# Coordination Sequence:
#
# PCOD8252263 Si02
#       8
#     8   8   8   8   8   8   8   8
#     4   9  17  31  49  66  90 123 152 180 220 269
#     4   8  15  28  45  65  91 124 155 179 210 256
#     4   8  14  26  42  60  86 118 149 180 212 249
#     4  10  20  33  50  70  88 110 146 190 230 269
#     4   9  17  29  46  67  90 117 148 183 223 265
#     4   9  16  27  45  68  92 119 154 189 214 249
#     4   9  19  35  50  66  91 118 143 178 231 286
#     4   8  15  27  41  59  86 120 151 178 216 260
#
# _framework density 16.852436000000001
#
# number of rings (size 3 to 8) (size 9 to 14) (size 15 to 20)
#    0.000    3.250    0.000    1.875    0.000    2.500 
#    0.000    5.625    0.000    0.750    0.000    0.000 
#    0.000    0.000    0.000    0.000    0.000    0.375 
#
# Total GULP energy -792963.804819 kJ/mol
# GULP energy per Si atom -12390.059450 kJ/mol
# Density = 1.681408 g / cm^3
# Si number density = 16.852436 Si / 1000 Ang^3
#
#
#
# Elastic Constant Matrix: (Units=GPa)
#
#
# Indices 1 2 3 4 5 6 
#
# 1 84.5952 39.6331 54.8859 0.0000 0.0000 0.0000
# 2 39.6331 57.5439 41.4179 0.0000 0.0000 0.0000
# 3 54.8859 41.4179 104.8779 0.0000 0.0000 0.0000
# 4 0.0000 0.0000 0.0000 17.4952 0.0000 0.0000
# 5 0.0000 0.0000 0.0000 0.0000 23.5655 0.0000
# 6 0.0000 0.0000 0.0000 0.0000 0.0000 25.2027
#
#
#
# Elastic Compliance Matrix: (Units=1/GPa)
#
#
# Indices 1 2 3 4 5 6 
#
# 1 0.020815 -0.009075 -0.007309 0.000000 0.000000 0.000000
# 2 -0.009075 0.028236 -0.006401 0.000000 0.000000 0.000000
# 3 -0.007309 -0.006401 0.015888 0.000000 0.000000 0.000000
# 4 0.000000 0.000000 0.000000 0.057158 0.000000 0.000000
# 5 0.000000 0.000000 0.000000 0.000000 0.042435 0.000000
# 6 0.000000 0.000000 0.000000 0.000000 0.000000 0.039678
#
#
# Mechanical properties :
#
#
# Convention : Reuss Voigt Hill
#
# Bulk Modulus (GPa) = 51.63357 57.65451 54.64404
# Shear Modulus (GPa) = 19.51305 20.65804 20.08554
#
# Velocity S-wave (km/s) = 3.40645 3.50497 3.45606
# Velocity P-wave (km/s) = 6.79537 7.11796 6.95854
#
# Compressibility (1/GPa) = 0.01936724
#
# Stress axis : x y z
#
# Youngs Moduli (GPa) = 48.04205 35.41555 62.94050
#
# Poissons Ratio (x) = 0.32141 0.46004
# Poissons Ratio (y) = 0.43600 0.40291
# Poissons Ratio (z) = 0.35115 0.22671
#
# Static dielectric constant tensor:
#      x y z
#    x 3.058100 0.000000 0.000000 
#    y 0.000000 3.296910 0.000000 
#    z 0.000000 0.000000 3.239340 
# 
# 
# High freq. dielectric constant tensor:
#      x y z
#    x 1.625250 0.000000 0.000000 
#    y 0.000000 1.638640 0.000000 
#    z 0.000000 0.000000 1.643830 
# 
# From -- ./inp_files/21240.got.cif
#   From: 2010.03.12/outbox.cif.g09.slc.cpg/sg62_11_cif.got.tgz:21240.got - 2010.04.10 19:12:36.
