data_PCOD8252084
_publ_section_title
;
Structure prediction by ZEFSAII (Michael W. Deem and Ramdas Pophale) SiO2 
 PCOD8252084
Probable space group: P N M A
;
_chemical_formula_sum "Si O2"
_cell_formula_units_Z 56
_cell_length_a 15.702880
_cell_length_b 8.882553
_cell_length_c 19.619661
_cell_angle_alpha 90.000000
_cell_angle_beta 90.000000
_cell_angle_gamma 90.000000
_cell_volume 2736.582961
_symmetry_space_group_name_H-M "P N M A"
_symmetry_group_IT_number 62
_symmetry_cell_setting 'orthorhombic'
loop_
_space_group_symop_operation_xyz
x,y,z
1/2-x,-y,1/2+z
1/2+x,1/2-y,1/2-z
-x,1/2+y,-z
-x,-y,-z
1/2+x,y,1/2-z
1/2-x,1/2+y,1/2+z
x,1/2-y,z
loop_
_atom_site_type_symbol
_atom_site_label
_atom_site_fract_x
_atom_site_fract_y
_atom_site_fract_z
Si Si1 0.777858 0.424918 0.129816
Si Si2 0.756466 0.074158 0.491628
Si Si3 0.061934 0.424690 0.697490
Si Si4 0.943495 0.426411 0.442234
Si Si5 0.470682 0.426040 0.335280
Si Si6 0.129084 0.927094 0.109262
Si Si7 0.254280 0.076784 0.734800
O O1 0.761022 0.250000 0.116534
O O2 0.877768 0.462623 0.135279
O O3 0.730746 0.473441 0.199281
O O4 0.737195 0.521071 0.069407
O O5 0.736173 0.250000 0.488454
O O6 0.844874 0.035062 0.455007
O O7 0.680538 0.984409 0.455813
O O8 0.038410 0.250000 0.693200
O O9 0.027682 0.505845 0.629985
O O10 0.014556 0.493623 0.762768
O O11 0.162299 0.453770 0.702620
O O12 0.960716 0.250000 0.442027
O O13 0.000000 0.500000 0.500000
O O14 0.484731 0.250000 0.325172
O O15 0.537603 0.492289 0.389420
O O16 0.116484 0.750000 0.101540
O O17 0.177529 0.971186 0.178526
O O18 0.263962 0.250000 0.756723
#
# Coordination Sequence:
#
# PCOD8252084 Si02
#       7
#     8   8   8   8   8   8   8
#     4  10  22  39  61  87 120 160 203 250 301 357
#     4  11  24  41  62  88 121 160 202 250 306 364
#     4  10  19  37  62  86 115 152 194 245 300 356
#     4  11  24  40  61  89 121 159 200 249 305 366
#     4  10  22  39  59  89 122 157 202 251 299 354
#     4  11  22  38  62  91 121 159 204 249 303 365
#     4   9  19  36  60  86 114 151 196 246 299 357
#
# _framework density 20.463476
#
# number of rings (size 3 to 8) (size 9 to 14) (size 15 to 20)
#    0.000    1.714    1.429    2.571    0.000    6.857 
#    0.000    1.429    0.000    0.000    0.000    0.000 
#    0.000    0.000    0.000    0.000    0.000    0.000 
#
# Total GULP energy -694773.030593 kJ/mol
# GULP energy per Si atom -12406.661261 kJ/mol
# Density = 2.041690 g / cm^3
# Si number density = 20.463476 Si / 1000 Ang^3
#
#
#
# Elastic Constant Matrix: (Units=GPa)
#
#
# Indices 1 2 3 4 5 6 
#
# 1 14.4970 21.1381 0.2323 0.0000 0.0000 0.0000
# 2 21.1381 87.5706 37.8990 0.0000 0.0000 0.0000
# 3 0.2323 37.8990 85.9034 0.0000 0.0000 0.0000
# 4 0.0000 0.0000 0.0000 44.1492 0.0000 0.0000
# 5 0.0000 0.0000 0.0000 0.0000 30.1196 0.0000
# 6 0.0000 0.0000 0.0000 0.0000 0.0000 31.3802
#
#
#
# Elastic Compliance Matrix: (Units=1/GPa)
#
#
# Indices 1 2 3 4 5 6 
#
# 1 0.121200 -0.035984 0.015548 0.000000 0.000000 0.000000
# 2 -0.035984 0.024798 -0.010843 0.000000 0.000000 0.000000
# 3 0.015548 -0.010843 0.016383 0.000000 0.000000 0.000000
# 4 0.000000 0.000000 0.000000 0.022650 0.000000 0.000000
# 5 0.000000 0.000000 0.000000 0.000000 0.033201 0.000000
# 6 0.000000 0.000000 0.000000 0.000000 0.000000 0.031867
#
#
# Mechanical properties :
#
#
# Convention : Reuss Voigt Hill
#
# Bulk Modulus (GPa) = 10.01794 34.05666 22.03730
# Shear Modulus (GPa) = 14.45370 29.70991 22.08180
#
# Velocity S-wave (km/s) = 2.66055 3.81445 3.28850
# Velocity P-wave (km/s) = 3.78737 6.00656 5.02110
#
# Compressibility (1/GPa) = 0.09982097
#
# Stress axis : x y z
#
# Youngs Moduli (GPa) = 8.25085 40.32564 61.03993
#
# Poissons Ratio (x) = 1.45109 -0.94904
# Poissons Ratio (y) = 0.29690 0.66186
# Poissons Ratio (z) = -0.12828 0.43726
#
# Static dielectric constant tensor:
#      x y z
#    x 3.580290 0.000000 0.000000 
#    y 0.000000 3.714360 0.000000 
#    z 0.000000 0.000000 3.666850 
# 
# 
# High freq. dielectric constant tensor:
#      x y z
#    x 1.792070 0.000000 0.000000 
#    y 0.000000 1.809910 0.000000 
#    z 0.000000 0.000000 1.806030 
# 
# From -- ./inp_files/27249.got.cif
#   From: 2010.03.12/outbox.cif.g09.slc.cpg/sg62_14_cif.got.tgz:27249.got - 2010.04.10 19:12:36.
