data_PCOD8252663
_publ_section_title
;
Structure prediction by ZEFSAII (Michael W. Deem and Ramdas Pophale) SiO2 
 PCOD8252663
Probable space group: P N M A
;
_chemical_formula_sum "Si O2"
_cell_formula_units_Z 64
_cell_length_a 17.449069
_cell_length_b 9.001632
_cell_length_c 20.512553
_cell_angle_alpha 90.000000
_cell_angle_beta 90.000000
_cell_angle_gamma 90.000000
_cell_volume 3221.908707
_symmetry_space_group_name_H-M "P N M A"
_symmetry_group_IT_number 62
_symmetry_cell_setting 'orthorhombic'
loop_
_space_group_symop_operation_xyz
x,y,z
1/2-x,-y,1/2+z
1/2+x,1/2-y,1/2-z
-x,1/2+y,-z
-x,-y,-z
1/2+x,y,1/2-z
1/2-x,1/2+y,1/2+z
x,1/2-y,z
loop_
_atom_site_type_symbol
_atom_site_label
_atom_site_fract_x
_atom_site_fract_y
_atom_site_fract_z
Si Si1 0.514009 0.914345 0.595161
Si Si2 0.680270 0.421174 0.119490
Si Si3 0.726343 0.424719 0.259789
Si Si4 0.263030 0.573191 0.018686
Si Si5 0.575496 0.576098 0.295775
Si Si6 0.883829 0.585621 0.009015
Si Si7 0.348104 0.078065 0.134353
Si Si8 0.981320 0.580071 0.672523
O O1 0.530543 0.750000 0.625214
O O2 0.458557 0.895400 0.534310
O O3 0.477325 0.026738 0.645424
O O4 0.594489 0.986924 0.572346
O O5 0.701474 0.250000 0.116143
O O6 0.722617 0.486663 0.184814
O O7 0.588428 0.445828 0.122118
O O8 0.709746 0.491998 0.051846
O O9 0.710257 0.250000 0.258323
O O10 0.657692 0.496934 0.300937
O O11 0.805669 0.463061 0.297035
O O12 0.257701 0.750000 0.020236
O O13 0.320022 0.522500 0.075208
O O14 0.180615 0.500605 0.032349
O O15 0.589498 0.750000 0.298651
O O16 0.529617 0.532892 0.231232
O O17 0.855032 0.750000 0.030024
O O18 0.332085 0.250000 0.117924
O O19 0.438025 0.043977 0.139211
O O20 0.979788 0.750000 0.698492
#
# Coordination Sequence:
#
# PCOD8252663 Si02
#       8
#     8   8   8   8   8   8   8   8
#     4  10  20  35  55  77 106 145 181 216 269 333
#     4   8  17  35  56  77 105 145 188 225 267 327
#     4   9  18  36  58  78 105 142 183 223 266 323
#     4  11  22  35  54  80 112 149 185 227 281 338
#     4  11  21  33  53  82 111 138 174 220 271 325
#     4  10  21  36  53  77 108 140 181 230 272 320
#     4  10  21  36  58  85 109 140 184 232 277 324
#     4   9  19  38  59  78 104 141 186 229 271 323
#
# _framework density 19.864001999999999
#
# number of rings (size 3 to 8) (size 9 to 14) (size 15 to 20)
#    0.000    2.250    0.000    3.750    0.000    7.000 
#    0.000    7.500    0.000    0.000    0.000    0.000 
#    0.000    0.000    0.000    0.000    0.000    0.000 
#
# Total GULP energy -793413.937445 kJ/mol
# GULP energy per Si atom -12397.092773 kJ/mol
# Density = 1.981879 g / cm^3
# Si number density = 19.864002 Si / 1000 Ang^3
#
#
#
# Elastic Constant Matrix: (Units=GPa)
#
#
# Indices 1 2 3 4 5 6 
#
# 1 74.9299 30.1064 25.7231 0.0000 0.0000 0.0000
# 2 30.1064 86.3922 30.1877 0.0000 0.0000 0.0000
# 3 25.7231 30.1877 77.0258 0.0000 0.0000 0.0000
# 4 0.0000 0.0000 0.0000 29.7933 0.0000 0.0000
# 5 0.0000 0.0000 0.0000 0.0000 26.4094 0.0000
# 6 0.0000 0.0000 0.0000 0.0000 0.0000 17.6452
#
#
#
# Elastic Compliance Matrix: (Units=1/GPa)
#
#
# Indices 1 2 3 4 5 6 
#
# 1 0.016404 -0.004406 -0.003752 0.000000 0.000000 0.000000
# 2 -0.004406 0.014595 -0.004249 0.000000 0.000000 0.000000
# 3 -0.003752 -0.004249 0.015901 0.000000 0.000000 0.000000
# 4 0.000000 0.000000 0.000000 0.033565 0.000000 0.000000
# 5 0.000000 0.000000 0.000000 0.000000 0.037865 0.000000
# 6 0.000000 0.000000 0.000000 0.000000 0.000000 0.056673
#
#
# Mechanical properties :
#
#
# Convention : Reuss Voigt Hill
#
# Bulk Modulus (GPa) = 45.27393 45.59803 45.43598
# Shear Modulus (GPa) = 24.13403 24.92497 24.52950
#
# Velocity S-wave (km/s) = 3.48941 3.54613 3.51789
# Velocity P-wave (km/s) = 6.25109 6.30648 6.27884
#
# Compressibility (1/GPa) = 0.02208777
#
# Stress axis : x y z
#
# Youngs Moduli (GPa) = 60.96140 68.51645 62.89045
#
# Poissons Ratio (x) = 0.30186 0.23593
# Poissons Ratio (y) = 0.26857 0.26721
# Poissons Ratio (z) = 0.22870 0.29111
#
# Static dielectric constant tensor:
#      x y z
#    x 3.598790 0.000000 0.000000 
#    y 0.000000 3.588900 0.000000 
#    z 0.000000 0.000000 3.726980 
# 
# 
# High freq. dielectric constant tensor:
#      x y z
#    x 1.773460 0.000000 0.000000 
#    y 0.000000 1.763190 0.000000 
#    z 0.000000 0.000000 1.767560 
# 
# From -- ./inp_files/27766.got.cif
#   From: 2010.03.12/outbox.cif.g09.slc.cpg/sg62_14_cif.got.tgz:27766.got - 2010.04.10 19:12:36.
