data_PCOD8252223
_publ_section_title
;
Structure prediction by ZEFSAII (Michael W. Deem and Ramdas Pophale) SiO2 
 PCOD8252223
Probable space group: P N M A
;
_chemical_formula_sum "Si O2"
_cell_formula_units_Z 64
_cell_length_a 33.487504
_cell_length_b 8.870577
_cell_length_c 11.795088
_cell_angle_alpha 90.000000
_cell_angle_beta 90.000000
_cell_angle_gamma 90.000000
_cell_volume 3503.771970
_symmetry_space_group_name_H-M "P N M A"
_symmetry_group_IT_number 62
_symmetry_cell_setting 'orthorhombic'
loop_
_space_group_symop_operation_xyz
x,y,z
1/2-x,-y,1/2+z
1/2+x,1/2-y,1/2-z
-x,1/2+y,-z
-x,-y,-z
1/2+x,y,1/2-z
1/2-x,1/2+y,1/2+z
x,1/2-y,z
loop_
_atom_site_type_symbol
_atom_site_label
_atom_site_fract_x
_atom_site_fract_y
_atom_site_fract_z
Si Si1 0.403360 0.919731 0.315306
Si Si2 0.195198 0.071296 0.441345
Si Si3 0.177694 0.421483 0.691329
Si Si4 0.215777 0.927961 0.899240
Si Si5 0.053428 0.572885 0.405717
Si Si6 0.355552 0.929536 0.523673
Si Si7 0.625971 0.071211 0.221833
Si Si8 0.036423 0.071803 0.638472
O O1 0.414626 0.750000 0.346938
O O2 0.368615 0.928029 0.222252
O O3 0.388395 0.995742 0.433286
O O4 0.442305 0.991756 0.253752
O O5 0.194608 0.250000 0.435327
O O6 0.182157 0.014130 0.565007
O O7 0.239397 0.010348 0.415881
O O8 0.163623 0.008430 0.349529
O O9 0.193777 0.250000 0.701059
O O10 0.203251 0.527414 0.772934
O O11 0.213178 0.750000 0.914674
O O12 0.187734 0.003808 0.993967
O O13 0.060124 0.750000 0.412648
O O14 0.085435 0.501296 0.322160
O O15 0.057373 0.505799 0.531159
O O16 0.010131 0.531208 0.354260
O O17 0.352075 0.750000 0.510646
O O18 0.368183 0.980197 0.648454
O O19 0.622230 0.250000 0.211959
O O20 0.043696 0.250000 0.625672
#
# Coordination Sequence:
#
# PCOD8252223 Si02
#       8
#     8   8   8   8   8   8   8   8
#     4   8  14  29  53  75  92 124 172 207 239 292
#     4   9  19  33  51  73  96 130 169 203 246 304
#     4   9  17  32  51  70  94 125 165 203 236 290
#     4  10  20  33  50  74 102 128 161 209 259 298
#     4  10  20  32  49  79 110 132 165 214 262 302
#     4   9  19  35  55  74  96 133 176 211 244 301
#     4  10  20  36  55  72  98 138 176 206 246 306
#     4   9  17  32  55  76 102 139 170 205 255 311
#
# _framework density 18.266029
#
# number of rings (size 3 to 8) (size 9 to 14) (size 15 to 20)
#    0.000    2.750    0.000    2.250    1.750    3.000 
#    0.000    8.125    0.000    0.000    0.000    0.000 
#    0.000    0.000    0.000    0.000    0.000    0.000 
#
# Total GULP energy -793368.327867 kJ/mol
# GULP energy per Si atom -12396.380123 kJ/mol
# Density = 1.822445 g / cm^3
# Si number density = 18.266029 Si / 1000 Ang^3
#
#
#
# Elastic Constant Matrix: (Units=GPa)
#
#
# Indices 1 2 3 4 5 6 
#
# 1 120.8869 28.4736 88.5697 0.0000 0.0000 0.0000
# 2 28.4736 32.0832 31.7901 0.0000 0.0000 0.0000
# 3 88.5697 31.7901 160.8235 0.0000 0.0000 0.0000
# 4 0.0000 0.0000 0.0000 21.0911 0.0000 0.0000
# 5 0.0000 0.0000 0.0000 0.0000 28.3450 0.0000
# 6 0.0000 0.0000 0.0000 0.0000 0.0000 25.9282
#
#
#
# Elastic Compliance Matrix: (Units=1/GPa)
#
#
# Indices 1 2 3 4 5 6 
#
# 1 0.014826 -0.006302 -0.006919 0.000000 0.000000 0.000000
# 2 -0.006302 0.041439 -0.004721 0.000000 0.000000 0.000000
# 3 -0.006919 -0.004721 0.010962 0.000000 0.000000 0.000000
# 4 0.000000 0.000000 0.000000 0.047413 0.000000 0.000000
# 5 0.000000 0.000000 0.000000 0.000000 0.035280 0.000000
# 6 0.000000 0.000000 0.000000 0.000000 0.000000 0.038568
#
#
# Mechanical properties :
#
#
# Convention : Reuss Voigt Hill
#
# Bulk Modulus (GPa) = 31.90472 67.94003 49.92238
# Shear Modulus (GPa) = 21.29285 26.07020 23.68152
#
# Velocity S-wave (km/s) = 3.41795 3.78200 3.60457
# Velocity P-wave (km/s) = 5.75162 7.50645 6.68685
#
# Compressibility (1/GPa) = 0.03134332
#
# Stress axis : x y z
#
# Youngs Moduli (GPa) = 67.44819 24.13158 91.22523
#
# Poissons Ratio (x) = 0.15207 0.63123
# Poissons Ratio (y) = 0.42505 0.43065
# Poissons Ratio (z) = 0.46671 0.11392
#
# Static dielectric constant tensor:
#      x y z
#    x 3.494630 0.000000 0.000000 
#    y 0.000000 3.078770 0.000000 
#    z 0.000000 0.000000 3.529070 
# 
# 
# High freq. dielectric constant tensor:
#      x y z
#    x 1.710710 0.000000 0.000000 
#    y 0.000000 1.677460 0.000000 
#    z 0.000000 0.000000 1.711900 
# 
# From -- ./inp_files/15906.got.cif
#   From: 2010.03.12/outbox.cif.g09.slc.cpg/sg62_8_cif.got.tgz:15906.got - 2010.04.10 19:12:36.
