data_PCOD8252033
_publ_section_title
;
Structure prediction by ZEFSAII (Michael W. Deem and Ramdas Pophale) SiO2 
 PCOD8252033
Probable space group: P N M A
;
_chemical_formula_sum "Si O2"
_cell_formula_units_Z 56
_cell_length_a 11.755273
_cell_length_b 14.422591
_cell_length_c 16.632371
_cell_angle_alpha 90.000000
_cell_angle_beta 90.000000
_cell_angle_gamma 90.000000
_cell_volume 2819.877038
_symmetry_space_group_name_H-M "P N M A"
_symmetry_group_IT_number 62
_symmetry_cell_setting 'orthorhombic'
loop_
_space_group_symop_operation_xyz
x,y,z
1/2-x,-y,1/2+z
1/2+x,1/2-y,1/2-z
-x,1/2+y,-z
-x,-y,-z
1/2+x,y,1/2-z
1/2-x,1/2+y,1/2+z
x,1/2-y,z
loop_
_atom_site_type_symbol
_atom_site_label
_atom_site_fract_x
_atom_site_fract_y
_atom_site_fract_z
Si Si1 0.902164 0.971386 0.826133
Si Si2 0.243401 0.645419 0.307083
Si Si3 0.483059 0.854765 0.379038
Si Si4 0.810213 0.856204 0.529656
Si Si5 0.319084 0.555643 0.141309
Si Si6 0.449042 0.143535 0.445822
Si Si7 0.073687 0.488232 0.348057
O O1 0.988529 0.910882 0.876155
O O2 0.948902 0.078013 0.818398
O O3 0.775980 0.973563 0.864997
O O4 0.899630 0.933047 0.734878
O O5 0.196403 0.750000 0.300943
O O6 0.348701 0.640337 0.368160
O O7 0.289704 0.613728 0.220677
O O8 0.145767 0.583102 0.347214
O O9 0.529510 0.750000 0.366555
O O10 0.510369 0.893289 0.467837
O O11 0.848923 0.750000 0.541702
O O12 0.811731 0.877334 0.435088
O O13 0.684807 0.872084 0.565271
O O14 0.895204 0.923672 0.576766
O O15 0.440927 0.508717 0.145667
O O16 0.483777 0.250000 0.437121
#
# Coordination Sequence:
#
# PCOD8252033 Si02
#       7
#     8   8   8   8   8   8   8
#     4  11  22  38  66  87 120 159 199 253 303 355
#     4  10  22  38  63  95 126 159 197 251 310 367
#     4  10  19  36  62  94 119 146 196 251 306 359
#     4  11  24  42  64  88 122 165 209 251 301 363
#     4  11  23  40  61  90 126 163 201 248 307 371
#     4  10  22  39  64  92 117 155 207 258 300 350
#     4  11  25  41  60  90 128 162 207 245 306 370
#
# _framework density 19.859022
#
# number of rings (size 3 to 8) (size 9 to 14) (size 15 to 20)
#    0.000    1.429    2.857    2.143    4.000    4.000 
#    0.000    0.714    0.000    0.000    0.000    0.000 
#    0.000    0.000    0.000    0.000    0.000    0.000 
#
# Total GULP energy -694505.162551 kJ/mol
# GULP energy per Si atom -12401.877903 kJ/mol
# Density = 1.981382 g / cm^3
# Si number density = 19.859022 Si / 1000 Ang^3
#
#
#
# Elastic Constant Matrix: (Units=GPa)
#
#
# Indices 1 2 3 4 5 6 
#
# 1 126.3732 46.2133 20.7950 0.0000 0.0000 0.0000
# 2 46.2133 79.0220 33.9219 0.0000 0.0000 0.0000
# 3 20.7950 33.9219 58.2453 0.0000 0.0000 0.0000
# 4 0.0000 0.0000 0.0000 19.1946 0.0000 0.0000
# 5 0.0000 0.0000 0.0000 0.0000 31.7613 0.0000
# 6 0.0000 0.0000 0.0000 0.0000 0.0000 17.8345
#
#
#
# Elastic Compliance Matrix: (Units=1/GPa)
#
#
# Indices 1 2 3 4 5 6 
#
# 1 0.010068 -0.005793 -0.000221 0.000000 0.000000 0.000000
# 2 -0.005793 0.020207 -0.009700 0.000000 0.000000 0.000000
# 3 -0.000221 -0.009700 0.022897 0.000000 0.000000 0.000000
# 4 0.000000 0.000000 0.000000 0.052098 0.000000 0.000000
# 5 0.000000 0.000000 0.000000 0.000000 0.031485 0.000000
# 6 0.000000 0.000000 0.000000 0.000000 0.000000 0.056071
#
#
# Mechanical properties :
#
#
# Convention : Reuss Voigt Hill
#
# Bulk Modulus (GPa) = 45.99006 51.72234 48.85620
# Shear Modulus (GPa) = 21.59825 24.60543 23.10184
#
# Velocity S-wave (km/s) = 3.30142 3.52377 3.41441
# Velocity P-wave (km/s) = 6.14338 6.53125 6.34028
#
# Compressibility (1/GPa) = 0.02174383
#
# Stress axis : x y z
#
# Youngs Moduli (GPa) = 99.32595 49.48889 43.67435
#
# Poissons Ratio (x) = 0.28670 0.00963
# Poissons Ratio (y) = 0.57541 0.42364
# Poissons Ratio (z) = 0.02190 0.48004
#
# Static dielectric constant tensor:
#      x y z
#    x 3.736140 0.000000 0.000000 
#    y 0.000000 3.571970 0.000000 
#    z 0.000000 0.000000 3.672740 
# 
# 
# High freq. dielectric constant tensor:
#      x y z
#    x 1.784950 0.000000 0.000000 
#    y 0.000000 1.759580 0.000000 
#    z 0.000000 0.000000 1.778990 
# 
# From -- ./inp_files/18067.got.cif
#   From: 2010.03.12/outbox.cif.g09.slc.cpg/sg62_10_cif.got.tgz:18067.got - 2010.04.10 19:12:36.
