data_PCOD8252888
_publ_section_title
;
Structure prediction by ZEFSAII (Michael W. Deem and Ramdas Pophale) SiO2 
 PCOD8252888
Probable space group: P N M A
;
_chemical_formula_sum "Si O2"
_cell_formula_units_Z 64
_cell_length_a 22.978489
_cell_length_b 14.999045
_cell_length_c 9.642474
_cell_angle_alpha 90.000000
_cell_angle_beta 90.000000
_cell_angle_gamma 90.000000
_cell_volume 3323.330642
_symmetry_space_group_name_H-M "P N M A"
_symmetry_group_IT_number 62
_symmetry_cell_setting 'orthorhombic'
loop_
_space_group_symop_operation_xyz
x,y,z
1/2-x,-y,1/2+z
1/2+x,1/2-y,1/2-z
-x,1/2+y,-z
-x,-y,-z
1/2+x,y,1/2-z
1/2-x,1/2+y,1/2+z
x,1/2-y,z
loop_
_atom_site_type_symbol
_atom_site_label
_atom_site_fract_x
_atom_site_fract_y
_atom_site_fract_z
Si Si1 0.267180 0.650798 0.976759
Si Si2 0.248678 0.647032 0.295495
Si Si3 0.133112 0.558328 0.221184
Si Si4 0.576111 0.009712 0.778310
Si Si5 0.679112 0.502602 0.569415
Si Si6 0.515193 0.848137 0.917125
Si Si7 0.521007 0.647668 0.235146
Si Si8 0.609448 0.088150 0.064326
O O1 0.242809 0.750000 0.949769
O O2 0.224376 0.582466 0.899038
O O3 0.331432 0.642988 0.913645
O O4 0.271693 0.631926 0.140357
O O5 0.252250 0.750000 0.341270
O O6 0.182105 0.614233 0.303178
O O7 0.288963 0.591175 0.401107
O O8 0.079846 0.624252 0.179226
O O9 0.104240 0.487045 0.320877
O O10 0.159785 0.507513 0.089713
O O11 0.622729 0.984481 0.663018
O O12 0.540274 0.920534 0.812237
O O13 0.532631 0.085214 0.718001
O O14 0.609749 0.044441 0.912614
O O15 0.536676 0.750000 0.871183
O O16 0.445136 0.847163 0.915903
O O17 0.535564 0.869737 0.073253
O O18 0.503153 0.750000 0.263576
#
# Coordination Sequence:
#
# PCOD8252888 Si02
#       8
#     8   8   8   8   8   8   8   8
#     4  10  21  38  63  88 115 155 203 247 291 352
#     4  10  21  39  61  86 117 160 201 239 293 359
#     4  11  21  38  63  86 119 156 197 248 302 351
#     4  11  21  38  61  88 118 158 196 244 297 358
#     4  11  24  37  61  89 123 156 198 243 302 358
#     4  10  20  35  59  90 116 152 201 249 293 348
#     4  10  20  37  62  90 116 154 208 248 287 353
#     4  11  18  37  64  84 115 154 199 243 298 347
#
# _framework density 19.257788999999999
#
# number of rings (size 3 to 8) (size 9 to 14) (size 15 to 20)
#    0.000    1.500    5.000    1.500    0.000    2.500 
#    0.000    1.250    0.000    0.000    0.000    0.000 
#    0.000    0.000    0.000    0.000    0.000    0.000 
#
# Total GULP energy -793697.789142 kJ/mol
# GULP energy per Si atom -12401.527955 kJ/mol
# Density = 1.921396 g / cm^3
# Si number density = 19.257789 Si / 1000 Ang^3
#
#
#
# Elastic Constant Matrix: (Units=GPa)
#
#
# Indices 1 2 3 4 5 6 
#
# 1 117.1996 54.9208 38.6660 0.0000 0.0000 0.0000
# 2 54.9208 136.5105 37.8171 0.0000 0.0000 0.0000
# 3 38.6660 37.8171 39.9398 0.0000 0.0000 0.0000
# 4 0.0000 0.0000 0.0000 24.0630 0.0000 0.0000
# 5 0.0000 0.0000 0.0000 0.0000 33.0878 0.0000
# 6 0.0000 0.0000 0.0000 0.0000 0.0000 22.6462
#
#
#
# Elastic Compliance Matrix: (Units=1/GPa)
#
#
# Indices 1 2 3 4 5 6 
#
# 1 0.013083 -0.002379 -0.010413 0.000000 0.000000 0.000000
# 2 -0.002379 0.010363 -0.007509 0.000000 0.000000 0.000000
# 3 -0.010413 -0.007509 0.042229 0.000000 0.000000 0.000000
# 4 0.000000 0.000000 0.000000 0.041558 0.000000 0.000000
# 5 0.000000 0.000000 0.000000 0.000000 0.030223 0.000000
# 6 0.000000 0.000000 0.000000 0.000000 0.000000 0.044158
#
#
# Mechanical properties :
#
#
# Convention : Reuss Voigt Hill
#
# Bulk Modulus (GPa) = 39.88484 61.82864 50.85674
# Shear Modulus (GPa) = 21.68532 26.77578 24.23055
#
# Velocity S-wave (km/s) = 3.35931 3.73283 3.55099
# Velocity P-wave (km/s) = 5.98353 7.12420 6.57863
#
# Compressibility (1/GPa) = 0.02507218
#
# Stress axis : x y z
#
# Youngs Moduli (GPa) = 76.43774 96.50034 23.68062
#
# Poissons Ratio (x) = 0.22954 0.24659
# Poissons Ratio (y) = 0.18182 0.17782
# Poissons Ratio (z) = 0.79595 0.72463
#
# Static dielectric constant tensor:
#      x y z
#    x 3.592760 0.000000 0.000000 
#    y 0.000000 3.543790 0.000000 
#    z 0.000000 0.000000 3.182780 
# 
# 
# High freq. dielectric constant tensor:
#      x y z
#    x 1.763630 0.000000 0.000000 
#    y 0.000000 1.756580 0.000000 
#    z 0.000000 0.000000 1.711670 
# 
# From -- ./inp_files/9498.got.cif
#   From: 2010.03.12/outbox.cif.g09.slc.cpg/sg62_5_cif.got.tgz:9498.got - 2010.04.10 19:12:36.
