data_PCOD8252971
_publ_section_title
;
Structure prediction by ZEFSAII (Michael W. Deem and Ramdas Pophale) SiO2 
 PCOD8252971
Probable space group: P N M A
;
_chemical_formula_sum "Si O2"
_cell_formula_units_Z 48
_cell_length_a 10.113688
_cell_length_b 8.701413
_cell_length_c 29.440725
_cell_angle_alpha 90.000000
_cell_angle_beta 90.000000
_cell_angle_gamma 90.000000
_cell_volume 2590.883199
_symmetry_space_group_name_H-M "P N M A"
_symmetry_group_IT_number 62
_symmetry_cell_setting 'orthorhombic'
loop_
_space_group_symop_operation_xyz
x,y,z
1/2-x,-y,1/2+z
1/2+x,1/2-y,1/2-z
-x,1/2+y,-z
-x,-y,-z
1/2+x,y,1/2-z
1/2-x,1/2+y,1/2+z
x,1/2-y,z
loop_
_atom_site_type_symbol
_atom_site_label
_atom_site_fract_x
_atom_site_fract_y
_atom_site_fract_z
Si Si1 0.136111 0.568910 0.216844
Si Si2 0.131248 0.572475 0.555154
Si Si3 0.644760 0.927529 0.051425
Si Si4 0.360177 0.068953 0.386192
Si Si5 0.141745 0.931206 0.114904
Si Si6 0.659432 0.066881 0.710134
O O1 0.142892 0.750000 0.222026
O O2 0.180558 0.519939 0.166262
O O3 0.235644 0.496944 0.253947
O O4 0.986467 0.511629 0.225780
O O5 0.130256 0.750000 0.569333
O O6 0.158734 0.550437 0.502194
O O7 0.244617 0.483673 0.581486
O O8 0.992430 0.497762 0.569211
O O9 0.650536 0.750000 0.065732
O O10 0.764071 0.019851 0.073496
O O11 0.362706 0.250000 0.381498
O O12 0.505393 0.010588 0.399373
O O13 0.306731 0.997681 0.339342
O O14 0.120206 0.750000 0.111464
O O15 0.665097 0.250000 0.707169
#
# Coordination Sequence:
#
# PCOD8252971 Si02
#       6
#     8   8   8   8   8   8
#     4   8  16  30  51  76 101 134 176 217 255 311
#     4  10  21  37  57  83 111 138 174 222 271 316
#     4  10  21  38  58  79 107 144 181 217 263 322
#     4  11  22  36  54  79 110 142 180 227 273 313
#     4  10  20  36  57  81 109 144 183 219 264 321
#     4   9  17  33  53  74 102 136 176 218 262 315
#
# _framework density 18.526501
#
# number of rings (size 3 to 8) (size 9 to 14) (size 15 to 20)
#    0.000    2.333    0.000    4.000    0.000    4.000 
#    0.000    7.500    0.000    0.000    0.000    0.000 
#    0.000    0.000    0.000    0.000    0.000    0.000 
#
# Total GULP energy -595261.188044 kJ/mol
# GULP energy per Si atom -12401.274751 kJ/mol
# Density = 1.848433 g / cm^3
# Si number density = 18.526501 Si / 1000 Ang^3
#
#
#
# Elastic Constant Matrix: (Units=GPa)
#
#
# Indices 1 2 3 4 5 6 
#
# 1 117.8698 37.7122 64.3240 0.0000 0.0000 0.0000
# 2 37.7122 68.7587 33.1601 0.0000 0.0000 0.0000
# 3 64.3240 33.1601 66.3740 0.0000 0.0000 0.0000
# 4 0.0000 0.0000 0.0000 23.1583 0.0000 0.0000
# 5 0.0000 0.0000 0.0000 0.0000 74.2371 0.0000
# 6 0.0000 0.0000 0.0000 0.0000 0.0000 28.8011
#
#
#
# Elastic Compliance Matrix: (Units=1/GPa)
#
#
# Indices 1 2 3 4 5 6 
#
# 1 0.018203 -0.001945 -0.016669 0.000000 0.000000 0.000000
# 2 -0.001945 0.019368 -0.007791 0.000000 0.000000 0.000000
# 3 -0.016669 -0.007791 0.035113 0.000000 0.000000 0.000000
# 4 0.000000 0.000000 0.000000 0.043181 0.000000 0.000000
# 5 0.000000 0.000000 0.000000 0.000000 0.013470 0.000000
# 6 0.000000 0.000000 0.000000 0.000000 0.000000 0.034721
#
#
# Mechanical properties :
#
#
# Convention : Reuss Voigt Hill
#
# Bulk Modulus (GPa) = 50.31907 58.15500 54.23704
# Shear Modulus (GPa) = 22.37235 33.09304 27.73269
#
# Velocity S-wave (km/s) = 3.47880 4.23099 3.87320
# Velocity P-wave (km/s) = 6.58450 7.43819 7.02433
#
# Compressibility (1/GPa) = 0.01987318
#
# Stress axis : x y z
#
# Youngs Moduli (GPa) = 54.93675 51.63212 28.47969
#
# Poissons Ratio (x) = 0.10041 0.47473
# Poissons Ratio (y) = 0.10684 0.22189
# Poissons Ratio (z) = 0.91574 0.40228
#
# Static dielectric constant tensor:
#      x y z
#    x 3.570900 0.000000 0.000000 
#    y 0.000000 3.354700 0.000000 
#    z 0.000000 0.000000 3.433630 
# 
# 
# High freq. dielectric constant tensor:
#      x y z
#    x 1.727100 0.000000 0.000000 
#    y 0.000000 1.712250 0.000000 
#    z 0.000000 0.000000 1.718050 
# 
# From -- ./inp_files/32050.got.cif
#   From: 2010.03.12/outbox.cif.g09.slc.cpg/sg62_17_cif.got.tgz:32050.got - 2010.04.10 19:12:36.
