data_PCOD8252939
_publ_section_title
;
Structure prediction by ZEFSAII (Michael W. Deem and Ramdas Pophale) SiO2 
 PCOD8252939
Probable space group: P N M A
;
_chemical_formula_sum "Si O2"
_cell_formula_units_Z 48
_cell_length_a 28.872027
_cell_length_b 9.672325
_cell_length_c 9.116411
_cell_angle_alpha 90.000000
_cell_angle_beta 90.000000
_cell_angle_gamma 90.000000
_cell_volume 2545.845550
_symmetry_space_group_name_H-M "P N M A"
_symmetry_group_IT_number 62
_symmetry_cell_setting 'orthorhombic'
loop_
_space_group_symop_operation_xyz
x,y,z
1/2-x,-y,1/2+z
1/2+x,1/2-y,1/2-z
-x,1/2+y,-z
-x,-y,-z
1/2+x,y,1/2-z
1/2-x,1/2+y,1/2+z
x,1/2-y,z
loop_
_atom_site_type_symbol
_atom_site_label
_atom_site_fract_x
_atom_site_fract_y
_atom_site_fract_z
Si Si1 0.797811 0.408507 0.507163
Si Si2 0.635123 0.087919 0.494540
Si Si3 0.965927 0.596467 0.085674
Si Si4 0.379400 0.089721 0.782918
Si Si5 0.519147 0.595321 0.124778
Si Si6 0.285308 0.589038 0.281139
O O1 0.790607 0.250000 0.457348
O O2 0.849447 0.432841 0.569728
O O3 0.762841 0.445002 0.639028
O O4 0.788585 0.504216 0.368421
O O5 0.638684 0.250000 0.456736
O O6 0.586552 0.046121 0.568492
O O7 0.673937 0.042821 0.609865
O O8 0.642284 0.002140 0.346083
O O9 0.971584 0.750000 0.020015
O O10 0.979033 0.593781 0.255073
O O11 0.000000 0.500000 0.000000
O O12 0.378360 0.250000 0.733525
O O13 0.431928 0.039534 0.812977
O O14 0.526868 0.750000 0.063291
O O15 0.500000 0.500000 0.000000
O O16 0.289462 0.750000 0.240097
#
# Coordination Sequence:
#
# PCOD8252939 Si02
#       6
#     8   8   8   8   8   8
#     4  10  22  39  59  84 113 144 183 226 274 331
#     4  10  21  36  57  84 111 143 186 228 273 329
#     4  10  20  36  56  80 110 146 186 228 271 322
#     4  10  21  38  57  81 112 146 185 229 275 326
#     4  10  22  37  54  79 112 148 186 229 274 324
#     4  10  22  39  59  85 114 144 181 228 276 328
#
# _framework density 18.854246
#
# number of rings (size 3 to 8) (size 9 to 14) (size 15 to 20)
#    0.000    2.000    1.667    1.000    2.333    3.333 
#    0.000    0.000    0.000    0.000    0.000    0.000 
#    0.000    0.000    0.000    0.000    0.000    0.000 
#
# Total GULP energy -595321.329573 kJ/mol
# GULP energy per Si atom -12402.527699 kJ/mol
# Density = 1.881133 g / cm^3
# Si number density = 18.854246 Si / 1000 Ang^3
#
#
#
# Elastic Constant Matrix: (Units=GPa)
#
#
# Indices 1 2 3 4 5 6 
#
# 1 84.3470 28.4679 32.2314 0.0000 0.0000 0.0000
# 2 28.4679 71.2495 61.2816 0.0000 0.0000 0.0000
# 3 32.2314 61.2816 110.4993 0.0000 0.0000 0.0000
# 4 0.0000 0.0000 0.0000 44.1168 0.0000 0.0000
# 5 0.0000 0.0000 0.0000 0.0000 32.5487 0.0000
# 6 0.0000 0.0000 0.0000 0.0000 0.0000 26.7367
#
#
#
# Elastic Compliance Matrix: (Units=1/GPa)
#
#
# Indices 1 2 3 4 5 6 
#
# 1 0.013902 -0.003952 -0.001863 0.000000 0.000000 0.000000
# 2 -0.003952 0.027959 -0.014353 0.000000 0.000000 0.000000
# 3 -0.001863 -0.014353 0.017553 0.000000 0.000000 0.000000
# 4 0.000000 0.000000 0.000000 0.022667 0.000000 0.000000
# 5 0.000000 0.000000 0.000000 0.000000 0.030723 0.000000
# 6 0.000000 0.000000 0.000000 0.000000 0.000000 0.037402
#
#
# Mechanical properties :
#
#
# Convention : Reuss Voigt Hill
#
# Bulk Modulus (GPa) = 52.41711 56.67306 54.54509
# Shear Modulus (GPa) = 25.39330 30.28809 27.84070
#
# Velocity S-wave (km/s) = 3.67389 4.01238 3.84686
# Velocity P-wave (km/s) = 6.77187 7.18257 6.98024
#
# Compressibility (1/GPa) = 0.01907774
#
# Stress axis : x y z
#
# Youngs Moduli (GPa) = 71.93430 35.76627 56.96872
#
# Poissons Ratio (x) = 0.14134 0.10615
# Poissons Ratio (y) = 0.28426 0.81769
# Poissons Ratio (z) = 0.13404 0.51336
#
# Static dielectric constant tensor:
#      x y z
#    x 4.764790 0.000000 0.000000 
#    y 0.000000 3.558790 0.000000 
#    z 0.000000 0.000000 3.137890 
# 
# 
# High freq. dielectric constant tensor:
#      x y z
#    x 1.750730 0.000000 0.000000 
#    y 0.000000 1.729620 0.000000 
#    z 0.000000 0.000000 1.725170 
# 
# From -- ./inp_files/10141.got.cif
#   From: 2010.03.12/outbox.cif.g09.slc.cpg/sg62_6_cif.got.tgz:10141.got - 2010.04.10 19:12:36.
