data_PCOD8252057
_publ_section_title
;
Structure prediction by ZEFSAII (Michael W. Deem and Ramdas Pophale) SiO2 
 PCOD8252057
Probable space group: P N M A
;
_chemical_formula_sum "Si O2"
_cell_formula_units_Z 48
_cell_length_a 15.018709
_cell_length_b 18.327974
_cell_length_c 8.958427
_cell_angle_alpha 90.000000
_cell_angle_beta 90.000000
_cell_angle_gamma 90.000000
_cell_volume 2465.919084
_symmetry_space_group_name_H-M "P N M A"
_symmetry_group_IT_number 62
_symmetry_cell_setting 'orthorhombic'
loop_
_space_group_symop_operation_xyz
x,y,z
1/2-x,-y,1/2+z
1/2+x,1/2-y,1/2-z
-x,1/2+y,-z
-x,-y,-z
1/2+x,y,1/2-z
1/2-x,1/2+y,1/2+z
x,1/2-y,z
loop_
_atom_site_type_symbol
_atom_site_label
_atom_site_fract_x
_atom_site_fract_y
_atom_site_fract_z
Si Si1 0.751785 0.905293 0.568903
Si Si2 0.600332 0.582941 0.093940
Si Si3 0.901050 0.334288 0.898900
Si Si4 0.442064 0.912749 0.889797
Si Si5 0.756939 0.551525 0.903156
Si Si6 0.460949 0.576649 0.559339
O O1 0.676719 0.847110 0.521682
O O2 0.850271 0.867708 0.580776
O O3 0.731362 0.940772 0.729729
O O4 0.750828 0.966440 0.440550
O O5 0.617812 0.619767 0.251128
O O6 0.589484 0.496601 0.107994
O O7 0.511107 0.613122 0.015289
O O8 0.686670 0.600343 0.994416
O O9 0.905517 0.250000 0.857151
O O10 0.996853 0.359104 0.961208
O O11 0.488533 0.903946 0.729151
O O12 0.854564 0.579311 0.949581
O O13 0.500000 0.500000 0.500000
#
# Coordination Sequence:
#
# PCOD8252057 Si02
#       6
#     8   8   8   8   8   8
#     4  10  19  37  59  93 117 154 197 249 311 357
#     4  10  20  36  55  92 119 156 199 251 304 356
#     4  12  25  40  57  85 128 167 199 250 319 373
#     4   9  19  35  63  89 115 146 204 263 297 347
#     4  10  20  33  65  91 118 147 205 259 293 351
#     4  11  19  37  61  91 118 156 203 255 301 361
#
# _framework density 19.46536
#
# number of rings (size 3 to 8) (size 9 to 14) (size 15 to 20)
#    0.000    1.667    3.333    3.000    0.000    2.667 
#    0.000   10.000    0.000    0.000    0.000    0.000 
#    0.000    0.000    0.000    0.000    0.000    0.000 
#
# Total GULP energy -594979.799204 kJ/mol
# GULP energy per Si atom -12395.412483 kJ/mol
# Density = 1.942106 g / cm^3
# Si number density = 19.465360 Si / 1000 Ang^3
#
#
#
# Elastic Constant Matrix: (Units=GPa)
#
#
# Indices 1 2 3 4 5 6 
#
# 1 113.3167 37.0588 49.9671 0.0000 0.0000 0.0000
# 2 37.0588 31.9171 21.0801 0.0000 0.0000 0.0000
# 3 49.9671 21.0801 117.8643 0.0000 0.0000 0.0000
# 4 0.0000 0.0000 0.0000 1.5642 0.0000 0.0000
# 5 0.0000 0.0000 0.0000 0.0000 39.2268 0.0000
# 6 0.0000 0.0000 0.0000 0.0000 0.0000 15.5904
#
#
#
# Elastic Compliance Matrix: (Units=1/GPa)
#
#
# Indices 1 2 3 4 5 6 
#
# 1 0.015616 -0.015602 -0.003830 0.000000 0.000000 0.000000
# 2 -0.015602 0.051117 -0.002528 0.000000 0.000000 0.000000
# 3 -0.003830 -0.002528 0.010560 0.000000 0.000000 0.000000
# 4 0.000000 0.000000 0.000000 0.639285 0.000000 0.000000
# 5 0.000000 0.000000 0.000000 0.000000 0.025493 0.000000
# 6 0.000000 0.000000 0.000000 0.000000 0.000000 0.064142
#
#
# Mechanical properties :
#
#
# Convention : Reuss Voigt Hill
#
# Bulk Modulus (GPa) = 29.96453 53.25667 41.61060
# Shear Modulus (GPa) = 5.80547 21.60910 13.70729
#
# Velocity S-wave (km/s) = 1.72885 3.33548 2.65653
# Velocity P-wave (km/s) = 4.40596 6.50023 5.55272
#
# Compressibility (1/GPa) = 0.03337279
#
# Stress axis : x y z
#
# Youngs Moduli (GPa) = 64.03637 19.56314 94.69686
#
# Poissons Ratio (x) = 0.30523 0.36267
# Poissons Ratio (y) = 0.99912 0.23937
# Poissons Ratio (z) = 0.24524 0.04945
#
# Static dielectric constant tensor:
#      x y z
#    x 4.101840 0.000000 0.000000 
#    y 0.000000 2.987300 0.000000 
#    z 0.000000 0.000000 3.830810 
# 
# 
# High freq. dielectric constant tensor:
#      x y z
#    x 1.781430 0.000000 0.000000 
#    y 0.000000 1.690860 0.000000 
#    z 0.000000 0.000000 1.775470 
# 
# From -- ./inp_files/6606.got.cif
#   From: 2010.03.12/outbox.cif.g09.slc.cpg/sg62_4_cif.got.tgz:6606.got - 2010.04.10 19:12:36.
