data_PCOD8252855
_publ_section_title
;
Structure prediction by ZEFSAII (Michael W. Deem and Ramdas Pophale) SiO2 
 PCOD8252855
Probable space group: P N M A
;
_chemical_formula_sum "Si O2"
_cell_formula_units_Z 40
_cell_length_a 15.431811
_cell_length_b 10.810014
_cell_length_c 12.406808
_cell_angle_alpha 90.000000
_cell_angle_beta 90.000000
_cell_angle_gamma 90.000000
_cell_volume 2069.680050
_symmetry_space_group_name_H-M "P N M A"
_symmetry_group_IT_number 62
_symmetry_cell_setting 'orthorhombic'
loop_
_space_group_symop_operation_xyz
x,y,z
1/2-x,-y,1/2+z
1/2+x,1/2-y,1/2-z
-x,1/2+y,-z
-x,-y,-z
1/2+x,y,1/2-z
1/2-x,1/2+y,1/2+z
x,1/2-y,z
loop_
_atom_site_type_symbol
_atom_site_label
_atom_site_fract_x
_atom_site_fract_y
_atom_site_fract_z
Si Si1 0.270761 0.886980 0.411215
Si Si2 0.518492 0.390423 0.218574
Si Si3 0.146852 0.387289 0.461841
Si Si4 0.656095 0.031965 0.802477
Si Si5 0.171498 0.109295 0.138769
O O1 0.225877 0.750000 0.425366
O O2 0.321951 0.881310 0.298821
O O3 0.338506 0.905782 0.509747
O O4 0.204293 0.001137 0.414452
O O5 0.501265 0.250000 0.252832
O O6 0.553540 0.400211 0.095784
O O7 0.427811 0.456572 0.231137
O O8 0.589451 0.452418 0.300259
O O9 0.185861 0.250000 0.433728
O O10 0.135000 0.390565 0.590317
O O11 0.737480 0.945432 0.824537
O O12 0.173767 0.250000 0.177334
#
# Coordination Sequence:
#
# PCOD8252855 Si02
#       5
#     8   8   8   8   8
#     4  10  21  37  59  85 118 155 192 236 292 341
#     4  10  20  35  58  87 115 152 196 235 283 348
#     4  10  21  38  59  86 120 151 193 240 285 344
#     4  11  20  34  59  84 116 150 193 237 295 332
#     4   9  19  36  55  81 117 151 190 236 281 344
#
# _framework density 19.326657000000001
#
# number of rings (size 3 to 8) (size 9 to 14) (size 15 to 20)
#    0.000    2.000    2.000    1.800    0.000    2.400 
#    0.000    2.000    0.000    0.000    0.000    0.000 
#    0.000    0.000    0.000    0.000    0.000    0.000 
#
# Total GULP energy -495628.770963 kJ/mol
# GULP energy per Si atom -12390.719274 kJ/mol
# Density = 1.928267 g / cm^3
# Si number density = 19.326657 Si / 1000 Ang^3
#
#
#
# Elastic Constant Matrix: (Units=GPa)
#
#
# Indices 1 2 3 4 5 6 
#
# 1 85.6297 37.0022 23.8140 0.0000 0.0000 0.0000
# 2 37.0022 101.9897 18.1055 0.0000 0.0000 0.0000
# 3 23.8140 18.1055 113.1864 0.0000 0.0000 0.0000
# 4 0.0000 0.0000 0.0000 22.5396 0.0000 0.0000
# 5 0.0000 0.0000 0.0000 0.0000 20.4120 0.0000
# 6 0.0000 0.0000 0.0000 0.0000 0.0000 13.4366
#
#
#
# Elastic Compliance Matrix: (Units=1/GPa)
#
#
# Indices 1 2 3 4 5 6 
#
# 1 0.014388 -0.004820 -0.002256 0.000000 0.000000 0.000000
# 2 -0.004820 0.011706 -0.000858 0.000000 0.000000 0.000000
# 3 -0.002256 -0.000858 0.009447 0.000000 0.000000 0.000000
# 4 0.000000 0.000000 0.000000 0.044366 0.000000 0.000000
# 5 0.000000 0.000000 0.000000 0.000000 0.048991 0.000000
# 6 0.000000 0.000000 0.000000 0.000000 0.000000 0.074424
#
#
# Mechanical properties :
#
#
# Convention : Reuss Voigt Hill
#
# Bulk Modulus (GPa) = 50.83237 50.96102 50.89669
# Shear Modulus (GPa) = 22.14856 26.06991 24.10924
#
# Velocity S-wave (km/s) = 3.38895 3.67673 3.53577
# Velocity P-wave (km/s) = 6.45539 6.66708 6.56209
#
# Compressibility (1/GPa) = 0.01967251
#
# Stress axis : x y z
#
# Youngs Moduli (GPa) = 69.50082 85.42728 105.85341
#
# Poissons Ratio (x) = 0.41172 0.23884
# Poissons Ratio (y) = 0.33496 0.09087
# Poissons Ratio (z) = 0.15682 0.07334
#
# Static dielectric constant tensor:
#      x y z
#    x 3.290600 0.000000 0.000000 
#    y 0.000000 3.428720 0.000000 
#    z 0.000000 0.000000 4.020830 
# 
# 
# High freq. dielectric constant tensor:
#      x y z
#    x 1.724350 0.000000 0.000000 
#    y 0.000000 1.746830 0.000000 
#    z 0.000000 0.000000 1.774700 
# 
# From -- ./inp_files/12973.got.cif
#   From: 2010.03.12/outbox.cif.g09.slc.cpg/sg62_7_cif.got.tgz:12973.got - 2010.04.10 19:12:36.
