data_PCOD8252789
_publ_section_title
;
Structure prediction by ZEFSAII (Michael W. Deem and Ramdas Pophale) SiO2 
 PCOD8252789
Probable space group: P N M A
;
_chemical_formula_sum "Si O2"
_cell_formula_units_Z 48
_cell_length_a 14.625164
_cell_length_b 18.157204
_cell_length_c 9.069948
_cell_angle_alpha 90.000000
_cell_angle_beta 90.000000
_cell_angle_gamma 90.000000
_cell_volume 2408.543614
_symmetry_space_group_name_H-M "P N M A"
_symmetry_group_IT_number 62
_symmetry_cell_setting 'orthorhombic'
loop_
_space_group_symop_operation_xyz
x,y,z
1/2-x,-y,1/2+z
1/2+x,1/2-y,1/2-z
-x,1/2+y,-z
-x,-y,-z
1/2+x,y,1/2-z
1/2-x,1/2+y,1/2+z
x,1/2-y,z
loop_
_atom_site_type_symbol
_atom_site_label
_atom_site_fract_x
_atom_site_fract_y
_atom_site_fract_z
Si Si1 0.145543 0.916771 0.473238
Si Si2 0.727411 0.334660 0.315638
Si Si3 0.528432 0.165043 0.433290
Si Si4 0.918698 0.415932 0.832878
Si Si5 0.284047 0.452284 0.411716
Si Si6 0.543602 0.545106 0.762699
O O1 0.191439 0.853986 0.572358
O O2 0.114030 0.879070 0.320161
O O3 0.056180 0.947388 0.561235
O O4 0.212314 0.984697 0.444857
O O5 0.734723 0.250000 0.265579
O O6 0.634949 0.349402 0.406666
O O7 0.732147 0.384322 0.168236
O O8 0.501961 0.250000 0.429686
O O9 0.498262 0.132116 0.591838
O O10 0.470244 0.126377 0.305142
O O11 0.830557 0.425446 0.936456
O O12 0.958506 0.495623 0.786627
O O13 0.361638 0.486354 0.304844
#
# Coordination Sequence:
#
# PCOD8252789 Si02
#       6
#     8   8   8   8   8   8
#     4  11  21  34  57  86 114 143 181 231 280 332
#     4  10  22  40  59  79 110 151 189 227 277 336
#     4  10  21  38  57  77 107 149 190 227 275 333
#     4  11  21  34  56  84 113 141 179 231 276 325
#     4  10  20  35  58  83 109 145 190 231 270 327
#     4  10  20  35  57  81 112 147 182 225 276 335
#
# _framework density 19.929055999999999
#
# number of rings (size 3 to 8) (size 9 to 14) (size 15 to 20)
#    0.000    1.667    0.000    7.500    0.000    6.667 
#    0.000    0.000    0.000    5.000    0.000    0.000 
#    0.000    0.000    0.000    0.000    0.000    0.000 
#
# Total GULP energy -595150.674974 kJ/mol
# GULP energy per Si atom -12398.972395 kJ/mol
# Density = 1.988370 g / cm^3
# Si number density = 19.929056 Si / 1000 Ang^3
#
#
#
# Elastic Constant Matrix: (Units=GPa)
#
#
# Indices 1 2 3 4 5 6 
#
# 1 76.1239 38.5200 43.5474 0.0000 0.0000 0.0000
# 2 38.5200 76.0674 22.0517 0.0000 0.0000 0.0000
# 3 43.5474 22.0517 130.6984 0.0000 0.0000 0.0000
# 4 0.0000 0.0000 0.0000 21.0712 0.0000 0.0000
# 5 0.0000 0.0000 0.0000 0.0000 25.4499 0.0000
# 6 0.0000 0.0000 0.0000 0.0000 0.0000 30.8087
#
#
#
# Elastic Compliance Matrix: (Units=1/GPa)
#
#
# Indices 1 2 3 4 5 6 
#
# 1 0.020754 -0.008943 -0.005406 0.000000 0.000000 0.000000
# 2 -0.008943 0.017675 -0.000003 0.000000 0.000000 0.000000
# 3 -0.005406 -0.000003 0.009453 0.000000 0.000000 0.000000
# 4 0.000000 0.000000 0.000000 0.047458 0.000000 0.000000
# 5 0.000000 0.000000 0.000000 0.000000 0.039293 0.000000
# 6 0.000000 0.000000 0.000000 0.000000 0.000000 0.032458
#
#
# Mechanical properties :
#
#
# Convention : Reuss Voigt Hill
#
# Bulk Modulus (GPa) = 52.13859 54.56977 53.35418
# Shear Modulus (GPa) = 24.72940 27.38400 26.05670
#
# Velocity S-wave (km/s) = 3.52642 3.71087 3.61982
# Velocity P-wave (km/s) = 6.54215 6.76773 6.65590
#
# Compressibility (1/GPa) = 0.01917965
#
# Stress axis : x y z
#
# Youngs Moduli (GPa) = 48.18278 56.57566 105.78664
#
# Poissons Ratio (x) = 0.50593 0.57192
# Poissons Ratio (y) = 0.43088 0.00028
# Poissons Ratio (z) = 0.26049 0.00015
#
# Static dielectric constant tensor:
#      x y z
#    x 3.809700 0.000000 0.000000 
#    y 0.000000 3.424020 0.000000 
#    z 0.000000 0.000000 3.907570 
# 
# 
# High freq. dielectric constant tensor:
#      x y z
#    x 1.787930 0.000000 0.000000 
#    y 0.000000 1.755270 0.000000 
#    z 0.000000 0.000000 1.784270 
# 
# From -- ./inp_files/6622.got.cif
#   From: 2010.03.12/outbox.cif.g09.slc.cpg/sg62_4_cif.got.tgz:6622.got - 2010.04.10 19:12:36.
