data_PCOD8252814
_publ_section_title
;
Structure prediction by ZEFSAII (Michael W. Deem and Ramdas Pophale) SiO2 
 PCOD8252814
Probable space group: P N M A
;
_chemical_formula_sum "Si O2"
_cell_formula_units_Z 40
_cell_length_a 25.214583
_cell_length_b 8.996919
_cell_length_c 8.702387
_cell_angle_alpha 90.000000
_cell_angle_beta 90.000000
_cell_angle_gamma 90.000000
_cell_volume 1974.167479
_symmetry_space_group_name_H-M "P N M A"
_symmetry_group_IT_number 62
_symmetry_cell_setting 'orthorhombic'
loop_
_space_group_symop_operation_xyz
x,y,z
1/2-x,-y,1/2+z
1/2+x,1/2-y,1/2-z
-x,1/2+y,-z
-x,-y,-z
1/2+x,y,1/2-z
1/2-x,1/2+y,1/2+z
x,1/2-y,z
loop_
_atom_site_type_symbol
_atom_site_label
_atom_site_fract_x
_atom_site_fract_y
_atom_site_fract_z
Si Si1 0.215046 0.075832 0.768181
Si Si2 0.903727 0.418432 0.741709
Si Si3 0.483539 0.577156 0.155842
Si Si4 0.310597 0.923025 0.617808
Si Si5 0.881737 0.422097 0.384291
O O1 0.211774 0.250000 0.735825
O O2 0.273645 0.017323 0.731525
O O3 0.174218 0.992761 0.657839
O O4 0.202616 0.036807 0.943440
O O5 0.887973 0.250000 0.784405
O O6 0.871268 0.530956 0.848914
O O7 0.890518 0.449124 0.563992
O O8 0.966804 0.444039 0.772477
O O9 0.472727 0.750000 0.125019
O O10 0.429067 0.500775 0.214068
O O11 0.500000 0.500000 0.000000
O O12 0.302486 0.750000 0.651654
O O13 0.881407 0.250000 0.340170
#
# Coordination Sequence:
#
# PCOD8252814 Si02
#       5
#     8   8   8   8   8
#     4  11  24  40  57  80 110 142 180 226 274 327
#     4   9  19  35  56  83 113 144 181 224 267 318
#     4   9  17  31  53  82 114 147 184 225 269 319
#     4  11  24  39  57  82 109 141 183 226 272 329
#     4  10  20  35  57  85 113 144 185 227 270 323
#
# _framework density 20.261706
#
# number of rings (size 3 to 8) (size 9 to 14) (size 15 to 20)
#    0.000    2.000    0.000    4.800    0.000   12.800 
#    0.000    1.000    0.000    0.000    0.000    0.000 
#    0.000    0.000    0.000    0.000    0.000    0.000 
#
# Total GULP energy -496025.602591 kJ/mol
# GULP energy per Si atom -12400.640065 kJ/mol
# Density = 2.021559 g / cm^3
# Si number density = 20.261706 Si / 1000 Ang^3
#
#
#
# Elastic Constant Matrix: (Units=GPa)
#
#
# Indices 1 2 3 4 5 6 
#
# 1 64.4429 14.5124 -8.5737 0.0000 0.0000 0.0000
# 2 14.5124 89.2812 19.5919 0.0000 0.0000 0.0000
# 3 -8.5737 19.5919 27.6803 0.0000 0.0000 0.0000
# 4 0.0000 0.0000 0.0000 25.7107 0.0000 0.0000
# 5 0.0000 0.0000 0.0000 0.0000 25.4252 0.0000
# 6 0.0000 0.0000 0.0000 0.0000 0.0000 42.3204
#
#
#
# Elastic Compliance Matrix: (Units=1/GPa)
#
#
# Indices 1 2 3 4 5 6 
#
# 1 0.017803 -0.004858 0.008953 0.000000 0.000000 0.000000
# 2 -0.004858 0.014586 -0.011829 0.000000 0.000000 0.000000
# 3 0.008953 -0.011829 0.047272 0.000000 0.000000 0.000000
# 4 0.000000 0.000000 0.000000 0.038894 0.000000 0.000000
# 5 0.000000 0.000000 0.000000 0.000000 0.039331 0.000000
# 6 0.000000 0.000000 0.000000 0.000000 0.000000 0.023629
#
#
# Mechanical properties :
#
#
# Convention : Reuss Voigt Hill
#
# Bulk Modulus (GPa) = 15.57806 25.82949 20.70378
# Shear Modulus (GPa) = 22.89572 29.08286 25.98929
#
# Velocity S-wave (km/s) = 3.36519 3.79273 3.58534
# Velocity P-wave (km/s) = 4.77540 5.65290 5.23258
#
# Compressibility (1/GPa) = 0.06419283
#
# Stress axis : x y z
#
# Youngs Moduli (GPa) = 56.17075 68.55902 21.15409
#
# Poissons Ratio (x) = 0.33309 -0.18939
# Poissons Ratio (y) = 0.27290 0.25023
# Poissons Ratio (z) = -0.50290 0.81096
#
# Static dielectric constant tensor:
#      x y z
#    x 4.145510 0.000000 0.000000 
#    y 0.000000 3.841450 0.000000 
#    z 0.000000 0.000000 3.286900 
# 
# 
# High freq. dielectric constant tensor:
#      x y z
#    x 1.812530 0.000000 0.000000 
#    y 0.000000 1.802770 0.000000 
#    z 0.000000 0.000000 1.754720 
# 
# From -- ./inp_files/9065.got.cif
#   From: 2010.03.12/outbox.cif.g09.slc.cpg/sg62_5_cif.got.tgz:9065.got - 2010.04.10 19:12:36.
