data_PCOD8252153
_publ_section_title
;
Structure prediction by ZEFSAII (Michael W. Deem and Ramdas Pophale) SiO2 
 PCOD8252153
Probable space group: P N M A
;
_chemical_formula_sum "Si O2"
_cell_formula_units_Z 64
_cell_length_a 19.298194
_cell_length_b 15.977393
_cell_length_c 10.054555
_cell_angle_alpha 90.000000
_cell_angle_beta 90.000000
_cell_angle_gamma 90.000000
_cell_volume 3100.169504
_symmetry_space_group_name_H-M "P N M A"
_symmetry_group_IT_number 62
_symmetry_cell_setting 'orthorhombic'
loop_
_space_group_symop_operation_xyz
x,y,z
1/2-x,-y,1/2+z
1/2+x,1/2-y,1/2-z
-x,1/2+y,-z
-x,-y,-z
1/2+x,y,1/2-z
1/2-x,1/2+y,1/2+z
x,1/2-y,z
loop_
_atom_site_type_symbol
_atom_site_label
_atom_site_fract_x
_atom_site_fract_y
_atom_site_fract_z
Si Si1 0.011333 0.346647 0.172862
Si Si2 0.159949 0.944211 0.232656
Si Si3 0.844323 0.842148 0.931266
Si Si4 0.779861 0.848165 0.190308
Si Si5 0.246968 0.106739 0.292612
Si Si6 0.632024 0.848826 0.540907
Si Si7 0.341502 0.846967 0.033717
Si Si8 0.952416 0.958673 0.606437
O O1 0.020891 0.250000 0.215611
O O2 0.085181 0.385911 0.120399
O O3 0.997045 0.403374 0.301253
O O4 0.950184 0.356434 0.067071
O O5 0.198016 0.869208 0.310303
O O6 0.219126 0.017077 0.240112
O O7 0.090701 0.972233 0.309158
O O8 0.145893 0.910736 0.083495
O O9 0.867727 0.750000 0.974891
O O10 0.784208 0.832329 0.819711
O O11 0.815819 0.890826 0.061085
O O12 0.785462 0.750000 0.177505
O O13 0.819393 0.880654 0.321435
O O14 0.329300 0.117434 0.322766
O O15 0.222696 0.135901 0.438121
O O16 0.650442 0.750000 0.512254
O O17 0.361537 0.750000 0.039023
O O18 0.405163 0.897176 0.977375
O O19 0.000000 0.000000 0.500000
#
# Coordination Sequence:
#
# PCOD8252153 Si02
#       8
#     8   8   8   8   8   8   8   8
#     4  10  22  43  67  90 125 174 226 267 321 403
#     4  11  24  39  62  92 129 166 213 274 330 378
#     4  10  20  38  63  93 126 165 216 269 318 386
#     4  10  22  37  62  96 129 164 215 270 324 387
#     4  11  22  37  66  94 121 166 219 267 326 387
#     4  11  24  43  68  97 131 177 224 274 340 406
#     4  10  19  39  67  87 117 169 218 258 312 393
#     4  11  25  42  58  94 131 170 214 270 332 395
#
# _framework density 20.644031999999999
#
# number of rings (size 3 to 8) (size 9 to 14) (size 15 to 20)
#    0.000    1.500    3.750    1.875    1.750    3.500 
#    0.000    5.000    0.000    0.000    0.000    0.000 
#    0.000    0.000    0.000    0.000    0.000    0.000 
#
# Total GULP energy -792881.777870 kJ/mol
# GULP energy per Si atom -12388.777779 kJ/mol
# Density = 2.059705 g / cm^3
# Si number density = 20.644032 Si / 1000 Ang^3
#
#
#
# Elastic Constant Matrix: (Units=GPa)
#
#
# Indices 1 2 3 4 5 6 
#
# 1 94.6528 29.2144 60.8620 0.0000 0.0000 0.0000
# 2 29.2144 60.5155 60.2560 0.0000 0.0000 0.0000
# 3 60.8620 60.2560 146.7723 0.0000 0.0000 0.0000
# 4 0.0000 0.0000 0.0000 36.4045 0.0000 0.0000
# 5 0.0000 0.0000 0.0000 0.0000 32.3654 0.0000
# 6 0.0000 0.0000 0.0000 0.0000 0.0000 22.5966
#
#
#
# Elastic Compliance Matrix: (Units=1/GPa)
#
#
# Indices 1 2 3 4 5 6 
#
# 1 0.014511 -0.001715 -0.005313 0.000000 0.000000 0.000000
# 2 -0.001715 0.028153 -0.010847 0.000000 0.000000 0.000000
# 3 -0.005313 -0.010847 0.013470 0.000000 0.000000 0.000000
# 4 0.000000 0.000000 0.000000 0.027469 0.000000 0.000000
# 5 0.000000 0.000000 0.000000 0.000000 0.030897 0.000000
# 6 0.000000 0.000000 0.000000 0.000000 0.000000 0.044254
#
#
# Mechanical properties :
#
#
# Convention : Reuss Voigt Hill
#
# Bulk Modulus (GPa) = 49.05930 66.95618 58.00774
# Shear Modulus (GPa) = 24.83886 28.38053 26.60969
#
# Velocity S-wave (km/s) = 3.47248 3.71179 3.59413
# Velocity P-wave (km/s) = 6.31613 7.13260 6.73674
#
# Compressibility (1/GPa) = 0.02038350
#
# Stress axis : x y z
#
# Youngs Moduli (GPa) = 68.91554 35.52036 74.24169
#
# Poissons Ratio (x) = 0.06091 0.39445
# Poissons Ratio (y) = 0.11818 0.80529
# Poissons Ratio (z) = 0.36615 0.38528
#
# Static dielectric constant tensor:
#      x y z
#    x 3.250650 0.000000 0.000000 
#    y 0.000000 3.782100 0.000000 
#    z 0.000000 0.000000 4.038650 
# 
# 
# High freq. dielectric constant tensor:
#      x y z
#    x 1.800220 0.000000 0.000000 
#    y 0.000000 1.810780 0.000000 
#    z 0.000000 0.000000 1.810180 
# 
# From -- ./inp_files/8880.got.cif
#   From: 2010.03.12/outbox.cif.g09.slc.cpg/sg62_5_cif.got.tgz:8880.got - 2010.04.10 19:12:36.
