data_PCOD8252553
_publ_section_title
;
Structure prediction by ZEFSAII (Michael W. Deem and Ramdas Pophale) SiO2 
 PCOD8252553
Probable space group: P N M A
;
_chemical_formula_sum "Si O2"
_cell_formula_units_Z 56
_cell_length_a 5.228300
_cell_length_b 21.127606
_cell_length_c 23.604348
_cell_angle_alpha 90.000000
_cell_angle_beta 90.000000
_cell_angle_gamma 90.000000
_cell_volume 2607.370800
_symmetry_space_group_name_H-M "P N M A"
_symmetry_group_IT_number 62
_symmetry_cell_setting 'orthorhombic'
loop_
_space_group_symop_operation_xyz
x,y,z
1/2-x,-y,1/2+z
1/2+x,1/2-y,1/2-z
-x,1/2+y,-z
-x,-y,-z
1/2+x,y,1/2-z
1/2-x,1/2+y,1/2+z
x,1/2-y,z
loop_
_atom_site_type_symbol
_atom_site_label
_atom_site_fract_x
_atom_site_fract_y
_atom_site_fract_z
Si Si1 0.711433 0.474200 0.065654
Si Si2 0.572865 0.820289 0.396688
Si Si3 0.849540 0.676179 0.221182
Si Si4 0.590773 0.409918 0.956239
Si Si5 0.309743 0.909894 0.606585
Si Si6 0.665846 0.321775 0.286440
Si Si7 0.739532 0.319406 0.489127
O O1 0.651713 0.549459 0.066401
O O2 0.465845 0.439514 0.093259
O O3 0.965379 0.462866 0.103379
O O4 0.757321 0.454273 0.999176
O O5 0.699280 0.750000 0.385035
O O6 0.379219 0.836456 0.345787
O O7 0.431211 0.816974 0.455674
O O8 0.769744 0.878946 0.401825
O O9 0.087427 0.645180 0.255777
O O10 0.838336 0.750000 0.235416
O O11 0.507562 0.351107 0.995117
O O12 0.297926 0.875156 0.666349
O O13 0.398478 0.858476 0.560171
O O14 0.388330 0.332268 0.259284
O O15 0.685606 0.250000 0.311156
O O16 0.799762 0.250000 0.465508
#
# Coordination Sequence:
#
# PCOD8252553 Si02
#       7
#     8   8   8   8   8   8   8
#     4  10  23  36  61  82 117 159 200 235 289 346
#     4  10  20  34  56  83 114 148 184 239 300 351
#     4   9  19  34  52  74 102 140 183 220 265 330
#     4  10  21  36  55  83 119 153 197 238 285 359
#     4  11  21  40  59  89 119 156 197 246 292 356
#     4  10  21  38  63  92 122 159 202 248 299 358
#     4  10  21  34  56  89 123 153 183 238 309 356
#
# _framework density 21.477573
#
# number of rings (size 3 to 8) (size 9 to 14) (size 15 to 20)
#    0.000    2.000    1.429    1.714    4.000    1.714 
#    0.000    1.429    0.000    5.143    0.000    0.000 
#    0.000    0.000    0.000    0.000    0.000    0.000 
#
# Total GULP energy -694062.762352 kJ/mol
# GULP energy per Si atom -12393.977899 kJ/mol
# Density = 2.142869 g / cm^3
# Si number density = 21.477573 Si / 1000 Ang^3
#
#
#
# Elastic Constant Matrix: (Units=GPa)
#
#
# Indices 1 2 3 4 5 6 
#
# 1 65.9408 -5.1678 -0.0676 0.0000 0.0000 0.0000
# 2 -5.1678 48.8809 4.8474 0.0000 0.0000 0.0000
# 3 -0.0676 4.8474 62.6658 0.0000 0.0000 0.0000
# 4 0.0000 0.0000 0.0000 -6.8910 0.0000 0.0000
# 5 0.0000 0.0000 0.0000 0.0000 24.8980 0.0000
# 6 0.0000 0.0000 0.0000 0.0000 0.0000 23.5282
#
#
#
# Elastic Compliance Matrix: (Units=1/GPa)
#
#
# Indices 1 2 3 4 5 6 
#
# 1 0.015293 0.001628 -0.000109 0.000000 0.000000 0.000000
# 2 0.001628 0.020789 -0.001606 0.000000 0.000000 0.000000
# 3 -0.000109 -0.001606 0.016082 0.000000 0.000000 0.000000
# 4 0.000000 0.000000 0.000000 -0.145117 0.000000 0.000000
# 5 0.000000 0.000000 0.000000 0.000000 0.040164 0.000000
# 6 0.000000 0.000000 0.000000 0.000000 0.000000 0.042502
#
#
# Mechanical properties :
#
#
# Convention : Reuss Voigt Hill
#
# Bulk Modulus (GPa) = 19.23546 19.63462 19.43504
# Shear Modulus (GPa) = 692.73232 20.16542 356.44887
#
# Velocity S-wave (km/s) = 17.97881 3.06748 12.89665
# Velocity P-wave (km/s) = 20.97520 4.65915 15.19320
#
# Compressibility (1/GPa) = 0.05198731
#
# Stress axis : x y z
#
# Youngs Moduli (GPa) = 65.39131 48.10179 62.18212
#
# Poissons Ratio (x) = -0.07829 0.00680
# Poissons Ratio (y) = -0.10643 0.09989
# Poissons Ratio (z) = 0.00715 0.07727
#
# Static dielectric constant tensor:
#      x y z
#    x 3.909880 0.000000 0.000000 
#    y 0.000000 4.270780 0.000000 
#    z 0.000000 0.000000 3.670900 
# 
# 
# High freq. dielectric constant tensor:
#      x y z
#    x 1.841410 0.000000 0.000000 
#    y 0.000000 1.833140 0.000000 
#    z 0.000000 0.000000 1.822910 
# 
# From -- ./inp_files/28385.got.cif
#   From: 2010.03.12/outbox.cif.g09.slc.cpg/sg62_15_cif.got.tgz:28385.got - 2010.04.10 19:12:36.
