data_PCOD8252911
_publ_section_title
;
Structure prediction by ZEFSAII (Michael W. Deem and Ramdas Pophale) SiO2 
 PCOD8252911
Probable space group: P N M A
;
_chemical_formula_sum "Si O2"
_cell_formula_units_Z 64
_cell_length_a 28.303145
_cell_length_b 8.953171
_cell_length_c 12.655914
_cell_angle_alpha 90.000000
_cell_angle_beta 90.000000
_cell_angle_gamma 90.000000
_cell_volume 3207.045272
_symmetry_space_group_name_H-M "P N M A"
_symmetry_group_IT_number 62
_symmetry_cell_setting 'orthorhombic'
loop_
_space_group_symop_operation_xyz
x,y,z
1/2-x,-y,1/2+z
1/2+x,1/2-y,1/2-z
-x,1/2+y,-z
-x,-y,-z
1/2+x,y,1/2-z
1/2-x,1/2+y,1/2+z
x,1/2-y,z
loop_
_atom_site_type_symbol
_atom_site_label
_atom_site_fract_x
_atom_site_fract_y
_atom_site_fract_z
Si Si1 0.463432 0.923285 0.767595
Si Si2 0.711963 0.076601 0.537982
Si Si3 0.819861 0.417930 0.841539
Si Si4 0.609667 0.423902 0.627416
Si Si5 0.924649 0.082329 0.928978
Si Si6 0.299465 0.578804 0.867459
Si Si7 0.930528 0.076072 0.328736
Si Si8 0.398888 0.577604 0.959962
O O1 0.455870 0.750000 0.743036
O O2 0.514481 0.959471 0.814780
O O3 0.459107 0.008259 0.656488
O O4 0.424915 0.978655 0.853259
O O5 0.714957 0.250000 0.507556
O O6 0.664304 0.042284 0.602347
O O7 0.714874 0.977627 0.432423
O O8 0.756526 0.030712 0.607557
O O9 0.804423 0.250000 0.809000
O O10 0.872458 0.420086 0.883729
O O11 0.818169 0.533866 0.746813
O O12 0.598651 0.250000 0.629185
O O13 0.574662 0.495823 0.540420
O O14 0.600266 0.491019 0.742047
O O15 0.942379 0.250000 0.950395
O O16 0.282220 0.750000 0.866090
O O17 0.342566 0.557737 0.949015
O O18 0.919546 0.250000 0.317628
O O19 0.915792 0.023112 0.444208
O O20 0.412416 0.750000 0.981407
#
# Coordination Sequence:
#
# PCOD8252911 Si02
#       8
#     8   8   8   8   8   8   8   8
#     4  10  21  39  61  88 120 157 199 244 297 357
#     4  10  22  39  60  86 116 153 196 244 298 355
#     4  10  20  36  58  85 116 149 190 242 294 349
#     4  10  22  41  62  83 117 161 198 242 302 360
#     4  10  20  35  61  91 117 149 195 248 293 344
#     4  11  22  37  61  89 117 154 196 242 296 354
#     4  11  24  39  60  88 121 159 200 248 298 350
#     4  10  22  40  61  85 119 158 198 242 295 359
#
# _framework density 19.956063
#
# number of rings (size 3 to 8) (size 9 to 14) (size 15 to 20)
#    0.000    1.750    1.250    2.625    0.000    6.500 
#    0.000    1.250    0.000    0.000    0.000    0.000 
#    0.000    0.000    0.000    0.000    0.000    0.000 
#
# Total GULP energy -793888.921064 kJ/mol
# GULP energy per Si atom -12404.514392 kJ/mol
# Density = 1.991064 g / cm^3
# Si number density = 19.956063 Si / 1000 Ang^3
#
#
#
# Elastic Constant Matrix: (Units=GPa)
#
#
# Indices 1 2 3 4 5 6 
#
# 1 60.5338 49.1191 33.9593 0.0000 0.0000 0.0000
# 2 49.1191 85.7662 20.9271 0.0000 0.0000 0.0000
# 3 33.9593 20.9271 42.7655 0.0000 0.0000 0.0000
# 4 0.0000 0.0000 0.0000 42.2875 0.0000 0.0000
# 5 0.0000 0.0000 0.0000 0.0000 20.4152 0.0000
# 6 0.0000 0.0000 0.0000 0.0000 0.0000 29.1498
#
#
#
# Elastic Compliance Matrix: (Units=1/GPa)
#
#
# Indices 1 2 3 4 5 6 
#
# 1 0.051070 -0.021977 -0.029799 0.000000 0.000000 0.000000
# 2 -0.021977 0.022698 0.006344 0.000000 0.000000 0.000000
# 3 -0.029799 0.006344 0.043942 0.000000 0.000000 0.000000
# 4 0.000000 0.000000 0.000000 0.023648 0.000000 0.000000
# 5 0.000000 0.000000 0.000000 0.000000 0.048983 0.000000
# 6 0.000000 0.000000 0.000000 0.000000 0.000000 0.034306
#
#
# Mechanical properties :
#
#
# Convention : Reuss Voigt Hill
#
# Bulk Modulus (GPa) = 37.24978 44.11962 40.68470
# Shear Modulus (GPa) = 15.41027 24.04118 19.72573
#
# Velocity S-wave (km/s) = 2.78188 3.47465 3.14739
# Velocity P-wave (km/s) = 5.38748 6.18498 5.79995
#
# Compressibility (1/GPa) = 0.02684580
#
# Stress axis : x y z
#
# Youngs Moduli (GPa) = 19.58093 44.05644 22.75744
#
# Poissons Ratio (x) = 0.96824 0.67816
# Poissons Ratio (y) = 0.43034 -0.14438
# Poissons Ratio (z) = 0.58350 -0.27952
#
# Static dielectric constant tensor:
#      x y z
#    x 3.548990 0.000000 0.000000 
#    y 0.000000 3.749660 0.000000 
#    z 0.000000 0.000000 3.626160 
# 
# 
# High freq. dielectric constant tensor:
#      x y z
#    x 1.774660 0.000000 0.000000 
#    y 0.000000 1.787420 0.000000 
#    z 0.000000 0.000000 1.782330 
# 
# From -- ./inp_files/15765.got.cif
#   From: 2010.03.12/outbox.cif.g09.slc.cpg/sg62_8_cif.got.tgz:15765.got - 2010.04.10 19:12:36.
