data_PCOD8252240
_publ_section_title
;
Structure prediction by ZEFSAII (Michael W. Deem and Ramdas Pophale) SiO2 
 PCOD8252240
Probable space group: P N M A
;
_chemical_formula_sum "Si O2"
_cell_formula_units_Z 64
_cell_length_a 24.881019
_cell_length_b 8.294515
_cell_length_c 15.393907
_cell_angle_alpha 90.000000
_cell_angle_beta 90.000000
_cell_angle_gamma 90.000000
_cell_volume 3176.932725
_symmetry_space_group_name_H-M "P N M A"
_symmetry_group_IT_number 62
_symmetry_cell_setting 'orthorhombic'
loop_
_space_group_symop_operation_xyz
x,y,z
1/2-x,-y,1/2+z
1/2+x,1/2-y,1/2-z
-x,1/2+y,-z
-x,-y,-z
1/2+x,y,1/2-z
1/2-x,1/2+y,1/2+z
x,1/2-y,z
loop_
_atom_site_type_symbol
_atom_site_label
_atom_site_fract_x
_atom_site_fract_y
_atom_site_fract_z
Si Si1 0.565222 0.561817 0.171733
Si Si2 0.835797 0.442830 0.006419
Si Si3 0.761367 0.939788 0.731132
Si Si4 0.603819 0.438334 0.990456
Si Si5 0.218698 0.440352 0.462202
Si Si6 0.140423 0.936923 0.177346
Si Si7 0.142804 0.558452 0.803883
Si Si8 0.550441 0.937842 0.822378
O O1 0.577713 0.750000 0.157102
O O2 0.600372 0.485877 0.251388
O O3 0.503159 0.537875 0.195733
O O4 0.578243 0.463918 0.084945
O O5 0.833335 0.250000 0.008451
O O6 0.868668 0.504297 0.921406
O O7 0.774321 0.509562 0.998824
O O8 0.862705 0.505228 0.096300
O O9 0.765904 0.750000 0.747102
O O10 0.785558 0.990768 0.638268
O O11 0.699511 0.998972 0.737231
O O12 0.797013 0.032222 0.801632
O O13 0.600435 0.250000 0.967432
O O14 0.570480 0.538758 0.920554
O O15 0.665420 0.504777 0.988811
O O16 0.218942 0.250000 0.468303
O O17 0.127834 0.750000 0.176260
O O18 0.142299 0.750000 0.804479
O O19 0.094452 0.491581 0.745209
O O20 0.539398 0.750000 0.806407
#
# Coordination Sequence:
#
# PCOD8252240 Si02
#       8
#     8   8   8   8   8   8   8   8
#     4  11  23  39  54  77 111 146 181 226 273 318
#     4   8  15  31  53  79 110 142 175 212 260 324
#     4   9  16  31  53  77 107 141 173 211 261 323
#     4  11  21  35  56  83 109 143 180 221 269 323
#     4   8  15  28  50  78 107 139 172 203 251 321
#     4  10  20  32  54  83 109 138 178 224 267 312
#     4   8  17  34  56  79 107 141 179 221 266 319
#     4  11  23  38  56  79 105 143 187 229 272 318
#
# _framework density 20.145216000000001
#
# number of rings (size 3 to 8) (size 9 to 14) (size 15 to 20)
#    0.000    2.500    1.250    3.000    1.750    0.500 
#    0.000    1.250    0.000    4.500    0.000    0.000 
#    0.000    0.000    0.000    0.000    0.000    0.000 
#
# Total GULP energy -793216.487194 kJ/mol
# GULP energy per Si atom -12394.007612 kJ/mol
# Density = 2.009936 g / cm^3
# Si number density = 20.145216 Si / 1000 Ang^3
#
#
#
# Elastic Constant Matrix: (Units=GPa)
#
#
# Indices 1 2 3 4 5 6 
#
# 1 107.4206 0.6136 67.3733 0.0000 0.0000 0.0000
# 2 0.6136 18.8871 1.2829 0.0000 0.0000 0.0000
# 3 67.3733 1.2829 135.1991 0.0000 0.0000 0.0000
# 4 0.0000 0.0000 0.0000 11.3546 0.0000 0.0000
# 5 0.0000 0.0000 0.0000 0.0000 30.6899 0.0000
# 6 0.0000 0.0000 0.0000 0.0000 0.0000 19.0288
#
#
#
# Elastic Compliance Matrix: (Units=1/GPa)
#
#
# Indices 1 2 3 4 5 6 
#
# 1 0.013542 0.000018 -0.006748 0.000000 0.000000 0.000000
# 2 0.000018 0.052980 -0.000512 0.000000 0.000000 0.000000
# 3 -0.006748 -0.000512 0.010764 0.000000 0.000000 0.000000
# 4 0.000000 0.000000 0.000000 0.088070 0.000000 0.000000
# 5 0.000000 0.000000 0.000000 0.000000 0.032584 0.000000
# 6 0.000000 0.000000 0.000000 0.000000 0.000000 0.052552
#
#
# Mechanical properties :
#
#
# Convention : Reuss Voigt Hill
#
# Bulk Modulus (GPa) = 15.92289 44.44960 30.18625
# Shear Modulus (GPa) = 17.48799 25.03044 21.25921
#
# Velocity S-wave (km/s) = 2.94954 3.52874 3.25206
# Velocity P-wave (km/s) = 4.41825 6.22215 5.39611
#
# Compressibility (1/GPa) = 0.06280267
#
# Stress axis : x y z
#
# Youngs Moduli (GPa) = 73.84671 18.87487 92.90047
#
# Poissons Ratio (x) = -0.00035 0.62692
# Poissons Ratio (y) = -0.00136 0.04756
# Poissons Ratio (z) = 0.49834 0.00966
#
# Static dielectric constant tensor:
#      x y z
#    x 3.971860 0.000000 0.000000 
#    y 0.000000 3.144300 0.000000 
#    z 0.000000 0.000000 3.938680 
# 
# 
# High freq. dielectric constant tensor:
#      x y z
#    x 1.780520 0.000000 0.000000 
#    y 0.000000 1.745700 0.000000 
#    z 0.000000 0.000000 1.790460 
# 
# From -- ./inp_files/20986.got.cif
#   From: 2010.03.12/outbox.cif.g09.slc.cpg/sg62_11_cif.got.tgz:20986.got - 2010.04.10 19:12:36.
