data_PCOD8252573
_publ_section_title
;
Structure prediction by ZEFSAII (Michael W. Deem and Ramdas Pophale) SiO2 
 PCOD8252573
Probable space group: P N M A
;
_chemical_formula_sum "Si O2"
_cell_formula_units_Z 48
_cell_length_a 9.920388
_cell_length_b 7.522528
_cell_length_c 30.890723
_cell_angle_alpha 90.000000
_cell_angle_beta 90.000000
_cell_angle_gamma 90.000000
_cell_volume 2305.263343
_symmetry_space_group_name_H-M "P N M A"
_symmetry_group_IT_number 62
_symmetry_cell_setting 'orthorhombic'
loop_
_space_group_symop_operation_xyz
x,y,z
1/2-x,-y,1/2+z
1/2+x,1/2-y,1/2-z
-x,1/2+y,-z
-x,-y,-z
1/2+x,y,1/2-z
1/2-x,1/2+y,1/2+z
x,1/2-y,z
loop_
_atom_site_type_symbol
_atom_site_label
_atom_site_fract_x
_atom_site_fract_y
_atom_site_fract_z
Si Si1 0.932149 0.548615 0.350426
Si Si2 0.346425 0.957748 0.990558
Si Si3 0.270263 0.042276 0.577347
Si Si4 0.301806 0.541803 0.895542
Si Si5 0.508266 0.044583 0.636079
Si Si6 0.937105 0.750000 0.796786
Si Si7 0.628656 0.750000 0.783823
O O1 0.889646 0.750000 0.338047
O O2 0.084994 0.552793 0.367105
O O3 0.917935 0.427158 0.308418
O O4 0.835600 0.465795 0.387597
O O5 0.320559 0.750000 0.988197
O O6 0.303146 0.039602 0.944269
O O7 0.256882 0.041971 0.029753
O O8 0.500000 0.000000 0.000000
O O9 0.240910 0.250000 0.574044
O O10 0.421812 0.999553 0.592811
O O11 0.332051 0.750000 0.896030
O O12 0.161282 0.500793 0.873203
O O13 0.489644 0.250000 0.649207
O O14 0.451746 0.927751 0.675032
O O15 0.789176 0.750000 0.775350
O O16 0.055028 0.750000 0.761904
#
# Coordination Sequence:
#
# PCOD8252573 Si02
#       7
#     8   8   8   8   8   4   4
#     4  11  22  41  69  94 129 178 220 261 326 400
#     4  10  20  34  56  92 133 171 222 281 317 380
#     4   9  19  38  63  90 126 174 225 262 318 387
#     4  11  22  37  63  98 135 177 225 272 331 384
#     4  11  24  45  70  92 131 181 217 269 335 401
#     4  12  28  48  72 102 134 164 220 278 336 408
#     4  12  28  46  72 102 134 170 214 280 336 402
#
# _framework density 20.821916000000002
#
# number of rings (size 3 to 8) (size 9 to 14) (size 15 to 20)
#    0.000    1.333    5.000    0.500    2.333    2.000 
#    1.500    0.000    0.000    0.000    0.000    0.000 
#    0.000    0.000    0.000    0.000    0.000    0.000 
#
# Total GULP energy -595232.866292 kJ/mol
# GULP energy per Si atom -12400.684714 kJ/mol
# Density = 2.077452 g / cm^3
# Si number density = 20.821916 Si / 1000 Ang^3
#
#
#
# Elastic Constant Matrix: (Units=GPa)
#
#
# Indices 1 2 3 4 5 6 
#
# 1 104.7737 1.3343 17.3798 0.0000 0.0000 0.0000
# 2 1.3343 84.3222 28.8418 0.0000 0.0000 0.0000
# 3 17.3798 28.8418 87.7444 0.0000 0.0000 0.0000
# 4 0.0000 0.0000 0.0000 13.5353 0.0000 0.0000
# 5 0.0000 0.0000 0.0000 0.0000 41.5512 0.0000
# 6 0.0000 0.0000 0.0000 0.0000 0.0000 19.1240
#
#
#
# Elastic Compliance Matrix: (Units=1/GPa)
#
#
# Indices 1 2 3 4 5 6 
#
# 1 0.009894 0.000579 -0.002150 0.000000 0.000000 0.000000
# 2 0.000579 0.013395 -0.004518 0.000000 0.000000 0.000000
# 3 -0.002150 -0.004518 0.013308 0.000000 0.000000 0.000000
# 4 0.000000 0.000000 0.000000 0.073881 0.000000 0.000000
# 5 0.000000 0.000000 0.000000 0.000000 0.024067 0.000000
# 6 0.000000 0.000000 0.000000 0.000000 0.000000 0.052290
#
#
# Mechanical properties :
#
#
# Convention : Reuss Voigt Hill
#
# Bulk Modulus (GPa) = 40.95191 41.32801 41.13996
# Shear Modulus (GPa) = 24.13685 30.12770 27.13227
#
# Velocity S-wave (km/s) = 3.40840 3.80797 3.61371
# Velocity P-wave (km/s) = 5.93296 6.26303 6.10023
#
# Compressibility (1/GPa) = 0.02441888
#
# Stress axis : x y z
#
# Youngs Moduli (GPa) = 101.07507 74.65263 75.14515
#
# Poissons Ratio (x) = -0.04321 0.16156
# Poissons Ratio (y) = -0.05850 0.33949
# Poissons Ratio (z) = 0.21730 0.33726
#
# Static dielectric constant tensor:
#      x y z
#    x 3.756850 0.000000 0.000000 
#    y 0.000000 3.829960 0.000000 
#    z 0.000000 0.000000 3.860880 
# 
# 
# High freq. dielectric constant tensor:
#      x y z
#    x 1.820950 0.000000 0.000000 
#    y 0.000000 1.814540 0.000000 
#    z 0.000000 0.000000 1.805340 
# 
# From -- ./inp_files/32097.got.cif
#   From: 2010.03.12/outbox.cif.g09.slc.cpg/sg62_17_cif.got.tgz:32097.got - 2010.04.10 19:12:36.
