data_PCOD8252724
_publ_section_title
;
Structure prediction by ZEFSAII (Michael W. Deem and Ramdas Pophale) SiO2 
 PCOD8252724
Probable space group: P N M A
;
_chemical_formula_sum "Si O2"
_cell_formula_units_Z 64
_cell_length_a 28.897917
_cell_length_b 12.610779
_cell_length_c 9.129216
_cell_angle_alpha 90.000000
_cell_angle_beta 90.000000
_cell_angle_gamma 90.000000
_cell_volume 3326.916776
_symmetry_space_group_name_H-M "P N M A"
_symmetry_group_IT_number 62
_symmetry_cell_setting 'orthorhombic'
loop_
_space_group_symop_operation_xyz
x,y,z
1/2-x,-y,1/2+z
1/2+x,1/2-y,1/2-z
-x,1/2+y,-z
-x,-y,-z
1/2+x,y,1/2-z
1/2-x,1/2+y,1/2+z
x,1/2-y,z
loop_
_atom_site_type_symbol
_atom_site_label
_atom_site_fract_x
_atom_site_fract_y
_atom_site_fract_z
Si Si1 0.065747 0.126647 0.373190
Si Si2 0.772712 0.871305 0.512593
Si Si3 0.025695 0.536209 0.143141
Si Si4 0.412945 0.129044 0.409866
Si Si5 0.677208 0.979353 0.515241
Si Si6 0.060427 0.444666 0.695354
Si Si7 0.337914 0.632112 0.737506
Si Si8 0.161134 0.130505 0.736041
O O1 0.048018 0.250000 0.383264
O O2 0.054541 0.058170 0.519447
O O3 0.120828 0.127513 0.355086
O O4 0.042971 0.065808 0.235812
O O5 0.761108 0.750000 0.481120
O O6 0.726612 0.933710 0.472116
O O7 0.789244 0.887762 0.679677
O O8 0.815797 0.910359 0.413958
O O9 0.987877 0.602493 0.239280
O O10 0.066859 0.606738 0.074321
O O11 0.000000 0.500000 0.000000
O O12 0.422131 0.250000 0.366377
O O13 0.357994 0.109656 0.425749
O O14 0.433435 0.060662 0.272789
O O15 0.654110 0.040789 0.379973
O O16 0.686087 0.064419 0.639805
O O17 0.105339 0.376620 0.737292
O O18 0.337519 0.750000 0.664818
O O19 0.174887 0.250000 0.767103
#
# Coordination Sequence:
#
# PCOD8252724 Si02
#       8
#     8   8   8   8   8   8   8   8
#     4  11  21  39  64  89 118 152 190 247 305 349
#     4  10  20  35  56  81 112 150 194 238 292 353
#     4  10  22  40  58  90 118 152 195 241 290 361
#     4  10  22  39  57  81 120 161 199 237 287 355
#     4  11  20  35  56  83 115 156 191 238 295 347
#     4  10  21  38  63  86 118 151 199 245 297 350
#     4  10  20  35  58  87 116 147 191 244 295 347
#     4  10  20  35  56  85 114 147 193 246 294 345
#
# _framework density 19.237030000000001
#
# number of rings (size 3 to 8) (size 9 to 14) (size 15 to 20)
#    0.000    1.750    2.500    2.250    0.000    3.000 
#    0.000    2.500    0.000    0.750    0.000    0.000 
#    0.000    0.000    0.000    0.000    0.000    0.000 
#
# Total GULP energy -792986.089920 kJ/mol
# GULP energy per Si atom -12390.407655 kJ/mol
# Density = 1.919325 g / cm^3
# Si number density = 19.237030 Si / 1000 Ang^3
#
#
#
# Elastic Constant Matrix: (Units=GPa)
#
#
# Indices 1 2 3 4 5 6 
#
# 1 89.9864 32.5802 26.8254 0.0000 0.0000 0.0000
# 2 32.5802 94.9810 57.7641 0.0000 0.0000 0.0000
# 3 26.8254 57.7641 107.8603 0.0000 0.0000 0.0000
# 4 0.0000 0.0000 0.0000 27.1666 0.0000 0.0000
# 5 0.0000 0.0000 0.0000 0.0000 29.0237 0.0000
# 6 0.0000 0.0000 0.0000 0.0000 0.0000 17.7126
#
#
#
# Elastic Compliance Matrix: (Units=1/GPa)
#
#
# Indices 1 2 3 4 5 6 
#
# 1 0.012798 -0.003640 -0.001234 0.000000 0.000000 0.000000
# 2 -0.003640 0.016649 -0.008011 0.000000 0.000000 0.000000
# 3 -0.001234 -0.008011 0.013868 0.000000 0.000000 0.000000
# 4 0.000000 0.000000 0.000000 0.036810 0.000000 0.000000
# 5 0.000000 0.000000 0.000000 0.000000 0.034455 0.000000
# 6 0.000000 0.000000 0.000000 0.000000 0.000000 0.056457
#
#
# Mechanical properties :
#
#
# Convention : Reuss Voigt Hill
#
# Bulk Modulus (GPa) = 56.99116 58.57413 57.78264
# Shear Modulus (GPa) = 24.67244 26.49110 25.58177
#
# Velocity S-wave (km/s) = 3.58516 3.71494 3.65062
# Velocity P-wave (km/s) = 6.84309 6.99398 6.91895
#
# Compressibility (1/GPa) = 0.01754658
#
# Stress axis : x y z
#
# Youngs Moduli (GPa) = 78.13489 60.06378 72.10644
#
# Poissons Ratio (x) = 0.21862 0.08896
# Poissons Ratio (y) = 0.28439 0.57765
# Poissons Ratio (z) = 0.09640 0.48117
#
# Static dielectric constant tensor:
#      x y z
#    x 3.766320 0.000000 0.000000 
#    y 0.000000 11.200340 0.000000 
#    z 0.000000 0.000000 3.768320 
# 
# 
# High freq. dielectric constant tensor:
#      x y z
#    x 1.757410 0.000000 0.000000 
#    y 0.000000 1.726390 0.000000 
#    z 0.000000 0.000000 1.750820 
# 
# From -- ./inp_files/10503.got.cif
#   From: 2010.03.12/outbox.cif.g09.slc.cpg/sg62_6_cif.got.tgz:10503.got - 2010.04.10 19:12:36.
