data_PCOD8252719
_publ_section_title
;
Structure prediction by ZEFSAII (Michael W. Deem and Ramdas Pophale) SiO2 
 PCOD8252719
Probable space group: P N M A
;
_chemical_formula_sum "Si O2"
_cell_formula_units_Z 64
_cell_length_a 11.614612
_cell_length_b 9.133202
_cell_length_c 32.330861
_cell_angle_alpha 90.000000
_cell_angle_beta 90.000000
_cell_angle_gamma 90.000000
_cell_volume 3429.612392
_symmetry_space_group_name_H-M "P N M A"
_symmetry_group_IT_number 62
_symmetry_cell_setting 'orthorhombic'
loop_
_space_group_symop_operation_xyz
x,y,z
1/2-x,-y,1/2+z
1/2+x,1/2-y,1/2-z
-x,1/2+y,-z
-x,-y,-z
1/2+x,y,1/2-z
1/2-x,1/2+y,1/2+z
x,1/2-y,z
loop_
_atom_site_type_symbol
_atom_site_label
_atom_site_fract_x
_atom_site_fract_y
_atom_site_fract_z
Si Si1 0.582777 0.080669 0.443931
Si Si2 0.775774 0.082058 0.876106
Si Si3 0.355286 0.919556 0.462282
Si Si4 0.512136 0.079744 0.865409
Si Si5 0.817443 0.919473 0.591144
Si Si6 0.181103 0.918829 0.825233
Si Si7 0.878528 0.079150 0.716479
Si Si8 0.044771 0.918320 0.193910
O O1 0.555154 0.250000 0.435190
O O2 0.638168 0.057597 0.488779
O O3 0.673667 0.022264 0.411082
O O4 0.464151 0.992494 0.439600
O O5 0.785154 0.250000 0.891112
O O6 0.644655 0.035131 0.868614
O O7 0.840449 0.059593 0.832820
O O8 0.353147 0.750000 0.449648
O O9 0.238166 0.997278 0.447741
O O10 0.491489 0.250000 0.874746
O O11 0.469762 0.039971 0.819280
O O12 0.442330 0.987191 0.899397
O O13 0.832739 0.750000 0.579924
O O14 0.734545 0.945116 0.629923
O O15 0.173503 0.750000 0.813558
O O16 0.258419 0.996740 0.790579
O O17 0.054514 0.985652 0.826431
O O18 0.849398 0.250000 0.718023
O O19 0.931219 0.025610 0.759751
O O20 0.004707 0.750000 0.194148
#
# Coordination Sequence:
#
# PCOD8252719 Si02
#       8
#     8   8   8   8   8   8   8   8
#     4  10  21  36  55  83 115 146 179 221 275 328
#     4  10  21  36  55  81 111 144 184 225 270 326
#     4  10  20  35  58  84 111 142 181 226 271 322
#     4   9  19  36  56  78 107 144 184 227 271 318
#     4  10  20  35  56  81 108 141 181 223 271 325
#     4  10  21  35  51  76 110 139 172 218 268 324
#     4   9  19  35  57  78 102 137 181 228 268 312
#     4  10  21  34  55  81 105 138 181 226 269 317
#
# _framework density 18.661000999999999
#
# number of rings (size 3 to 8) (size 9 to 14) (size 15 to 20)
#    0.000    2.250    0.000    2.250    1.750    6.500 
#    0.000    0.625    0.000    0.000    0.000    0.000 
#    0.000    0.000    0.000    0.000    0.000    0.000 
#
# Total GULP energy -793933.426734 kJ/mol
# GULP energy per Si atom -12405.209793 kJ/mol
# Density = 1.861853 g / cm^3
# Si number density = 18.661001 Si / 1000 Ang^3
#
#
#
# Elastic Constant Matrix: (Units=GPa)
#
#
# Indices 1 2 3 4 5 6 
#
# 1 113.2750 46.6653 40.4000 0.0000 0.0000 0.0000
# 2 46.6653 87.9666 40.6722 0.0000 0.0000 0.0000
# 3 40.4000 40.6722 68.6268 0.0000 0.0000 0.0000
# 4 0.0000 0.0000 0.0000 25.5940 0.0000 0.0000
# 5 0.0000 0.0000 0.0000 0.0000 26.3278 0.0000
# 6 0.0000 0.0000 0.0000 0.0000 0.0000 28.3616
#
#
#
# Elastic Compliance Matrix: (Units=1/GPa)
#
#
# Indices 1 2 3 4 5 6 
#
# 1 0.012284 -0.004371 -0.004641 0.000000 0.000000 0.000000
# 2 -0.004371 0.017214 -0.007629 0.000000 0.000000 0.000000
# 3 -0.004641 -0.007629 0.021825 0.000000 0.000000 0.000000
# 4 0.000000 0.000000 0.000000 0.039072 0.000000 0.000000
# 5 0.000000 0.000000 0.000000 0.000000 0.037983 0.000000
# 6 0.000000 0.000000 0.000000 0.000000 0.000000 0.035259
#
#
# Mechanical properties :
#
#
# Convention : Reuss Voigt Hill
#
# Bulk Modulus (GPa) = 55.42803 58.37151 56.89977
# Shear Modulus (GPa) = 24.63886 25.53207 25.08547
#
# Velocity S-wave (km/s) = 3.63759 3.70294 3.67041
# Velocity P-wave (km/s) = 6.88548 7.04487 6.96563
#
# Compressibility (1/GPa) = 0.01804141
#
# Stress axis : x y z
#
# Youngs Moduli (GPa) = 81.40743 58.09278 45.81862
#
# Poissons Ratio (x) = 0.25390 0.21265
# Poissons Ratio (y) = 0.35580 0.34955
# Poissons Ratio (z) = 0.37783 0.44319
#
# Static dielectric constant tensor:
#      x y z
#    x 3.381340 0.000000 0.000000 
#    y 0.000000 3.457330 0.000000 
#    z 0.000000 0.000000 3.384530 
# 
# 
# High freq. dielectric constant tensor:
#      x y z
#    x 1.723360 0.000000 0.000000 
#    y 0.000000 1.726780 0.000000 
#    z 0.000000 0.000000 1.720200 
# 
# From -- ./inp_files/32489.got.cif
#   From: 2010.03.12/outbox.cif.g09.slc.cpg/sg62_17_cif.got.tgz:32489.got - 2010.04.10 19:12:36.
