data_PCOD8252094
_publ_section_title
;
Structure prediction by ZEFSAII (Michael W. Deem and Ramdas Pophale) SiO2 
 PCOD8252094
Probable space group: P N M A
;
_chemical_formula_sum "Si O2"
_cell_formula_units_Z 64
_cell_length_a 18.147286
_cell_length_b 11.096773
_cell_length_c 16.139128
_cell_angle_alpha 90.000000
_cell_angle_beta 90.000000
_cell_angle_gamma 90.000000
_cell_volume 3250.038097
_symmetry_space_group_name_H-M "P N M A"
_symmetry_group_IT_number 62
_symmetry_cell_setting 'orthorhombic'
loop_
_space_group_symop_operation_xyz
x,y,z
1/2-x,-y,1/2+z
1/2+x,1/2-y,1/2-z
-x,1/2+y,-z
-x,-y,-z
1/2+x,y,1/2-z
1/2-x,1/2+y,1/2+z
x,1/2-y,z
loop_
_atom_site_type_symbol
_atom_site_label
_atom_site_fract_x
_atom_site_fract_y
_atom_site_fract_z
Si Si1 0.629928 0.383303 0.751979
Si Si2 0.481940 0.881028 0.909759
Si Si3 0.601190 0.391374 0.247567
Si Si4 0.393442 0.942544 0.065463
Si Si5 0.005088 0.032526 0.862992
Si Si6 0.590429 0.883831 0.505086
Si Si7 0.264344 0.390395 0.290912
Si Si8 0.250341 0.888358 0.985275
O O1 0.663978 0.250000 0.726800
O O2 0.612326 0.370980 0.848914
O O3 0.552334 0.394647 0.703849
O O4 0.679195 0.503223 0.735923
O O5 0.498685 0.750000 0.875523
O O6 0.431018 0.944575 0.839577
O O7 0.562995 0.934986 0.918411
O O8 0.439928 0.869988 0.997052
O O9 0.588408 0.250000 0.253513
O O10 0.558031 0.451655 0.322722
O O11 0.687994 0.419286 0.256130
O O12 0.312201 0.970489 0.029131
O O13 0.963663 0.120585 0.926774
O O14 0.060946 0.953469 0.915979
O O15 0.603404 0.750000 0.538736
O O16 0.671258 0.934437 0.480650
O O17 0.290678 0.250000 0.272222
O O18 0.247193 0.403747 0.387196
O O19 0.267223 0.750000 0.010385
#
# Coordination Sequence:
#
# PCOD8252094 Si02
#       8
#     8   8   8   8   8   8   8   8
#     4  12  25  40  60  93 133 168 202 255 319 372
#     4  10  20  37  62  89 119 160 209 257 304 367
#     4  10  20  38  64  92 119 155 208 265 309 358
#     4  11  22  37  60  88 126 163 203 249 309 381
#     4  11  22  39  61  89 123 155 201 258 315 370
#     4  10  22  39  62  85 112 158 209 252 304 370
#     4  10  22  41  65  90 118 159 212 259 305 366
#     4  10  19  37  63  84 109 154 206 250 294 363
#
# _framework density 19.692077000000001
#
# number of rings (size 3 to 8) (size 9 to 14) (size 15 to 20)
#    0.000    1.500    3.750    1.875    1.750    1.000 
#    0.000    1.250    0.000    0.000    0.000    0.000 
#    0.000    0.000    0.000    0.000    0.000    0.000 
#
# Total GULP energy -792987.747843 kJ/mol
# GULP energy per Si atom -12390.433560 kJ/mol
# Density = 1.964726 g / cm^3
# Si number density = 19.692077 Si / 1000 Ang^3
#
#
#
# Elastic Constant Matrix: (Units=GPa)
#
#
# Indices 1 2 3 4 5 6 
#
# 1 121.4955 53.6828 28.2760 0.0000 0.0000 0.0000
# 2 53.6828 83.9014 21.5028 0.0000 0.0000 0.0000
# 3 28.2760 21.5028 80.1880 0.0000 0.0000 0.0000
# 4 0.0000 0.0000 0.0000 3.0390 0.0000 0.0000
# 5 0.0000 0.0000 0.0000 0.0000 30.4793 0.0000
# 6 0.0000 0.0000 0.0000 0.0000 0.0000 14.2191
#
#
#
# Elastic Compliance Matrix: (Units=1/GPa)
#
#
# Indices 1 2 3 4 5 6 
#
# 1 0.011859 -0.006997 -0.002305 0.000000 0.000000 0.000000
# 2 -0.006997 0.016927 -0.002072 0.000000 0.000000 0.000000
# 3 -0.002305 -0.002072 0.013839 0.000000 0.000000 0.000000
# 4 0.000000 0.000000 0.000000 0.329059 0.000000 0.000000
# 5 0.000000 0.000000 0.000000 0.000000 0.032809 0.000000
# 6 0.000000 0.000000 0.000000 0.000000 0.000000 0.070328
#
#
# Mechanical properties :
#
#
# Convention : Reuss Voigt Hill
#
# Bulk Modulus (GPa) = 50.31044 54.72314 52.51679
# Shear Modulus (GPa) = 9.91682 21.68902 15.80292
#
# Velocity S-wave (km/s) = 2.24653 3.32235 2.83592
# Velocity P-wave (km/s) = 5.68623 6.52435 6.11965
#
# Compressibility (1/GPa) = 0.01987659
#
# Stress axis : x y z
#
# Youngs Moduli (GPa) = 84.32510 59.07896 72.25859
#
# Poissons Ratio (x) = 0.41337 0.16659
# Poissons Ratio (y) = 0.59001 0.14970
# Poissons Ratio (z) = 0.19441 0.12239
#
# Static dielectric constant tensor:
#      x y z
#    x 3.811620 0.000000 0.000000 
#    y 0.000000 3.441610 0.000000 
#    z 0.000000 0.000000 3.607780 
# 
# 
# High freq. dielectric constant tensor:
#      x y z
#    x 1.777380 0.000000 0.000000 
#    y 0.000000 1.746000 0.000000 
#    z 0.000000 0.000000 1.772840 
# 
# From -- ./inp_files/19903.got.cif
#   From: 2010.03.12/outbox.cif.g09.slc.cpg/sg62_10_cif.got.tgz:19903.got - 2010.04.10 19:12:36.
