data_PCOD8252862
_publ_section_title
;
Structure prediction by ZEFSAII (Michael W. Deem and Ramdas Pophale) SiO2 
 PCOD8252862
Probable space group: P N M A
;
_chemical_formula_sum "Si O2"
_cell_formula_units_Z 48
_cell_length_a 10.198745
_cell_length_b 8.640536
_cell_length_c 27.920898
_cell_angle_alpha 90.000000
_cell_angle_beta 90.000000
_cell_angle_gamma 90.000000
_cell_volume 2460.462777
_symmetry_space_group_name_H-M "P N M A"
_symmetry_group_IT_number 62
_symmetry_cell_setting 'orthorhombic'
loop_
_space_group_symop_operation_xyz
x,y,z
1/2-x,-y,1/2+z
1/2+x,1/2-y,1/2-z
-x,1/2+y,-z
-x,-y,-z
1/2+x,y,1/2-z
1/2-x,1/2+y,1/2+z
x,1/2-y,z
loop_
_atom_site_type_symbol
_atom_site_label
_atom_site_fract_x
_atom_site_fract_y
_atom_site_fract_z
Si Si1 0.494953 0.571114 0.801200
Si Si2 0.652408 0.429521 0.546619
Si Si3 0.764310 0.927937 0.852795
Si Si4 0.503646 0.429340 0.699068
Si Si5 0.650709 0.929519 0.447459
Si Si6 0.261795 0.069503 0.358583
O O1 0.484822 0.750000 0.785026
O O2 0.617284 0.541906 0.835610
O O3 0.508699 0.464090 0.755086
O O4 0.365690 0.518241 0.829266
O O5 0.669453 0.250000 0.535226
O O6 0.502235 0.470808 0.558859
O O7 0.700010 0.523430 0.500124
O O8 0.740798 0.477682 0.591479
O O9 0.805035 0.750000 0.846015
O O10 0.860539 0.032818 0.821321
O O11 0.769394 0.973114 0.908487
O O12 0.534718 0.250000 0.689746
O O13 0.610654 0.531603 0.672227
O O14 0.678078 0.750000 0.438905
O O15 0.260267 0.250000 0.370491
#
# Coordination Sequence:
#
# PCOD8252862 Si02
#       6
#     8   8   8   8   8   8
#     4  10  24  42  59  84 117 156 197 238 289 346
#     4  10  20  35  58  88 119 149 190 238 286 341
#     4  11  22  39  62  86 117 154 194 240 290 342
#     4  12  24  38  59  88 117 152 198 242 287 342
#     4  10  20  35  58  88 119 149 190 238 286 341
#     4  11  22  39  62  86 117 154 194 240 290 342
#
# _framework density 19.508524999999999
#
# number of rings (size 3 to 8) (size 9 to 14) (size 15 to 20)
#    0.000    1.333    1.667    4.500    0.000    8.000 
#    0.000    0.833    0.000    0.000    0.000    0.000 
#    0.000    0.000    0.000    0.000    0.000    0.000 
#
# Total GULP energy -595560.352292 kJ/mol
# GULP energy per Si atom -12407.507339 kJ/mol
# Density = 1.946412 g / cm^3
# Si number density = 19.508525 Si / 1000 Ang^3
#
#
#
# Elastic Constant Matrix: (Units=GPa)
#
#
# Indices 1 2 3 4 5 6 
#
# 1 55.8352 14.5015 26.1350 0.0000 0.0000 0.0000
# 2 14.5015 48.7031 23.8236 0.0000 0.0000 0.0000
# 3 26.1350 23.8236 123.1525 0.0000 0.0000 0.0000
# 4 0.0000 0.0000 0.0000 37.7745 0.0000 0.0000
# 5 0.0000 0.0000 0.0000 0.0000 -2.3007 0.0000
# 6 0.0000 0.0000 0.0000 0.0000 0.0000 17.4040
#
#
#
# Elastic Compliance Matrix: (Units=1/GPa)
#
#
# Indices 1 2 3 4 5 6 
#
# 1 0.020719 -0.004438 -0.003538 0.000000 0.000000 0.000000
# 2 -0.004438 0.023629 -0.003629 0.000000 0.000000 0.000000
# 3 -0.003538 -0.003629 0.009573 0.000000 0.000000 0.000000
# 4 0.000000 0.000000 0.000000 0.026473 0.000000 0.000000
# 5 0.000000 0.000000 0.000000 0.000000 -0.434643 0.000000
# 6 0.000000 0.000000 0.000000 0.000000 0.000000 0.057458
#
#
# Mechanical properties :
#
#
# Convention : Reuss Voigt Hill
#
# Bulk Modulus (GPa) = 32.56314 39.62343 36.09329
# Shear Modulus (GPa) = -18.98664 21.45761 1.23548
#
# Velocity S-wave (km/s) = -3.12308 3.32009 0.79667
# Velocity P-wave (km/s) = 1.92955 5.92049 4.40315
#
# Compressibility (1/GPa) = 0.03070957
#
# Stress axis : x y z
#
# Youngs Moduli (GPa) = 48.26555 42.32025 104.46095
#
# Poissons Ratio (x) = 0.18783 0.36961
# Poissons Ratio (y) = 0.21422 0.37911
# Poissons Ratio (z) = 0.17078 0.15359
#
# Static dielectric constant tensor:
#      x y z
#    x 3.436760 0.000000 0.000000 
#    y 0.000000 3.620370 0.000000 
#    z 0.000000 0.000000 3.658600 
# 
# 
# High freq. dielectric constant tensor:
#      x y z
#    x 1.740750 0.000000 0.000000 
#    y 0.000000 1.768070 0.000000 
#    z 0.000000 0.000000 1.775160 
# 
# From -- ./inp_files/32035.got.cif
#   From: 2010.03.12/outbox.cif.g09.slc.cpg/sg62_17_cif.got.tgz:32035.got - 2010.04.10 19:12:36.
