data_PCOD8252602
_publ_section_title
;
Structure prediction by ZEFSAII (Michael W. Deem and Ramdas Pophale) SiO2 
 PCOD8252602
Probable space group: P N M A
;
_chemical_formula_sum "Si O2"
_cell_formula_units_Z 48
_cell_length_a 12.511928
_cell_length_b 21.415712
_cell_length_c 9.166206
_cell_angle_alpha 90.000000
_cell_angle_beta 90.000000
_cell_angle_gamma 90.000000
_cell_volume 2456.101824
_symmetry_space_group_name_H-M "P N M A"
_symmetry_group_IT_number 62
_symmetry_cell_setting 'orthorhombic'
loop_
_space_group_symop_operation_xyz
x,y,z
1/2-x,-y,1/2+z
1/2+x,1/2-y,1/2-z
-x,1/2+y,-z
-x,-y,-z
1/2+x,y,1/2-z
1/2-x,1/2+y,1/2+z
x,1/2-y,z
loop_
_atom_site_type_symbol
_atom_site_label
_atom_site_fract_x
_atom_site_fract_y
_atom_site_fract_z
Si Si1 0.779718 0.532202 0.987203
Si Si2 0.901146 0.611962 0.778089
Si Si3 0.122365 0.401829 0.766102
Si Si4 0.942735 0.024452 0.359792
Si Si5 0.983361 0.177498 0.975653
Si Si6 0.256148 0.111969 0.479538
O O1 0.873237 0.551435 0.876377
O O2 0.674762 0.546443 0.897185
O O3 0.781301 0.579754 0.124229
O O4 0.788323 0.460519 0.037379
O O5 0.807085 0.633626 0.667148
O O6 0.003088 0.587977 0.690729
O O7 0.940358 0.667986 0.882807
O O8 0.056188 0.466462 0.751862
O O9 0.176014 0.377602 0.616474
O O10 0.040625 0.351399 0.832610
O O11 0.000000 0.000000 0.500000
O O12 0.970313 0.250000 0.944914
O O13 0.864777 0.150300 0.001089
#
# Coordination Sequence:
#
# PCOD8252602 Si02
#       6
#     8   8   8   8   8   8
#     4  10  20  34  58  96 127 150 179 231 306 367
#     4  11  21  38  59  90 123 155 192 236 296 355
#     4  10  22  37  62  89 123 152 190 240 299 354
#     4  11  20  32  61  93 124 144 176 234 300 370
#     4  11  26  43  58  80 116 162 212 250 279 327
#     4  11  21  37  64  89 118 153 193 239 301 357
#
# _framework density 19.543164000000001
#
# number of rings (size 3 to 8) (size 9 to 14) (size 15 to 20)
#    0.000    1.333    3.333    5.000    2.333    4.000 
#    0.000    0.000    0.000    0.000    0.000    0.000 
#    0.000    0.000    0.000    0.000    0.000    0.000 
#
# Total GULP energy -594936.354713 kJ/mol
# GULP energy per Si atom -12394.507390 kJ/mol
# Density = 1.949868 g / cm^3
# Si number density = 19.543164 Si / 1000 Ang^3
#
#
#
# Elastic Constant Matrix: (Units=GPa)
#
#
# Indices 1 2 3 4 5 6 
#
# 1 94.5038 51.9789 35.5247 0.0000 0.0000 0.0000
# 2 51.9789 69.4451 30.6947 0.0000 0.0000 0.0000
# 3 35.5247 30.6947 101.3300 0.0000 0.0000 0.0000
# 4 0.0000 0.0000 0.0000 16.4994 0.0000 0.0000
# 5 0.0000 0.0000 0.0000 0.0000 28.1345 0.0000
# 6 0.0000 0.0000 0.0000 0.0000 0.0000 17.4929
#
#
#
# Elastic Compliance Matrix: (Units=1/GPa)
#
#
# Indices 1 2 3 4 5 6 
#
# 1 0.018586 -0.012737 -0.002658 0.000000 0.000000 0.000000
# 2 -0.012737 0.025354 -0.003215 0.000000 0.000000 0.000000
# 3 -0.002658 -0.003215 0.011774 0.000000 0.000000 0.000000
# 4 0.000000 0.000000 0.000000 0.060608 0.000000 0.000000
# 5 0.000000 0.000000 0.000000 0.000000 0.035543 0.000000
# 6 0.000000 0.000000 0.000000 0.000000 0.000000 0.057166
#
#
# Mechanical properties :
#
#
# Convention : Reuss Voigt Hill
#
# Bulk Modulus (GPa) = 54.06662 55.74172 54.90417
# Shear Modulus (GPa) = 19.80853 22.23076 21.01964
#
# Velocity S-wave (km/s) = 3.18713 3.37637 3.28312
# Velocity P-wave (km/s) = 6.42410 6.61696 6.52124
#
# Compressibility (1/GPa) = 0.01849570
#
# Stress axis : x y z
#
# Youngs Moduli (GPa) = 53.80353 39.44125 84.93012
#
# Poissons Ratio (x) = 0.50235 0.22573
# Poissons Ratio (y) = 0.68528 0.27304
# Poissons Ratio (z) = 0.14300 0.12680
#
# Static dielectric constant tensor:
#      x y z
#    x 3.598250 0.000000 0.000000 
#    y 0.000000 3.174220 0.000000 
#    z 0.000000 0.000000 3.890820 
# 
# 
# High freq. dielectric constant tensor:
#      x y z
#    x 1.772820 0.000000 0.000000 
#    y 0.000000 1.716590 0.000000 
#    z 0.000000 0.000000 1.781950 
# 
# From -- ./inp_files/5278.got.cif
#   From: 2010.03.12/outbox.cif.g09.slc.cpg/sg62_3_cif.got.tgz:5278.got - 2010.04.10 19:12:36.
