data_PCOD8252979
_publ_section_title
;
Structure prediction by ZEFSAII (Michael W. Deem and Ramdas Pophale) SiO2 
 PCOD8252979
Probable space group: P N M A
;
_chemical_formula_sum "Si O2"
_cell_formula_units_Z 64
_cell_length_a 28.550036
_cell_length_b 9.307123
_cell_length_c 12.571297
_cell_angle_alpha 90.000000
_cell_angle_beta 90.000000
_cell_angle_gamma 90.000000
_cell_volume 3340.428655
_symmetry_space_group_name_H-M "P N M A"
_symmetry_group_IT_number 62
_symmetry_cell_setting 'orthorhombic'
loop_
_space_group_symop_operation_xyz
x,y,z
1/2-x,-y,1/2+z
1/2+x,1/2-y,1/2-z
-x,1/2+y,-z
-x,-y,-z
1/2+x,y,1/2-z
1/2-x,1/2+y,1/2+z
x,1/2-y,z
loop_
_atom_site_type_symbol
_atom_site_label
_atom_site_fract_x
_atom_site_fract_y
_atom_site_fract_z
Si Si1 0.930965 0.085468 0.747458
Si Si2 0.516886 0.419447 0.896294
Si Si3 0.373314 0.916562 0.397114
Si Si4 0.701123 0.418365 0.993679
Si Si5 0.659321 0.082902 0.216652
Si Si6 0.452026 0.082214 0.511663
Si Si7 0.794093 0.918067 0.935103
Si Si8 0.880283 0.582133 0.343277
O O1 0.919302 0.250000 0.722947
O O2 0.931389 0.053720 0.872159
O O3 0.981221 0.043201 0.699001
O O4 0.890009 0.993126 0.694348
O O5 0.518266 0.250000 0.919046
O O6 0.567782 0.481680 0.862846
O O7 0.500000 0.500000 0.000000
O O8 0.388060 0.750000 0.412435
O O9 0.328366 0.954773 0.467570
O O10 0.361486 0.951857 0.274883
O O11 0.416250 0.017502 0.427287
O O12 0.707852 0.250000 0.971754
O O13 0.746608 0.498261 0.953089
O O14 0.656886 0.480744 0.927560
O O15 0.693658 0.450155 0.118342
O O16 0.647854 0.250000 0.226108
O O17 0.683352 0.026457 0.324739
O O18 0.459916 0.250000 0.489162
O O19 0.500000 0.000000 0.500000
O O20 0.782881 0.750000 0.928743
O O21 0.884485 0.750000 0.362059
#
# Coordination Sequence:
#
# PCOD8252979 Si02
#       8
#     8   8   8   8   8   8   8   8
#     4  10  21  36  57  85 114 149 191 238 285 340
#     4  10  20  36  57  82 114 150 192 234 279 335
#     4  10  20  38  60  81 112 149 188 233 288 344
#     4  10  22  38  60  85 112 151 196 236 284 348
#     4  10  21  39  60  85 115 148 189 239 291 341
#     4  11  22  36  56  84 115 150 191 232 282 338
#     4  10  22  38  58  85 114 148 186 237 299 344
#     4   9  19  37  59  83 113 154 193 229 279 345
#
# _framework density 19.159217999999999
#
# number of rings (size 3 to 8) (size 9 to 14) (size 15 to 20)
#    0.000    2.000    1.250    1.875    1.750    5.500 
#    0.000    3.125    0.000    0.000    0.000    0.000 
#    0.000    0.000    0.000    0.000    0.000    0.000 
#
# Total GULP energy -793782.573082 kJ/mol
# GULP energy per Si atom -12402.852704 kJ/mol
# Density = 1.911561 g / cm^3
# Si number density = 19.159218 Si / 1000 Ang^3
#
#
#
# Elastic Constant Matrix: (Units=GPa)
#
#
# Indices 1 2 3 4 5 6 
#
# 1 155.0124 48.6421 61.1331 0.0000 0.0000 0.0000
# 2 48.6421 49.8567 30.1936 0.0000 0.0000 0.0000
# 3 61.1331 30.1936 123.3099 0.0000 0.0000 0.0000
# 4 0.0000 0.0000 0.0000 24.4195 0.0000 0.0000
# 5 0.0000 0.0000 0.0000 0.0000 31.9729 0.0000
# 6 0.0000 0.0000 0.0000 0.0000 0.0000 39.2253
#
#
#
# Elastic Compliance Matrix: (Units=1/GPa)
#
#
# Indices 1 2 3 4 5 6 
#
# 1 0.010204 -0.008092 -0.003077 0.000000 0.000000 0.000000
# 2 -0.008092 0.029966 -0.003326 0.000000 0.000000 0.000000
# 3 -0.003077 -0.003326 0.010450 0.000000 0.000000 0.000000
# 4 0.000000 0.000000 0.000000 0.040951 0.000000 0.000000
# 5 0.000000 0.000000 0.000000 0.000000 0.031276 0.000000
# 6 0.000000 0.000000 0.000000 0.000000 0.000000 0.025494
#
#
# Mechanical properties :
#
#
# Convention : Reuss Voigt Hill
#
# Bulk Modulus (GPa) = 46.23248 67.56852 56.90050
# Shear Modulus (GPa) = 27.09429 31.67089 29.38259
#
# Velocity S-wave (km/s) = 3.76462 4.07017 3.92037
# Velocity P-wave (km/s) = 6.56350 7.57837 7.08912
#
# Compressibility (1/GPa) = 0.02162982
#
# Stress axis : x y z
#
# Youngs Moduli (GPa) = 98.00214 33.37097 95.69612
#
# Poissons Ratio (x) = 0.27002 0.29450
# Poissons Ratio (y) = 0.79299 0.31828
# Poissons Ratio (z) = 0.30160 0.11099
#
# Static dielectric constant tensor:
#      x y z
#    x 3.625300 0.000000 0.000000 
#    y 0.000000 3.301760 0.000000 
#    z 0.000000 0.000000 3.724160 
# 
# 
# High freq. dielectric constant tensor:
#      x y z
#    x 1.752510 0.000000 0.000000 
#    y 0.000000 1.724960 0.000000 
#    z 0.000000 0.000000 1.758660 
# 
# From -- ./inp_files/15916.got.cif
#   From: 2010.03.12/outbox.cif.g09.slc.cpg/sg62_8_cif.got.tgz:15916.got - 2010.04.10 19:12:36.
