data_PCOD8252255
_publ_section_title
;
Structure prediction by ZEFSAII (Michael W. Deem and Ramdas Pophale) SiO2 
 PCOD8252255
Probable space group: P N M A
;
_chemical_formula_sum "Si O2"
_cell_formula_units_Z 40
_cell_length_a 4.968770
_cell_length_b 18.431092
_cell_length_c 21.633731
_cell_angle_alpha 90.000000
_cell_angle_beta 90.000000
_cell_angle_gamma 90.000000
_cell_volume 1981.213991
_symmetry_space_group_name_H-M "P N M A"
_symmetry_group_IT_number 62
_symmetry_cell_setting 'orthorhombic'
loop_
_space_group_symop_operation_xyz
x,y,z
1/2-x,-y,1/2+z
1/2+x,1/2-y,1/2-z
-x,1/2+y,-z
-x,-y,-z
1/2+x,y,1/2-z
1/2-x,1/2+y,1/2+z
x,1/2-y,z
loop_
_atom_site_type_symbol
_atom_site_label
_atom_site_fract_x
_atom_site_fract_y
_atom_site_fract_z
Si Si1 0.421764 0.475389 0.712675
Si Si2 0.523607 0.353924 0.285802
Si Si3 0.701400 0.750000 0.962918
Si Si4 0.741534 0.094194 0.510346
Si Si5 0.741465 0.463157 0.925092
Si Si6 0.310597 0.250000 0.384279
O O1 0.710255 0.446428 0.735753
O O2 0.463094 0.560795 0.709074
O O3 0.324097 0.450037 0.645686
O O4 0.822515 0.326547 0.269057
O O5 0.402835 0.322288 0.348601
O O6 0.502975 0.750000 0.903115
O O7 0.015316 0.750000 0.946172
O O8 0.658258 0.823480 0.001466
O O9 0.436834 0.087787 0.534391
O O10 0.935562 0.061312 0.563109
O O11 0.749106 0.047853 0.446258
#
# Coordination Sequence:
#
# PCOD8252255 Si02
#       6
#     8   8   4   8   8   4
#     4  10  20  33  54  82 109 139 181 230 274 326
#     4  10  20  33  48  72 107 147 186 218 257 310
#     4  12  24  37  54  84 108 141 190 232 284 332
#     4  10  22  37  58  81 111 147 186 231 278 336
#     4  10  20  38  58  82 112 147 184 228 284 334
#     4  12  22  33  52  72 110 151 184 224 262 324
#
# _framework density 20.189641999999999
#
# number of rings (size 3 to 8) (size 9 to 14) (size 15 to 20)
#    0.000    1.600    0.000    5.400    0.000    6.400 
#    0.000    0.000    0.000    0.000    0.000   14.000 
#    0.000    0.000    0.000    0.000    0.000    0.000 
#
# Total GULP energy -495698.895680 kJ/mol
# GULP energy per Si atom -12392.472392 kJ/mol
# Density = 2.014369 g / cm^3
# Si number density = 20.189642 Si / 1000 Ang^3
#
#
#
# Elastic Constant Matrix: (Units=GPa)
#
#
# Indices 1 2 3 4 5 6 
#
# 1 83.8300 14.7899 8.9930 0.0000 0.0000 0.0000
# 2 14.7899 71.3629 27.1109 0.0000 0.0000 0.0000
# 3 8.9930 27.1109 79.1833 0.0000 0.0000 0.0000
# 4 0.0000 0.0000 0.0000 31.9927 0.0000 0.0000
# 5 0.0000 0.0000 0.0000 0.0000 34.8504 0.0000
# 6 0.0000 0.0000 0.0000 0.0000 0.0000 13.1411
#
#
#
# Elastic Compliance Matrix: (Units=1/GPa)
#
#
# Indices 1 2 3 4 5 6 
#
# 1 0.012407 -0.002340 -0.000608 0.000000 0.000000 0.000000
# 2 -0.002340 0.016550 -0.005400 0.000000 0.000000 0.000000
# 3 -0.000608 -0.005400 0.014547 0.000000 0.000000 0.000000
# 4 0.000000 0.000000 0.000000 0.031257 0.000000 0.000000
# 5 0.000000 0.000000 0.000000 0.000000 0.028694 0.000000
# 6 0.000000 0.000000 0.000000 0.000000 0.000000 0.076097
#
#
# Mechanical properties :
#
#
# Convention : Reuss Voigt Hill
#
# Bulk Modulus (GPa) = 37.30475 37.35151 37.32813
# Shear Modulus (GPa) = 24.36829 28.22900 26.29865
#
# Velocity S-wave (km/s) = 3.47792 3.74330 3.61304
# Velocity P-wave (km/s) = 5.88601 6.10111 5.99453
#
# Compressibility (1/GPa) = 0.02680623
#
# Stress axis : x y z
#
# Youngs Moduli (GPa) = 80.59951 60.42453 68.74284
#
# Poissons Ratio (x) = 0.14142 0.04178
# Poissons Ratio (y) = 0.18864 0.37124
# Poissons Ratio (z) = 0.04899 0.32632
#
# Static dielectric constant tensor:
#      x y z
#    x 4.089140 0.000000 0.000000 
#    y 0.000000 3.336920 0.000000 
#    z 0.000000 0.000000 3.433700 
# 
# 
# High freq. dielectric constant tensor:
#      x y z
#    x 1.815940 0.000000 0.000000 
#    y 0.000000 1.747680 0.000000 
#    z 0.000000 0.000000 1.770150 
# 
# From -- ./inp_files/21516.got.cif
#   From: 2010.03.12/outbox.cif.g09.slc.cpg/sg62_11_cif.got.tgz:21516.got - 2010.04.10 19:12:36.
