data_PCOD8252316
_publ_section_title
;
Structure prediction by ZEFSAII (Michael W. Deem and Ramdas Pophale) SiO2 
 PCOD8252316
Probable space group: P N M A
;
_chemical_formula_sum "Si O2"
_cell_formula_units_Z 64
_cell_length_a 24.514648
_cell_length_b 9.247349
_cell_length_c 15.356512
_cell_angle_alpha 90.000000
_cell_angle_beta 90.000000
_cell_angle_gamma 90.000000
_cell_volume 3481.252253
_symmetry_space_group_name_H-M "P N M A"
_symmetry_group_IT_number 62
_symmetry_cell_setting 'orthorhombic'
loop_
_space_group_symop_operation_xyz
x,y,z
1/2-x,-y,1/2+z
1/2+x,1/2-y,1/2-z
-x,1/2+y,-z
-x,-y,-z
1/2+x,y,1/2-z
1/2-x,1/2+y,1/2+z
x,1/2-y,z
loop_
_atom_site_type_symbol
_atom_site_label
_atom_site_fract_x
_atom_site_fract_y
_atom_site_fract_z
Si Si1 0.426814 0.919344 0.372809
Si Si2 0.191851 0.082312 0.810399
Si Si3 0.470692 0.083567 0.885198
Si Si4 0.958910 0.080911 0.803906
Si Si5 0.685151 0.420059 0.885375
Si Si6 0.225428 0.579968 0.975486
Si Si7 0.077050 0.917627 0.564973
Si Si8 0.607307 0.579213 0.463959
O O1 0.429215 0.750000 0.393057
O O2 0.372024 0.958800 0.319748
O O3 0.479202 0.974669 0.318867
O O4 0.429207 0.004002 0.463205
O O5 0.201908 0.250000 0.830236
O O6 0.209068 0.043614 0.711060
O O7 0.228504 0.995330 0.880533
O O8 0.491373 0.250000 0.884895
O O9 0.441081 0.042546 0.794463
O O10 0.522474 0.980765 0.893562
O O11 0.426372 0.058652 0.960690
O O12 0.959162 0.250000 0.819413
O O13 0.914637 0.017355 0.871520
O O14 0.673776 0.250000 0.892122
O O15 0.628730 0.501179 0.897640
O O16 0.726389 0.472670 0.960654
O O17 0.228601 0.750000 0.959244
O O18 0.170186 0.534221 0.024955
O O19 0.081418 0.750000 0.589714
O O20 0.600197 0.750000 0.473308
#
# Coordination Sequence:
#
# PCOD8252316 Si02
#       8
#     8   8   8   8   8   8   8   8
#     4   9  16  27  46  70  96 126 163 202 245 297
#     4   9  18  33  53  75  97 131 175 214 256 310
#     4   9  18  34  52  73 104 137 165 201 255 311
#     4   9  16  28  48  72  97 130 166 198 240 302
#     4  10  20  36  56  76 101 139 178 211 260 318
#     4   9  19  35  52  74 103 134 169 216 266 305
#     4  10  20  33  52  79 103 130 169 215 258 298
#     4   9  17  30  47  68  97 129 163 206 250 293
#
# _framework density 18.384188999999999
#
# number of rings (size 3 to 8) (size 9 to 14) (size 15 to 20)
#    0.000    2.750    0.000    1.500    0.000    3.500 
#    2.250    3.750    0.000    0.000    0.000    0.000 
#    0.000    0.000    0.000    0.000    0.000    0.000 
#
# Total GULP energy -793359.176785 kJ/mol
# GULP energy per Si atom -12396.237137 kJ/mol
# Density = 1.834235 g / cm^3
# Si number density = 18.384189 Si / 1000 Ang^3
#
#
#
# Elastic Constant Matrix: (Units=GPa)
#
#
# Indices 1 2 3 4 5 6 
#
# 1 42.9281 21.0017 34.9084 0.0000 0.0000 0.0000
# 2 21.0017 39.5027 38.7201 0.0000 0.0000 0.0000
# 3 34.9084 38.7201 137.0409 0.0000 0.0000 0.0000
# 4 0.0000 0.0000 0.0000 27.6436 0.0000 0.0000
# 5 0.0000 0.0000 0.0000 0.0000 25.8106 0.0000
# 6 0.0000 0.0000 0.0000 0.0000 0.0000 18.8817
#
#
#
# Elastic Compliance Matrix: (Units=1/GPa)
#
#
# Indices 1 2 3 4 5 6 
#
# 1 0.033679 -0.013134 -0.004868 0.000000 0.000000 0.000000
# 2 -0.013134 0.040133 -0.007994 0.000000 0.000000 0.000000
# 3 -0.004868 -0.007994 0.010796 0.000000 0.000000 0.000000
# 4 0.000000 0.000000 0.000000 0.036175 0.000000 0.000000
# 5 0.000000 0.000000 0.000000 0.000000 0.038744 0.000000
# 6 0.000000 0.000000 0.000000 0.000000 0.000000 0.052961
#
#
# Mechanical properties :
#
#
# Convention : Reuss Voigt Hill
#
# Bulk Modulus (GPa) = 30.65975 45.41470 38.03723
# Shear Modulus (GPa) = 18.15869 22.78993 20.47431
#
# Velocity S-wave (km/s) = 3.14623 3.52468 3.34082
# Velocity P-wave (km/s) = 5.46917 6.42816 5.96796
#
# Compressibility (1/GPa) = 0.03261605
#
# Stress axis : x y z
#
# Youngs Moduli (GPa) = 29.69221 24.91741 92.62928
#
# Poissons Ratio (x) = 0.32726 0.45093
# Poissons Ratio (y) = 0.38997 0.74045
# Poissons Ratio (z) = 0.14455 0.19918
#
# Static dielectric constant tensor:
#      x y z
#    x 3.300330 0.000000 0.000000 
#    y 0.000000 3.223210 0.000000 
#    z 0.000000 0.000000 3.687560 
# 
# 
# High freq. dielectric constant tensor:
#      x y z
#    x 1.693400 0.000000 0.000000 
#    y 0.000000 1.693710 0.000000 
#    z 0.000000 0.000000 1.725960 
# 
# From -- ./inp_files/20830.got.cif
#   From: 2010.03.12/outbox.cif.g09.slc.cpg/sg62_11_cif.got.tgz:20830.got - 2010.04.10 19:12:36.
