data_PCOD8252357
_publ_section_title
;
Structure prediction by ZEFSAII (Michael W. Deem and Ramdas Pophale) SiO2 
 PCOD8252357
Probable space group: P N M A
;
_chemical_formula_sum "Si O2"
_cell_formula_units_Z 48
_cell_length_a 11.586694
_cell_length_b 18.062090
_cell_length_c 11.651244
_cell_angle_alpha 90.000000
_cell_angle_beta 90.000000
_cell_angle_gamma 90.000000
_cell_volume 2438.371294
_symmetry_space_group_name_H-M "P N M A"
_symmetry_group_IT_number 62
_symmetry_cell_setting 'orthorhombic'
loop_
_space_group_symop_operation_xyz
x,y,z
1/2-x,-y,1/2+z
1/2+x,1/2-y,1/2-z
-x,1/2+y,-z
-x,-y,-z
1/2+x,y,1/2-z
1/2-x,1/2+y,1/2+z
x,1/2-y,z
loop_
_atom_site_type_symbol
_atom_site_label
_atom_site_fract_x
_atom_site_fract_y
_atom_site_fract_z
Si Si1 0.509963 0.082160 0.448061
Si Si2 0.687134 0.889262 0.400335
Si Si3 0.522765 0.568040 0.813277
Si Si4 0.242749 0.554896 0.545240
Si Si5 0.090904 0.913637 0.340756
Si Si6 0.080978 0.333777 0.500613
O O1 0.423267 0.133264 0.521381
O O2 0.472264 0.093045 0.317125
O O3 0.643928 0.107519 0.455995
O O4 0.500000 0.000000 0.500000
O O5 0.649313 0.875622 0.269228
O O6 0.795434 0.839949 0.437052
O O7 0.719525 0.974570 0.413663
O O8 0.648160 0.585357 0.866060
O O9 0.495851 0.480708 0.812684
O O10 0.428236 0.612406 0.889562
O O11 0.192899 0.552278 0.417494
O O12 0.018942 0.851710 0.407792
O O13 0.063970 0.250000 0.458444
#
# Coordination Sequence:
#
# PCOD8252357 Si02
#       6
#     8   8   8   8   8   8
#     4  10  22  31  58  98 122 143 191 260 316 365
#     4  11  22  34  63  91 123 154 202 261 319 360
#     4  11  20  38  63  91 121 159 207 262 311 366
#     4  10  20  33  57  94 121 148 195 258 317 356
#     4  11  21  37  64  91 121 159 209 265 310 360
#     4  11  25  43  61  86 125 173 211 247 315 389
#
# _framework density 19.685272000000001
#
# number of rings (size 3 to 8) (size 9 to 14) (size 15 to 20)
#    0.000    1.333    6.667    1.000    9.333    0.667 
#    0.000    0.833    0.000    1.000    0.000    0.000 
#    0.000    0.000    0.000    0.000    0.000    0.000 
#
# Total GULP energy -595077.730959 kJ/mol
# GULP energy per Si atom -12397.452728 kJ/mol
# Density = 1.964047 g / cm^3
# Si number density = 19.685272 Si / 1000 Ang^3
#
#
#
# Elastic Constant Matrix: (Units=GPa)
#
#
# Indices 1 2 3 4 5 6 
#
# 1 125.5764 5.7300 45.7377 0.0000 0.0000 0.0000
# 2 5.7300 48.6319 2.1763 0.0000 0.0000 0.0000
# 3 45.7377 2.1763 149.9786 0.0000 0.0000 0.0000
# 4 0.0000 0.0000 0.0000 4.5872 0.0000 0.0000
# 5 0.0000 0.0000 0.0000 0.0000 28.4695 0.0000
# 6 0.0000 0.0000 0.0000 0.0000 0.0000 9.4055
#
#
#
# Elastic Compliance Matrix: (Units=1/GPa)
#
#
# Indices 1 2 3 4 5 6 
#
# 1 0.009001 -0.000938 -0.002731 0.000000 0.000000 0.000000
# 2 -0.000938 0.020674 -0.000014 0.000000 0.000000 0.000000
# 3 -0.002731 -0.000014 0.007501 0.000000 0.000000 0.000000
# 4 0.000000 0.000000 0.000000 0.217997 0.000000 0.000000
# 5 0.000000 0.000000 0.000000 0.000000 0.035125 0.000000
# 6 0.000000 0.000000 0.000000 0.000000 0.000000 0.106321
#
#
# Mechanical properties :
#
#
# Convention : Reuss Voigt Hill
#
# Bulk Modulus (GPa) = 33.54738 47.94164 40.74451
# Shear Modulus (GPa) = 12.07958 26.52864 19.30411
#
# Velocity S-wave (km/s) = 2.47985 3.67500 3.13491
# Velocity P-wave (km/s) = 5.02777 6.51264 5.81777
#
# Compressibility (1/GPa) = 0.02980859
#
# Stress axis : x y z
#
# Youngs Moduli (GPa) = 111.10006 48.37034 133.31980
#
# Poissons Ratio (x) = 0.04539 0.36414
# Poissons Ratio (y) = 0.10424 0.00185
# Poissons Ratio (z) = 0.30345 0.00067
#
# Static dielectric constant tensor:
#      x y z
#    x 4.384910 0.000000 0.000000 
#    y 0.000000 3.012090 0.000000 
#    z 0.000000 0.000000 3.725750 
# 
# 
# High freq. dielectric constant tensor:
#      x y z
#    x 1.788900 0.000000 0.000000 
#    y 0.000000 1.702250 0.000000 
#    z 0.000000 0.000000 1.779110 
# 
# From -- ./inp_files/12256.got.cif
#   From: 2010.03.12/outbox.cif.g09.slc.cpg/sg62_7_cif.got.tgz:12256.got - 2010.04.10 19:12:36.
