data_PCOD8252706
_publ_section_title
;
Structure prediction by ZEFSAII (Michael W. Deem and Ramdas Pophale) SiO2 
 PCOD8252706
Probable space group: P N M A
;
_chemical_formula_sum "Si O2"
_cell_formula_units_Z 48
_cell_length_a 15.424739
_cell_length_b 17.808490
_cell_length_c 9.086493
_cell_angle_alpha 90.000000
_cell_angle_beta 90.000000
_cell_angle_gamma 90.000000
_cell_volume 2495.980668
_symmetry_space_group_name_H-M "P N M A"
_symmetry_group_IT_number 62
_symmetry_cell_setting 'orthorhombic'
loop_
_space_group_symop_operation_xyz
x,y,z
1/2-x,-y,1/2+z
1/2+x,1/2-y,1/2-z
-x,1/2+y,-z
-x,-y,-z
1/2+x,y,1/2-z
1/2-x,1/2+y,1/2+z
x,1/2-y,z
loop_
_atom_site_type_symbol
_atom_site_label
_atom_site_fract_x
_atom_site_fract_y
_atom_site_fract_z
Si Si1 0.233474 0.160651 0.564863
Si Si2 0.939695 0.933804 0.947083
Si Si3 0.404394 0.336678 0.401315
Si Si4 0.233367 0.078949 0.865834
Si Si5 0.821931 0.576119 0.691909
Si Si6 0.307203 0.337272 0.121380
O O1 0.219279 0.250000 0.549470
O O2 0.326283 0.130625 0.502282
O O3 0.223784 0.136640 0.732388
O O4 0.161923 0.113665 0.468706
O O5 0.909539 0.947150 0.777649
O O6 0.001088 0.861358 0.952807
O O7 0.859294 0.924575 0.055601
O O8 0.000000 0.000000 0.000000
O O9 0.399035 0.250000 0.428904
O O10 0.388882 0.355953 0.227887
O O11 0.260001 0.996595 0.813528
O O12 0.307940 0.111912 0.974305
O O13 0.778889 0.642893 0.787054
O O14 0.304753 0.250000 0.076602
#
# Coordination Sequence:
#
# PCOD8252706 Si02
#       6
#     8   8   8   8   8   8
#     4  10  20  37  58  83 114 148 184 230 283 339
#     4  11  22  36  57  82 111 144 186 237 282 329
#     4   9  19  36  57  79 109 143 179 224 278 329
#     4  11  21  35  58  85 111 145 190 233 273 331
#     4  10  20  35  56  78 109 149 188 224 269 335
#     4   9  18  35  57  79 105 145 187 220 261 329
#
# _framework density 19.230917999999999
#
# number of rings (size 3 to 8) (size 9 to 14) (size 15 to 20)
#    0.000    2.000    0.000    7.000    0.000    4.000 
#    0.000    5.000    0.000    0.000    0.000    0.000 
#    0.000    0.000    0.000    0.000    0.000    0.000 
#
# Total GULP energy -594865.213907 kJ/mol
# GULP energy per Si atom -12393.025290 kJ/mol
# Density = 1.918715 g / cm^3
# Si number density = 19.230918 Si / 1000 Ang^3
#
#
#
# Elastic Constant Matrix: (Units=GPa)
#
#
# Indices 1 2 3 4 5 6 
#
# 1 91.9701 37.2274 42.3255 0.0000 0.0000 0.0000
# 2 37.2274 75.1796 40.2067 0.0000 0.0000 0.0000
# 3 42.3255 40.2067 112.7347 0.0000 0.0000 0.0000
# 4 0.0000 0.0000 0.0000 33.7396 0.0000 0.0000
# 5 0.0000 0.0000 0.0000 0.0000 34.8756 0.0000
# 6 0.0000 0.0000 0.0000 0.0000 0.0000 31.3545
#
#
#
# Elastic Compliance Matrix: (Units=1/GPa)
#
#
# Indices 1 2 3 4 5 6 
#
# 1 0.014700 -0.005347 -0.003612 0.000000 0.000000 0.000000
# 2 -0.005347 0.018382 -0.004548 0.000000 0.000000 0.000000
# 3 -0.003612 -0.004548 0.011849 0.000000 0.000000 0.000000
# 4 0.000000 0.000000 0.000000 0.029639 0.000000 0.000000
# 5 0.000000 0.000000 0.000000 0.000000 0.028673 0.000000
# 6 0.000000 0.000000 0.000000 0.000000 0.000000 0.031893
#
#
# Mechanical properties :
#
#
# Convention : Reuss Voigt Hill
#
# Bulk Modulus (GPa) = 55.81816 57.71151 56.76484
# Shear Modulus (GPa) = 29.74027 30.66892 30.20460
#
# Velocity S-wave (km/s) = 3.93680 3.99779 3.96741
# Velocity P-wave (km/s) = 7.05356 7.16831 7.11117
#
# Compressibility (1/GPa) = 0.01791532
#
# Stress axis : x y z
#
# Youngs Moduli (GPa) = 68.02821 54.40155 84.39879
#
# Poissons Ratio (x) = 0.29091 0.30483
# Poissons Ratio (y) = 0.36378 0.38386
# Poissons Ratio (z) = 0.24570 0.24743
#
# Static dielectric constant tensor:
#      x y z
#    x -1.031180 0.000000 0.000000 
#    y 0.000000 3.706470 0.000000 
#    z 0.000000 0.000000 3.809760 
# 
# 
# High freq. dielectric constant tensor:
#      x y z
#    x 1.715220 0.000000 0.000000 
#    y 0.000000 1.761550 0.000000 
#    z 0.000000 0.000000 1.754290 
# 
# From -- ./inp_files/6429.got.cif
#   From: 2010.03.12/outbox.cif.g09.slc.cpg/sg62_4_cif.got.tgz:6429.got - 2010.04.10 19:12:36.
