data_PCOD8252945
_publ_section_title
;
Structure prediction by ZEFSAII (Michael W. Deem and Ramdas Pophale) SiO2 
 PCOD8252945
Probable space group: P N M A
;
_chemical_formula_sum "Si O2"
_cell_formula_units_Z 64
_cell_length_a 24.455008
_cell_length_b 8.955270
_cell_length_c 14.981724
_cell_angle_alpha 90.000000
_cell_angle_beta 90.000000
_cell_angle_gamma 90.000000
_cell_volume 3281.015526
_symmetry_space_group_name_H-M "P N M A"
_symmetry_group_IT_number 62
_symmetry_cell_setting 'orthorhombic'
loop_
_space_group_symop_operation_xyz
x,y,z
1/2-x,-y,1/2+z
1/2+x,1/2-y,1/2-z
-x,1/2+y,-z
-x,-y,-z
1/2+x,y,1/2-z
1/2-x,1/2+y,1/2+z
x,1/2-y,z
loop_
_atom_site_type_symbol
_atom_site_label
_atom_site_fract_x
_atom_site_fract_y
_atom_site_fract_z
Si Si1 0.367107 0.572334 0.854232
Si Si2 0.256482 0.083838 0.143770
Si Si3 0.635231 0.426218 0.855756
Si Si4 0.745597 0.586239 0.644457
Si Si5 0.862329 0.927387 0.847341
Si Si6 0.440682 0.071876 0.001624
Si Si7 0.860933 0.924794 0.151518
Si Si8 0.058465 0.427054 0.999061
O O1 0.376799 0.750000 0.864461
O O2 0.305536 0.529365 0.886037
O O3 0.376360 0.517345 0.752452
O O4 0.409129 0.480750 0.913620
O O5 0.266753 0.250000 0.103786
O O6 0.255176 0.094307 0.249625
O O7 0.197085 0.016668 0.116426
O O8 0.304395 0.973876 0.110202
O O9 0.628038 0.250000 0.870248
O O10 0.589566 0.514442 0.909971
O O11 0.627747 0.476106 0.752797
O O12 0.735032 0.750000 0.604241
O O13 0.696690 0.481266 0.611289
O O14 0.858398 0.750000 0.845555
O O15 0.908908 0.985077 0.914097
O O16 0.445010 0.250000 0.003556
O O17 0.500000 0.000000 0.000000
O O18 0.856426 0.750000 0.146295
O O19 0.910226 0.982656 0.089718
O O20 0.052415 0.250000 0.000616
O O21 0.000000 0.500000 0.000000
#
# Coordination Sequence:
#
# PCOD8252945 Si02
#       8
#     8   8   8   8   8   8   8   8
#     4   9  18  36  59  84 112 142 175 218 268 322
#     4   8  14  29  53  82 111 142 178 215 259 319
#     4  10  20  36  56  81 113 146 177 219 270 320
#     4   8  15  29  53  82 112 141 174 215 263 319
#     4   8  16  33  58  82 110 146 180 215 264 322
#     4  12  26  42  58  78 104 140 185 232 277 329
#     4   9  19  34  54  80 114 148 179 219 267 314
#     4  10  21  37  53  75 105 141 184 225 261 307
#
# _framework density 19.506157000000002
#
# number of rings (size 3 to 8) (size 9 to 14) (size 15 to 20)
#    0.000    2.750    0.000    3.000    0.000    3.500 
#    0.000    6.875    0.000    0.000    0.000    0.000 
#    0.000    0.000    0.000    0.000    0.000    0.000 
#
# Total GULP energy -793315.389920 kJ/mol
# GULP energy per Si atom -12395.552968 kJ/mol
# Density = 1.946176 g / cm^3
# Si number density = 19.506157 Si / 1000 Ang^3
#
#
#
# Elastic Constant Matrix: (Units=GPa)
#
#
# Indices 1 2 3 4 5 6 
#
# 1 193.4411 60.3340 80.9186 0.0000 0.0000 0.0000
# 2 60.3340 69.6125 42.0486 0.0000 0.0000 0.0000
# 3 80.9186 42.0486 103.5488 0.0000 0.0000 0.0000
# 4 0.0000 0.0000 0.0000 21.5780 0.0000 0.0000
# 5 0.0000 0.0000 0.0000 0.0000 -213.6412 0.0000
# 6 0.0000 0.0000 0.0000 0.0000 0.0000 37.8912
#
#
#
# Elastic Compliance Matrix: (Units=1/GPa)
#
#
# Indices 1 2 3 4 5 6 
#
# 1 0.008633 -0.004515 -0.004913 0.000000 0.000000 0.000000
# 2 -0.004515 0.021395 -0.005160 0.000000 0.000000 0.000000
# 3 -0.004913 -0.005160 0.015592 0.000000 0.000000 0.000000
# 4 0.000000 0.000000 0.000000 0.046344 0.000000 0.000000
# 5 0.000000 0.000000 0.000000 0.000000 -0.004681 0.000000
# 6 0.000000 0.000000 0.000000 0.000000 0.000000 0.026391
#
#
# Mechanical properties :
#
#
# Convention : Reuss Voigt Hill
#
# Bulk Modulus (GPa) = 60.81020 81.46720 71.13870
# Shear Modulus (GPa) = 33.70867 -18.61431 7.54718
#
# Velocity S-wave (km/s) = 4.16156 -3.09249 1.96914
# Velocity P-wave (km/s) = 7.37116 5.39483 6.45903
#
# Compressibility (1/GPa) = 0.01644461
#
# Stress axis : x y z
#
# Youngs Moduli (GPa) = 115.83877 46.74010 64.13639
#
# Poissons Ratio (x) = 0.21101 0.31509
# Poissons Ratio (y) = 0.52296 0.33095
# Poissons Ratio (z) = 0.56909 0.24118
#
# Static dielectric constant tensor:
#      x y z
#    x 3.795780 0.000000 0.000000 
#    y 0.000000 3.820570 0.000000 
#    z 0.000000 0.000000 3.735650 
# 
# 
# High freq. dielectric constant tensor:
#      x y z
#    x 1.765290 0.000000 0.000000 
#    y 0.000000 1.738370 0.000000 
#    z 0.000000 0.000000 1.756310 
# 
# From -- ./inp_files/20848.got.cif
#   From: 2010.03.12/outbox.cif.g09.slc.cpg/sg62_11_cif.got.tgz:20848.got - 2010.04.10 19:12:36.
