data_PCOD8252578
_publ_section_title
;
Structure prediction by ZEFSAII (Michael W. Deem and Ramdas Pophale) SiO2 
 PCOD8252578
Probable space group: P N M A
;
_chemical_formula_sum "Si O2"
_cell_formula_units_Z 64
_cell_length_a 22.382081
_cell_length_b 22.096418
_cell_length_c 6.495955
_cell_angle_alpha 90.000000
_cell_angle_beta 90.000000
_cell_angle_gamma 90.000000
_cell_volume 3212.664303
_symmetry_space_group_name_H-M "P N M A"
_symmetry_group_IT_number 62
_symmetry_cell_setting 'orthorhombic'
loop_
_space_group_symop_operation_xyz
x,y,z
1/2-x,-y,1/2+z
1/2+x,1/2-y,1/2-z
-x,1/2+y,-z
-x,-y,-z
1/2+x,y,1/2-z
1/2-x,1/2+y,1/2+z
x,1/2-y,z
loop_
_atom_site_type_symbol
_atom_site_label
_atom_site_fract_x
_atom_site_fract_y
_atom_site_fract_z
Si Si1 0.230201 0.411529 0.653006
Si Si2 0.399937 0.020144 0.668233
Si Si3 0.604674 0.096089 0.040628
Si Si4 0.064617 0.817566 0.502895
Si Si5 0.327522 0.389270 0.932565
Si Si6 0.032689 0.179372 0.176166
Si Si7 0.811021 0.467175 0.171622
Si Si8 0.492092 0.901555 0.290038
O O1 0.167089 0.386608 0.571046
O O2 0.264361 0.369073 0.824454
O O3 0.227404 0.474057 0.777105
O O4 0.271280 0.419907 0.454112
O O5 0.364014 0.076291 0.757435
O O6 0.371792 0.010385 0.441584
O O7 0.469880 0.038831 0.644183
O O8 0.390743 0.959688 0.802100
O O9 0.581933 0.156130 0.158894
O O10 0.560483 0.076033 0.858458
O O11 0.055119 0.750000 0.427194
O O12 0.135451 0.831445 0.515304
O O13 0.035730 0.857393 0.328123
O O14 0.033317 0.827687 0.724544
O O15 0.325611 0.435990 0.116438
O O16 0.046066 0.250000 0.121458
O O17 0.035994 0.135078 0.981038
#
# Coordination Sequence:
#
# PCOD8252578 Si02
#       8
#     8   8   8   8   8   8   8   8
#     4  11  21  34  53  82 110 155 189 226 279 345
#     4  10  21  34  55  89 117 143 186 233 294 346
#     4  11  23  36  55  83 121 153 188 235 284 344
#     4   9  19  38  60  84 110 138 186 246 290 333
#     4  10  20  34  57  84 113 147 194 235 287 348
#     4  10  22  39  59  81 109 155 198 233 290 348
#     4  11  19  34  56  79 114 150 187 227 281 348
#     4  10  21  37  58  85 114 151 183 233 287 355
#
# _framework density 19.921161000000001
#
# number of rings (size 3 to 8) (size 9 to 14) (size 15 to 20)
#    0.000    1.750    2.500    2.250    1.750    1.000 
#    0.000    0.625    0.000    2.250    0.000    0.000 
#    0.000    0.000    0.000    0.000    0.000    0.000 
#
# Total GULP energy -793151.572206 kJ/mol
# GULP energy per Si atom -12392.993316 kJ/mol
# Density = 1.987582 g / cm^3
# Si number density = 19.921161 Si / 1000 Ang^3
#
#
#
# Elastic Constant Matrix: (Units=GPa)
#
#
# Indices 1 2 3 4 5 6 
#
# 1 100.9670 21.8837 37.3235 0.0000 0.0000 0.0000
# 2 21.8837 39.2883 11.2954 0.0000 0.0000 0.0000
# 3 37.3235 11.2954 87.3003 0.0000 0.0000 0.0000
# 4 0.0000 0.0000 0.0000 16.4345 0.0000 0.0000
# 5 0.0000 0.0000 0.0000 0.0000 3.6931 0.0000
# 6 0.0000 0.0000 0.0000 0.0000 0.0000 21.7214
#
#
#
# Elastic Compliance Matrix: (Units=1/GPa)
#
#
# Indices 1 2 3 4 5 6 
#
# 1 0.012933 -0.005831 -0.004775 0.000000 0.000000 0.000000
# 2 -0.005831 0.029065 -0.001268 0.000000 0.000000 0.000000
# 3 -0.004775 -0.001268 0.013660 0.000000 0.000000 0.000000
# 4 0.000000 0.000000 0.000000 0.060848 0.000000 0.000000
# 5 0.000000 0.000000 0.000000 0.000000 0.270777 0.000000
# 6 0.000000 0.000000 0.000000 0.000000 0.000000 0.046038
#
#
# Mechanical properties :
#
#
# Convention : Reuss Voigt Hill
#
# Bulk Modulus (GPa) = 31.33680 40.95118 36.14399
# Shear Modulus (GPa) = 10.69050 18.83999 14.76524
#
# Velocity S-wave (km/s) = 2.31906 3.07860 2.72542
# Velocity P-wave (km/s) = 4.78908 5.76527 5.29970
#
# Compressibility (1/GPa) = 0.03191136
#
# Stress axis : x y z
#
# Youngs Moduli (GPa) = 77.32089 34.40543 73.20575
#
# Poissons Ratio (x) = 0.20062 0.34955
# Poissons Ratio (y) = 0.45086 0.09280
# Poissons Ratio (z) = 0.36920 0.04362
#
# Static dielectric constant tensor:
#      x y z
#    x 3.996700 0.000000 0.000000 
#    y 0.000000 -7.226500 0.000000 
#    z 0.000000 0.000000 3.737330 
# 
# 
# High freq. dielectric constant tensor:
#      x y z
#    x 1.781990 0.000000 0.000000 
#    y 0.000000 1.741660 0.000000 
#    z 0.000000 0.000000 1.791500 
# 
# From -- ./inp_files/2902.got.cif
#   From: 2010.03.12/outbox.cif.g09.slc.cpg/sg62_2_cif.got.tgz:2902.got - 2010.04.10 19:12:36.
