data_PCOD8252630
_publ_section_title
;
Structure prediction by ZEFSAII (Michael W. Deem and Ramdas Pophale) SiO2 
 PCOD8252630
Probable space group: P N M A
;
_chemical_formula_sum "Si O2"
_cell_formula_units_Z 64
_cell_length_a 25.818688
_cell_length_b 9.001817
_cell_length_c 14.699219
_cell_angle_alpha 90.000000
_cell_angle_beta 90.000000
_cell_angle_gamma 90.000000
_cell_volume 3416.320521
_symmetry_space_group_name_H-M "P N M A"
_symmetry_group_IT_number 62
_symmetry_cell_setting 'orthorhombic'
loop_
_space_group_symop_operation_xyz
x,y,z
1/2-x,-y,1/2+z
1/2+x,1/2-y,1/2-z
-x,1/2+y,-z
-x,-y,-z
1/2+x,y,1/2-z
1/2-x,1/2+y,1/2+z
x,1/2-y,z
loop_
_atom_site_type_symbol
_atom_site_label
_atom_site_fract_x
_atom_site_fract_y
_atom_site_fract_z
Si Si1 0.672651 0.926107 0.013437
Si Si2 0.447070 0.421388 0.478434
Si Si3 0.001287 0.424316 0.402037
Si Si4 0.387277 0.423128 0.164460
Si Si5 0.871993 0.574863 0.150931
Si Si6 0.861501 0.420290 0.871654
Si Si7 0.711406 0.424967 0.503326
Si Si8 0.100437 0.926718 0.324348
O O1 0.673950 0.750000 0.016595
O O2 0.640776 0.984235 0.100094
O O3 0.643825 0.981282 0.923165
O O4 0.730930 0.990348 0.016354
O O5 0.500000 0.500000 0.500000
O O6 0.456710 0.250000 0.455583
O O7 0.422749 0.497545 0.389906
O O8 0.411082 0.444148 0.565398
O O9 0.010581 0.250000 0.416320
O O10 0.045703 0.493965 0.339413
O O11 0.000000 0.500000 0.500000
O O12 0.947796 0.455064 0.349842
O O13 0.376892 0.250000 0.182539
O O14 0.364180 0.516764 0.247507
O O15 0.880545 0.750000 0.150525
O O16 0.821923 0.528484 0.091557
O O17 0.844257 0.250000 0.867651
O O18 0.812887 0.510367 0.910855
O O19 0.876352 0.478615 0.771912
O O20 0.712732 0.250000 0.491229
O O21 0.091512 0.750000 0.328304
#
# Coordination Sequence:
#
# PCOD8252630 Si02
#       8
#     8   8   8   8   8   8   8   8
#     4   9  18  36  59  80 108 147 186 222 276 336
#     4  10  20  35  53  79 111 146 186 229 279 333
#     4  11  22  37  57  82 112 148 186 228 277 330
#     4  10  21  37  56  81 111 149 186 221 275 335
#     4  10  21  36  55  82 111 144 186 233 279 325
#     4   9  20  36  56  81 110 143 181 227 278 327
#     4   9  19  37  59  80 108 146 185 228 275 328
#     4  10  20  37  58  82 112 148 184 225 277 333
#
# _framework density 18.733605000000001
#
# number of rings (size 3 to 8) (size 9 to 14) (size 15 to 20)
#    0.000    2.250    1.250    1.125    1.750    3.500 
#    0.000    2.500    0.000    0.000    0.000    0.000 
#    0.000    0.000    0.000    0.000    0.000    0.000 
#
# Total GULP energy -793780.344977 kJ/mol
# GULP energy per Si atom -12402.817890 kJ/mol
# Density = 1.869097 g / cm^3
# Si number density = 18.733605 Si / 1000 Ang^3
#
#
#
# Elastic Constant Matrix: (Units=GPa)
#
#
# Indices 1 2 3 4 5 6 
#
# 1 128.9436 42.6240 50.4997 0.0000 0.0000 0.0000
# 2 42.6240 60.4186 41.5966 0.0000 0.0000 0.0000
# 3 50.4997 41.5966 141.3601 0.0000 0.0000 0.0000
# 4 0.0000 0.0000 0.0000 31.0589 0.0000 0.0000
# 5 0.0000 0.0000 0.0000 0.0000 16.3183 0.0000
# 6 0.0000 0.0000 0.0000 0.0000 0.0000 25.4033
#
#
#
# Elastic Compliance Matrix: (Units=1/GPa)
#
#
# Indices 1 2 3 4 5 6 
#
# 1 0.010537 -0.006072 -0.001977 0.000000 0.000000 0.000000
# 2 -0.006072 0.024255 -0.004968 0.000000 0.000000 0.000000
# 3 -0.001977 -0.004968 0.009242 0.000000 0.000000 0.000000
# 4 0.000000 0.000000 0.000000 0.032197 0.000000 0.000000
# 5 0.000000 0.000000 0.000000 0.000000 0.061281 0.000000
# 6 0.000000 0.000000 0.000000 0.000000 0.000000 0.039365
#
#
# Mechanical properties :
#
#
# Convention : Reuss Voigt Hill
#
# Bulk Modulus (GPa) = 55.55767 66.68476 61.12122
# Shear Modulus (GPa) = 23.93339 27.62291 25.77815
#
# Velocity S-wave (km/s) = 3.57818 3.84410 3.71352
# Velocity P-wave (km/s) = 6.84049 7.44153 7.14733
#
# Compressibility (1/GPa) = 0.01799931
#
# Stress axis : x y z
#
# Youngs Moduli (GPa) = 94.90344 41.22784 108.19597
#
# Poissons Ratio (x) = 0.25034 0.21395
# Poissons Ratio (y) = 0.57627 0.53754
# Poissons Ratio (z) = 0.18767 0.20483
#
# Static dielectric constant tensor:
#      x y z
#    x 3.603320 0.000000 0.000000 
#    y 0.000000 3.335560 0.000000 
#    z 0.000000 0.000000 3.670330 
# 
# 
# High freq. dielectric constant tensor:
#      x y z
#    x 1.732030 0.000000 0.000000 
#    y 0.000000 1.714450 0.000000 
#    z 0.000000 0.000000 1.735110 
# 
# From -- ./inp_files/20934.got.cif
#   From: 2010.03.12/outbox.cif.g09.slc.cpg/sg62_11_cif.got.tgz:20934.got - 2010.04.10 19:12:36.
