data_PCOD8252975
_publ_section_title
;
Structure prediction by ZEFSAII (Michael W. Deem and Ramdas Pophale) SiO2 
 PCOD8252975
Probable space group: P N M A
;
_chemical_formula_sum "Si O2"
_cell_formula_units_Z 48
_cell_length_a 13.946037
_cell_length_b 8.980310
_cell_length_c 20.504262
_cell_angle_alpha 90.000000
_cell_angle_beta 90.000000
_cell_angle_gamma 90.000000
_cell_volume 2567.948350
_symmetry_space_group_name_H-M "P N M A"
_symmetry_group_IT_number 62
_symmetry_cell_setting 'orthorhombic'
loop_
_space_group_symop_operation_xyz
x,y,z
1/2-x,-y,1/2+z
1/2+x,1/2-y,1/2-z
-x,1/2+y,-z
-x,-y,-z
1/2+x,y,1/2-z
1/2-x,1/2+y,1/2+z
x,1/2-y,z
loop_
_atom_site_type_symbol
_atom_site_label
_atom_site_fract_x
_atom_site_fract_y
_atom_site_fract_z
Si Si1 0.041148 0.927487 0.318491
Si Si2 0.560019 0.574177 0.443411
Si Si3 0.548599 0.919419 0.940094
Si Si4 0.752656 0.073252 0.637234
Si Si5 0.740777 0.418920 0.489089
Si Si6 0.450714 0.926631 0.315539
O O1 0.035993 0.750000 0.323416
O O2 0.151226 0.983554 0.326368
O O3 0.998111 0.988574 0.250612
O O4 0.975292 0.995042 0.374309
O O5 0.500000 0.500000 0.500000
O O6 0.553329 0.750000 0.450224
O O7 0.669203 0.521834 0.448259
O O8 0.516978 0.519134 0.374865
O O9 0.511394 0.750000 0.936698
O O10 0.661785 0.924677 0.949244
O O11 0.500000 0.000000 0.000000
O O12 0.752247 0.250000 0.636839
O O13 0.753444 0.016738 0.562377
O O14 0.658027 0.011896 0.674482
O O15 0.700952 0.250000 0.492966
O O16 0.447548 0.750000 0.312882
#
# Coordination Sequence:
#
# PCOD8252975 Si02
#       6
#     8   8   8   8   8   8
#     4  10  20  36  59  84 111 150 189 231 285 337
#     4  11  21  35  57  87 114 146 192 239 280 332
#     4  11  22  37  58  84 113 147 188 235 283 337
#     4   9  16  32  55  79 111 149 183 225 286 340
#     4  10  20  36  57  81 113 151 186 231 289 340
#     4   9  19  34  56  83 113 147 189 231 277 339
#
# _framework density 18.691967000000002
#
# number of rings (size 3 to 8) (size 9 to 14) (size 15 to 20)
#    0.000    2.000    3.333    1.000    0.000    2.667 
#    0.000    5.000    0.000    0.000    0.000    0.000 
#    0.000    0.000    0.000    0.000    0.000    0.000 
#
# Total GULP energy -595196.439440 kJ/mol
# GULP energy per Si atom -12399.925822 kJ/mol
# Density = 1.864942 g / cm^3
# Si number density = 18.691967 Si / 1000 Ang^3
#
#
#
# Elastic Constant Matrix: (Units=GPa)
#
#
# Indices 1 2 3 4 5 6 
#
# 1 138.1076 29.0348 80.7561 0.0000 0.0000 0.0000
# 2 29.0348 45.5629 34.4643 0.0000 0.0000 0.0000
# 3 80.7561 34.4643 173.0641 0.0000 0.0000 0.0000
# 4 0.0000 0.0000 0.0000 25.8038 0.0000 0.0000
# 5 0.0000 0.0000 0.0000 0.0000 37.3229 0.0000
# 6 0.0000 0.0000 0.0000 0.0000 0.0000 28.1801
#
#
#
# Elastic Compliance Matrix: (Units=1/GPa)
#
#
# Indices 1 2 3 4 5 6 
#
# 1 0.010407 -0.003483 -0.004163 0.000000 0.000000 0.000000
# 2 -0.003483 0.027006 -0.003753 0.000000 0.000000 0.000000
# 3 -0.004163 -0.003753 0.008468 0.000000 0.000000 0.000000
# 4 0.000000 0.000000 0.000000 0.038754 0.000000 0.000000
# 5 0.000000 0.000000 0.000000 0.000000 0.026793 0.000000
# 6 0.000000 0.000000 0.000000 0.000000 0.000000 0.035486
#
#
# Mechanical properties :
#
#
# Convention : Reuss Voigt Hill
#
# Bulk Modulus (GPa) = 43.32013 71.69390 57.50701
# Shear Modulus (GPa) = 28.18405 32.42666 30.30535
#
# Velocity S-wave (km/s) = 3.88727 4.16960 4.03091
# Velocity P-wave (km/s) = 6.58589 7.84981 7.24546
#
# Compressibility (1/GPa) = 0.02308396
#
# Stress axis : x y z
#
# Youngs Moduli (GPa) = 96.08940 37.02896 118.09390
#
# Poissons Ratio (x) = 0.12898 0.49157
# Poissons Ratio (y) = 0.33470 0.44316
# Poissons Ratio (z) = 0.39997 0.13896
#
# Static dielectric constant tensor:
#      x y z
#    x 3.830750 0.000000 0.000000 
#    y 0.000000 3.267050 0.000000 
#    z 0.000000 0.000000 3.340750 
# 
# 
# High freq. dielectric constant tensor:
#      x y z
#    x 1.741640 0.000000 0.000000 
#    y 0.000000 1.692190 0.000000 
#    z 0.000000 0.000000 1.726700 
# 
# From -- ./inp_files/26857.got.cif
#   From: 2010.03.12/outbox.cif.g09.slc.cpg/sg62_14_cif.got.tgz:26857.got - 2010.04.10 19:12:36.
