data_PCOD8252542
_publ_section_title
;
Structure prediction by ZEFSAII (Michael W. Deem and Ramdas Pophale) SiO2 
 PCOD8252542
Probable space group: P N M A
;
_chemical_formula_sum "Si O2"
_cell_formula_units_Z 40
_cell_length_a 18.096527
_cell_length_b 8.864276
_cell_length_c 13.439875
_cell_angle_alpha 90.000000
_cell_angle_beta 90.000000
_cell_angle_gamma 90.000000
_cell_volume 2155.925426
_symmetry_space_group_name_H-M "P N M A"
_symmetry_group_IT_number 62
_symmetry_cell_setting 'orthorhombic'
loop_
_space_group_symop_operation_xyz
x,y,z
1/2-x,-y,1/2+z
1/2+x,1/2-y,1/2-z
-x,1/2+y,-z
-x,-y,-z
1/2+x,y,1/2-z
1/2-x,1/2+y,1/2+z
x,1/2-y,z
loop_
_atom_site_type_symbol
_atom_site_label
_atom_site_fract_x
_atom_site_fract_y
_atom_site_fract_z
Si Si1 0.322464 0.925682 0.332379
Si Si2 0.127067 0.078013 0.615588
Si Si3 0.167382 0.927821 0.415909
Si Si4 0.970063 0.071432 0.099947
Si Si5 0.972407 0.428089 0.706253
O O1 0.335259 0.750000 0.358402
O O2 0.324158 0.949559 0.213839
O O3 0.244351 0.988071 0.371645
O O4 0.385606 0.021571 0.385642
O O5 0.132233 0.250000 0.579832
O O6 0.042376 0.032982 0.636928
O O7 0.160114 0.974689 0.529935
O O8 0.165280 0.750000 0.410142
O O9 0.099862 0.991003 0.349796
O O10 0.974406 0.250000 0.093395
O O11 0.021507 0.014164 0.189668
O O12 0.000000 0.000000 0.000000
O O13 0.969691 0.250000 0.728666
#
# Coordination Sequence:
#
# PCOD8252542 Si02
#       5
#     8   8   8   8   8
#     4   9  20  38  54  76 110 143 176 220 268 315
#     4   9  18  33  52  74 108 145 177 218 268 317
#     4  10  20  34  56  82 109 140 177 221 269 317
#     4  11  22  37  58  81 106 141 181 222 265 316
#     4   9  19  36  55  79 110 143 177 217 265 319
#
# _framework density 18.553515999999998
#
# number of rings (size 3 to 8) (size 9 to 14) (size 15 to 20)
#    0.000    2.400    0.000    3.600    0.000    6.400 
#    0.000    2.000    0.000    0.000    0.000    0.000 
#    0.000    0.000    0.000    0.000    0.000    0.000 
#
# Total GULP energy -496093.972401 kJ/mol
# GULP energy per Si atom -12402.349310 kJ/mol
# Density = 1.851129 g / cm^3
# Si number density = 18.553516 Si / 1000 Ang^3
#
#
#
# Elastic Constant Matrix: (Units=GPa)
#
#
# Indices 1 2 3 4 5 6 
#
# 1 112.7110 30.4948 77.6607 0.0000 0.0000 0.0000
# 2 30.4948 57.7223 42.0925 0.0000 0.0000 0.0000
# 3 77.6607 42.0925 131.9186 0.0000 0.0000 0.0000
# 4 0.0000 0.0000 0.0000 37.4931 0.0000 0.0000
# 5 0.0000 0.0000 0.0000 0.0000 28.4228 0.0000
# 6 0.0000 0.0000 0.0000 0.0000 0.0000 24.4739
#
#
#
# Elastic Compliance Matrix: (Units=1/GPa)
#
#
# Indices 1 2 3 4 5 6 
#
# 1 0.015093 -0.001947 -0.008264 0.000000 0.000000 0.000000
# 2 -0.001947 0.022829 -0.006138 0.000000 0.000000 0.000000
# 3 -0.008264 -0.006138 0.014404 0.000000 0.000000 0.000000
# 4 0.000000 0.000000 0.000000 0.026672 0.000000 0.000000
# 5 0.000000 0.000000 0.000000 0.000000 0.035183 0.000000
# 6 0.000000 0.000000 0.000000 0.000000 0.000000 0.040860
#
#
# Mechanical properties :
#
#
# Convention : Reuss Voigt Hill
#
# Bulk Modulus (GPa) = 50.94863 66.98311 58.96587
# Shear Modulus (GPa) = 25.73580 28.21821 26.97701
#
# Velocity S-wave (km/s) = 3.72844 3.90411 3.81729
# Velocity P-wave (km/s) = 6.78638 7.51690 7.16096
#
# Compressibility (1/GPa) = 0.01962761
#
# Stress axis : x y z
#
# Youngs Moduli (GPa) = 66.25469 43.80396 69.42549
#
# Poissons Ratio (x) = 0.08531 0.57374
# Poissons Ratio (y) = 0.12903 0.42612
# Poissons Ratio (z) = 0.54753 0.26886
#
# Static dielectric constant tensor:
#      x y z
#    x 3.729150 0.000000 0.000000 
#    y 0.000000 3.266900 0.000000 
#    z 0.000000 0.000000 3.429880 
# 
# 
# High freq. dielectric constant tensor:
#      x y z
#    x 1.723450 0.000000 0.000000 
#    y 0.000000 1.709480 0.000000 
#    z 0.000000 0.000000 1.725270 
# 
# From -- ./inp_files/13834.got.cif
#   From: 2010.03.12/outbox.cif.g09.slc.cpg/sg62_7_cif.got.tgz:13834.got - 2010.04.10 19:12:36.
