data_PCOD8252916
_publ_section_title
;
Structure prediction by ZEFSAII (Michael W. Deem and Ramdas Pophale) SiO2 
 PCOD8252916
Probable space group: P N M A
;
_chemical_formula_sum "Si O2"
_cell_formula_units_Z 40
_cell_length_a 8.695205
_cell_length_b 10.049397
_cell_length_c 22.792623
_cell_angle_alpha 90.000000
_cell_angle_beta 90.000000
_cell_angle_gamma 90.000000
_cell_volume 1991.655115
_symmetry_space_group_name_H-M "P N M A"
_symmetry_group_IT_number 62
_symmetry_cell_setting 'orthorhombic'
loop_
_space_group_symop_operation_xyz
x,y,z
1/2-x,-y,1/2+z
1/2+x,1/2-y,1/2-z
-x,1/2+y,-z
-x,-y,-z
1/2+x,y,1/2-z
1/2-x,1/2+y,1/2+z
x,1/2-y,z
loop_
_atom_site_type_symbol
_atom_site_label
_atom_site_fract_x
_atom_site_fract_y
_atom_site_fract_z
Si Si1 0.828591 0.972920 0.376940
Si Si2 0.169899 0.250000 0.825200
Si Si3 0.698650 0.750000 0.825985
Si Si4 0.813605 0.250000 0.799096
Si Si5 0.857451 0.597678 0.501528
Si Si6 0.155826 0.250000 0.297817
Si Si7 0.808911 0.994573 0.623791
O O1 0.759325 0.881441 0.326595
O O2 0.765006 0.924569 0.440608
O O3 0.012940 0.962009 0.374728
O O4 0.770117 0.122352 0.366464
O O5 0.282320 0.250000 0.769792
O O6 0.201569 0.379882 0.864042
O O7 0.995179 0.250000 0.805505
O O8 0.526294 0.750000 0.802891
O O9 0.810976 0.750000 0.770846
O O10 0.914344 0.750000 0.506277
O O11 0.760099 0.561822 0.559637
O O12 0.000000 0.500000 0.500000
O O13 0.225857 0.381366 0.328039
#
# Coordination Sequence:
#
# PCOD8252916 Si02
#       7
#     8   4   4   4   8   4   8
#     4  10  21  38  64  89 125 154 203 250 306 359
#     4  12  26  39  62  88 122 163 211 252 309 366
#     4  10  22  35  58  90 116 157 195 246 299 366
#     4  12  24  43  60  88 122 165 207 256 309 364
#     4  10  20  35  64  95 123 158 201 253 301 357
#     4  10  20  37  56  84 122 149 197 242 301 356
#     4  10  21  38  61  93 120 158 201 254 299 364
#
# _framework density 20.083797000000001
#
# number of rings (size 3 to 8) (size 9 to 14) (size 15 to 20)
#    0.000    1.600    2.000    3.000    8.400    4.800 
#    0.000    1.000    0.000    0.000    0.000    0.000 
#    0.000    0.000    0.000    0.000    0.000    0.000 
#
# Total GULP energy -496044.404958 kJ/mol
# GULP energy per Si atom -12401.110124 kJ/mol
# Density = 2.003809 g / cm^3
# Si number density = 20.083797 Si / 1000 Ang^3
#
#
#
# Elastic Constant Matrix: (Units=GPa)
#
#
# Indices 1 2 3 4 5 6 
#
# 1 34.2650 26.0604 13.6873 0.0000 0.0000 0.0000
# 2 26.0604 168.5636 50.0435 0.0000 0.0000 0.0000
# 3 13.6873 50.0435 121.6686 0.0000 0.0000 0.0000
# 4 0.0000 0.0000 0.0000 42.3096 0.0000 0.0000
# 5 0.0000 0.0000 0.0000 0.0000 18.9605 0.0000
# 6 0.0000 0.0000 0.0000 0.0000 0.0000 15.0109
#
#
#
# Elastic Compliance Matrix: (Units=1/GPa)
#
#
# Indices 1 2 3 4 5 6 
#
# 1 0.033440 -0.004617 -0.001863 0.000000 0.000000 0.000000
# 2 -0.004617 0.007395 -0.002522 0.000000 0.000000 0.000000
# 3 -0.001863 -0.002522 0.009466 0.000000 0.000000 0.000000
# 4 0.000000 0.000000 0.000000 0.023635 0.000000 0.000000
# 5 0.000000 0.000000 0.000000 0.000000 0.052741 0.000000
# 6 0.000000 0.000000 0.000000 0.000000 0.000000 0.066618
#
#
# Mechanical properties :
#
#
# Convention : Reuss Voigt Hill
#
# Bulk Modulus (GPa) = 30.96279 56.00885 43.48582
# Shear Modulus (GPa) = 22.51589 30.90326 26.70958
#
# Velocity S-wave (km/s) = 3.35191 3.92690 3.65074
# Velocity P-wave (km/s) = 5.51640 6.96483 6.28250
#
# Compressibility (1/GPa) = 0.03229683
#
# Stress axis : x y z
#
# Youngs Moduli (GPa) = 29.90453 135.22520 105.64057
#
# Poissons Ratio (x) = 0.62431 0.19680
# Poissons Ratio (y) = 0.13806 0.26646
# Poissons Ratio (z) = 0.05571 0.34108
#
# Static dielectric constant tensor:
#      x y z
#    x 3.183340 0.000000 0.000000 
#    y 0.000000 3.907530 0.000000 
#    z 0.000000 0.000000 4.317270 
# 
# 
# High freq. dielectric constant tensor:
#      x y z
#    x 1.734190 0.000000 0.000000 
#    y 0.000000 1.807390 0.000000 
#    z 0.000000 0.000000 1.804700 
# 
# From -- ./inp_files/28653.got.cif
#   From: 2010.03.12/outbox.cif.g09.slc.cpg/sg62_15_cif.got.tgz:28653.got - 2010.04.10 19:12:36.
