data_PCOD8252410
_publ_section_title
;
Structure prediction by ZEFSAII (Michael W. Deem and Ramdas Pophale) SiO2 
 PCOD8252410
Probable space group: P N M A
;
_chemical_formula_sum "Si O2"
_cell_formula_units_Z 40
_cell_length_a 32.671482
_cell_length_b 8.980212
_cell_length_c 7.277015
_cell_angle_alpha 90.000000
_cell_angle_beta 90.000000
_cell_angle_gamma 90.000000
_cell_volume 2135.053167
_symmetry_space_group_name_H-M "P N M A"
_symmetry_group_IT_number 62
_symmetry_cell_setting 'orthorhombic'
loop_
_space_group_symop_operation_xyz
x,y,z
1/2-x,-y,1/2+z
1/2+x,1/2-y,1/2-z
-x,1/2+y,-z
-x,-y,-z
1/2+x,y,1/2-z
1/2-x,1/2+y,1/2+z
x,1/2-y,z
loop_
_atom_site_type_symbol
_atom_site_label
_atom_site_fract_x
_atom_site_fract_y
_atom_site_fract_z
Si Si1 0.787016 0.577051 0.229428
Si Si2 0.560082 0.924286 0.011761
Si Si3 0.854599 0.923681 0.508604
Si Si4 0.204468 0.420062 0.178742
Si Si5 0.504229 0.425332 0.300318
O O1 0.782109 0.750000 0.267522
O O2 0.819364 0.512610 0.374332
O O3 0.741994 0.511535 0.241551
O O4 0.805211 0.538942 0.030395
O O5 0.558709 0.750000 0.055777
O O6 0.543128 0.009809 0.190797
O O7 0.535244 0.961314 0.825449
O O8 0.605780 0.977822 0.974875
O O9 0.864679 0.750000 0.471059
O O10 0.837628 0.950834 0.713459
O O11 0.218063 0.250000 0.201177
O O12 0.500000 0.500000 0.500000
O O13 0.510609 0.250000 0.328537
#
# Coordination Sequence:
#
# PCOD8252410 Si02
#       5
#     8   8   8   8   8
#     4  10  20  34  53  76 104 142 187 233 281 331
#     4  10  22  39  59  88 120 151 191 237 287 342
#     4  10  21  36  53  79 115 150 189 237 286 338
#     4  10  20  34  53  77 105 141 188 234 281 333
#     4  10  21  39  64  90 119 153 189 232 285 346
#
# _framework density 18.734895000000002
#
# number of rings (size 3 to 8) (size 9 to 14) (size 15 to 20)
#    0.000    2.000    2.000    1.200    0.000    5.600 
#    0.000    2.000    0.000    0.000    0.000    0.000 
#    0.000    0.000    0.000    0.000    0.000    0.000 
#
# Total GULP energy -496021.762437 kJ/mol
# GULP energy per Si atom -12400.544061 kJ/mol
# Density = 1.869225 g / cm^3
# Si number density = 18.734895 Si / 1000 Ang^3
#
#
#
# Elastic Constant Matrix: (Units=GPa)
#
#
# Indices 1 2 3 4 5 6 
#
# 1 93.6530 34.2776 28.3541 0.0000 0.0000 0.0000
# 2 34.2776 67.8624 45.0605 0.0000 0.0000 0.0000
# 3 28.3541 45.0605 120.7325 0.0000 0.0000 0.0000
# 4 0.0000 0.0000 0.0000 29.6645 0.0000 0.0000
# 5 0.0000 0.0000 0.0000 0.0000 24.2505 0.0000
# 6 0.0000 0.0000 0.0000 0.0000 0.0000 36.9781
#
#
#
# Elastic Compliance Matrix: (Units=1/GPa)
#
#
# Indices 1 2 3 4 5 6 
#
# 1 0.013159 -0.006108 -0.000811 0.000000 0.000000 0.000000
# 2 -0.006108 0.022426 -0.006935 0.000000 0.000000 0.000000
# 3 -0.000811 -0.006935 0.011062 0.000000 0.000000 0.000000
# 4 0.000000 0.000000 0.000000 0.033710 0.000000 0.000000
# 5 0.000000 0.000000 0.000000 0.000000 0.041236 0.000000
# 6 0.000000 0.000000 0.000000 0.000000 0.000000 0.027043
#
#
# Mechanical properties :
#
#
# Convention : Reuss Voigt Hill
#
# Bulk Modulus (GPa) = 52.80433 55.29248 54.04841
# Shear Modulus (GPa) = 27.37360 29.81567 28.59463
#
# Velocity S-wave (km/s) = 3.82658 3.99363 3.91100
# Velocity P-wave (km/s) = 6.91157 7.13040 7.02184
#
# Compressibility (1/GPa) = 0.01893784
#
# Stress axis : x y z
#
# Youngs Moduli (GPa) = 75.99466 44.59071 90.40254
#
# Poissons Ratio (x) = 0.27238 0.07328
# Poissons Ratio (y) = 0.46420 0.62699
# Poissons Ratio (z) = 0.06160 0.30926
#
# Static dielectric constant tensor:
#      x y z
#    x 3.306170 0.000000 0.000000 
#    y 0.000000 3.415990 0.000000 
#    z 0.000000 0.000000 3.790400 
# 
# 
# High freq. dielectric constant tensor:
#      x y z
#    x 1.721580 0.000000 0.000000 
#    y 0.000000 1.725520 0.000000 
#    z 0.000000 0.000000 1.740950 
# 
# From -- ./inp_files/10003.got.cif
#   From: 2010.03.12/outbox.cif.g09.slc.cpg/sg62_6_cif.got.tgz:10003.got - 2010.04.10 19:12:36.
