data_PCOD8252905
_publ_section_title
;
Structure prediction by ZEFSAII (Michael W. Deem and Ramdas Pophale) SiO2 
 PCOD8252905
Probable space group: P N M A
;
_chemical_formula_sum "Si O2"
_cell_formula_units_Z 56
_cell_length_a 17.322556
_cell_length_b 8.540643
_cell_length_c 19.213090
_cell_angle_alpha 90.000000
_cell_angle_beta 90.000000
_cell_angle_gamma 90.000000
_cell_volume 2842.495330
_symmetry_space_group_name_H-M "P N M A"
_symmetry_group_IT_number 62
_symmetry_cell_setting 'orthorhombic'
loop_
_space_group_symop_operation_xyz
x,y,z
1/2-x,-y,1/2+z
1/2+x,1/2-y,1/2-z
-x,1/2+y,-z
-x,-y,-z
1/2+x,y,1/2-z
1/2-x,1/2+y,1/2+z
x,1/2-y,z
loop_
_atom_site_type_symbol
_atom_site_label
_atom_site_fract_x
_atom_site_fract_y
_atom_site_fract_z
Si Si1 0.926148 0.068287 0.687416
Si Si2 0.310166 0.931011 0.038550
Si Si3 0.149597 0.067251 0.052282
Si Si4 0.033203 0.567061 0.571101
Si Si5 0.121071 0.068326 0.895235
Si Si6 0.472547 0.568266 0.668880
Si Si7 0.718947 0.431289 0.120048
O O1 0.909716 0.250000 0.675698
O O2 0.953167 0.037715 0.765445
O O3 0.847122 0.974465 0.674706
O O4 0.993449 0.014444 0.636224
O O5 0.327974 0.750000 0.052288
O O6 0.227514 0.974393 0.071177
O O7 0.375565 0.033828 0.076009
O O8 0.312220 0.971596 0.956765
O O9 0.169134 0.250000 0.054055
O O10 0.084723 0.018586 0.107034
O O11 0.119371 0.018049 0.976161
O O12 0.015712 0.750000 0.574632
O O13 0.000000 0.500000 0.500000
O O14 0.101124 0.250000 0.885241
O O15 0.205074 0.032257 0.863187
O O16 0.059424 0.963951 0.854919
O O17 0.463665 0.750000 0.688405
O O18 0.740867 0.250000 0.126564
#
# Coordination Sequence:
#
# PCOD8252905 Si02
#       7
#     8   8   8   8   8   8   8
#     4  12  25  41  61  86 120 161 203 250 305 363
#     4  10  20  35  60  92 122 152 196 246 296 353
#     4   9  20  38  62  90 122 159 200 249 302 357
#     4  12  23  38  62  89 120 157 200 247 299 357
#     4  10  20  37  63  93 122 155 202 252 299 358
#     4  11  23  41  61  87 123 162 204 249 305 365
#     4  10  20  37  61  88 119 155 196 244 300 358
#
# _framework density 19.700997999999998
#
# number of rings (size 3 to 8) (size 9 to 14) (size 15 to 20)
#    0.000    1.429    1.429    4.714    0.000    2.857 
#    2.571    0.000    0.000    0.000    0.000    0.000 
#    0.000    0.000    0.000    0.000    0.000    0.000 
#
# Total GULP energy -694805.189724 kJ/mol
# GULP energy per Si atom -12407.235531 kJ/mol
# Density = 1.965616 g / cm^3
# Si number density = 19.700998 Si / 1000 Ang^3
#
#
#
# Elastic Constant Matrix: (Units=GPa)
#
#
# Indices 1 2 3 4 5 6 
#
# 1 117.0845 17.7854 48.5136 0.0000 0.0000 0.0000
# 2 17.7854 62.9998 17.1372 0.0000 0.0000 0.0000
# 3 48.5136 17.1372 84.2022 0.0000 0.0000 0.0000
# 4 0.0000 0.0000 0.0000 28.2179 0.0000 0.0000
# 5 0.0000 0.0000 0.0000 0.0000 16.6658 0.0000
# 6 0.0000 0.0000 0.0000 0.0000 0.0000 37.8096
#
#
#
# Elastic Compliance Matrix: (Units=1/GPa)
#
#
# Indices 1 2 3 4 5 6 
#
# 1 0.011353 -0.001509 -0.006234 0.000000 0.000000 0.000000
# 2 -0.001509 0.017004 -0.002591 0.000000 0.000000 0.000000
# 3 -0.006234 -0.002591 0.015995 0.000000 0.000000 0.000000
# 4 0.000000 0.000000 0.000000 0.035439 0.000000 0.000000
# 5 0.000000 0.000000 0.000000 0.000000 0.060003 0.000000
# 6 0.000000 0.000000 0.000000 0.000000 0.000000 0.026448
#
#
# Mechanical properties :
#
#
# Convention : Reuss Voigt Hill
#
# Bulk Modulus (GPa) = 42.22341 47.90654 45.06497
# Shear Modulus (GPa) = 25.66660 28.59535 27.13098
#
# Velocity S-wave (km/s) = 3.61336 3.81395 3.71501
# Velocity P-wave (km/s) = 6.23595 6.61547 6.42852
#
# Compressibility (1/GPa) = 0.02368355
#
# Stress axis : x y z
#
# Youngs Moduli (GPa) = 88.08131 58.80969 62.51843
#
# Poissons Ratio (x) = 0.08876 0.38974
# Poissons Ratio (y) = 0.13294 0.16199
# Poissons Ratio (z) = 0.54910 0.15238
#
# Static dielectric constant tensor:
#      x y z
#    x 3.715930 0.000000 0.000000 
#    y 0.000000 3.605660 0.000000 
#    z 0.000000 0.000000 3.437010 
# 
# 
# High freq. dielectric constant tensor:
#      x y z
#    x 1.781600 0.000000 0.000000 
#    y 0.000000 1.777850 0.000000 
#    z 0.000000 0.000000 1.747490 
# 
# From -- ./inp_files/27096.got.cif
#   From: 2010.03.12/outbox.cif.g09.slc.cpg/sg62_14_cif.got.tgz:27096.got - 2010.04.10 19:12:36.
