data_PCOD8252397
_publ_section_title
;
Structure prediction by ZEFSAII (Michael W. Deem and Ramdas Pophale) SiO2 
 PCOD8252397
Probable space group: P N M A
;
_chemical_formula_sum "Si O2"
_cell_formula_units_Z 64
_cell_length_a 14.984796
_cell_length_b 9.018149
_cell_length_c 24.856096
_cell_angle_alpha 90.000000
_cell_angle_beta 90.000000
_cell_angle_gamma 90.000000
_cell_volume 3358.931592
_symmetry_space_group_name_H-M "P N M A"
_symmetry_group_IT_number 62
_symmetry_cell_setting 'orthorhombic'
loop_
_space_group_symop_operation_xyz
x,y,z
1/2-x,-y,1/2+z
1/2+x,1/2-y,1/2-z
-x,1/2+y,-z
-x,-y,-z
1/2+x,y,1/2-z
1/2-x,1/2+y,1/2+z
x,1/2-y,z
loop_
_atom_site_type_symbol
_atom_site_label
_atom_site_fract_x
_atom_site_fract_y
_atom_site_fract_z
Si Si1 0.621167 0.075612 0.691356
Si Si2 0.447939 0.583170 0.106462
Si Si3 0.199696 0.923836 0.542751
Si Si4 0.477574 0.422872 0.778717
Si Si5 0.627527 0.922622 0.469740
Si Si6 0.145558 0.920292 0.424644
Si Si7 0.196635 0.426271 0.316489
Si Si8 0.936049 0.577906 0.072106
O O1 0.639561 0.250000 0.697664
O O2 0.538291 0.026761 0.728720
O O3 0.593560 0.031101 0.631237
O O4 0.710629 0.987905 0.707950
O O5 0.410699 0.750000 0.100145
O O6 0.377637 0.467927 0.083551
O O7 0.464362 0.543921 0.168479
O O8 0.539253 0.564909 0.073764
O O9 0.211930 0.750000 0.545394
O O10 0.178758 0.977699 0.482190
O O11 0.290809 0.001607 0.561609
O O12 0.451392 0.250000 0.775837
O O13 0.385299 0.514323 0.780153
O O14 0.645158 0.750000 0.473909
O O15 0.539948 0.960915 0.435346
O O16 0.622413 0.986335 0.530035
O O17 0.174157 0.750000 0.413463
O O18 0.188546 0.019309 0.378012
O O19 0.196751 0.250000 0.314751
O O20 0.917826 0.750000 0.060682
#
# Coordination Sequence:
#
# PCOD8252397 Si02
#       8
#     8   8   8   8   8   8   8   8
#     4  10  20  38  63  84 104 141 191 234 269 320
#     4   9  18  34  53  74 103 137 177 228 275 318
#     4  11  21  32  50  78 109 145 181 217 266 327
#     4   9  20  40  61  80 106 145 190 233 274 323
#     4  10  20  34  52  77 112 145 174 217 270 324
#     4   9  19  35  54  76 106 143 187 226 260 318
#     4  11  22  35  56  86 116 143 175 226 287 333
#     4   9  19  36  57  80 105 136 179 227 269 314
#
# _framework density 19.053677
#
# number of rings (size 3 to 8) (size 9 to 14) (size 15 to 20)
#    0.000    2.250    0.000    3.750    0.000    7.500 
#    2.250    0.000    0.000    0.000    0.000    0.000 
#    0.000    0.000    0.000    0.000    0.000    0.000 
#
# Total GULP energy -793777.913033 kJ/mol
# GULP energy per Si atom -12402.779891 kJ/mol
# Density = 1.901031 g / cm^3
# Si number density = 19.053677 Si / 1000 Ang^3
#
#
#
# Elastic Constant Matrix: (Units=GPa)
#
#
# Indices 1 2 3 4 5 6 
#
# 1 119.2021 52.5793 54.6503 0.0000 0.0000 0.0000
# 2 52.5793 76.6519 39.3906 0.0000 0.0000 0.0000
# 3 54.6503 39.3906 59.6392 0.0000 0.0000 0.0000
# 4 0.0000 0.0000 0.0000 24.6299 0.0000 0.0000
# 5 0.0000 0.0000 0.0000 0.0000 21.7226 0.0000
# 6 0.0000 0.0000 0.0000 0.0000 0.0000 31.5729
#
#
#
# Elastic Compliance Matrix: (Units=1/GPa)
#
#
# Indices 1 2 3 4 5 6 
#
# 1 0.015685 -0.005106 -0.011000 0.000000 0.000000 0.000000
# 2 -0.005106 0.021411 -0.009463 0.000000 0.000000 0.000000
# 3 -0.011000 -0.009463 0.033098 0.000000 0.000000 0.000000
# 4 0.000000 0.000000 0.000000 0.040601 0.000000 0.000000
# 5 0.000000 0.000000 0.000000 0.000000 0.046035 0.000000
# 6 0.000000 0.000000 0.000000 0.000000 0.000000 0.031673
#
#
# Mechanical properties :
#
#
# Convention : Reuss Voigt Hill
#
# Bulk Modulus (GPa) = 52.47870 60.97042 56.72456
# Shear Modulus (GPa) = 20.32587 22.84328 21.58458
#
# Velocity S-wave (km/s) = 3.26969 3.46626 3.36941
# Velocity P-wave (km/s) = 6.46968 6.93460 6.70617
#
# Compressibility (1/GPa) = 0.01905535
#
# Stress axis : x y z
#
# Youngs Moduli (GPa) = 63.75720 46.70425 30.21372
#
# Poissons Ratio (x) = 0.23847 0.33235
# Poissons Ratio (y) = 0.32554 0.28591
# Poissons Ratio (z) = 0.70134 0.44196
#
# Static dielectric constant tensor:
#      x y z
#    x 3.620470 0.000000 0.000000 
#    y 0.000000 3.369960 0.000000 
#    z 0.000000 0.000000 3.392940 
# 
# 
# High freq. dielectric constant tensor:
#      x y z
#    x 1.753920 0.000000 0.000000 
#    y 0.000000 1.733400 0.000000 
#    z 0.000000 0.000000 1.723550 
# 
# From -- ./inp_files/29849.got.cif
#   From: 2010.03.12/outbox.cif.g09.slc.cpg/sg62_15_cif.got.tgz:29849.got - 2010.04.10 19:12:36.
