data_PCOD8252662
_publ_section_title
;
Structure prediction by ZEFSAII (Michael W. Deem and Ramdas Pophale) SiO2 
 PCOD8252662
Probable space group: P N M A
;
_chemical_formula_sum "Si O2"
_cell_formula_units_Z 64
_cell_length_a 15.925129
_cell_length_b 20.824327
_cell_length_c 9.225024
_cell_angle_alpha 90.000000
_cell_angle_beta 90.000000
_cell_angle_gamma 90.000000
_cell_volume 3059.295575
_symmetry_space_group_name_H-M "P N M A"
_symmetry_group_IT_number 62
_symmetry_cell_setting 'orthorhombic'
loop_
_space_group_symop_operation_xyz
x,y,z
1/2-x,-y,1/2+z
1/2+x,1/2-y,1/2-z
-x,1/2+y,-z
-x,-y,-z
1/2+x,y,1/2-z
1/2-x,1/2+y,1/2+z
x,1/2-y,z
loop_
_atom_site_type_symbol
_atom_site_label
_atom_site_fract_x
_atom_site_fract_y
_atom_site_fract_z
Si Si1 0.528784 0.063644 0.799620
Si Si2 0.757083 0.178513 0.919446
Si Si3 0.019169 0.679482 0.816289
Si Si4 0.499392 0.069005 0.116269
Si Si5 0.547023 0.678844 0.364308
Si Si6 0.789974 0.941353 0.237083
Si Si7 0.215917 0.821620 0.759405
Si Si8 0.799604 0.061540 0.431050
O O1 0.474109 0.123788 0.749805
O O2 0.610997 0.053929 0.699511
O O3 0.476903 0.996453 0.796716
O O4 0.553328 0.075071 0.969045
O O5 0.723081 0.250000 0.880698
O O6 0.855429 0.176271 0.892902
O O7 0.714698 0.126837 0.816878
O O8 0.737912 0.163354 0.088356
O O9 0.985389 0.750000 0.773558
O O10 0.972509 0.627689 0.717099
O O11 0.117398 0.674914 0.788258
O O12 0.998971 0.665615 0.984558
O O13 0.400446 0.066632 0.073331
O O14 0.522304 0.750000 0.304538
O O15 0.765107 0.000146 0.342403
O O16 0.732527 0.943844 0.095313
O O17 0.240230 0.750000 0.703440
O O18 0.241251 0.874368 0.639842
#
# Coordination Sequence:
#
# PCOD8252662 Si02
#       8
#     8   8   8   8   8   8   8   8
#     4  10  21  35  50  76 108 138 173 219 268 310
#     4   9  18  34  56  79 104 138 177 217 263 317
#     4   8  15  30  54  79  99 128 173 217 253 301
#     4   9  19  36  54  75 105 137 176 218 259 316
#     4   9  18  34  55  78 105 137 175 216 259 313
#     4  11  22  35  53  77 108 140 177 223 268 314
#     4   8  15  31  55  79 101 129 173 221 258 304
#     4  10  20  35  55  77 104 140 176 216 266 318
#
# _framework density 20.919847000000001
#
# number of rings (size 3 to 8) (size 9 to 14) (size 15 to 20)
#    0.000    2.750    0.000    3.000    0.000    3.000 
#    0.000    7.500    0.000    3.000    0.000    0.000 
#    0.000    0.000    0.000    0.000    0.000    0.000 
#
# Total GULP energy -793136.808353 kJ/mol
# GULP energy per Si atom -12392.762631 kJ/mol
# Density = 2.087223 g / cm^3
# Si number density = 20.919847 Si / 1000 Ang^3
#
#
#
# Elastic Constant Matrix: (Units=GPa)
#
#
# Indices 1 2 3 4 5 6 
#
# 1 17.8284 6.4433 12.5047 0.0000 0.0000 0.0000
# 2 6.4433 170.5332 71.1852 0.0000 0.0000 0.0000
# 3 12.5047 71.1852 80.1862 0.0000 0.0000 0.0000
# 4 0.0000 0.0000 0.0000 47.3956 0.0000 0.0000
# 5 0.0000 0.0000 0.0000 0.0000 22.9982 0.0000
# 6 0.0000 0.0000 0.0000 0.0000 0.0000 16.9395
#
#
#
# Elastic Compliance Matrix: (Units=1/GPa)
#
#
# Indices 1 2 3 4 5 6 
#
# 1 0.063791 0.002768 -0.012405 0.000000 0.000000 0.000000
# 2 0.002768 0.009436 -0.008809 0.000000 0.000000 0.000000
# 3 -0.012405 -0.008809 0.022226 0.000000 0.000000 0.000000
# 4 0.000000 0.000000 0.000000 0.021099 0.000000 0.000000
# 5 0.000000 0.000000 0.000000 0.000000 0.043482 0.000000
# 6 0.000000 0.000000 0.000000 0.000000 0.000000 0.059033
#
#
# Mechanical properties :
#
#
# Convention : Reuss Voigt Hill
#
# Bulk Modulus (GPa) = 17.07630 49.86826 33.47228
# Shear Modulus (GPa) = 18.15019 29.36098 23.75558
#
# Velocity S-wave (km/s) = 2.94871 3.75039 3.37345
# Velocity P-wave (km/s) = 4.44676 6.53020 5.58646
#
# Compressibility (1/GPa) = 0.05856068
#
# Stress axis : x y z
#
# Youngs Moduli (GPa) = 15.67624 105.97242 44.99326
#
# Poissons Ratio (x) = -0.29334 0.55815
# Poissons Ratio (y) = -0.04339 0.39634
# Poissons Ratio (z) = 0.19447 0.93349
#
# Static dielectric constant tensor:
#      x y z
#    x 3.311680 0.000000 0.000000 
#    y 0.000000 4.360690 0.000000 
#    z 0.000000 0.000000 3.820540 
# 
# 
# High freq. dielectric constant tensor:
#      x y z
#    x 1.778750 0.000000 0.000000 
#    y 0.000000 1.841300 0.000000 
#    z 0.000000 0.000000 1.807910 
# 
# From -- ./inp_files/8130.got.cif
#   From: 2010.03.12/outbox.cif.g09.slc.cpg/sg62_5_cif.got.tgz:8130.got - 2010.04.10 19:12:36.
