data_PCOD8252166
_publ_section_title
;
Structure prediction by ZEFSAII (Michael W. Deem and Ramdas Pophale) SiO2 
 PCOD8252166
Probable space group: P N M A
;
_chemical_formula_sum "Si O2"
_cell_formula_units_Z 40
_cell_length_a 11.115523
_cell_length_b 14.605225
_cell_length_c 10.351481
_cell_angle_alpha 90.000000
_cell_angle_beta 90.000000
_cell_angle_gamma 90.000000
_cell_volume 1680.508227
_symmetry_space_group_name_H-M "P N M A"
_symmetry_group_IT_number 62
_symmetry_cell_setting 'orthorhombic'
loop_
_space_group_symop_operation_xyz
x,y,z
1/2-x,-y,1/2+z
1/2+x,1/2-y,1/2-z
-x,1/2+y,-z
-x,-y,-z
1/2+x,y,1/2-z
1/2-x,1/2+y,1/2+z
x,1/2-y,z
loop_
_atom_site_type_symbol
_atom_site_label
_atom_site_fract_x
_atom_site_fract_y
_atom_site_fract_z
Si Si1 0.169131 0.436918 0.968965
Si Si2 0.991657 0.446140 0.200114
Si Si3 0.426621 0.750000 0.462440
Si Si4 0.091860 0.250000 0.524052
Si Si5 0.082438 0.600161 0.374535
Si Si6 0.336634 0.250000 0.676651
Si Si7 0.540274 0.250000 0.253176
O O1 0.313817 0.435923 0.972579
O O2 0.123241 0.520807 0.881570
O O3 0.112578 0.446245 0.111441
O O4 0.127654 0.341551 0.898944
O O5 0.014727 0.511112 0.321496
O O6 0.960786 0.343289 0.248403
O O7 0.570134 0.750000 0.443172
O O8 0.386135 0.750000 0.612760
O O9 0.012781 0.160134 0.548180
O O10 0.204783 0.250000 0.617541
O O11 0.127689 0.250000 0.372284
O O12 0.142697 0.658555 0.259429
#
# Coordination Sequence:
#
# PCOD8252166 Si02
#       7
#     8   8   4   4   8   4   4
#     4  10  21  40  66  97 128 169 223 268 324 399
#     4  10  22  42  63  95 129 174 223 261 331 390
#     4  10  19  43  68  93 128 173 224 266 327 399
#     4  11  26  44  63 104 138 166 218 274 341 392
#     4  11  23  39  69  99 131 173 214 280 330 392
#     4  11  22  38  69  97 129 174 222 271 325 398
#     4  10  25  45  62  92 135 175 214 279 325 395
#
# _framework density 23.802322
#
# number of rings (size 3 to 8) (size 9 to 14) (size 15 to 20)
#    0.000    1.600    2.000    2.400    2.800    4.000 
#    7.200    0.000    0.000    0.000    0.000    0.000 
#    0.000    0.000    0.000    0.000    0.000    0.000 
#
# Total GULP energy -495881.848767 kJ/mol
# GULP energy per Si atom -12397.046219 kJ/mol
# Density = 2.374815 g / cm^3
# Si number density = 23.802322 Si / 1000 Ang^3
#
#
#
# Elastic Constant Matrix: (Units=GPa)
#
#
# Indices 1 2 3 4 5 6 
#
# 1 93.5813 10.2503 25.0778 0.0000 0.0000 0.0000
# 2 10.2503 172.3668 21.7330 0.0000 0.0000 0.0000
# 3 25.0778 21.7330 86.5211 0.0000 0.0000 0.0000
# 4 0.0000 0.0000 0.0000 15.8903 0.0000 0.0000
# 5 0.0000 0.0000 0.0000 0.0000 25.0792 0.0000
# 6 0.0000 0.0000 0.0000 0.0000 0.0000 26.4442
#
#
#
# Elastic Compliance Matrix: (Units=1/GPa)
#
#
# Indices 1 2 3 4 5 6 
#
# 1 0.011598 -0.000275 -0.003293 0.000000 0.000000 0.000000
# 2 -0.000275 0.005998 -0.001427 0.000000 0.000000 0.000000
# 3 -0.003293 -0.001427 0.012871 0.000000 0.000000 0.000000
# 4 0.000000 0.000000 0.000000 0.062932 0.000000 0.000000
# 5 0.000000 0.000000 0.000000 0.000000 0.039874 0.000000
# 6 0.000000 0.000000 0.000000 0.000000 0.000000 0.037815
#
#
# Mechanical properties :
#
#
# Convention : Reuss Voigt Hill
#
# Bulk Modulus (GPa) = 48.83230 51.84349 50.33790
# Shear Modulus (GPa) = 26.60956 33.17662 29.89309
#
# Velocity S-wave (km/s) = 3.34719 3.73747 3.54770
# Velocity P-wave (km/s) = 5.95806 6.36027 6.16245
#
# Compressibility (1/GPa) = 0.02047825
#
# Stress axis : x y z
#
# Youngs Moduli (GPa) = 86.21912 166.72692 77.69576
#
# Poissons Ratio (x) = 0.04578 0.25583
# Poissons Ratio (y) = 0.02367 0.11087
# Poissons Ratio (z) = 0.28390 0.23792
#
# Static dielectric constant tensor:
#      x y z
#    x 3.869430 0.000000 0.000000 
#    y 0.000000 4.777240 0.000000 
#    z 0.000000 0.000000 4.166670 
# 
# 
# High freq. dielectric constant tensor:
#      x y z
#    x 1.909160 0.000000 0.000000 
#    y 0.000000 1.966110 0.000000 
#    z 0.000000 0.000000 1.938060 
# 
# From -- ./inp_files/12103.got.cif
#   From: 2010.03.12/outbox.cif.g09.slc.cpg/sg62_7_cif.got.tgz:12103.got - 2010.04.10 19:12:36.
