data_PCOD8252509
_publ_section_title
;
Structure prediction by ZEFSAII (Michael W. Deem and Ramdas Pophale) SiO2 
 PCOD8252509
Probable space group: P N M A
;
_chemical_formula_sum "Si O2"
_cell_formula_units_Z 64
_cell_length_a 21.677098
_cell_length_b 9.033325
_cell_length_c 17.017969
_cell_angle_alpha 90.000000
_cell_angle_beta 90.000000
_cell_angle_gamma 90.000000
_cell_volume 3332.395235
_symmetry_space_group_name_H-M "P N M A"
_symmetry_group_IT_number 62
_symmetry_cell_setting 'orthorhombic'
loop_
_space_group_symop_operation_xyz
x,y,z
1/2-x,-y,1/2+z
1/2+x,1/2-y,1/2-z
-x,1/2+y,-z
-x,-y,-z
1/2+x,y,1/2-z
1/2-x,1/2+y,1/2+z
x,1/2-y,z
loop_
_atom_site_type_symbol
_atom_site_label
_atom_site_fract_x
_atom_site_fract_y
_atom_site_fract_z
Si Si1 0.357306 0.424141 0.532426
Si Si2 0.432790 0.419904 0.089421
Si Si3 0.848254 0.577993 0.293654
Si Si4 0.923725 0.580893 0.564827
Si Si5 0.105227 0.078094 0.879039
Si Si6 0.113464 0.422100 0.267335
Si Si7 0.723638 0.075412 0.343297
Si Si8 0.467017 0.423172 0.646368
O O1 0.345355 0.250000 0.531864
O O2 0.358963 0.484237 0.444186
O O3 0.300533 0.501503 0.576725
O O4 0.421727 0.465607 0.574782
O O5 0.413466 0.250000 0.101311
O O6 0.407762 0.518351 0.160521
O O7 0.505619 0.442574 0.088898
O O8 0.404113 0.475905 0.006842
O O9 0.838694 0.750000 0.312644
O O10 0.858689 0.551615 0.201672
O O11 0.789917 0.486762 0.322567
O O12 0.911815 0.750000 0.539251
O O13 0.882923 0.536277 0.640587
O O14 0.105069 0.250000 0.903295
O O15 0.035225 0.017458 0.872892
O O16 0.099383 0.250000 0.256640
O O17 0.178040 0.467738 0.228054
O O18 0.056554 0.504702 0.226701
O O19 0.727731 0.250000 0.356250
O O20 0.469017 0.250000 0.662025
#
# Coordination Sequence:
#
# PCOD8252509 Si02
#       8
#     8   8   8   8   8   8   8   8
#     4  10  20  35  57  84 112 145 183 224 272 328
#     4  10  20  34  55  82 111 145 181 224 278 333
#     4  11  23  39  57  78 108 147 187 230 279 325
#     4   9  18  34  55  82 114 143 180 226 276 333
#     4  10  21  36  55  82 114 147 182 225 275 327
#     4   9  18  33  55  81 107 142 182 226 275 323
#     4  10  21  39  59  77 105 143 185 229 276 327
#     4   9  18  32  53  83 117 148 179 220 274 330
#
# _framework density 19.205404999999999
#
# number of rings (size 3 to 8) (size 9 to 14) (size 15 to 20)
#    0.000    2.250    0.000    2.625    0.000    3.500 
#    2.250    0.000    0.000    0.000    0.000    0.000 
#    0.000    0.000    0.000    0.000    0.000    0.000 
#
# Total GULP energy -793830.993274 kJ/mol
# GULP energy per Si atom -12403.609270 kJ/mol
# Density = 1.916169 g / cm^3
# Si number density = 19.205405 Si / 1000 Ang^3
#
#
#
# Elastic Constant Matrix: (Units=GPa)
#
#
# Indices 1 2 3 4 5 6 
#
# 1 58.8706 28.1096 18.2550 0.0000 0.0000 0.0000
# 2 28.1096 75.6243 41.9703 0.0000 0.0000 0.0000
# 3 18.2550 41.9703 87.1049 0.0000 0.0000 0.0000
# 4 0.0000 0.0000 0.0000 36.4807 0.0000 0.0000
# 5 0.0000 0.0000 0.0000 0.0000 18.4331 0.0000
# 6 0.0000 0.0000 0.0000 0.0000 0.0000 28.5038
#
#
#
# Elastic Compliance Matrix: (Units=1/GPa)
#
#
# Indices 1 2 3 4 5 6 
#
# 1 0.020699 -0.007216 -0.000861 0.000000 0.000000 0.000000
# 2 -0.007216 0.020566 -0.008397 0.000000 0.000000 0.000000
# 3 -0.000861 -0.008397 0.015707 0.000000 0.000000 0.000000
# 4 0.000000 0.000000 0.000000 0.027412 0.000000 0.000000
# 5 0.000000 0.000000 0.000000 0.000000 0.054250 0.000000
# 6 0.000000 0.000000 0.000000 0.000000 0.000000 0.035083
#
#
# Mechanical properties :
#
#
# Convention : Reuss Voigt Hill
#
# Bulk Modulus (GPa) = 41.62609 44.25219 42.93914
# Shear Modulus (GPa) = 23.29134 25.56784 24.42959
#
# Velocity S-wave (km/s) = 3.48623 3.65263 3.57040
# Velocity P-wave (km/s) = 6.15843 6.39379 6.27721
#
# Compressibility (1/GPa) = 0.02402339
#
# Stress axis : x y z
#
# Youngs Moduli (GPa) = 48.31175 48.62481 63.66654
#
# Poissons Ratio (x) = 0.35087 0.05482
# Poissons Ratio (y) = 0.34861 0.53461
# Poissons Ratio (z) = 0.04160 0.40830
#
# Static dielectric constant tensor:
#      x y z
#    x 3.387490 0.000000 0.000000 
#    y 0.000000 3.511520 0.000000 
#    z 0.000000 0.000000 3.598980 
# 
# 
# High freq. dielectric constant tensor:
#      x y z
#    x 1.733560 0.000000 0.000000 
#    y 0.000000 1.750250 0.000000 
#    z 0.000000 0.000000 1.753470 
# 
# From -- ./inp_files/24827.got.cif
#   From: 2010.03.12/outbox.cif.g09.slc.cpg/sg62_13_cif.got.tgz:24827.got - 2010.04.10 19:12:36.
