data_PCOD8252158
_publ_section_title
;
Structure prediction by ZEFSAII (Michael W. Deem and Ramdas Pophale) SiO2 
 PCOD8252158
Probable space group: P N M A
;
_chemical_formula_sum "Si O2"
_cell_formula_units_Z 64
_cell_length_a 13.901306
_cell_length_b 22.323037
_cell_length_c 9.705343
_cell_angle_alpha 90.000000
_cell_angle_beta 90.000000
_cell_angle_gamma 90.000000
_cell_volume 3011.755908
_symmetry_space_group_name_H-M "P N M A"
_symmetry_group_IT_number 62
_symmetry_cell_setting 'orthorhombic'
loop_
_space_group_symop_operation_xyz
x,y,z
1/2-x,-y,1/2+z
1/2+x,1/2-y,1/2-z
-x,1/2+y,-z
-x,-y,-z
1/2+x,y,1/2-z
1/2-x,1/2+y,1/2+z
x,1/2-y,z
loop_
_atom_site_type_symbol
_atom_site_label
_atom_site_fract_x
_atom_site_fract_y
_atom_site_fract_z
Si Si1 0.485864 0.388753 0.361814
Si Si2 0.284724 0.368591 0.965593
Si Si3 0.636379 0.990109 0.062708
Si Si4 0.954137 0.508078 0.274864
Si Si5 0.415077 0.629694 0.352560
Si Si6 0.370353 0.623140 0.881384
Si Si7 0.489926 0.181712 0.900853
Si Si8 0.305070 0.180421 0.264829
O O1 0.447269 0.456331 0.340656
O O2 0.516163 0.380572 0.518341
O O3 0.577251 0.377542 0.265008
O O4 0.405100 0.339678 0.330260
O O5 0.280187 0.440207 0.934781
O O6 0.188162 0.342521 0.895546
O O7 0.379534 0.339409 0.899480
O O8 0.282672 0.356872 0.127939
O O9 0.673973 0.057878 0.081477
O O10 0.563881 0.974296 0.188062
O O11 0.588110 0.980444 0.914329
O O12 0.898256 0.566387 0.223719
O O13 0.467004 0.676665 0.252076
O O14 0.280934 0.668643 0.873965
O O15 0.447326 0.641114 0.996816
O O16 0.494597 0.250000 0.951326
O O17 0.311444 0.250000 0.228374
#
# Coordination Sequence:
#
# PCOD8252158 Si02
#       8
#     8   8   8   8   8   8   8   8
#     4  11  24  43  69 103 138 175 227 283 340 400
#     4  12  24  44  71 105 133 182 229 283 358 407
#     4  10  19  40  76  97 133 176 230 281 339 420
#     4  10  19  42  69 100 137 176 221 275 347 416
#     4  12  26  44  68 109 140 175 221 292 351 403
#     4  11  23  46  71 101 131 182 233 282 341 409
#     4  12  26  48  71  94 139 191 231 278 343 415
#     4  12  26  44  70 101 137 186 241 284 333 413
#
# _framework density 21.250062
#
# number of rings (size 3 to 8) (size 9 to 14) (size 15 to 20)
#    0.000    0.750    6.250    1.875    1.750    3.000 
#    0.000    0.000    0.000    0.000    0.000    0.000 
#    0.000    0.000    0.000    0.000    0.000    0.000 
#
# Total GULP energy -793749.543457 kJ/mol
# GULP energy per Si atom -12402.336617 kJ/mol
# Density = 2.120170 g / cm^3
# Si number density = 21.250062 Si / 1000 Ang^3
#
#
#
# Elastic Constant Matrix: (Units=GPa)
#
#
# Indices 1 2 3 4 5 6 
#
# 1 100.4798 31.4523 27.7333 0.0000 0.0000 0.0000
# 2 31.4523 102.9549 13.8770 0.0000 0.0000 0.0000
# 3 27.7333 13.8770 90.0603 0.0000 0.0000 0.0000
# 4 0.0000 0.0000 0.0000 22.3655 0.0000 0.0000
# 5 0.0000 0.0000 0.0000 0.0000 24.1826 0.0000
# 6 0.0000 0.0000 0.0000 0.0000 0.0000 24.8748
#
#
#
# Elastic Compliance Matrix: (Units=1/GPa)
#
#
# Indices 1 2 3 4 5 6 
#
# 1 0.011819 -0.003186 -0.003149 0.000000 0.000000 0.000000
# 2 -0.003186 0.010778 -0.000680 0.000000 0.000000 0.000000
# 3 -0.003149 -0.000680 0.012178 0.000000 0.000000 0.000000
# 4 0.000000 0.000000 0.000000 0.044712 0.000000 0.000000
# 5 0.000000 0.000000 0.000000 0.000000 0.041352 0.000000
# 6 0.000000 0.000000 0.000000 0.000000 0.000000 0.040201
#
#
# Mechanical properties :
#
#
# Convention : Reuss Voigt Hill
#
# Bulk Modulus (GPa) = 48.20202 48.84670 48.52436
# Shear Modulus (GPa) = 27.47503 28.98007 28.22755
#
# Velocity S-wave (km/s) = 3.59965 3.69692 3.64861
# Velocity P-wave (km/s) = 6.32527 6.42336 6.37450
#
# Compressibility (1/GPa) = 0.02074602
#
# Stress axis : x y z
#
# Youngs Moduli (GPa) = 84.61240 92.78213 82.11571
#
# Poissons Ratio (x) = 0.29562 0.25854
# Poissons Ratio (y) = 0.26959 0.05580
# Poissons Ratio (z) = 0.26640 0.06305
#
# Static dielectric constant tensor:
#      x y z
#    x 3.769740 0.000000 0.000000 
#    y 0.000000 3.802330 0.000000 
#    z 0.000000 0.000000 3.792440 
# 
# 
# High freq. dielectric constant tensor:
#      x y z
#    x 1.827620 0.000000 0.000000 
#    y 0.000000 1.834430 0.000000 
#    z 0.000000 0.000000 1.830890 
# 
# From -- ./inp_files/6969.got.cif
#   From: 2010.03.12/outbox.cif.g09.slc.cpg/sg62_4_cif.got.tgz:6969.got - 2010.04.10 19:12:36.
