data_PCOD8252774
_publ_section_title
;
Structure prediction by ZEFSAII (Michael W. Deem and Ramdas Pophale) SiO2 
 PCOD8252774
Probable space group: P N M A
;
_chemical_formula_sum "Si O2"
_cell_formula_units_Z 64
_cell_length_a 23.593723
_cell_length_b 9.034179
_cell_length_c 15.053615
_cell_angle_alpha 90.000000
_cell_angle_beta 90.000000
_cell_angle_gamma 90.000000
_cell_volume 3208.676786
_symmetry_space_group_name_H-M "P N M A"
_symmetry_group_IT_number 62
_symmetry_cell_setting 'orthorhombic'
loop_
_space_group_symop_operation_xyz
x,y,z
1/2-x,-y,1/2+z
1/2+x,1/2-y,1/2-z
-x,1/2+y,-z
-x,-y,-z
1/2+x,y,1/2-z
1/2-x,1/2+y,1/2+z
x,1/2-y,z
loop_
_atom_site_type_symbol
_atom_site_label
_atom_site_fract_x
_atom_site_fract_y
_atom_site_fract_z
Si Si1 0.365070 0.580963 0.199061
Si Si2 0.470384 0.919300 0.921110
Si Si3 0.527727 0.577243 0.744720
Si Si4 0.745198 0.923004 0.075373
Si Si5 0.645218 0.084647 0.000333
Si Si6 0.248092 0.426433 0.235980
Si Si7 0.331218 0.574861 0.574547
Si Si8 0.459763 0.576982 0.569966
O O1 0.354243 0.750000 0.229316
O O2 0.413649 0.512988 0.261808
O O3 0.383923 0.569736 0.096388
O O4 0.308606 0.487200 0.208229
O O5 0.487773 0.750000 0.929894
O O6 0.492036 0.982218 0.828080
O O7 0.402767 0.940567 0.925566
O O8 0.500000 0.000000 0.000000
O O9 0.542905 0.750000 0.750200
O O10 0.487242 0.540647 0.663737
O O11 0.746972 0.750000 0.097812
O O12 0.735571 0.014006 0.165425
O O13 0.800466 0.971356 0.018032
O O14 0.692412 0.959512 0.011732
O O15 0.671695 0.250000 0.010046
O O16 0.249282 0.250000 0.239048
O O17 0.201917 0.483866 0.162943
O O18 0.332341 0.750000 0.582653
O O19 0.395474 0.512145 0.570218
O O20 0.500000 0.500000 0.500000
O O21 0.458206 0.750000 0.548570
#
# Coordination Sequence:
#
# PCOD8252774 Si02
#       8
#     8   8   8   8   8   8   8   8
#     4  11  22  38  61  89 125 159 200 254 306 366
#     4  10  20  35  56  85 121 160 199 241 297 362
#     4  10  22  38  61  88 119 159 207 253 301 368
#     4  11  23  40  62  92 122 159 204 251 309 371
#     4  10  21  37  58  87 122 161 200 246 302 365
#     4  11  23  41  65  92 122 162 204 249 309 372
#     4   9  21  42  66  88 122 162 201 250 310 369
#     4  10  23  44  65  88 116 159 211 259 307 360
#
# _framework density 19.945917000000001
#
# number of rings (size 3 to 8) (size 9 to 14) (size 15 to 20)
#    0.000    1.750    2.500    1.125    3.500    1.500 
#    0.000    1.875    0.000    0.000    0.000    0.000 
#    0.000    0.000    0.000    0.000    0.000    0.000 
#
# Total GULP energy -793499.817751 kJ/mol
# GULP energy per Si atom -12398.434652 kJ/mol
# Density = 1.990052 g / cm^3
# Si number density = 19.945917 Si / 1000 Ang^3
#
#
#
# Elastic Constant Matrix: (Units=GPa)
#
#
# Indices 1 2 3 4 5 6 
#
# 1 144.7977 45.4930 56.0577 0.0000 0.0000 0.0000
# 2 45.4930 62.8785 42.3950 0.0000 0.0000 0.0000
# 3 56.0577 42.3950 105.1145 0.0000 0.0000 0.0000
# 4 0.0000 0.0000 0.0000 31.4449 0.0000 0.0000
# 5 0.0000 0.0000 0.0000 0.0000 30.7731 0.0000
# 6 0.0000 0.0000 0.0000 0.0000 0.0000 29.1151
#
#
#
# Elastic Compliance Matrix: (Units=1/GPa)
#
#
# Indices 1 2 3 4 5 6 
#
# 1 0.009665 -0.004831 -0.003206 0.000000 0.000000 0.000000
# 2 -0.004831 0.024259 -0.007208 0.000000 0.000000 0.000000
# 3 -0.003206 -0.007208 0.014130 0.000000 0.000000 0.000000
# 4 0.000000 0.000000 0.000000 0.031802 0.000000 0.000000
# 5 0.000000 0.000000 0.000000 0.000000 0.032496 0.000000
# 6 0.000000 0.000000 0.000000 0.000000 0.000000 0.034346
#
#
# Mechanical properties :
#
#
# Convention : Reuss Voigt Hill
#
# Bulk Modulus (GPa) = 56.93279 66.74245 61.83762
# Shear Modulus (GPa) = 27.31604 29.52294 28.41949
#
# Velocity S-wave (km/s) = 3.70470 3.85145 3.77878
# Velocity P-wave (km/s) = 6.84874 7.30154 7.07876
#
# Compressibility (1/GPa) = 0.01756457
#
# Stress axis : x y z
#
# Youngs Moduli (GPa) = 103.46322 41.22221 70.77084
#
# Poissons Ratio (x) = 0.19916 0.22689
# Poissons Ratio (y) = 0.49987 0.51008
# Poissons Ratio (z) = 0.33169 0.29711
#
# Static dielectric constant tensor:
#      x y z
#    x 3.697510 0.000000 0.000000 
#    y 0.000000 3.477940 0.000000 
#    z 0.000000 0.000000 3.733320 
# 
# 
# High freq. dielectric constant tensor:
#      x y z
#    x 1.785620 0.000000 0.000000 
#    y 0.000000 1.761850 0.000000 
#    z 0.000000 0.000000 1.786670 
# 
# From -- ./inp_files/20892.got.cif
#   From: 2010.03.12/outbox.cif.g09.slc.cpg/sg62_11_cif.got.tgz:20892.got - 2010.04.10 19:12:36.
