data_PCOD8252991
_publ_section_title
;
Structure prediction by ZEFSAII (Michael W. Deem and Ramdas Pophale) SiO2 
 PCOD8252991
Probable space group: P N M A
;
_chemical_formula_sum "Si O2"
_cell_formula_units_Z 48
_cell_length_a 13.524920
_cell_length_b 13.980642
_cell_length_c 13.579460
_cell_angle_alpha 90.000000
_cell_angle_beta 90.000000
_cell_angle_gamma 90.000000
_cell_volume 2567.700230
_symmetry_space_group_name_H-M "P N M A"
_symmetry_group_IT_number 62
_symmetry_cell_setting 'orthorhombic'
loop_
_space_group_symop_operation_xyz
x,y,z
1/2-x,-y,1/2+z
1/2+x,1/2-y,1/2-z
-x,1/2+y,-z
-x,-y,-z
1/2+x,y,1/2-z
1/2-x,1/2+y,1/2+z
x,1/2-y,z
loop_
_atom_site_type_symbol
_atom_site_label
_atom_site_fract_x
_atom_site_fract_y
_atom_site_fract_z
Si Si1 0.499271 0.956044 0.156365
Si Si2 0.070898 0.250000 0.700657
Si Si3 0.482567 0.056637 0.358362
Si Si4 0.650415 0.056023 0.498136
Si Si5 0.382417 0.750000 0.426222
Si Si6 0.197423 0.250000 0.511029
Si Si7 0.352757 0.543336 0.980910
Si Si8 0.421088 0.250000 0.447806
O O1 0.497556 0.844077 0.185661
O O2 0.475664 0.027168 0.245406
O O3 0.606788 0.984648 0.112972
O O4 0.417717 0.980753 0.075575
O O5 0.116656 0.250000 0.808717
O O6 0.163938 0.250000 0.625713
O O7 0.597520 0.058537 0.391466
O O8 0.430342 0.158536 0.376635
O O9 0.427992 0.975922 0.420379
O O10 0.680973 0.161731 0.532125
O O11 0.742689 0.986982 0.491902
O O12 0.494843 0.750000 0.468087
O O13 0.150361 0.343023 0.457906
O O14 0.316236 0.250000 0.504050
#
# Coordination Sequence:
#
# PCOD8252991 Si02
#       8
#     8   4   8   8   4   4   8   4
#     4  10  22  39  59  86 117 157 193 238 291 349
#     4  10  20  37  57  85 115 147 196 238 293 353
#     4  10  20  36  59  84 113 152 196 235 286 343
#     4  10  20  36  57  84 119 149 185 243 286 338
#     4  10  20  37  56  89 122 143 191 246 290 339
#     4  10  20  37  58  83 112 153 198 235 286 349
#     4  10  22  39  59  84 121 154 191 241 291 341
#     4  10  20  37  61  83 115 157 195 243 289 339
#
# _framework density 18.693770000000001
#
# number of rings (size 3 to 8) (size 9 to 14) (size 15 to 20)
#    0.000    2.000    3.333    0.000    0.000    2.667 
#    3.000    2.500    0.000    0.000    0.000    0.000 
#    0.000    0.000    0.000    0.000    0.000    0.000 
#
# Total GULP energy -595165.578433 kJ/mol
# GULP energy per Si atom -12399.282884 kJ/mol
# Density = 1.865122 g / cm^3
# Si number density = 18.693770 Si / 1000 Ang^3
#
#
#
# Elastic Constant Matrix: (Units=GPa)
#
#
# Indices 1 2 3 4 5 6 
#
# 1 77.5758 33.6941 28.2943 0.0000 0.0000 0.0000
# 2 33.6941 141.6825 50.0413 0.0000 0.0000 0.0000
# 3 28.2943 50.0413 90.0438 0.0000 0.0000 0.0000
# 4 0.0000 0.0000 0.0000 30.5027 0.0000 0.0000
# 5 0.0000 0.0000 0.0000 0.0000 13.9321 0.0000
# 6 0.0000 0.0000 0.0000 0.0000 0.0000 24.2191
#
#
#
# Elastic Compliance Matrix: (Units=1/GPa)
#
#
# Indices 1 2 3 4 5 6 
#
# 1 0.015186 -0.002396 -0.003440 0.000000 0.000000 0.000000
# 2 -0.002396 0.009160 -0.004338 0.000000 0.000000 0.000000
# 3 -0.003440 -0.004338 0.014597 0.000000 0.000000 0.000000
# 4 0.000000 0.000000 0.000000 0.032784 0.000000 0.000000
# 5 0.000000 0.000000 0.000000 0.000000 0.071777 0.000000
# 6 0.000000 0.000000 0.000000 0.000000 0.000000 0.041290
#
#
# Mechanical properties :
#
#
# Convention : Reuss Voigt Hill
#
# Bulk Modulus (GPa) = 53.77747 59.26240 56.51993
# Shear Modulus (GPa) = 23.65850 26.88227 25.27038
#
# Velocity S-wave (km/s) = 3.56136 3.79626 3.68068
# Velocity P-wave (km/s) = 6.76322 7.14044 6.95439
#
# Compressibility (1/GPa) = 0.01859515
#
# Stress axis : x y z
#
# Youngs Moduli (GPa) = 65.84921 109.17101 68.50601
#
# Poissons Ratio (x) = 0.26162 0.23567
# Poissons Ratio (y) = 0.15781 0.29715
# Poissons Ratio (z) = 0.22653 0.47353
#
# Static dielectric constant tensor:
#      x y z
#    x 3.284090 0.000000 0.000000 
#    y 0.000000 3.720410 0.000000 
#    z 0.000000 0.000000 3.307430 
# 
# 
# High freq. dielectric constant tensor:
#      x y z
#    x 1.710270 0.000000 0.000000 
#    y 0.000000 1.747090 0.000000 
#    z 0.000000 0.000000 1.714080 
# 
# From -- ./inp_files/13329.got.cif
#   From: 2010.03.12/outbox.cif.g09.slc.cpg/sg62_7_cif.got.tgz:13329.got - 2010.04.10 19:12:36.
