data_PCOD8252317
_publ_section_title
;
Structure prediction by ZEFSAII (Michael W. Deem and Ramdas Pophale) SiO2 
 PCOD8252317
Probable space group: P N M A
;
_chemical_formula_sum "Si O2"
_cell_formula_units_Z 48
_cell_length_a 30.085937
_cell_length_b 9.222730
_cell_length_c 9.122682
_cell_angle_alpha 90.000000
_cell_angle_beta 90.000000
_cell_angle_gamma 90.000000
_cell_volume 2531.311387
_symmetry_space_group_name_H-M "P N M A"
_symmetry_group_IT_number 62
_symmetry_cell_setting 'orthorhombic'
loop_
_space_group_symop_operation_xyz
x,y,z
1/2-x,-y,1/2+z
1/2+x,1/2-y,1/2-z
-x,1/2+y,-z
-x,-y,-z
1/2+x,y,1/2-z
1/2-x,1/2+y,1/2+z
x,1/2-y,z
loop_
_atom_site_type_symbol
_atom_site_label
_atom_site_fract_x
_atom_site_fract_y
_atom_site_fract_z
Si Si1 0.946056 0.581849 0.130267
Si Si2 0.133579 0.078472 0.668269
Si Si3 0.883196 0.581659 0.656846
Si Si4 0.218056 0.078078 0.844595
Si Si5 0.293918 0.917753 0.679079
Si Si6 0.452732 0.081649 0.665961
O O1 0.938557 0.750000 0.089325
O O2 0.911227 0.526389 0.251110
O O3 0.995104 0.555508 0.194540
O O4 0.937488 0.490211 0.985165
O O5 0.136531 0.250000 0.673119
O O6 0.132991 0.023221 0.501244
O O7 0.176854 0.015057 0.750323
O O8 0.896539 0.750000 0.647231
O O9 0.844729 0.555048 0.775369
O O10 0.926667 0.491926 0.700753
O O11 0.221296 0.250000 0.831200
O O12 0.263202 0.010140 0.785862
O O13 0.211522 0.029812 0.012453
O O14 0.281051 0.750000 0.698066
O O15 0.440766 0.250000 0.658946
#
# Coordination Sequence:
#
# PCOD8252317 Si02
#       6
#     8   8   8   8   8   8
#     4   9  18  35  56  76 103 139 177 215 257 310
#     4   9  18  34  56  78 100 134 177 213 253 309
#     4  10  20  35  55  76 102 138 175 210 254 311
#     4  10  20  35  56  79 103 133 171 214 256 302
#     4  10  21  36  55  79 105 136 173 211 257 311
#     4  10  20  33  52  79 107 136 173 217 261 304
#
# _framework density 18.962503000000002
#
# number of rings (size 3 to 8) (size 9 to 14) (size 15 to 20)
#    0.000    2.333    0.000    2.500    0.000    6.667 
#    0.000    4.167    0.000    0.000    0.000    0.000 
#    0.000    0.000    0.000    0.000    0.000    0.000 
#
# Total GULP energy -595356.756951 kJ/mol
# GULP energy per Si atom -12403.265770 kJ/mol
# Density = 1.891934 g / cm^3
# Si number density = 18.962503 Si / 1000 Ang^3
#
#
#
# Elastic Constant Matrix: (Units=GPa)
#
#
# Indices 1 2 3 4 5 6 
#
# 1 72.6366 27.4191 24.4809 0.0000 0.0000 0.0000
# 2 27.4191 45.6660 27.3916 0.0000 0.0000 0.0000
# 3 24.4809 27.3916 91.4534 0.0000 0.0000 0.0000
# 4 0.0000 0.0000 0.0000 25.8112 0.0000 0.0000
# 5 0.0000 0.0000 0.0000 0.0000 41.3812 0.0000
# 6 0.0000 0.0000 0.0000 0.0000 0.0000 30.7375
#
#
#
# Elastic Compliance Matrix: (Units=1/GPa)
#
#
# Indices 1 2 3 4 5 6 
#
# 1 0.018079 -0.009694 -0.001936 0.000000 0.000000 0.000000
# 2 -0.009694 0.031892 -0.006957 0.000000 0.000000 0.000000
# 3 -0.001936 -0.006957 0.013537 0.000000 0.000000 0.000000
# 4 0.000000 0.000000 0.000000 0.038743 0.000000 0.000000
# 5 0.000000 0.000000 0.000000 0.000000 0.024166 0.000000
# 6 0.000000 0.000000 0.000000 0.000000 0.000000 0.032534
#
#
# Mechanical properties :
#
#
# Convention : Reuss Voigt Hill
#
# Bulk Modulus (GPa) = 37.97491 40.92658 39.45074
# Shear Modulus (GPa) = 24.40209 28.28362 26.34285
#
# Velocity S-wave (km/s) = 3.59117 3.86626 3.73125
# Velocity P-wave (km/s) = 6.10452 6.44673 6.27796
#
# Compressibility (1/GPa) = 0.02633318
#
# Stress axis : x y z
#
# Youngs Moduli (GPa) = 55.31303 31.35626 73.87415
#
# Poissons Ratio (x) = 0.30396 0.14303
# Poissons Ratio (y) = 0.53619 0.51395
# Poissons Ratio (z) = 0.10709 0.21815
#
# Static dielectric constant tensor:
#      x y z
#    x 3.529770 0.000000 0.000000 
#    y 0.000000 3.248010 0.000000 
#    z 0.000000 0.000000 3.588900 
# 
# 
# High freq. dielectric constant tensor:
#      x y z
#    x 1.747070 0.000000 0.000000 
#    y 0.000000 1.711860 0.000000 
#    z 0.000000 0.000000 1.743900 
# 
# From -- ./inp_files/10209.got.cif
#   From: 2010.03.12/outbox.cif.g09.slc.cpg/sg62_6_cif.got.tgz:10209.got - 2010.04.10 19:12:36.
