data_PCOD8252521
_publ_section_title
;
Structure prediction by ZEFSAII (Michael W. Deem and Ramdas Pophale) SiO2 
 PCOD8252521
Probable space group: P N M A
;
_chemical_formula_sum "Si O2"
_cell_formula_units_Z 64
_cell_length_a 32.285062
_cell_length_b 9.357118
_cell_length_c 10.969960
_cell_angle_alpha 90.000000
_cell_angle_beta 90.000000
_cell_angle_gamma 90.000000
_cell_volume 3313.971545
_symmetry_space_group_name_H-M "P N M A"
_symmetry_group_IT_number 62
_symmetry_cell_setting 'orthorhombic'
loop_
_space_group_symop_operation_xyz
x,y,z
1/2-x,-y,1/2+z
1/2+x,1/2-y,1/2-z
-x,1/2+y,-z
-x,-y,-z
1/2+x,y,1/2-z
1/2-x,1/2+y,1/2+z
x,1/2-y,z
loop_
_atom_site_type_symbol
_atom_site_label
_atom_site_fract_x
_atom_site_fract_y
_atom_site_fract_z
Si Si1 0.991106 0.587929 0.375601
Si Si2 0.276345 0.092427 0.020489
Si Si3 0.117154 0.580941 0.142260
Si Si4 0.642734 0.580749 0.095272
Si Si5 0.302901 0.084281 0.505111
Si Si6 0.475801 0.079510 0.609717
Si Si7 0.394963 0.911393 0.121985
Si Si8 0.834452 0.407433 0.248166
O O1 0.006445 0.750000 0.400112
O O2 0.011680 0.530919 0.248551
O O3 0.942857 0.583208 0.347536
O O4 0.000000 0.500000 0.500000
O O5 0.258493 0.250000 0.991924
O O6 0.306008 0.095420 0.135325
O O7 0.238703 0.989244 0.051963
O O8 0.307908 0.041525 0.912847
O O9 0.119386 0.750000 0.142054
O O10 0.124783 0.524142 0.278135
O O11 0.154816 0.519226 0.061320
O O12 0.072275 0.533175 0.093064
O O13 0.637205 0.750000 0.075853
O O14 0.614421 0.502951 0.997033
O O15 0.298516 0.250000 0.538428
O O16 0.304771 0.050594 0.362480
O O17 0.482583 0.250000 0.596070
O O18 0.500000 0.000000 0.500000
O O19 0.379298 0.750000 0.102082
O O20 0.371426 0.979310 0.237944
O O21 0.854008 0.250000 0.223818
#
# Coordination Sequence:
#
# PCOD8252521 Si02
#       8
#     8   8   8   8   8   8   8   8
#     4  10  22  38  59  88 118 148 190 243 292 347
#     4   9  19  34  52  78 109 143 178 223 277 322
#     4   9  19  36  58  81 106 144 189 226 266 327
#     4   9  18  36  59  81 112 150 185 223 273 333
#     4  10  21  35  55  80 105 140 187 226 261 323
#     4  10  22  40  60  85 118 152 192 239 289 345
#     4  10  20  34  55  84 113 141 180 228 278 326
#     4   9  20  37  54  76 109 144 183 221 265 328
#
# _framework density 19.312176000000001
#
# number of rings (size 3 to 8) (size 9 to 14) (size 15 to 20)
#    0.000    2.500    0.000    1.875    3.500    5.000 
#    0.000    1.875    0.000    0.000    0.000    0.000 
#    0.000    0.000    0.000    0.000    0.000    0.000 
#
# Total GULP energy -793118.241287 kJ/mol
# GULP energy per Si atom -12392.472520 kJ/mol
# Density = 1.926822 g / cm^3
# Si number density = 19.312176 Si / 1000 Ang^3
#
#
#
# Elastic Constant Matrix: (Units=GPa)
#
#
# Indices 1 2 3 4 5 6 
#
# 1 114.3922 37.3681 26.1491 0.0000 0.0000 0.0000
# 2 37.3681 61.2867 31.1178 0.0000 0.0000 0.0000
# 3 26.1491 31.1178 69.0092 0.0000 0.0000 0.0000
# 4 0.0000 0.0000 0.0000 15.0941 0.0000 0.0000
# 5 0.0000 0.0000 0.0000 0.0000 22.4311 0.0000
# 6 0.0000 0.0000 0.0000 0.0000 0.0000 30.3649
#
#
#
# Elastic Compliance Matrix: (Units=1/GPa)
#
#
# Indices 1 2 3 4 5 6 
#
# 1 0.011033 -0.005971 -0.001488 0.000000 0.000000 0.000000
# 2 -0.005971 0.024394 -0.008737 0.000000 0.000000 0.000000
# 3 -0.001488 -0.008737 0.018994 0.000000 0.000000 0.000000
# 4 0.000000 0.000000 0.000000 0.066251 0.000000 0.000000
# 5 0.000000 0.000000 0.000000 0.000000 0.044581 0.000000
# 6 0.000000 0.000000 0.000000 0.000000 0.000000 0.032933
#
#
# Mechanical properties :
#
#
# Convention : Reuss Voigt Hill
#
# Bulk Modulus (GPa) = 45.39643 48.21757 46.80700
# Shear Modulus (GPa) = 21.01536 23.58155 22.29846
#
# Velocity S-wave (km/s) = 3.30235 3.49817 3.40167
# Velocity P-wave (km/s) = 6.17239 6.42946 6.30224
#
# Compressibility (1/GPa) = 0.02202817
#
# Stress axis : x y z
#
# Youngs Moduli (GPa) = 90.64021 40.99389 52.64732
#
# Poissons Ratio (x) = 0.24479 0.07833
# Poissons Ratio (y) = 0.54125 0.45998
# Poissons Ratio (z) = 0.13486 0.35817
#
# Static dielectric constant tensor:
#      x y z
#    x 3.833670 0.000000 0.000000 
#    y 0.000000 3.477950 0.000000 
#    z 0.000000 0.000000 3.657750 
# 
# 
# High freq. dielectric constant tensor:
#      x y z
#    x 1.759400 0.000000 0.000000 
#    y 0.000000 1.727520 0.000000 
#    z 0.000000 0.000000 1.755430 
# 
# From -- ./inp_files/15903.got.cif
#   From: 2010.03.12/outbox.cif.g09.slc.cpg/sg62_8_cif.got.tgz:15903.got - 2010.04.10 19:12:36.
