data_PCOD8252455
_publ_section_title
;
Structure prediction by ZEFSAII (Michael W. Deem and Ramdas Pophale) SiO2 
 PCOD8252455
Probable space group: P N M A
;
_chemical_formula_sum "Si O2"
_cell_formula_units_Z 48
_cell_length_a 23.957296
_cell_length_b 9.073755
_cell_length_c 11.940310
_cell_angle_alpha 90.000000
_cell_angle_beta 90.000000
_cell_angle_gamma 90.000000
_cell_volume 2595.616043
_symmetry_space_group_name_H-M "P N M A"
_symmetry_group_IT_number 62
_symmetry_cell_setting 'orthorhombic'
loop_
_space_group_symop_operation_xyz
x,y,z
1/2-x,-y,1/2+z
1/2+x,1/2-y,1/2-z
-x,1/2+y,-z
-x,-y,-z
1/2+x,y,1/2-z
1/2-x,1/2+y,1/2+z
x,1/2-y,z
loop_
_atom_site_type_symbol
_atom_site_label
_atom_site_fract_x
_atom_site_fract_y
_atom_site_fract_z
Si Si1 0.359367 0.074775 0.651072
Si Si2 0.387162 0.917586 0.993070
Si Si3 0.287343 0.578588 0.832343
Si Si4 0.081817 0.924450 0.715061
Si Si5 0.955485 0.577100 0.723000
Si Si6 0.834070 0.075048 0.098090
O O1 0.360545 0.250000 0.659477
O O2 0.348080 0.017642 0.525623
O O3 0.309665 0.014213 0.727899
O O4 0.419249 0.011895 0.687268
O O5 0.394083 0.750000 0.033413
O O6 0.326382 0.944751 0.940271
O O7 0.434357 0.957773 0.902081
O O8 0.393122 0.022234 0.098518
O O9 0.286819 0.750000 0.797404
O O10 0.226420 0.517112 0.863281
O O11 0.082830 0.750000 0.711870
O O12 0.119363 0.986488 0.816458
O O13 0.018707 0.980177 0.733072
O O14 0.948974 0.750000 0.749229
O O15 0.833559 0.250000 0.098562
#
# Coordination Sequence:
#
# PCOD8252455 Si02
#       6
#     8   8   8   8   8   8
#     4  10  20  35  56  79 103 136 178 217 258 311
#     4   9  18  32  52  77 105 139 173 217 270 306
#     4   9  19  37  56  74 106 144 172 212 270 316
#     4  10  20  34  54  79 106 140 180 215 257 315
#     4   9  19  36  55  76 107 143 174 213 267 315
#     4   9  20  36  53  77 109 141 171 216 268 307
#
# _framework density 18.492719999999998
#
# number of rings (size 3 to 8) (size 9 to 14) (size 15 to 20)
#    0.000    2.667    0.000    2.000    2.333    4.000 
#    0.000    3.333    0.000    0.000    0.000    0.000 
#    0.000    0.000    0.000    0.000    0.000    0.000 
#
# Total GULP energy -595272.337424 kJ/mol
# GULP energy per Si atom -12401.507030 kJ/mol
# Density = 1.845063 g / cm^3
# Si number density = 18.492720 Si / 1000 Ang^3
#
#
#
# Elastic Constant Matrix: (Units=GPa)
#
#
# Indices 1 2 3 4 5 6 
#
# 1 148.0703 31.5718 92.0545 0.0000 0.0000 0.0000
# 2 31.5718 38.2460 39.5184 0.0000 0.0000 0.0000
# 3 92.0545 39.5184 146.3175 0.0000 0.0000 0.0000
# 4 0.0000 0.0000 0.0000 27.3912 0.0000 0.0000
# 5 0.0000 0.0000 0.0000 0.0000 20.7560 0.0000
# 6 0.0000 0.0000 0.0000 0.0000 0.0000 21.0535
#
#
#
# Elastic Compliance Matrix: (Units=1/GPa)
#
#
# Indices 1 2 3 4 5 6 
#
# 1 0.011297 -0.002749 -0.006365 0.000000 0.000000 0.000000
# 2 -0.002749 0.036937 -0.008247 0.000000 0.000000 0.000000
# 3 -0.006365 -0.008247 0.013066 0.000000 0.000000 0.000000
# 4 0.000000 0.000000 0.000000 0.036508 0.000000 0.000000
# 5 0.000000 0.000000 0.000000 0.000000 0.048179 0.000000
# 6 0.000000 0.000000 0.000000 0.000000 0.000000 0.047498
#
#
# Mechanical properties :
#
#
# Convention : Reuss Voigt Hill
#
# Bulk Modulus (GPa) = 37.62385 73.21368 55.41877
# Shear Modulus (GPa) = 21.09131 25.13942 23.11537
#
# Velocity S-wave (km/s) = 3.38082 3.69103 3.53933
# Velocity P-wave (km/s) = 5.96903 7.60536 6.83633
#
# Compressibility (1/GPa) = 0.02657888
#
# Stress axis : x y z
#
# Youngs Moduli (GPa) = 88.52237 27.07337 76.53379
#
# Poissons Ratio (x) = 0.07442 0.48712
# Poissons Ratio (y) = 0.24333 0.63115
# Poissons Ratio (z) = 0.56342 0.22327
#
# Static dielectric constant tensor:
#      x y z
#    x 3.708480 0.000000 0.000000 
#    y 0.000000 3.142760 0.000000 
#    z 0.000000 0.000000 3.393590 
# 
# 
# High freq. dielectric constant tensor:
#      x y z
#    x 1.730140 0.000000 0.000000 
#    y 0.000000 1.695310 0.000000 
#    z 0.000000 0.000000 1.717240 
# 
# From -- ./inp_files/15109.got.cif
#   From: 2010.03.12/outbox.cif.g09.slc.cpg/sg62_8_cif.got.tgz:15109.got - 2010.04.10 19:12:36.
