data_PCOD8252222
_publ_section_title
;
Structure prediction by ZEFSAII (Michael W. Deem and Ramdas Pophale) SiO2 
 PCOD8252222
Probable space group: P N M A
;
_chemical_formula_sum "Si O2"
_cell_formula_units_Z 64
_cell_length_a 13.187212
_cell_length_b 14.002696
_cell_length_c 19.956839
_cell_angle_alpha 90.000000
_cell_angle_beta 90.000000
_cell_angle_gamma 90.000000
_cell_volume 3685.160454
_symmetry_space_group_name_H-M "P N M A"
_symmetry_group_IT_number 62
_symmetry_cell_setting 'orthorhombic'
loop_
_space_group_symop_operation_xyz
x,y,z
1/2-x,-y,1/2+z
1/2+x,1/2-y,1/2-z
-x,1/2+y,-z
-x,-y,-z
1/2+x,y,1/2-z
1/2-x,1/2+y,1/2+z
x,1/2-y,z
loop_
_atom_site_type_symbol
_atom_site_label
_atom_site_fract_x
_atom_site_fract_y
_atom_site_fract_z
Si Si1 0.431675 0.851922 0.882947
Si Si2 0.290699 0.138872 0.516800
Si Si3 0.926769 0.915138 0.477360
Si Si4 0.803497 0.358338 0.133783
Si Si5 0.506372 0.453990 0.839139
Si Si6 0.420324 0.139503 0.643177
Si Si7 0.316665 0.360202 0.779455
Si Si8 0.888458 0.958747 0.200832
O O1 0.464648 0.750000 0.851426
O O2 0.316807 0.875996 0.861375
O O3 0.506115 0.934040 0.857794
O O4 0.439732 0.837410 0.963802
O O5 0.256981 0.250000 0.527454
O O6 0.194979 0.066829 0.525381
O O7 0.339040 0.125420 0.443107
O O8 0.374189 0.109888 0.571758
O O9 0.957383 0.887663 0.401445
O O10 0.000000 0.000000 0.500000
O O11 0.830362 0.250000 0.156453
O O12 0.862154 0.431888 0.182176
O O13 0.394608 0.420871 0.822455
O O14 0.582667 0.445130 0.778060
O O15 0.452991 0.250000 0.645068
O O16 0.336164 0.118851 0.700664
O O17 0.520762 0.076547 0.653556
O O18 0.333382 0.250000 0.795682
O O19 0.207741 0.390624 0.806834
#
# Coordination Sequence:
#
# PCOD8252222 Si02
#       8
#     8   8   8   8   8   8   8   8
#     4   9  17  33  53  74 100 127 165 211 251 294
#     4   9  17  32  52  73  98 129 169 211 246 288
#     4   9  17  29  50  76  98 125 162 205 249 296
#     4   9  18  32  52  73  96 130 170 208 244 292
#     4  10  20  32  49  77 101 133 164 203 255 309
#     4   9  19  33  50  74  99 130 169 206 247 298
#     4  10  20  33  48  70 103 133 163 205 252 303
#     4  11  20  32  51  72 104 134 169 204 250 301
#
# _framework density 17.366949999999999
#
# number of rings (size 3 to 8) (size 9 to 14) (size 15 to 20)
#    0.000    2.500    1.250    2.250    0.000    2.500 
#    0.000    0.000    0.000    0.000    0.000    1.750 
#    0.000    0.000    0.000    0.000    0.000    0.000 
#
# Total GULP energy -792947.231670 kJ/mol
# GULP energy per Si atom -12389.800495 kJ/mol
# Density = 1.732742 g / cm^3
# Si number density = 17.366950 Si / 1000 Ang^3
#
#
#
# Elastic Constant Matrix: (Units=GPa)
#
#
# Indices 1 2 3 4 5 6 
#
# 1 71.9547 30.2678 27.3390 0.0000 0.0000 0.0000
# 2 30.2678 68.0426 12.1778 0.0000 0.0000 0.0000
# 3 27.3390 12.1778 65.1072 0.0000 0.0000 0.0000
# 4 0.0000 0.0000 0.0000 18.8982 0.0000 0.0000
# 5 0.0000 0.0000 0.0000 0.0000 18.7414 0.0000
# 6 0.0000 0.0000 0.0000 0.0000 0.0000 22.3259
#
#
#
# Elastic Compliance Matrix: (Units=1/GPa)
#
#
# Indices 1 2 3 4 5 6 
#
# 1 0.019664 -0.007521 -0.006850 0.000000 0.000000 0.000000
# 2 -0.007521 0.018083 -0.000224 0.000000 0.000000 0.000000
# 3 -0.006850 -0.000224 0.018278 0.000000 0.000000 0.000000
# 4 0.000000 0.000000 0.000000 0.052915 0.000000 0.000000
# 5 0.000000 0.000000 0.000000 0.000000 0.053358 0.000000
# 6 0.000000 0.000000 0.000000 0.000000 0.000000 0.044791
#
#
# Mechanical properties :
#
#
# Convention : Reuss Voigt Hill
#
# Bulk Modulus (GPa) = 37.26728 38.29709 37.78218
# Shear Modulus (GPa) = 20.38952 21.01443 20.70197
#
# Velocity S-wave (km/s) = 3.43015 3.48231 3.45633
# Velocity P-wave (km/s) = 6.09862 6.18613 6.14253
#
# Compressibility (1/GPa) = 0.02683319
#
# Stress axis : x y z
#
# Youngs Moduli (GPa) = 50.85361 55.30205 54.71153
#
# Poissons Ratio (x) = 0.41595 0.37479
# Poissons Ratio (y) = 0.38249 0.01225
# Poissons Ratio (z) = 0.34837 0.01238
#
# Static dielectric constant tensor:
#      x y z
#    x 3.099350 0.000000 0.000000 
#    y 0.000000 3.132440 0.000000 
#    z 0.000000 0.000000 3.374160 
# 
# 
# High freq. dielectric constant tensor:
#      x y z
#    x 1.658450 0.000000 0.000000 
#    y 0.000000 1.658960 0.000000 
#    z 0.000000 0.000000 1.673020 
# 
# From -- ./inp_files/23217.got.cif
#   From: 2010.03.12/outbox.cif.g09.slc.cpg/sg62_12_cif.got.tgz:23217.got - 2010.04.10 19:12:36.
