data_PCOD8252589
_publ_section_title
;
Structure prediction by ZEFSAII (Michael W. Deem and Ramdas Pophale) SiO2 
 PCOD8252589
Probable space group: P N M A
;
_chemical_formula_sum "Si O2"
_cell_formula_units_Z 64
_cell_length_a 29.133282
_cell_length_b 8.848694
_cell_length_c 11.978808
_cell_angle_alpha 90.000000
_cell_angle_beta 90.000000
_cell_angle_gamma 90.000000
_cell_volume 3088.034854
_symmetry_space_group_name_H-M "P N M A"
_symmetry_group_IT_number 62
_symmetry_cell_setting 'orthorhombic'
loop_
_space_group_symop_operation_xyz
x,y,z
1/2-x,-y,1/2+z
1/2+x,1/2-y,1/2-z
-x,1/2+y,-z
-x,-y,-z
1/2+x,y,1/2-z
1/2-x,1/2+y,1/2+z
x,1/2-y,z
loop_
_atom_site_type_symbol
_atom_site_label
_atom_site_fract_x
_atom_site_fract_y
_atom_site_fract_z
Si Si1 0.426364 0.921442 0.032385
Si Si2 0.313681 0.070545 0.517979
Si Si3 0.665715 0.430654 0.252116
Si Si4 0.723220 0.574031 0.055134
Si Si5 0.122257 0.071263 0.850437
Si Si6 0.155616 0.922292 0.636693
Si Si7 0.937093 0.576807 0.719140
Si Si8 0.473962 0.578072 0.257364
O O1 0.406646 0.750000 0.039698
O O2 0.465379 0.944576 0.125299
O O3 0.385174 0.037539 0.051700
O O4 0.447376 0.952400 0.911289
O O5 0.311969 0.250000 0.525031
O O6 0.309627 0.999011 0.640177
O O7 0.272201 0.008095 0.442521
O O8 0.360873 0.015480 0.460436
O O9 0.668995 0.250000 0.252578
O O10 0.690433 0.492696 0.142941
O O11 0.612860 0.488161 0.251176
O O12 0.728718 0.750000 0.086733
O O13 0.702855 0.555253 0.930402
O O14 0.124849 0.250000 0.869767
O O15 0.070136 0.015831 0.825549
O O16 0.154481 0.029388 0.744961
O O17 0.150033 0.750000 0.677050
O O18 0.938053 0.750000 0.751557
O O19 0.978450 0.502884 0.789883
O O20 0.480976 0.750000 0.289991
#
# Coordination Sequence:
#
# PCOD8252589 Si02
#       8
#     8   8   8   8   8   8   8   8
#     4   9  17  32  51  81 123 165 203 247 307 361
#     4  12  27  45  67  92 122 163 210 260 315 374
#     4  11  24  44  67  93 128 166 209 259 313 373
#     4  11  24  42  65  94 126 161 204 254 311 374
#     4  10  22  42  64  88 124 165 209 260 313 367
#     4  10  20  34  58  91 123 159 202 248 303 365
#     4  10  20  34  57  87 123 165 207 256 312 368
#     4   9  19  33  56  87 122 163 207 257 313 372
#
# _framework density 20.725155999999998
#
# number of rings (size 3 to 8) (size 9 to 14) (size 15 to 20)
#    0.000    1.750    1.250    3.750    1.750    5.500 
#    0.000    0.625    0.000    0.000    0.000    0.000 
#    0.000    0.000    0.000    0.000    0.000    0.000 
#
# Total GULP energy -793633.875485 kJ/mol
# GULP energy per Si atom -12400.529304 kJ/mol
# Density = 2.067799 g / cm^3
# Si number density = 20.725156 Si / 1000 Ang^3
#
#
#
# Elastic Constant Matrix: (Units=GPa)
#
#
# Indices 1 2 3 4 5 6 
#
# 1 111.3757 46.8523 25.4023 0.0000 0.0000 0.0000
# 2 46.8523 99.6827 30.2567 0.0000 0.0000 0.0000
# 3 25.4023 30.2567 59.3897 0.0000 0.0000 0.0000
# 4 0.0000 0.0000 0.0000 30.8279 0.0000 0.0000
# 5 0.0000 0.0000 0.0000 0.0000 19.4425 0.0000
# 6 0.0000 0.0000 0.0000 0.0000 0.0000 33.7585
#
#
#
# Elastic Compliance Matrix: (Units=1/GPa)
#
#
# Indices 1 2 3 4 5 6 
#
# 1 0.011512 -0.004633 -0.002564 0.000000 0.000000 0.000000
# 2 -0.004633 0.013731 -0.005014 0.000000 0.000000 0.000000
# 3 -0.002564 -0.005014 0.020489 0.000000 0.000000 0.000000
# 4 0.000000 0.000000 0.000000 0.032438 0.000000 0.000000
# 5 0.000000 0.000000 0.000000 0.000000 0.051434 0.000000
# 6 0.000000 0.000000 0.000000 0.000000 0.000000 0.029622
#
#
# Mechanical properties :
#
#
# Convention : Reuss Voigt Hill
#
# Bulk Modulus (GPa) = 46.92349 52.83009 49.87679
# Shear Modulus (GPa) = 26.21217 28.00157 27.10687
#
# Velocity S-wave (km/s) = 3.56019 3.67971 3.62044
# Velocity P-wave (km/s) = 6.29205 6.60301 6.44941
#
# Compressibility (1/GPa) = 0.02131129
#
# Stress axis : x y z
#
# Youngs Moduli (GPa) = 86.86433 72.82713 48.80680
#
# Poissons Ratio (x) = 0.33739 0.12513
# Poissons Ratio (y) = 0.40242 0.24472
# Poissons Ratio (z) = 0.22271 0.36515
#
# Static dielectric constant tensor:
#      x y z
#    x 3.791580 0.000000 0.000000 
#    y 0.000000 3.695640 0.000000 
#    z 0.000000 0.000000 3.597520 
# 
# 
# High freq. dielectric constant tensor:
#      x y z
#    x 1.813470 0.000000 0.000000 
#    y 0.000000 1.810670 0.000000 
#    z 0.000000 0.000000 1.795640 
# 
# From -- ./inp_files/15880.got.cif
#   From: 2010.03.12/outbox.cif.g09.slc.cpg/sg62_8_cif.got.tgz:15880.got - 2010.04.10 19:12:36.
