data_PCOD8252623
_publ_section_title
;
Structure prediction by ZEFSAII (Michael W. Deem and Ramdas Pophale) SiO2 
 PCOD8252623
Probable space group: P N M A
;
_chemical_formula_sum "Si O2"
_cell_formula_units_Z 64
_cell_length_a 29.455746
_cell_length_b 8.976716
_cell_length_c 12.714149
_cell_angle_alpha 90.000000
_cell_angle_beta 90.000000
_cell_angle_gamma 90.000000
_cell_volume 3361.822724
_symmetry_space_group_name_H-M "P N M A"
_symmetry_group_IT_number 62
_symmetry_cell_setting 'orthorhombic'
loop_
_space_group_symop_operation_xyz
x,y,z
1/2-x,-y,1/2+z
1/2+x,1/2-y,1/2-z
-x,1/2+y,-z
-x,-y,-z
1/2+x,y,1/2-z
1/2-x,1/2+y,1/2+z
x,1/2-y,z
loop_
_atom_site_type_symbol
_atom_site_label
_atom_site_fract_x
_atom_site_fract_y
_atom_site_fract_z
Si Si1 0.242348 0.073752 0.035500
Si Si2 0.453498 0.424255 0.881793
Si Si3 0.122886 0.926390 0.785201
Si Si4 0.788926 0.913937 0.285380
Si Si5 0.294503 0.086607 0.848413
Si Si6 0.860750 0.573861 0.999289
Si Si7 0.123908 0.573445 0.216945
Si Si8 0.547348 0.925159 0.880391
O O1 0.245677 0.250000 0.055129
O O2 0.250831 0.982957 0.140033
O O3 0.284943 0.015257 0.962697
O O4 0.192221 0.029675 0.995687
O O5 0.462631 0.250000 0.877937
O O6 0.415715 0.471452 0.797486
O O7 0.499680 0.503736 0.848348
O O8 0.438412 0.472214 0.000320
O O9 0.122811 0.750000 0.801151
O O10 0.084319 0.980511 0.703942
O O11 0.170085 0.974355 0.733007
O O12 0.115102 0.004389 0.897953
O O13 0.806750 0.750000 0.320558
O O14 0.758310 0.894963 0.182684
O O15 0.316922 0.250000 0.862632
O O16 0.329662 0.005046 0.770120
O O17 0.868320 0.750000 0.001282
O O18 0.883834 0.507960 0.894080
O O19 0.126392 0.750000 0.195271
O O20 0.541721 0.750000 0.873115
#
# Coordination Sequence:
#
# PCOD8252623 Si02
#       8
#     8   8   8   8   8   8   8   8
#     4  10  20  35  52  74 109 153 191 230 280 329
#     4   9  19  37  63  89 113 143 181 229 286 344
#     4  11  23  38  59  84 113 152 193 232 282 345
#     4  11  21  35  53  80 113 149 191 234 277 324
#     4   9  18  33  53  75 108 150 189 228 272 326
#     4  11  22  37  56  81 116 153 194 240 281 326
#     4  10  20  36  59  84 112 151 193 230 282 346
#     4   9  20  39  62  87 114 144 181 229 288 345
#
# _framework density 19.037292999999998
#
# number of rings (size 3 to 8) (size 9 to 14) (size 15 to 20)
#    0.000    2.000    2.500    1.125    1.750    2.000 
#    0.000    1.250    0.000    0.000    0.000    0.000 
#    0.000    0.000    0.000    0.000    0.000    0.000 
#
# Total GULP energy -793050.773957 kJ/mol
# GULP energy per Si atom -12391.418343 kJ/mol
# Density = 1.899396 g / cm^3
# Si number density = 19.037293 Si / 1000 Ang^3
#
#
#
# Elastic Constant Matrix: (Units=GPa)
#
#
# Indices 1 2 3 4 5 6 
#
# 1 106.2894 34.2634 64.6913 0.0000 0.0000 0.0000
# 2 34.2634 55.1543 43.0565 0.0000 0.0000 0.0000
# 3 64.6913 43.0565 118.7097 0.0000 0.0000 0.0000
# 4 0.0000 0.0000 0.0000 22.6145 0.0000 0.0000
# 5 0.0000 0.0000 0.0000 0.0000 36.1768 0.0000
# 6 0.0000 0.0000 0.0000 0.0000 0.0000 28.1565
#
#
#
# Elastic Compliance Matrix: (Units=1/GPa)
#
#
# Indices 1 2 3 4 5 6 
#
# 1 0.014687 -0.004012 -0.006549 0.000000 0.000000 0.000000
# 2 -0.004012 0.026388 -0.007385 0.000000 0.000000 0.000000
# 3 -0.006549 -0.007385 0.014671 0.000000 0.000000 0.000000
# 4 0.000000 0.000000 0.000000 0.044219 0.000000 0.000000
# 5 0.000000 0.000000 0.000000 0.000000 0.027642 0.000000
# 6 0.000000 0.000000 0.000000 0.000000 0.000000 0.035516
#
#
# Mechanical properties :
#
#
# Convention : Reuss Voigt Hill
#
# Bulk Modulus (GPa) = 50.36309 62.68621 56.52465
# Shear Modulus (GPa) = 24.31509 26.59905 25.45707
#
# Velocity S-wave (km/s) = 3.57772 3.74198 3.66077
# Velocity P-wave (km/s) = 6.60145 7.18815 6.90104
#
# Compressibility (1/GPa) = 0.01985581
#
# Stress axis : x y z
#
# Youngs Moduli (GPa) = 68.08577 37.89564 68.16055
#
# Poissons Ratio (x) = 0.15203 0.44637
# Poissons Ratio (y) = 0.27315 0.50336
# Poissons Ratio (z) = 0.44588 0.27985
#
# Static dielectric constant tensor:
#      x y z
#    x 3.347720 0.000000 0.000000 
#    y 0.000000 3.317420 0.000000 
#    z 0.000000 0.000000 3.648080 
# 
# 
# High freq. dielectric constant tensor:
#      x y z
#    x 1.725460 0.000000 0.000000 
#    y 0.000000 1.725150 0.000000 
#    z 0.000000 0.000000 1.753480 
# 
# From -- ./inp_files/15804.got.cif
#   From: 2010.03.12/outbox.cif.g09.slc.cpg/sg62_8_cif.got.tgz:15804.got - 2010.04.10 19:12:36.
