data_PCOD8252157
_publ_section_title
;
Structure prediction by ZEFSAII (Michael W. Deem and Ramdas Pophale) SiO2 
 PCOD8252157
Probable space group: P N M A
;
_chemical_formula_sum "Si O2"
_cell_formula_units_Z 48
_cell_length_a 8.617314
_cell_length_b 16.066693
_cell_length_c 15.366310
_cell_angle_alpha 90.000000
_cell_angle_beta 90.000000
_cell_angle_gamma 90.000000
_cell_volume 2127.492334
_symmetry_space_group_name_H-M "P N M A"
_symmetry_group_IT_number 62
_symmetry_cell_setting 'orthorhombic'
loop_
_space_group_symop_operation_xyz
x,y,z
1/2-x,-y,1/2+z
1/2+x,1/2-y,1/2-z
-x,1/2+y,-z
-x,-y,-z
1/2+x,y,1/2-z
1/2-x,1/2+y,1/2+z
x,1/2-y,z
loop_
_atom_site_type_symbol
_atom_site_label
_atom_site_fract_x
_atom_site_fract_y
_atom_site_fract_z
Si Si1 0.440109 0.250000 0.629426
Si Si2 0.029312 0.342613 0.604789
Si Si3 0.949627 0.015139 0.135600
Si Si4 0.550689 0.123460 0.503804
Si Si5 0.715593 0.750000 0.197330
Si Si6 0.700797 0.999185 0.815761
Si Si7 0.869278 0.341677 0.432074
O O1 0.430555 0.171150 0.565916
O O2 0.601394 0.250000 0.683094
O O3 0.302611 0.250000 0.698495
O O4 0.111954 0.250000 0.607154
O O5 0.125695 0.415273 0.650574
O O6 0.864470 0.332767 0.656406
O O7 0.997219 0.366354 0.504416
O O8 0.117099 0.989317 0.172522
O O9 0.827305 0.014718 0.213427
O O10 0.962891 0.104316 0.087490
O O11 0.891969 0.956998 0.057000
O O12 0.705102 0.173487 0.480141
O O13 0.634345 0.916678 0.863089
O O14 0.909529 0.250000 0.390605
#
# Coordination Sequence:
#
# PCOD8252157 Si02
#       7
#     4   8   8   8   4   8   8
#     4  12  20  38  64  89 129 159 201 264 318 380
#     4   9  19  37  58  93 127 161 208 255 327 382
#     4  10  25  40  62  92 124 167 215 258 318 379
#     4  10  20  41  64  86 124 168 206 251 319 389
#     4  10  22  32  60  95 121 161 203 260 320 384
#     4  11  23  41  62  94 129 166 214 269 311 374
#     4  10  19  40  68  92 122 173 210 260 321 377
#
# _framework density 22.561774
#
# number of rings (size 3 to 8) (size 9 to 14) (size 15 to 20)
#    0.500    1.333    2.500    1.500    2.333    4.000 
#    6.000    0.000    0.000    0.000    0.000    0.000 
#    0.000    0.000    0.000    0.000    0.000    0.000 
#
# Total GULP energy -594762.480746 kJ/mol
# GULP energy per Si atom -12390.885016 kJ/mol
# Density = 2.251042 g / cm^3
# Si number density = 22.561774 Si / 1000 Ang^3
#
#
#
# Elastic Constant Matrix: (Units=GPa)
#
#
# Indices 1 2 3 4 5 6 
#
# 1 37.9636 15.6463 13.0111 0.0000 0.0000 0.0000
# 2 15.6463 103.2093 43.0080 0.0000 0.0000 0.0000
# 3 13.0111 43.0080 110.0388 0.0000 0.0000 0.0000
# 4 0.0000 0.0000 0.0000 16.6037 0.0000 0.0000
# 5 0.0000 0.0000 0.0000 0.0000 30.2501 0.0000
# 6 0.0000 0.0000 0.0000 0.0000 0.0000 11.6616
#
#
#
# Elastic Compliance Matrix: (Units=1/GPa)
#
#
# Indices 1 2 3 4 5 6 
#
# 1 0.028462 -0.003479 -0.002006 0.000000 0.000000 0.000000
# 2 -0.003479 0.011999 -0.004279 0.000000 0.000000 0.000000
# 3 -0.002006 -0.004279 0.010997 0.000000 0.000000 0.000000
# 4 0.000000 0.000000 0.000000 0.060228 0.000000 0.000000
# 5 0.000000 0.000000 0.000000 0.000000 0.033058 0.000000
# 6 0.000000 0.000000 0.000000 0.000000 0.000000 0.085752
#
#
# Mechanical properties :
#
#
# Convention : Reuss Voigt Hill
#
# Bulk Modulus (GPa) = 31.31628 43.83806 37.57717
# Shear Modulus (GPa) = 19.18164 23.67283 21.42723
#
# Velocity S-wave (km/s) = 2.91895 3.24272 3.08509
# Velocity P-wave (km/s) = 5.02700 5.78729 5.42049
#
# Compressibility (1/GPa) = 0.03193228
#
# Stress axis : x y z
#
# Youngs Moduli (GPa) = 35.13429 83.33781 90.93317
#
# Poissons Ratio (x) = 0.28994 0.18238
# Poissons Ratio (y) = 0.12223 0.38906
# Poissons Ratio (z) = 0.07047 0.35656
#
# Static dielectric constant tensor:
#      x y z
#    x 3.811390 0.000000 0.000000 
#    y 0.000000 4.131940 0.000000 
#    z 0.000000 0.000000 4.089160 
# 
# 
# High freq. dielectric constant tensor:
#      x y z
#    x 1.873560 0.000000 0.000000 
#    y 0.000000 1.889290 0.000000 
#    z 0.000000 0.000000 1.891850 
# 
# From -- ./inp_files/17012.got.cif
#   From: 2010.03.12/outbox.cif.g09.slc.cpg/sg62_9_cif.got.tgz:17012.got - 2010.04.10 19:12:36.
