data_PCOD8252221
_publ_section_title
;
Structure prediction by ZEFSAII (Michael W. Deem and Ramdas Pophale) SiO2 
 PCOD8252221
Probable space group: P N M A
;
_chemical_formula_sum "Si O2"
_cell_formula_units_Z 40
_cell_length_a 25.748107
_cell_length_b 9.063459
_cell_length_c 9.571958
_cell_angle_alpha 90.000000
_cell_angle_beta 90.000000
_cell_angle_gamma 90.000000
_cell_volume 2233.778281
_symmetry_space_group_name_H-M "P N M A"
_symmetry_group_IT_number 62
_symmetry_cell_setting 'orthorhombic'
loop_
_space_group_symop_operation_xyz
x,y,z
1/2-x,-y,1/2+z
1/2+x,1/2-y,1/2-z
-x,1/2+y,-z
-x,-y,-z
1/2+x,y,1/2-z
1/2-x,1/2+y,1/2+z
x,1/2-y,z
loop_
_atom_site_type_symbol
_atom_site_label
_atom_site_fract_x
_atom_site_fract_y
_atom_site_fract_z
Si Si1 0.333663 0.421582 0.489640
Si Si2 0.135493 0.576324 0.297035
Si Si3 0.445061 0.576552 0.987490
Si Si4 0.284091 0.575762 0.985981
Si Si5 0.136984 0.419087 0.720741
O O1 0.330861 0.250000 0.461741
O O2 0.363463 0.457740 0.632432
O O3 0.274714 0.481816 0.495610
O O4 0.365956 0.490733 0.363370
O O5 0.131975 0.750000 0.328256
O O6 0.085320 0.494243 0.357558
O O7 0.188450 0.513545 0.362222
O O8 0.451284 0.750000 0.959798
O O9 0.413961 0.545245 0.129991
O O10 0.500000 0.500000 0.000000
O O11 0.289508 0.750000 0.955312
O O12 0.311891 0.537266 0.132543
O O13 0.138852 0.250000 0.764105
#
# Coordination Sequence:
#
# PCOD8252221 Si02
#       5
#     8   8   8   8   8
#     4  10  20  32  49  76 110 141 172 210 252 298
#     4  10  20  34  52  77 106 137 173 212 252 300
#     4  10  21  39  60  79  98 127 168 214 260 310
#     4   9  18  33  50  73 106 143 179 213 247 293
#     4   9  19  34  52  75 104 134 169 211 255 301
#
# _framework density 17.906880999999998
#
# number of rings (size 3 to 8) (size 9 to 14) (size 15 to 20)
#    0.000    2.400    0.000    3.600    0.000    8.000 
#    0.000    1.000    0.000    0.000    0.000    0.000 
#    0.000    0.000    0.000    0.000    0.000    0.000 
#
# Total GULP energy -496073.605745 kJ/mol
# GULP energy per Si atom -12401.840144 kJ/mol
# Density = 1.786612 g / cm^3
# Si number density = 17.906881 Si / 1000 Ang^3
#
#
#
# Elastic Constant Matrix: (Units=GPa)
#
#
# Indices 1 2 3 4 5 6 
#
# 1 113.2634 54.8214 54.4198 0.0000 0.0000 0.0000
# 2 54.8214 78.9878 68.7217 0.0000 0.0000 0.0000
# 3 54.4198 68.7217 133.4862 0.0000 0.0000 0.0000
# 4 0.0000 0.0000 0.0000 35.5907 0.0000 0.0000
# 5 0.0000 0.0000 0.0000 0.0000 12.0860 0.0000
# 6 0.0000 0.0000 0.0000 0.0000 0.0000 28.6278
#
#
#
# Elastic Compliance Matrix: (Units=1/GPa)
#
#
# Indices 1 2 3 4 5 6 
#
# 1 0.013405 -0.008239 -0.001223 0.000000 0.000000 0.000000
# 2 -0.008239 0.027996 -0.011054 0.000000 0.000000 0.000000
# 3 -0.001223 -0.011054 0.013681 0.000000 0.000000 0.000000
# 4 0.000000 0.000000 0.000000 0.028097 0.000000 0.000000
# 5 0.000000 0.000000 0.000000 0.000000 0.082740 0.000000
# 6 0.000000 0.000000 0.000000 0.000000 0.000000 0.034931
#
#
# Mechanical properties :
#
#
# Convention : Reuss Voigt Hill
#
# Bulk Modulus (GPa) = 71.18057 75.74034 73.46045
# Shear Modulus (GPa) = 20.27859 25.11255 22.69557
#
# Velocity S-wave (km/s) = 3.36884 3.74892 3.56395
# Velocity P-wave (km/s) = 7.41409 7.81843 7.61894
#
# Compressibility (1/GPa) = 0.01404878
#
# Stress axis : x y z
#
# Youngs Moduli (GPa) = 74.60125 35.71941 73.09535
#
# Poissons Ratio (x) = 0.29431 0.08939
# Poissons Ratio (y) = 0.61467 0.80799
# Poissons Ratio (z) = 0.09123 0.39484
#
# Static dielectric constant tensor:
#      x y z
#    x 3.249220 0.000000 0.000000 
#    y 0.000000 3.309590 0.000000 
#    z 0.000000 0.000000 3.285410 
# 
# 
# High freq. dielectric constant tensor:
#      x y z
#    x 1.682680 0.000000 0.000000 
#    y 0.000000 1.697250 0.000000 
#    z 0.000000 0.000000 1.693570 
# 
# From -- ./inp_files/9083.got.cif
#   From: 2010.03.12/outbox.cif.g09.slc.cpg/sg62_5_cif.got.tgz:9083.got - 2010.04.10 19:12:36.
