data_PCOD8252163
_publ_section_title
;
Structure prediction by ZEFSAII (Michael W. Deem and Ramdas Pophale) SiO2 
 PCOD8252163
Probable space group: P N M A
;
_chemical_formula_sum "Si O2"
_cell_formula_units_Z 48
_cell_length_a 14.137966
_cell_length_b 14.187808
_cell_length_c 11.838192
_cell_angle_alpha 90.000000
_cell_angle_beta 90.000000
_cell_angle_gamma 90.000000
_cell_volume 2374.584425
_symmetry_space_group_name_H-M "P N M A"
_symmetry_group_IT_number 62
_symmetry_cell_setting 'orthorhombic'
loop_
_space_group_symop_operation_xyz
x,y,z
1/2-x,-y,1/2+z
1/2+x,1/2-y,1/2-z
-x,1/2+y,-z
-x,-y,-z
1/2+x,y,1/2-z
1/2-x,1/2+y,1/2+z
x,1/2-y,z
loop_
_atom_site_type_symbol
_atom_site_label
_atom_site_fract_x
_atom_site_fract_y
_atom_site_fract_z
Si Si1 0.188469 0.144964 0.739381
Si Si2 0.878547 0.071421 0.036972
Si Si3 0.360796 0.030558 0.837022
Si Si4 0.699955 0.515294 0.927381
Si Si5 0.252685 0.142797 0.273185
Si Si6 0.007411 0.417066 0.842483
O O1 0.217578 0.250000 0.702213
O O2 0.272504 0.097024 0.807799
O O3 0.095073 0.151800 0.818192
O O4 0.166406 0.082273 0.629674
O O5 0.824096 0.142745 0.119810
O O6 0.935115 0.125905 0.936389
O O7 0.954249 0.016559 0.112902
O O8 0.805565 0.998730 0.977681
O O9 0.454416 0.065626 0.775900
O O10 0.337547 0.922852 0.800729
O O11 0.374081 0.037377 0.972213
O O12 0.697095 0.601631 0.839124
O O13 0.220063 0.250000 0.251035
#
# Coordination Sequence:
#
# PCOD8252163 Si02
#       6
#     8   8   8   8   8   8
#     4  11  23  39  61  95 126 158 210 254 307 367
#     4  10  20  38  67  88 117 160 208 256 301 362
#     4  10  22  41  64  86 129 165 201 256 312 364
#     4  10  19  42  60  86 125 166 194 258 312 361
#     4  10  20  38  61  91 123 162 204 249 309 366
#     4  11  20  40  67  89 119 162 211 249 312 354
#
# _framework density 20.214064
#
# number of rings (size 3 to 8) (size 9 to 14) (size 15 to 20)
#    0.000    1.667    8.333    0.000    0.000    5.333 
#    0.000    0.833    0.000    0.000    0.000    0.000 
#    0.000    0.000    0.000    0.000    0.000    0.000 
#
# Total GULP energy -594977.351744 kJ/mol
# GULP energy per Si atom -12395.361495 kJ/mol
# Density = 2.016806 g / cm^3
# Si number density = 20.214064 Si / 1000 Ang^3
#
#
#
# Elastic Constant Matrix: (Units=GPa)
#
#
# Indices 1 2 3 4 5 6 
#
# 1 71.3072 17.0749 17.3346 0.0000 0.0000 0.0000
# 2 17.0749 121.7204 29.2122 0.0000 0.0000 0.0000
# 3 17.3346 29.2122 112.0737 0.0000 0.0000 0.0000
# 4 0.0000 0.0000 0.0000 3.6828 0.0000 0.0000
# 5 0.0000 0.0000 0.0000 0.0000 34.3520 0.0000
# 6 0.0000 0.0000 0.0000 0.0000 0.0000 8.2455
#
#
#
# Elastic Compliance Matrix: (Units=1/GPa)
#
#
# Indices 1 2 3 4 5 6 
#
# 1 0.014871 -0.001636 -0.001874 0.000000 0.000000 0.000000
# 2 -0.001636 0.008944 -0.002078 0.000000 0.000000 0.000000
# 3 -0.001874 -0.002078 0.009754 0.000000 0.000000 0.000000
# 4 0.000000 0.000000 0.000000 0.271531 0.000000 0.000000
# 5 0.000000 0.000000 0.000000 0.000000 0.029110 0.000000
# 6 0.000000 0.000000 0.000000 0.000000 0.000000 0.121278
#
#
# Mechanical properties :
#
#
# Convention : Reuss Voigt Hill
#
# Bulk Modulus (GPa) = 44.65720 48.03830 46.34775
# Shear Modulus (GPa) = 10.54565 25.35472 17.95018
#
# Velocity S-wave (km/s) = 2.28655 3.54547 2.98317
# Velocity P-wave (km/s) = 5.39548 6.36999 5.90288
#
# Compressibility (1/GPa) = 0.02239280
#
# Stress axis : x y z
#
# Youngs Moduli (GPa) = 67.24430 111.80866 102.52041
#
# Poissons Ratio (x) = 0.18297 0.19208
# Poissons Ratio (y) = 0.11004 0.21305
# Poissons Ratio (z) = 0.12599 0.23235
#
# Static dielectric constant tensor:
#      x y z
#    x 3.603890 0.000000 0.000000 
#    y 0.000000 3.260630 0.000000 
#    z 0.000000 0.000000 4.098220 
# 
# 
# High freq. dielectric constant tensor:
#      x y z
#    x 1.776400 0.000000 0.000000 
#    y 0.000000 1.751910 0.000000 
#    z 0.000000 0.000000 1.808620 
# 
# From -- ./inp_files/13250.got.cif
#   From: 2010.03.12/outbox.cif.g09.slc.cpg/sg62_7_cif.got.tgz:13250.got - 2010.04.10 19:12:36.
