data_PCOD8252492
_publ_section_title
;
Structure prediction by ZEFSAII (Michael W. Deem and Ramdas Pophale) SiO2 
 PCOD8252492
Probable space group: P N M A
;
_chemical_formula_sum "Si O2"
_cell_formula_units_Z 48
_cell_length_a 30.261178
_cell_length_b 8.886244
_cell_length_c 9.074404
_cell_angle_alpha 90.000000
_cell_angle_beta 90.000000
_cell_angle_gamma 90.000000
_cell_volume 2440.181749
_symmetry_space_group_name_H-M "P N M A"
_symmetry_group_IT_number 62
_symmetry_cell_setting 'orthorhombic'
loop_
_space_group_symop_operation_xyz
x,y,z
1/2-x,-y,1/2+z
1/2+x,1/2-y,1/2-z
-x,1/2+y,-z
-x,-y,-z
1/2+x,y,1/2-z
1/2-x,1/2+y,1/2+z
x,1/2-y,z
loop_
_atom_site_type_symbol
_atom_site_label
_atom_site_fract_x
_atom_site_fract_y
_atom_site_fract_z
Si Si1 0.878037 0.428430 0.161124
Si Si2 0.453211 0.924740 0.173323
Si Si3 0.785058 0.073997 0.639380
Si Si4 0.866408 0.428085 0.833178
Si Si5 0.199986 0.074716 0.669131
Si Si6 0.946606 0.074648 0.633312
O O1 0.877495 0.250000 0.164570
O O2 0.926916 0.485299 0.201564
O O3 0.843793 0.489111 0.280979
O O4 0.865884 0.492520 0.999257
O O5 0.441928 0.750000 0.186835
O O6 0.504960 0.957599 0.198963
O O7 0.438035 0.979888 0.013074
O O8 0.791849 0.250000 0.606126
O O9 0.823977 0.011405 0.744706
O O10 0.738696 0.040276 0.716078
O O11 0.785025 0.982429 0.489333
O O12 0.864535 0.250000 0.841292
O O13 0.911220 0.480831 0.753132
O O14 0.189350 0.250000 0.659249
O O15 0.940731 0.250000 0.593397
#
# Coordination Sequence:
#
# PCOD8252492 Si02
#       6
#     8   8   8   8   8   8
#     4  11  22  37  57  79 109 150 190 228 278 334
#     4  10  20  34  54  83 114 143 184 235 281 330
#     4  10  21  38  60  84 112 146 183 226 277 330
#     4   9  19  36  57  80 106 143 189 228 269 329
#     4  11  23  38  58  86 116 145 184 230 273 323
#     4   9  18  35  58  81 109 147 188 230 278 333
#
# _framework density 19.670665
#
# number of rings (size 3 to 8) (size 9 to 14) (size 15 to 20)
#    0.000    2.000    0.000    3.500    0.000    5.333 
#    0.000    3.333    0.000    0.000    0.000    0.000 
#    0.000    0.000    0.000    0.000    0.000    0.000 
#
# Total GULP energy -595409.497820 kJ/mol
# GULP energy per Si atom -12404.364538 kJ/mol
# Density = 1.962589 g / cm^3
# Si number density = 19.670665 Si / 1000 Ang^3
#
#
#
# Elastic Constant Matrix: (Units=GPa)
#
#
# Indices 1 2 3 4 5 6 
#
# 1 83.8053 30.5629 20.4655 0.0000 0.0000 0.0000
# 2 30.5629 65.8603 33.4366 0.0000 0.0000 0.0000
# 3 20.4655 33.4366 83.4587 0.0000 0.0000 0.0000
# 4 0.0000 0.0000 0.0000 28.4173 0.0000 0.0000
# 5 0.0000 0.0000 0.0000 0.0000 28.9974 0.0000
# 6 0.0000 0.0000 0.0000 0.0000 0.0000 26.8137
#
#
#
# Elastic Compliance Matrix: (Units=1/GPa)
#
#
# Indices 1 2 3 4 5 6 
#
# 1 0.014440 -0.006155 -0.001075 0.000000 0.000000 0.000000
# 2 -0.006155 0.021684 -0.007178 0.000000 0.000000 0.000000
# 3 -0.001075 -0.007178 0.015121 0.000000 0.000000 0.000000
# 4 0.000000 0.000000 0.000000 0.035190 0.000000 0.000000
# 5 0.000000 0.000000 0.000000 0.000000 0.034486 0.000000
# 6 0.000000 0.000000 0.000000 0.000000 0.000000 0.037294
#
#
# Mechanical properties :
#
#
# Convention : Reuss Voigt Hill
#
# Bulk Modulus (GPa) = 44.58519 44.67268 44.62894
# Shear Modulus (GPa) = 25.70592 26.75631 26.23112
#
# Velocity S-wave (km/s) = 3.61891 3.69211 3.65569
# Velocity P-wave (km/s) = 6.33854 6.39806 6.36837
#
# Compressibility (1/GPa) = 0.02242897
#
# Stress axis : x y z
#
# Youngs Moduli (GPa) = 69.25402 46.11649 66.13150
#
# Poissons Ratio (x) = 0.28385 0.07108
# Poissons Ratio (y) = 0.42626 0.47470
# Poissons Ratio (z) = 0.07444 0.33103
#
# Static dielectric constant tensor:
#      x y z
#    x 3.750490 0.000000 0.000000 
#    y 0.000000 3.414230 0.000000 
#    z 0.000000 0.000000 3.671810 
# 
# 
# High freq. dielectric constant tensor:
#      x y z
#    x 1.782320 0.000000 0.000000 
#    y 0.000000 1.752110 0.000000 
#    z 0.000000 0.000000 1.770270 
# 
# From -- ./inp_files/10214.got.cif
#   From: 2010.03.12/outbox.cif.g09.slc.cpg/sg62_6_cif.got.tgz:10214.got - 2010.04.10 19:12:36.
