data_PCOD8252270
_publ_section_title
;
Structure prediction by ZEFSAII (Michael W. Deem and Ramdas Pophale) SiO2 
 PCOD8252270
Probable space group: P N M A
;
_chemical_formula_sum "Si O2"
_cell_formula_units_Z 48
_cell_length_a 8.978686
_cell_length_b 9.204143
_cell_length_c 30.911525
_cell_angle_alpha 90.000000
_cell_angle_beta 90.000000
_cell_angle_gamma 90.000000
_cell_volume 2554.562735
_symmetry_space_group_name_H-M "P N M A"
_symmetry_group_IT_number 62
_symmetry_cell_setting 'orthorhombic'
loop_
_space_group_symop_operation_xyz
x,y,z
1/2-x,-y,1/2+z
1/2+x,1/2-y,1/2-z
-x,1/2+y,-z
-x,-y,-z
1/2+x,y,1/2-z
1/2-x,1/2+y,1/2+z
x,1/2-y,z
loop_
_atom_site_type_symbol
_atom_site_label
_atom_site_fract_x
_atom_site_fract_y
_atom_site_fract_z
Si Si1 0.755511 0.913282 0.126493
Si Si2 0.903502 0.920475 0.699088
Si Si3 0.658592 0.415814 0.536033
Si Si4 0.631854 0.083631 0.443241
Si Si5 0.762111 0.078225 0.284646
Si Si6 0.396032 0.418597 0.638813
O O1 0.719416 0.750000 0.141106
O O2 0.721970 0.936242 0.075041
O O3 0.928684 0.948778 0.134829
O O4 0.648526 0.016341 0.153497
O O5 0.904586 0.750000 0.693620
O O6 0.791449 0.969042 0.736961
O O7 0.068931 0.975844 0.710186
O O8 0.592426 0.250000 0.540246
O O9 0.533325 0.536985 0.542802
O O10 0.729787 0.434899 0.487728
O O11 0.631633 0.250000 0.427416
O O12 0.688673 0.985318 0.403329
O O13 0.744229 0.250000 0.291360
O O14 0.657923 0.998233 0.318541
O O15 0.355916 0.250000 0.641611
#
# Coordination Sequence:
#
# PCOD8252270 Si02
#       6
#     8   8   8   8   8   8
#     4   9  18  32  50  74 105 136 166 202 245 294
#     4  10  21  36  55  77 100 128 165 207 250 301
#     4   8  15  27  43  69 103 135 169 208 248 292
#     4   9  15  25  45  71 100 134 169 208 251 291
#     4  10  21  37  55  75  99 128 164 206 252 301
#     4  10  20  33  50  75 105 135 169 208 250 298
#
# _framework density 18.789906999999999
#
# number of rings (size 3 to 8) (size 9 to 14) (size 15 to 20)
#    0.000    2.667    0.000    3.000    0.000    6.667 
#    0.000    0.000    0.000    1.000    0.000    0.000 
#    0.000    0.000    0.000    0.000    0.000    0.000 
#
# Total GULP energy -594859.043720 kJ/mol
# GULP energy per Si atom -12392.896744 kJ/mol
# Density = 1.874714 g / cm^3
# Si number density = 18.789907 Si / 1000 Ang^3
#
#
#
# Elastic Constant Matrix: (Units=GPa)
#
#
# Indices 1 2 3 4 5 6 
#
# 1 26.9490 6.2593 -12.1058 0.0000 0.0000 0.0000
# 2 6.2593 37.5238 20.8130 0.0000 0.0000 0.0000
# 3 -12.1058 20.8130 48.3321 0.0000 0.0000 0.0000
# 4 0.0000 0.0000 0.0000 34.4606 0.0000 0.0000
# 5 0.0000 0.0000 0.0000 0.0000 20.3947 0.0000
# 6 0.0000 0.0000 0.0000 0.0000 0.0000 20.9242
#
#
#
# Elastic Compliance Matrix: (Units=1/GPa)
#
#
# Indices 1 2 3 4 5 6 
#
# 1 0.051790 -0.020803 0.021930 0.000000 0.000000 0.000000
# 2 -0.020803 0.043369 -0.023886 0.000000 0.000000 0.000000
# 3 0.021930 -0.023886 0.036469 0.000000 0.000000 0.000000
# 4 0.000000 0.000000 0.000000 0.029019 0.000000 0.000000
# 5 0.000000 0.000000 0.000000 0.000000 0.049032 0.000000
# 6 0.000000 0.000000 0.000000 0.000000 0.000000 0.047792
#
#
# Mechanical properties :
#
#
# Convention : Reuss Voigt Hill
#
# Bulk Modulus (GPa) = 11.61306 15.85978 13.73642
# Shear Modulus (GPa) = 15.07426 21.67845 18.37635
#
# Velocity S-wave (km/s) = 2.83548 3.40034 3.13068
# Velocity P-wave (km/s) = 4.11264 4.88624 4.51604
#
# Compressibility (1/GPa) = 0.08610998
#
# Stress axis : x y z
#
# Youngs Moduli (GPa) = 19.30872 23.05818 27.42055
#
# Poissons Ratio (x) = 0.47968 -0.60134
# Poissons Ratio (y) = 0.40168 0.65497
# Poissons Ratio (z) = -0.42344 0.55077
#
# Static dielectric constant tensor:
#      x y z
#    x 3.020930 0.000000 0.000000 
#    y 0.000000 3.430480 0.000000 
#    z 0.000000 0.000000 3.926130 
# 
# 
# High freq. dielectric constant tensor:
#      x y z
#    x 1.671790 0.000000 0.000000 
#    y 0.000000 1.731650 0.000000 
#    z 0.000000 0.000000 1.756060 
# 
# From -- ./inp_files/31992.got.cif
#   From: 2010.03.12/outbox.cif.g09.slc.cpg/sg62_16_cif.got.tgz:31992.got - 2010.04.10 19:12:36.
