data_PCOD8252045
_publ_section_title
;
Structure prediction by ZEFSAII (Michael W. Deem and Ramdas Pophale) SiO2 
 PCOD8252045
Probable space group: P N M A
;
_chemical_formula_sum "Si O2"
_cell_formula_units_Z 48
_cell_length_a 10.308552
_cell_length_b 14.897216
_cell_length_c 15.675012
_cell_angle_alpha 90.000000
_cell_angle_beta 90.000000
_cell_angle_gamma 90.000000
_cell_volume 2407.191620
_symmetry_space_group_name_H-M "P N M A"
_symmetry_group_IT_number 62
_symmetry_cell_setting 'orthorhombic'
loop_
_space_group_symop_operation_xyz
x,y,z
1/2-x,-y,1/2+z
1/2+x,1/2-y,1/2-z
-x,1/2+y,-z
-x,-y,-z
1/2+x,y,1/2-z
1/2-x,1/2+y,1/2+z
x,1/2-y,z
loop_
_atom_site_type_symbol
_atom_site_label
_atom_site_fract_x
_atom_site_fract_y
_atom_site_fract_z
Si Si1 0.688705 0.250000 0.531264
Si Si2 0.575060 0.750000 0.928491
Si Si3 0.011326 0.750000 0.894987
Si Si4 0.492673 0.646493 0.196971
Si Si5 0.069745 0.408074 0.516473
Si Si6 0.890969 0.750000 0.716594
Si Si7 0.278842 0.901996 0.331702
Si Si8 0.774550 0.105906 0.120903
O O1 0.771786 0.250000 0.443310
O O2 0.545906 0.250000 0.490863
O O3 0.718693 0.340682 0.583715
O O4 0.533800 0.750000 0.828843
O O5 0.522504 0.664758 0.976978
O O6 0.092363 0.658936 0.887929
O O7 0.907320 0.750000 0.817903
O O8 0.516324 0.750000 0.178589
O O9 0.416633 0.603051 0.117676
O O10 0.636264 0.604606 0.211921
O O11 0.398176 0.633577 0.276279
O O12 0.210116 0.401339 0.472607
O O13 0.000000 0.500000 0.500000
O O14 0.816956 0.840298 0.687101
O O15 0.305763 0.006328 0.347678
#
# Coordination Sequence:
#
# PCOD8252045 Si02
#       8
#     4   4   4   8   8   4   8   8
#     4  12  23  44  66  97 138 179 215 282 341 403
#     4  10  19  36  68  87 123 167 222 267 317 395
#     4  11  27  42  63  98 139 176 222 274 347 395
#     4  12  23  43  69  99 135 181 226 285 335 405
#     4  11  19  39  68  92 122 170 225 273 330 395
#     4   9  23  44  65  94 130 176 221 279 333 401
#     4  12  25  44  68 100 140 174 232 277 341 402
#     4  10  24  44  64  96 134 168 228 281 329 412
#
# _framework density 19.940249000000001
#
# number of rings (size 3 to 8) (size 9 to 14) (size 15 to 20)
#    0.000    1.000    5.833    0.500    4.667    2.000 
#    3.000    0.000    0.000    0.000    0.000    0.000 
#    0.000    0.000    0.000    0.000    0.000    0.000 
#
# Total GULP energy -595066.750047 kJ/mol
# GULP energy per Si atom -12397.223959 kJ/mol
# Density = 1.989486 g / cm^3
# Si number density = 19.940249 Si / 1000 Ang^3
#
#
#
# Elastic Constant Matrix: (Units=GPa)
#
#
# Indices 1 2 3 4 5 6 
#
# 1 82.1553 10.2628 39.3612 0.0000 0.0000 0.0000
# 2 10.2628 140.5237 20.6497 0.0000 0.0000 0.0000
# 3 39.3612 20.6497 76.9630 0.0000 0.0000 0.0000
# 4 0.0000 0.0000 0.0000 25.6237 0.0000 0.0000
# 5 0.0000 0.0000 0.0000 0.0000 36.5902 0.0000
# 6 0.0000 0.0000 0.0000 0.0000 0.0000 23.1717
#
#
#
# Elastic Compliance Matrix: (Units=1/GPa)
#
#
# Indices 1 2 3 4 5 6 
#
# 1 0.016123 0.000036 -0.008255 0.000000 0.000000 0.000000
# 2 0.000036 0.007408 -0.002006 0.000000 0.000000 0.000000
# 3 -0.008255 -0.002006 0.017753 0.000000 0.000000 0.000000
# 4 0.000000 0.000000 0.000000 0.039026 0.000000 0.000000
# 5 0.000000 0.000000 0.000000 0.000000 0.027330 0.000000
# 6 0.000000 0.000000 0.000000 0.000000 0.000000 0.043156
#
#
# Mechanical properties :
#
#
# Convention : Reuss Voigt Hill
#
# Bulk Modulus (GPa) = 47.99963 48.90994 48.45479
# Shear Modulus (GPa) = 28.05953 32.36831 30.21392
#
# Velocity S-wave (km/s) = 3.75531 4.03335 3.89681
# Velocity P-wave (km/s) = 6.55188 6.80235 6.67829
#
# Compressibility (1/GPa) = 0.02083349
#
# Stress axis : x y z
#
# Youngs Moduli (GPa) = 62.02408 134.98178 56.32708
#
# Poissons Ratio (x) = -0.00481 0.46499
# Poissons Ratio (y) = -0.00221 0.11299
# Poissons Ratio (z) = 0.51202 0.27077
#
# Static dielectric constant tensor:
#      x y z
#    x 3.630770 0.000000 0.000000 
#    y 0.000000 3.716720 0.000000 
#    z 0.000000 0.000000 3.610130 
# 
# 
# High freq. dielectric constant tensor:
#      x y z
#    x 1.777740 0.000000 0.000000 
#    y 0.000000 1.794890 0.000000 
#    z 0.000000 0.000000 1.770920 
# 
# From -- ./inp_files/18052.got.cif
#   From: 2010.03.12/outbox.cif.g09.slc.cpg/sg62_10_cif.got.tgz:18052.got - 2010.04.10 19:12:36.
