data_PCOD8252308
_publ_section_title
;
Structure prediction by ZEFSAII (Michael W. Deem and Ramdas Pophale) SiO2 
 PCOD8252308
Probable space group: P N M A
;
_chemical_formula_sum "Si O2"
_cell_formula_units_Z 64
_cell_length_a 20.332843
_cell_length_b 8.674677
_cell_length_c 20.071081
_cell_angle_alpha 90.000000
_cell_angle_beta 90.000000
_cell_angle_gamma 90.000000
_cell_volume 3540.154237
_symmetry_space_group_name_H-M "P N M A"
_symmetry_group_IT_number 62
_symmetry_cell_setting 'orthorhombic'
loop_
_space_group_symop_operation_xyz
x,y,z
1/2-x,-y,1/2+z
1/2+x,1/2-y,1/2-z
-x,1/2+y,-z
-x,-y,-z
1/2+x,y,1/2-z
1/2-x,1/2+y,1/2+z
x,1/2-y,z
loop_
_atom_site_type_symbol
_atom_site_label
_atom_site_fract_x
_atom_site_fract_y
_atom_site_fract_z
Si Si1 0.451210 0.430997 0.554406
Si Si2 0.713218 0.418126 0.179464
Si Si3 0.671915 0.068045 0.506561
Si Si4 0.348997 0.068329 0.351528
Si Si5 0.507362 0.928982 0.685135
Si Si6 0.058069 0.932009 0.456733
Si Si7 0.427219 0.566204 0.813747
Si Si8 0.806646 0.920845 0.522685
O O1 0.500000 0.500000 0.500000
O O2 0.447720 0.250000 0.542740
O O3 0.378642 0.502504 0.547830
O O4 0.476255 0.466981 0.628142
O O5 0.715708 0.250000 0.213124
O O6 0.785222 0.497051 0.190624
O O7 0.646385 0.500368 0.205687
O O8 0.706367 0.407196 0.100410
O O9 0.673526 0.250000 0.502407
O O10 0.644847 0.018187 0.578608
O O11 0.744479 0.005413 0.489071
O O12 0.338236 0.250000 0.366272
O O13 0.414648 0.039126 0.309252
O O14 0.493098 0.750000 0.669141
O O15 0.476991 0.979357 0.755512
O O16 0.054799 0.750000 0.457418
O O17 0.048002 0.990482 0.381485
O O18 0.126786 0.984191 0.489769
O O19 0.000000 0.000000 0.500000
O O20 0.422447 0.750000 0.824902
O O21 0.814154 0.750000 0.491498
#
# Coordination Sequence:
#
# PCOD8252308 Si02
#       8
#     8   8   8   8   8   8   8   8
#     4  12  23  35  51  74 106 146 187 230 275 321
#     4   7  12  25  47  71  95 126 167 212 258 309
#     4  11  20  31  50  77 107 139 180 226 267 317
#     4   9  16  28  48  73 100 134 178 222 266 314
#     4  10  20  33  52  76 105 142 182 224 274 330
#     4  11  21  35  58  86 112 142 182 228 275 327
#     4   9  18  34  54  77 106 141 179 222 273 330
#     4   9  17  32  53  79 108 138 172 219 272 321
#
# _framework density 18.078308
#
# number of rings (size 3 to 8) (size 9 to 14) (size 15 to 20)
#    0.000    2.250    1.250    5.250    0.000    0.500 
#    0.000    0.000    2.750    0.000    0.000    0.000 
#    0.000    0.000    0.000    0.000    0.000    0.000 
#
# Total GULP energy -793151.252198 kJ/mol
# GULP energy per Si atom -12392.988316 kJ/mol
# Density = 1.803716 g / cm^3
# Si number density = 18.078308 Si / 1000 Ang^3
#
#
#
# Elastic Constant Matrix: (Units=GPa)
#
#
# Indices 1 2 3 4 5 6 
#
# 1 185.4718 54.6815 67.9617 0.0000 0.0000 0.0000
# 2 54.6815 112.9989 35.6527 0.0000 0.0000 0.0000
# 3 67.9617 35.6527 66.3660 0.0000 0.0000 0.0000
# 4 0.0000 0.0000 0.0000 20.6004 0.0000 0.0000
# 5 0.0000 0.0000 0.0000 0.0000 27.2152 0.0000
# 6 0.0000 0.0000 0.0000 0.0000 0.0000 27.0137
#
#
#
# Elastic Compliance Matrix: (Units=1/GPa)
#
#
# Indices 1 2 3 4 5 6 
#
# 1 0.008900 -0.001723 -0.008188 0.000000 0.000000 0.000000
# 2 -0.001723 0.010989 -0.004139 0.000000 0.000000 0.000000
# 3 -0.008188 -0.004139 0.025677 0.000000 0.000000 0.000000
# 4 0.000000 0.000000 0.000000 0.048543 0.000000 0.000000
# 5 0.000000 0.000000 0.000000 0.000000 0.036744 0.000000
# 6 0.000000 0.000000 0.000000 0.000000 0.000000 0.037018
#
#
# Mechanical properties :
#
#
# Convention : Reuss Voigt Hill
#
# Bulk Modulus (GPa) = 57.25708 75.71427 66.48568
# Shear Modulus (GPa) = 24.77769 28.73524 26.75646
#
# Velocity S-wave (km/s) = 3.70615 3.99116 3.85129
# Velocity P-wave (km/s) = 7.07492 7.95056 7.52548
#
# Compressibility (1/GPa) = 0.01746509
#
# Stress axis : x y z
#
# Youngs Moduli (GPa) = 112.35746 90.99607 38.94584
#
# Poissons Ratio (x) = 0.15682 0.31890
# Poissons Ratio (y) = 0.19363 0.16119
# Poissons Ratio (z) = 0.92002 0.37663
#
# Static dielectric constant tensor:
#      x y z
#    x 4.004330 0.000000 0.000000 
#    y 0.000000 3.295220 0.000000 
#    z 0.000000 0.000000 2.960670 
# 
# 
# High freq. dielectric constant tensor:
#      x y z
#    x 1.727670 0.000000 0.000000 
#    y 0.000000 1.691330 0.000000 
#    z 0.000000 0.000000 1.647960 
# 
# From -- ./inp_files/24741.got.cif
#   From: 2010.03.12/outbox.cif.g09.slc.cpg/sg62_13_cif.got.tgz:24741.got - 2010.04.10 19:12:36.
