data_PCOD8252897
_publ_section_title
;
Structure prediction by ZEFSAII (Michael W. Deem and Ramdas Pophale) SiO2 
 PCOD8252897
Probable space group: P N M A
;
_chemical_formula_sum "Si O2"
_cell_formula_units_Z 40
_cell_length_a 9.736920
_cell_length_b 19.830870
_cell_length_c 9.792590
_cell_angle_alpha 90.000000
_cell_angle_beta 90.000000
_cell_angle_gamma 90.000000
_cell_volume 1890.866820
_symmetry_space_group_name_H-M "P N M A"
_symmetry_group_IT_number 62
_symmetry_cell_setting 'orthorhombic'
loop_
_space_group_symop_operation_xyz
x,y,z
1/2-x,-y,1/2+z
1/2+x,1/2-y,1/2-z
-x,1/2+y,-z
-x,-y,-z
1/2+x,y,1/2-z
1/2-x,1/2+y,1/2+z
x,1/2-y,z
loop_
_atom_site_type_symbol
_atom_site_label
_atom_site_fract_x
_atom_site_fract_y
_atom_site_fract_z
Si Si1 0.825762 0.595961 0.317014
Si Si2 0.623047 0.329778 0.091205
Si Si3 0.670760 0.829172 0.813334
Si Si4 0.354121 0.671761 0.439027
Si Si5 0.033475 0.944191 0.110289
O O1 0.888259 0.629944 0.451099
O O2 0.786409 0.655462 0.209085
O O3 0.692806 0.551503 0.351212
O O4 0.939235 0.546393 0.247172
O O5 0.626553 0.250000 0.060011
O O6 0.489249 0.348581 0.182399
O O7 0.755243 0.356391 0.176025
O O8 0.691619 0.750000 0.812362
O O9 0.747607 0.855698 0.948497
O O10 0.390718 0.750000 0.454618
O O11 0.496768 0.629745 0.453254
O O12 0.000000 0.000000 0.000000
#
# Coordination Sequence:
#
# PCOD8252897 Si02
#       5
#     8   8   8   8   8
#     4  10  22  41  68  94 126 173 229 282 332 396
#     4  10  20  35  59  97 138 172 215 269 341 408
#     4   9  19  34  53  89 136 173 205 264 340 406
#     4   9  20  38  68  99 133 169 218 286 341 393
#     4  10  24  46  65  98 134 177 225 273 345 410
#
# _framework density 21.154319999999998
#
# number of rings (size 3 to 8) (size 9 to 14) (size 15 to 20)
#    1.200    1.200    0.000    1.800    2.800    1.600 
#    3.600    1.000    0.000    0.000    0.000    0.000 
#    0.000    0.000    0.000    0.000    0.000    0.000 
#
# Total GULP energy -495705.857561 kJ/mol
# GULP energy per Si atom -12392.646439 kJ/mol
# Density = 2.110617 g / cm^3
# Si number density = 21.154320 Si / 1000 Ang^3
#
#
#
# Elastic Constant Matrix: (Units=GPa)
#
#
# Indices 1 2 3 4 5 6 
#
# 1 118.5103 24.9497 54.4532 0.0000 0.0000 0.0000
# 2 24.9497 58.5046 41.3996 0.0000 0.0000 0.0000
# 3 54.4532 41.3996 146.7231 0.0000 0.0000 0.0000
# 4 0.0000 0.0000 0.0000 37.5207 0.0000 0.0000
# 5 0.0000 0.0000 0.0000 0.0000 38.1071 0.0000
# 6 0.0000 0.0000 0.0000 0.0000 0.0000 22.7736
#
#
#
# Elastic Compliance Matrix: (Units=1/GPa)
#
#
# Indices 1 2 3 4 5 6 
#
# 1 0.010380 -0.002125 -0.003253 0.000000 0.000000 0.000000
# 2 -0.002125 0.021792 -0.005360 0.000000 0.000000 0.000000
# 3 -0.003253 -0.005360 0.009535 0.000000 0.000000 0.000000
# 4 0.000000 0.000000 0.000000 0.026652 0.000000 0.000000
# 5 0.000000 0.000000 0.000000 0.000000 0.026242 0.000000
# 6 0.000000 0.000000 0.000000 0.000000 0.000000 0.043910
#
#
# Mechanical properties :
#
#
# Convention : Reuss Voigt Hill
#
# Bulk Modulus (GPa) = 49.42820 62.81590 56.12205
# Shear Modulus (GPa) = 29.98844 33.20931 31.59888
#
# Velocity S-wave (km/s) = 3.76919 3.96644 3.86908
# Velocity P-wave (km/s) = 6.50835 7.12288 6.82254
#
# Compressibility (1/GPa) = 0.02023136
#
# Stress axis : x y z
#
# Youngs Moduli (GPa) = 96.33893 45.88866 104.87456
#
# Poissons Ratio (x) = 0.09751 0.34113
# Poissons Ratio (y) = 0.20471 0.56215
# Poissons Ratio (z) = 0.31337 0.24597
#
# Static dielectric constant tensor:
#      x y z
#    x 3.782300 0.000000 0.000000 
#    y 0.000000 3.320530 0.000000 
#    z 0.000000 0.000000 3.952610 
# 
# 
# High freq. dielectric constant tensor:
#      x y z
#    x 1.829280 0.000000 0.000000 
#    y 0.000000 1.787180 0.000000 
#    z 0.000000 0.000000 1.841940 
# 
# From -- ./inp_files/4292.got.cif
#   From: 2010.03.12/outbox.cif.g09.slc.cpg/sg62_3_cif.got.tgz:4292.got - 2010.04.10 19:12:36.
