data_PCOD8252145
_publ_section_title
;
Structure prediction by ZEFSAII (Michael W. Deem and Ramdas Pophale) SiO2 
 PCOD8252145
Probable space group: P N M A
;
_chemical_formula_sum "Si O2"
_cell_formula_units_Z 64
_cell_length_a 30.520837
_cell_length_b 8.866629
_cell_length_c 11.989262
_cell_angle_alpha 90.000000
_cell_angle_beta 90.000000
_cell_angle_gamma 90.000000
_cell_volume 3244.497377
_symmetry_space_group_name_H-M "P N M A"
_symmetry_group_IT_number 62
_symmetry_cell_setting 'orthorhombic'
loop_
_space_group_symop_operation_xyz
x,y,z
1/2-x,-y,1/2+z
1/2+x,1/2-y,1/2-z
-x,1/2+y,-z
-x,-y,-z
1/2+x,y,1/2-z
1/2-x,1/2+y,1/2+z
x,1/2-y,z
loop_
_atom_site_type_symbol
_atom_site_label
_atom_site_fract_x
_atom_site_fract_y
_atom_site_fract_z
Si Si1 0.047545 0.072524 0.500092
Si Si2 0.573978 0.581413 0.218195
Si Si3 0.372562 0.428110 0.411092
Si Si4 0.697100 0.571189 0.999242
Si Si5 0.673773 0.919704 0.243276
Si Si6 0.456625 0.427071 0.545739
Si Si7 0.794412 0.572528 0.956776
Si Si8 0.881486 0.428614 0.346089
O O1 0.043665 0.250000 0.515767
O O2 0.069945 0.036115 0.381814
O O3 0.075828 0.006246 0.601424
O O4 0.000000 0.000000 0.500000
O O5 0.561661 0.750000 0.175140
O O6 0.622487 0.582889 0.267715
O O7 0.544228 0.532892 0.322872
O O8 0.368319 0.250000 0.424471
O O9 0.414109 0.491272 0.480487
O O10 0.327781 0.497710 0.456991
O O11 0.378354 0.475932 0.282680
O O12 0.696751 0.750000 0.993517
O O13 0.682204 0.514871 0.120498
O O14 0.745690 0.508426 0.978413
O O15 0.662333 0.510695 0.908005
O O16 0.692940 0.750000 0.256782
O O17 0.695817 0.032376 0.329467
O O18 0.500000 0.500000 0.500000
O O19 0.458787 0.250000 0.525704
O O20 0.796849 0.750000 0.974146
O O21 0.886841 0.250000 0.361128
#
# Coordination Sequence:
#
# PCOD8252145 Si02
#       8
#     8   8   8   8   8   8   8   8
#     4  12  26  42  63  92 124 157 200 247 300 359
#     4  10  20  40  66  87 116 158 203 249 298 355
#     4  10  22  41  63  86 118 164 205 239 295 367
#     4   9  20  38  60  87 120 159 197 246 308 356
#     4  10  19  39  65  83 114 160 203 246 301 359
#     4  10  22  39  59  89 120 153 200 246 297 354
#     4  11  23  37  58  92 126 155 199 252 300 355
#     4  10  21  42  66  86 118 162 205 249 298 356
#
# _framework density 19.725704
#
# number of rings (size 3 to 8) (size 9 to 14) (size 15 to 20)
#    0.000    1.750    2.500    1.500    3.500    2.000 
#    0.000    1.875    0.000    0.000    0.000    0.000 
#    0.000    0.000    0.000    0.000    0.000    0.000 
#
# Total GULP energy -793714.382881 kJ/mol
# GULP energy per Si atom -12401.787233 kJ/mol
# Density = 1.968081 g / cm^3
# Si number density = 19.725704 Si / 1000 Ang^3
#
#
#
# Elastic Constant Matrix: (Units=GPa)
#
#
# Indices 1 2 3 4 5 6 
#
# 1 122.5328 30.9982 43.5637 0.0000 0.0000 0.0000
# 2 30.9982 50.4118 34.3379 0.0000 0.0000 0.0000
# 3 43.5637 34.3379 115.4059 0.0000 0.0000 0.0000
# 4 0.0000 0.0000 0.0000 27.5961 0.0000 0.0000
# 5 0.0000 0.0000 0.0000 0.0000 32.5025 0.0000
# 6 0.0000 0.0000 0.0000 0.0000 0.0000 29.0852
#
#
#
# Elastic Compliance Matrix: (Units=1/GPa)
#
#
# Indices 1 2 3 4 5 6 
#
# 1 0.010205 -0.004579 -0.002490 0.000000 0.000000 0.000000
# 2 -0.004579 0.026934 -0.006285 0.000000 0.000000 0.000000
# 3 -0.002490 -0.006285 0.011475 0.000000 0.000000 0.000000
# 4 0.000000 0.000000 0.000000 0.036237 0.000000 0.000000
# 5 0.000000 0.000000 0.000000 0.000000 0.030767 0.000000
# 6 0.000000 0.000000 0.000000 0.000000 0.000000 0.034382
#
#
# Mechanical properties :
#
#
# Convention : Reuss Voigt Hill
#
# Bulk Modulus (GPa) = 45.65122 56.23890 50.94506
# Shear Modulus (GPa) = 27.17268 29.80014 28.48641
#
# Velocity S-wave (km/s) = 3.71553 3.89102 3.80429
# Velocity P-wave (km/s) = 6.44982 6.98277 6.72158
#
# Compressibility (1/GPa) = 0.02190522
#
# Stress axis : x y z
#
# Youngs Moduli (GPa) = 97.99501 37.12846 87.14606
#
# Poissons Ratio (x) = 0.17001 0.21696
# Poissons Ratio (y) = 0.44872 0.54774
# Poissons Ratio (z) = 0.24397 0.23336
#
# Static dielectric constant tensor:
#      x y z
#    x 3.836000 0.000000 0.000000 
#    y 0.000000 3.394880 0.000000 
#    z 0.000000 0.000000 3.756610 
# 
# 
# High freq. dielectric constant tensor:
#      x y z
#    x 1.778850 0.000000 0.000000 
#    y 0.000000 1.743850 0.000000 
#    z 0.000000 0.000000 1.783380 
# 
# From -- ./inp_files/15919.got.cif
#   From: 2010.03.12/outbox.cif.g09.slc.cpg/sg62_8_cif.got.tgz:15919.got - 2010.04.10 19:12:36.
