data_PCOD8252795
_publ_section_title
;
Structure prediction by ZEFSAII (Michael W. Deem and Ramdas Pophale) SiO2 
 PCOD8252795
Probable space group: P N M A
;
_chemical_formula_sum "Si O2"
_cell_formula_units_Z 48
_cell_length_a 23.705819
_cell_length_b 8.698954
_cell_length_c 12.073034
_cell_angle_alpha 90.000000
_cell_angle_beta 90.000000
_cell_angle_gamma 90.000000
_cell_volume 2489.650715
_symmetry_space_group_name_H-M "P N M A"
_symmetry_group_IT_number 62
_symmetry_cell_setting 'orthorhombic'
loop_
_space_group_symop_operation_xyz
x,y,z
1/2-x,-y,1/2+z
1/2+x,1/2-y,1/2-z
-x,1/2+y,-z
-x,-y,-z
1/2+x,y,1/2-z
1/2-x,1/2+y,1/2+z
x,1/2-y,z
loop_
_atom_site_type_symbol
_atom_site_label
_atom_site_fract_x
_atom_site_fract_y
_atom_site_fract_z
Si Si1 0.644466 0.930834 0.149957
Si Si2 0.541740 0.569258 0.300975
Si Si3 0.109961 0.069594 0.009614
Si Si4 0.578273 0.568610 0.718298
Si Si5 0.835525 0.432688 0.405117
Si Si6 0.786625 0.930882 0.837657
O O1 0.652079 0.750000 0.148486
O O2 0.584699 0.978564 0.203333
O O3 0.696185 0.997803 0.220275
O O4 0.647212 0.997836 0.025641
O O5 0.543705 0.750000 0.325266
O O6 0.557728 0.479958 0.413174
O O7 0.480116 0.519262 0.263279
O O8 0.105269 0.250000 0.985091
O O9 0.168489 0.023050 0.067938
O O10 0.107697 0.976170 0.896302
O O11 0.567836 0.750000 0.722578
O O12 0.618764 0.510689 0.816510
O O13 0.833096 0.250000 0.407495
O O14 0.774044 0.497991 0.372387
O O15 0.784853 0.750000 0.821884
#
# Coordination Sequence:
#
# PCOD8252795 Si02
#       6
#     8   8   8   8   8   8
#     4   9  19  37  59  79 105 143 182 220 268 325
#     4  10  20  36  57  81 109 142 183 227 270 319
#     4  10  20  35  57  83 110 142 181 226 273 318
#     4  11  22  35  54  80 112 146 181 221 269 322
#     4   9  20  37  55  79 111 146 178 217 273 325
#     4   9  19  36  57  80 108 141 177 222 271 321
#
# _framework density 19.279812
#
# number of rings (size 3 to 8) (size 9 to 14) (size 15 to 20)
#    0.000    2.333    0.000    2.000    2.333    2.000 
#    0.000    3.333    0.000    0.000    0.000    0.000 
#    0.000    0.000    0.000    0.000    0.000    0.000 
#
# Total GULP energy -595341.889693 kJ/mol
# GULP energy per Si atom -12402.956035 kJ/mol
# Density = 1.923593 g / cm^3
# Si number density = 19.279812 Si / 1000 Ang^3
#
#
#
# Elastic Constant Matrix: (Units=GPa)
#
#
# Indices 1 2 3 4 5 6 
#
# 1 109.2642 12.4564 70.9582 0.0000 0.0000 0.0000
# 2 12.4564 23.4170 15.5418 0.0000 0.0000 0.0000
# 3 70.9582 15.5418 165.5706 0.0000 0.0000 0.0000
# 4 0.0000 0.0000 0.0000 25.4265 0.0000 0.0000
# 5 0.0000 0.0000 0.0000 0.0000 26.1945 0.0000
# 6 0.0000 0.0000 0.0000 0.0000 0.0000 18.2149
#
#
#
# Elastic Compliance Matrix: (Units=1/GPa)
#
#
# Indices 1 2 3 4 5 6 
#
# 1 0.012933 -0.003413 -0.005222 0.000000 0.000000 0.000000
# 2 -0.003413 0.046442 -0.002897 0.000000 0.000000 0.000000
# 3 -0.005222 -0.002897 0.008550 0.000000 0.000000 0.000000
# 4 0.000000 0.000000 0.000000 0.039329 0.000000 0.000000
# 5 0.000000 0.000000 0.000000 0.000000 0.038176 0.000000
# 6 0.000000 0.000000 0.000000 0.000000 0.000000 0.054900
#
#
# Mechanical properties :
#
#
# Convention : Reuss Voigt Hill
#
# Bulk Modulus (GPa) = 22.29147 55.12940 38.71043
# Shear Modulus (GPa) = 20.97781 27.25353 24.11567
#
# Velocity S-wave (km/s) = 3.30217 3.76384 3.54054
# Velocity P-wave (km/s) = 5.11139 6.89529 6.06924
#
# Compressibility (1/GPa) = 0.04486022
#
# Stress axis : x y z
#
# Youngs Moduli (GPa) = 77.32406 21.53217 116.96419
#
# Poissons Ratio (x) = 0.07350 0.61080
# Poissons Ratio (y) = 0.26394 0.33879
# Poissons Ratio (z) = 0.40379 0.06237
#
# Static dielectric constant tensor:
#      x y z
#    x 3.664930 0.000000 0.000000 
#    y 0.000000 3.320910 0.000000 
#    z 0.000000 0.000000 3.724700 
# 
# 
# High freq. dielectric constant tensor:
#      x y z
#    x 1.758200 0.000000 0.000000 
#    y 0.000000 1.735460 0.000000 
#    z 0.000000 0.000000 1.754910 
# 
# From -- ./inp_files/15137.got.cif
#   From: 2010.03.12/outbox.cif.g09.slc.cpg/sg62_8_cif.got.tgz:15137.got - 2010.04.10 19:12:36.
