data_PCOD8252200
_publ_section_title
;
Structure prediction by ZEFSAII (Michael W. Deem and Ramdas Pophale) SiO2 
 PCOD8252200
Probable space group: P N M A
;
_chemical_formula_sum "Si O2"
_cell_formula_units_Z 56
_cell_length_a 18.140205
_cell_length_b 9.221855
_cell_length_c 18.833182
_cell_angle_alpha 90.000000
_cell_angle_beta 90.000000
_cell_angle_gamma 90.000000
_cell_volume 3150.534091
_symmetry_space_group_name_H-M "P N M A"
_symmetry_group_IT_number 62
_symmetry_cell_setting 'orthorhombic'
loop_
_space_group_symop_operation_xyz
x,y,z
1/2-x,-y,1/2+z
1/2+x,1/2-y,1/2-z
-x,1/2+y,-z
-x,-y,-z
1/2+x,y,1/2-z
1/2-x,1/2+y,1/2+z
x,1/2-y,z
loop_
_atom_site_type_symbol
_atom_site_label
_atom_site_fract_x
_atom_site_fract_y
_atom_site_fract_z
Si Si1 0.041978 0.918799 0.643222
Si Si2 0.826754 0.079072 0.456318
Si Si3 0.806058 0.412475 0.895949
Si Si4 0.604419 0.583581 0.100672
Si Si5 0.996764 0.082330 0.204227
Si Si6 0.523243 0.918325 0.429761
Si Si7 0.635514 0.914010 0.253243
O O1 0.026884 0.750000 0.628918
O O2 0.114736 0.973041 0.602609
O O3 0.055843 0.947036 0.727502
O O4 0.972396 0.003032 0.611958
O O5 0.818678 0.250000 0.457618
O O6 0.852115 0.019023 0.533243
O O7 0.746612 0.018569 0.438392
O O8 0.784079 0.250000 0.917686
O O9 0.890386 0.445308 0.916672
O O10 0.797893 0.434212 0.809860
O O11 0.584070 0.750000 0.085558
O O12 0.657730 0.569316 0.170337
O O13 0.995570 0.250000 0.181319
O O14 0.975885 0.985192 0.135896
O O15 0.077427 0.039398 0.231144
O O16 0.503437 0.750000 0.436681
O O17 0.500000 0.000000 0.500000
O O18 0.602211 0.750000 0.265595
#
# Coordination Sequence:
#
# PCOD8252200 Si02
#       7
#     8   8   8   8   8   8   8
#     4   9  18  31  47  71 102 133 166 203 242 290
#     4  10  20  32  47  71 103 134 163 200 247 296
#     4   9  19  34  50  69  95 127 161 199 244 295
#     4   9  17  30  50  73  96 126 165 208 247 286
#     4   9  16  28  48  72  97 124 156 195 238 284
#     4  10  20  35  55  77  99 124 161 208 253 296
#     4   8  15  30  49  67  89 118 157 201 241 285
#
# _framework density 17.774764000000001
#
# number of rings (size 3 to 8) (size 9 to 14) (size 15 to 20)
#    0.000    2.857    0.000    2.143    0.000    4.571 
#    0.000    1.429    0.000    3.429    0.000    0.000 
#    0.000    0.000    0.000    0.000    0.000    0.000 
#
# Total GULP energy -693922.171934 kJ/mol
# GULP energy per Si atom -12391.467356 kJ/mol
# Density = 1.773431 g / cm^3
# Si number density = 17.774764 Si / 1000 Ang^3
#
#
#
# Elastic Constant Matrix: (Units=GPa)
#
#
# Indices 1 2 3 4 5 6 
#
# 1 47.6194 27.4970 42.2279 0.0000 0.0000 0.0000
# 2 27.4970 69.2742 56.0189 0.0000 0.0000 0.0000
# 3 42.2279 56.0189 159.4528 0.0000 0.0000 0.0000
# 4 0.0000 0.0000 0.0000 27.7079 0.0000 0.0000
# 5 0.0000 0.0000 0.0000 0.0000 21.9124 0.0000
# 6 0.0000 0.0000 0.0000 0.0000 0.0000 25.7491
#
#
#
# Elastic Compliance Matrix: (Units=1/GPa)
#
#
# Indices 1 2 3 4 5 6 
#
# 1 0.030117 -0.007689 -0.005275 0.000000 0.000000 0.000000
# 2 -0.007689 0.022127 -0.005737 0.000000 0.000000 0.000000
# 3 -0.005275 -0.005737 0.009684 0.000000 0.000000 0.000000
# 4 0.000000 0.000000 0.000000 0.036091 0.000000 0.000000
# 5 0.000000 0.000000 0.000000 0.000000 0.045636 0.000000
# 6 0.000000 0.000000 0.000000 0.000000 0.000000 0.038836
#
#
# Mechanical properties :
#
#
# Convention : Reuss Voigt Hill
#
# Bulk Modulus (GPa) = 40.77299 58.64822 49.71061
# Shear Modulus (GPa) = 21.92320 25.11404 23.51862
#
# Velocity S-wave (km/s) = 3.51577 3.76294 3.64145
# Velocity P-wave (km/s) = 6.28247 7.20739 6.76076
#
# Compressibility (1/GPa) = 0.02452604
#
# Stress axis : x y z
#
# Youngs Moduli (GPa) = 33.20366 45.19382 103.26349
#
# Poissons Ratio (x) = 0.34750 0.54468
# Poissons Ratio (y) = 0.25530 0.59246
# Poissons Ratio (z) = 0.17514 0.25929
#
# Static dielectric constant tensor:
#      x y z
#    x 2.869080 0.000000 0.000000 
#    y 0.000000 3.291540 0.000000 
#    z 0.000000 0.000000 3.813510 
# 
# 
# High freq. dielectric constant tensor:
#      x y z
#    x 1.635820 0.000000 0.000000 
#    y 0.000000 1.690500 0.000000 
#    z 0.000000 0.000000 1.710730 
# 
# From -- ./inp_files/24624.got.cif
#   From: 2010.03.12/outbox.cif.g09.slc.cpg/sg62_13_cif.got.tgz:24624.got - 2010.04.10 19:12:36.
