data_PCOD8252015
_publ_section_title
;
Structure prediction by ZEFSAII (Michael W. Deem and Ramdas Pophale) SiO2 
 PCOD8252015
Probable space group: P N M A
;
_chemical_formula_sum "Si O2"
_cell_formula_units_Z 56
_cell_length_a 16.875360
_cell_length_b 20.449720
_cell_length_c 8.067371
_cell_angle_alpha 90.000000
_cell_angle_beta 90.000000
_cell_angle_gamma 90.000000
_cell_volume 2784.020584
_symmetry_space_group_name_H-M "P N M A"
_symmetry_group_IT_number 62
_symmetry_cell_setting 'orthorhombic'
loop_
_space_group_symop_operation_xyz
x,y,z
1/2-x,-y,1/2+z
1/2+x,1/2-y,1/2-z
-x,1/2+y,-z
-x,-y,-z
1/2+x,y,1/2-z
1/2-x,1/2+y,1/2+z
x,1/2-y,z
loop_
_atom_site_type_symbol
_atom_site_label
_atom_site_fract_x
_atom_site_fract_y
_atom_site_fract_z
Si Si1 0.023571 0.940429 0.313398
Si Si2 0.847520 0.533834 0.378046
Si Si3 0.469319 0.819759 0.395354
Si Si4 0.312568 0.617509 0.443263
Si Si5 0.015243 0.677868 0.736428
Si Si6 0.386482 0.930692 0.778536
Si Si7 0.351767 0.390276 0.065927
O O1 0.078790 0.901911 0.436916
O O2 0.943143 0.967096 0.394660
O O3 0.000828 0.886102 0.180427
O O4 0.067854 0.002150 0.234415
O O5 0.826034 0.562186 0.562594
O O6 0.819759 0.458889 0.358824
O O7 0.811491 0.572326 0.222558
O O8 0.486069 0.750000 0.301545
O O9 0.373550 0.823567 0.413161
O O10 0.512810 0.816044 0.568302
O O11 0.338382 0.580395 0.610522
O O12 0.223583 0.644215 0.476113
O O13 0.999719 0.750000 0.656646
O O14 0.106182 0.655787 0.700650
O O15 0.947923 0.627423 0.674654
#
# Coordination Sequence:
#
# PCOD8252015 Si02
#       7
#     8   8   8   8   8   8   8
#     4  10  19  36  62  83 114 149 198 252 285 338
#     4  10  20  37  57  84 121 147 197 241 283 354
#     4   9  21  40  59  84 113 154 202 239 289 361
#     4  10  24  35  58  88 118 159 182 240 304 344
#     4  10  20  36  61  85 113 152 197 241 289 348
#     4  10  19  39  58  87 114 155 194 239 293 352
#     4  11  21  36  54  92 119 149 193 244 295 349
#
# _framework density 20.114792000000001
#
# number of rings (size 3 to 8) (size 9 to 14) (size 15 to 20)
#    0.000    2.000    2.857    0.857    6.000    2.857 
#    2.571    0.000    0.000    0.000    0.000    0.000 
#    0.000    0.000    0.000    0.000    0.000    0.000 
#
# Total GULP energy -693733.012908 kJ/mol
# GULP energy per Si atom -12388.089516 kJ/mol
# Density = 2.006901 g / cm^3
# Si number density = 20.114792 Si / 1000 Ang^3
#
#
#
# Elastic Constant Matrix: (Units=GPa)
#
#
# Indices 1 2 3 4 5 6 
#
# 1 88.2061 18.0146 21.3280 0.0000 0.0000 0.0000
# 2 18.0146 114.7262 31.9030 0.0000 0.0000 0.0000
# 3 21.3280 31.9030 82.6697 0.0000 0.0000 0.0000
# 4 0.0000 0.0000 0.0000 -0.3158 0.0000 0.0000
# 5 0.0000 0.0000 0.0000 0.0000 17.6632 0.0000
# 6 0.0000 0.0000 0.0000 0.0000 0.0000 8.9606
#
#
#
# Elastic Compliance Matrix: (Units=1/GPa)
#
#
# Indices 1 2 3 4 5 6 
#
# 1 0.012230 -0.001168 -0.002704 0.000000 0.000000 0.000000
# 2 -0.001168 0.009876 -0.003510 0.000000 0.000000 0.000000
# 3 -0.002704 -0.003510 0.014148 0.000000 0.000000 0.000000
# 4 0.000000 0.000000 0.000000 -3.167002 0.000000 0.000000
# 5 0.000000 0.000000 0.000000 0.000000 0.056615 0.000000
# 6 0.000000 0.000000 0.000000 0.000000 0.000000 0.111599
#
#
# Mechanical properties :
#
#
# Convention : Reuss Voigt Hill
#
# Bulk Modulus (GPa) = 46.53499 47.56590 47.05045
# Shear Modulus (GPa) = -1.70033 19.55206 8.92586
#
# Velocity S-wave (km/s) = -0.92041 3.12111 2.10881
# Velocity P-wave (km/s) = 4.69632 6.05698 5.41952
#
# Compressibility (1/GPa) = 0.02148921
#
# Stress axis : x y z
#
# Youngs Moduli (GPa) = 81.76903 101.25715 70.67911
#
# Poissons Ratio (x) = 0.11830 0.19113
# Poissons Ratio (y) = 0.09553 0.24807
# Poissons Ratio (z) = 0.22112 0.35539
#
# Static dielectric constant tensor:
#      x y z
#    x 3.668980 0.000000 0.000000 
#    y 0.000000 4.062530 0.000000 
#    z 0.000000 0.000000 3.627670 
# 
# 
# High freq. dielectric constant tensor:
#      x y z
#    x 1.773940 0.000000 0.000000 
#    y 0.000000 1.780480 0.000000 
#    z 0.000000 0.000000 1.783110 
# 
# From -- ./inp_files/8054.got.cif
#   From: 2010.03.12/outbox.cif.g09.slc.cpg/sg62_5_cif.got.tgz:8054.got - 2010.04.10 19:12:36.
