data_PCOD8252920
_publ_section_title
;
Structure prediction by ZEFSAII (Michael W. Deem and Ramdas Pophale) SiO2 
 PCOD8252920
Probable space group: P N M A
;
_chemical_formula_sum "Si O2"
_cell_formula_units_Z 64
_cell_length_a 29.577807
_cell_length_b 8.768334
_cell_length_c 12.635913
_cell_angle_alpha 90.000000
_cell_angle_beta 90.000000
_cell_angle_gamma 90.000000
_cell_volume 3277.099912
_symmetry_space_group_name_H-M "P N M A"
_symmetry_group_IT_number 62
_symmetry_cell_setting 'orthorhombic'
loop_
_space_group_symop_operation_xyz
x,y,z
1/2-x,-y,1/2+z
1/2+x,1/2-y,1/2-z
-x,1/2+y,-z
-x,-y,-z
1/2+x,y,1/2-z
1/2-x,1/2+y,1/2+z
x,1/2-y,z
loop_
_atom_site_type_symbol
_atom_site_label
_atom_site_fract_x
_atom_site_fract_y
_atom_site_fract_z
Si Si1 0.247084 0.920976 0.993529
Si Si2 0.446739 0.428695 0.887996
Si Si3 0.121543 0.071099 0.780565
Si Si4 0.798816 0.070769 0.349494
Si Si5 0.285717 0.920576 0.767207
Si Si6 0.856116 0.431383 0.997978
Si Si7 0.117811 0.431312 0.217052
Si Si8 0.550884 0.072098 0.894077
O O1 0.250785 0.750000 0.039947
O O2 0.255129 0.919614 0.869834
O O3 0.196134 0.987248 0.010336
O O4 0.290832 0.024798 0.028799
O O5 0.438499 0.250000 0.882385
O O6 0.422070 0.505682 0.789491
O O7 0.499123 0.474286 0.875736
O O8 0.428953 0.486985 0.002377
O O9 0.123156 0.250000 0.803771
O O10 0.077500 0.024298 0.712216
O O11 0.163596 0.025377 0.708241
O O12 0.121434 0.983784 0.891652
O O13 0.806872 0.250000 0.329854
O O14 0.748926 0.005139 0.315679
O O15 0.295788 0.750000 0.728388
O O16 0.335232 0.996947 0.768708
O O17 0.858989 0.250000 0.992824
O O18 0.885148 0.504725 0.902638
O O19 0.113408 0.250000 0.215301
O O20 0.556670 0.250000 0.917210
#
# Coordination Sequence:
#
# PCOD8252920 Si02
#       8
#     8   8   8   8   8   8   8   8
#     4  10  20  36  53  75 111 155 193 235 286 335
#     4  10  21  40  65  92 118 146 188 241 293 348
#     4  11  23  39  60  86 115 154 197 237 291 353
#     4  11  21  36  54  81 115 152 195 239 282 333
#     4   9  19  35  53  75 111 153 192 231 277 333
#     4  11  22  38  59  84 117 155 198 246 290 337
#     4  11  22  38  60  86 119 159 197 236 290 352
#     4   9  21  42  65  88 118 152 186 234 297 357
#
# _framework density 19.529463
#
# number of rings (size 3 to 8) (size 9 to 14) (size 15 to 20)
#    0.000    1.750    2.500    1.875    1.750    2.000 
#    0.000    1.250    0.000    0.000    0.000    0.000 
#    0.000    0.000    0.000    0.000    0.000    0.000 
#
# Total GULP energy -793111.233542 kJ/mol
# GULP energy per Si atom -12392.363024 kJ/mol
# Density = 1.948501 g / cm^3
# Si number density = 19.529463 Si / 1000 Ang^3
#
#
#
# Elastic Constant Matrix: (Units=GPa)
#
#
# Indices 1 2 3 4 5 6 
#
# 1 81.4238 31.8390 46.3002 0.0000 0.0000 0.0000
# 2 31.8390 67.2353 43.0956 0.0000 0.0000 0.0000
# 3 46.3002 43.0956 88.8079 0.0000 0.0000 0.0000
# 4 0.0000 0.0000 0.0000 31.6153 0.0000 0.0000
# 5 0.0000 0.0000 0.0000 0.0000 33.7900 0.0000
# 6 0.0000 0.0000 0.0000 0.0000 0.0000 26.6604
#
#
#
# Elastic Compliance Matrix: (Units=1/GPa)
#
#
# Indices 1 2 3 4 5 6 
#
# 1 0.018054 -0.003652 -0.007640 0.000000 0.000000 0.000000
# 2 -0.003652 0.022327 -0.008930 0.000000 0.000000 0.000000
# 3 -0.007640 -0.008930 0.019577 0.000000 0.000000 0.000000
# 4 0.000000 0.000000 0.000000 0.031630 0.000000 0.000000
# 5 0.000000 0.000000 0.000000 0.000000 0.029595 0.000000
# 6 0.000000 0.000000 0.000000 0.000000 0.000000 0.037509
#
#
# Mechanical properties :
#
#
# Convention : Reuss Voigt Hill
#
# Bulk Modulus (GPa) = 51.24984 53.32630 52.28807
# Shear Modulus (GPa) = 24.31422 26.16195 25.23808
#
# Velocity S-wave (km/s) = 3.53229 3.66405 3.59877
# Velocity P-wave (km/s) = 6.55251 6.72794 6.64080
#
# Compressibility (1/GPa) = 0.01951226
#
# Stress axis : x y z
#
# Youngs Moduli (GPa) = 55.38927 44.78946 51.08020
#
# Poissons Ratio (x) = 0.16359 0.39026
# Poissons Ratio (y) = 0.20230 0.45616
# Poissons Ratio (z) = 0.42318 0.39998
#
# Static dielectric constant tensor:
#      x y z
#    x 3.640600 0.000000 0.000000 
#    y 0.000000 3.581800 0.000000 
#    z 0.000000 0.000000 3.625130 
# 
# 
# High freq. dielectric constant tensor:
#      x y z
#    x 1.750780 0.000000 0.000000 
#    y 0.000000 1.756450 0.000000 
#    z 0.000000 0.000000 1.772460 
# 
# From -- ./inp_files/15805.got.cif
#   From: 2010.03.12/outbox.cif.g09.slc.cpg/sg62_8_cif.got.tgz:15805.got - 2010.04.10 19:12:36.
