data_PCOD8252683
_publ_section_title
;
Structure prediction by ZEFSAII (Michael W. Deem and Ramdas Pophale) SiO2 
 PCOD8252683
Probable space group: P N M A
;
_chemical_formula_sum "Si O2"
_cell_formula_units_Z 56
_cell_length_a 18.959617
_cell_length_b 8.569247
_cell_length_c 19.033966
_cell_angle_alpha 90.000000
_cell_angle_beta 90.000000
_cell_angle_gamma 90.000000
_cell_volume 3092.441625
_symmetry_space_group_name_H-M "P N M A"
_symmetry_group_IT_number 62
_symmetry_cell_setting 'orthorhombic'
loop_
_space_group_symop_operation_xyz
x,y,z
1/2-x,-y,1/2+z
1/2+x,1/2-y,1/2-z
-x,1/2+y,-z
-x,-y,-z
1/2+x,y,1/2-z
1/2-x,1/2+y,1/2+z
x,1/2-y,z
loop_
_atom_site_type_symbol
_atom_site_label
_atom_site_fract_x
_atom_site_fract_y
_atom_site_fract_z
Si Si1 0.055005 0.566969 0.554873
Si Si2 0.238912 0.069536 0.160805
Si Si3 0.978829 0.933640 0.294676
Si Si4 0.851306 0.431097 0.220922
Si Si5 0.797055 0.569749 0.474520
Si Si6 0.638076 0.932706 0.232261
Si Si7 0.249603 0.931212 0.384960
O O1 0.043039 0.750000 0.564675
O O2 0.045030 0.481991 0.628310
O O3 0.133420 0.536961 0.526811
O O4 0.000000 0.500000 0.500000
O O5 0.236974 0.250000 0.139893
O O6 0.305290 0.030490 0.210277
O O7 0.246233 0.967976 0.090744
O O8 0.166693 0.023990 0.199883
O O9 0.970099 0.750000 0.286721
O O10 0.058684 0.987771 0.281601
O O11 0.931081 0.017186 0.236100
O O12 0.848021 0.250000 0.201736
O O13 0.822083 0.527935 0.154912
O O14 0.819161 0.750000 0.472695
O O15 0.753981 0.532883 0.544892
O O16 0.643807 0.750000 0.247779
O O17 0.683340 0.977738 0.163808
O O18 0.248757 0.750000 0.404705
#
# Coordination Sequence:
#
# PCOD8252683 Si02
#       7
#     8   8   8   8   8   8   8
#     4  12  24  37  53  79 115 152 188 226 277 338
#     4  10  20  35  56  80 108 144 187 231 274 327
#     4  11  21  35  56  82 112 149 187 227 279 333
#     4  10  20  35  55  80 110 145 189 233 275 330
#     4  12  23  36  56  81 112 148 186 229 280 334
#     4   9  20  36  55  80 110 144 184 229 275 329
#     4  10  20  36  57  80 111 146 186 234 280 330
#
# _framework density 18.108668999999999
#
# number of rings (size 3 to 8) (size 9 to 14) (size 15 to 20)
#    0.000    1.429    1.429    5.143    0.000    4.000 
#    0.000    0.000    0.000    0.857    0.000    0.000 
#    0.000    0.000    0.000    0.000    0.000    0.000 
#
# Total GULP energy -694770.976364 kJ/mol
# GULP energy per Si atom -12406.624578 kJ/mol
# Density = 1.806745 g / cm^3
# Si number density = 18.108669 Si / 1000 Ang^3
#
#
#
# Elastic Constant Matrix: (Units=GPa)
#
#
# Indices 1 2 3 4 5 6 
#
# 1 49.3256 21.5130 35.4721 0.0000 0.0000 0.0000
# 2 21.5130 53.2308 27.7453 0.0000 0.0000 0.0000
# 3 35.4721 27.7453 94.3132 0.0000 0.0000 0.0000
# 4 0.0000 0.0000 0.0000 30.8464 0.0000 0.0000
# 5 0.0000 0.0000 0.0000 0.0000 26.0936 0.0000
# 6 0.0000 0.0000 0.0000 0.0000 0.0000 29.0595
#
#
#
# Elastic Compliance Matrix: (Units=1/GPa)
#
#
# Indices 1 2 3 4 5 6 
#
# 1 0.030065 -0.007390 -0.009134 0.000000 0.000000 0.000000
# 2 -0.007390 0.024005 -0.004282 0.000000 0.000000 0.000000
# 3 -0.009134 -0.004282 0.015298 0.000000 0.000000 0.000000
# 4 0.000000 0.000000 0.000000 0.032419 0.000000 0.000000
# 5 0.000000 0.000000 0.000000 0.000000 0.038324 0.000000
# 6 0.000000 0.000000 0.000000 0.000000 0.000000 0.034412
#
#
# Mechanical properties :
#
#
# Convention : Reuss Voigt Hill
#
# Bulk Modulus (GPa) = 36.02850 40.70337 38.36593
# Shear Modulus (GPa) = 22.18415 24.67585 23.43000
#
# Velocity S-wave (km/s) = 3.50388 3.69542 3.60092
# Velocity P-wave (km/s) = 6.02565 6.38234 6.20656
#
# Compressibility (1/GPa) = 0.02775581
#
# Stress axis : x y z
#
# Youngs Moduli (GPa) = 33.26128 41.65840 65.36776
#
# Poissons Ratio (x) = 0.30785 0.59705
# Poissons Ratio (y) = 0.24580 0.27993
# Poissons Ratio (z) = 0.30380 0.17840
#
# Static dielectric constant tensor:
#      x y z
#    x 3.347860 0.000000 0.000000 
#    y 0.000000 3.378320 0.000000 
#    z 0.000000 0.000000 3.295210 
# 
# 
# High freq. dielectric constant tensor:
#      x y z
#    x 1.690060 0.000000 0.000000 
#    y 0.000000 1.715480 0.000000 
#    z 0.000000 0.000000 1.694070 
# 
# From -- ./inp_files/27572.got.cif
#   From: 2010.03.12/outbox.cif.g09.slc.cpg/sg62_14_cif.got.tgz:27572.got - 2010.04.10 19:12:36.
