data_PCOD8252996
_publ_section_title
;
Structure prediction by ZEFSAII (Michael W. Deem and Ramdas Pophale) SiO2 
 PCOD8252996
Probable space group: P N M A
;
_chemical_formula_sum "Si O2"
_cell_formula_units_Z 64
_cell_length_a 24.683475
_cell_length_b 8.574659
_cell_length_c 15.107704
_cell_angle_alpha 90.000000
_cell_angle_beta 90.000000
_cell_angle_gamma 90.000000
_cell_volume 3197.581524
_symmetry_space_group_name_H-M "P N M A"
_symmetry_group_IT_number 62
_symmetry_cell_setting 'orthorhombic'
loop_
_space_group_symop_operation_xyz
x,y,z
1/2-x,-y,1/2+z
1/2+x,1/2-y,1/2-z
-x,1/2+y,-z
-x,-y,-z
1/2+x,y,1/2-z
1/2-x,1/2+y,1/2+z
x,1/2-y,z
loop_
_atom_site_type_symbol
_atom_site_label
_atom_site_fract_x
_atom_site_fract_y
_atom_site_fract_z
Si Si1 0.857438 0.067843 0.332916
Si Si2 0.837390 0.569317 0.512732
Si Si3 0.435516 0.065732 0.319884
Si Si4 0.359374 0.431663 0.801912
Si Si5 0.557998 0.431936 0.330491
Si Si6 0.886255 0.433100 0.997261
Si Si7 0.724623 0.070255 0.531580
Si Si8 0.262438 0.928859 0.265945
O O1 0.865676 0.250000 0.349028
O O2 0.899410 0.998892 0.260567
O O3 0.869656 0.978926 0.424420
O O4 0.795985 0.037659 0.300312
O O5 0.845899 0.750000 0.533389
O O6 0.860692 0.470276 0.594283
O O7 0.774188 0.532844 0.496437
O O8 0.429601 0.250000 0.320905
O O9 0.497421 0.014585 0.305307
O O10 0.414053 0.000353 0.413682
O O11 0.372049 0.250000 0.788977
O O12 0.404218 0.533689 0.753091
O O13 0.300813 0.474191 0.760882
O O14 0.560251 0.250000 0.354519
O O15 0.575119 0.531109 0.415337
O O16 0.875473 0.250000 0.003606
O O17 0.829244 0.518687 0.980400
O O18 0.738441 0.250000 0.512058
O O19 0.715599 0.040888 0.635491
O O20 0.271212 0.750000 0.237944
#
# Coordination Sequence:
#
# PCOD8252996 Si02
#       8
#     8   8   8   8   8   8   8   8
#     4  11  21  37  61  88 119 158 201 244 298 357
#     4  11  23  39  60  88 122 158 197 247 304 361
#     4   9  21  40  61  87 121 158 201 250 297 353
#     4  10  22  42  62  86 120 156 201 252 302 354
#     4  11  23  40  61  87 119 159 204 249 301 357
#     4  11  21  37  59  88 122 160 202 246 298 355
#     4  10  20  36  57  86 121 158 196 240 294 354
#     4   9  19  35  56  83 117 151 190 242 297 350
#
# _framework density 20.015125999999999
#
# number of rings (size 3 to 8) (size 9 to 14) (size 15 to 20)
#    0.000    1.750    1.250    4.125    1.750    2.500 
#    0.000    5.000    0.000    0.000    0.000    0.000 
#    0.000    0.000    0.000    0.000    0.000    0.000 
#
# Total GULP energy -793905.873567 kJ/mol
# GULP energy per Si atom -12404.779274 kJ/mol
# Density = 1.996957 g / cm^3
# Si number density = 20.015126 Si / 1000 Ang^3
#
#
#
# Elastic Constant Matrix: (Units=GPa)
#
#
# Indices 1 2 3 4 5 6 
#
# 1 101.7088 12.1475 53.3885 0.0000 0.0000 0.0000
# 2 12.1475 53.4022 8.8302 0.0000 0.0000 0.0000
# 3 53.3885 8.8302 98.8248 0.0000 0.0000 0.0000
# 4 0.0000 0.0000 0.0000 32.7545 0.0000 0.0000
# 5 0.0000 0.0000 0.0000 0.0000 27.1530 0.0000
# 6 0.0000 0.0000 0.0000 0.0000 0.0000 25.2492
#
#
#
# Elastic Compliance Matrix: (Units=1/GPa)
#
#
# Indices 1 2 3 4 5 6 
#
# 1 0.013921 -0.001952 -0.007346 0.000000 0.000000 0.000000
# 2 -0.001952 0.019280 -0.000668 0.000000 0.000000 0.000000
# 3 -0.007346 -0.000668 0.014147 0.000000 0.000000 0.000000
# 4 0.000000 0.000000 0.000000 0.030530 0.000000 0.000000
# 5 0.000000 0.000000 0.000000 0.000000 0.036828 0.000000
# 6 0.000000 0.000000 0.000000 0.000000 0.000000 0.039605
#
#
# Mechanical properties :
#
#
# Convention : Reuss Voigt Hill
#
# Bulk Modulus (GPa) = 36.47513 44.74091 40.60802
# Shear Modulus (GPa) = 27.26509 29.00262 28.13385
#
# Velocity S-wave (km/s) = 3.69484 3.81075 3.75324
# Velocity P-wave (km/s) = 6.03869 6.46254 6.25421
#
# Compressibility (1/GPa) = 0.02741594
#
# Stress axis : x y z
#
# Youngs Moduli (GPa) = 71.83211 51.86631 70.68442
#
# Poissons Ratio (x) = 0.10124 0.51927
# Poissons Ratio (y) = 0.14021 0.04723
# Poissons Ratio (z) = 0.52771 0.03466
#
# Static dielectric constant tensor:
#      x y z
#    x 3.601520 0.000000 0.000000 
#    y 0.000000 3.485760 0.000000 
#    z 0.000000 0.000000 3.651580 
# 
# 
# High freq. dielectric constant tensor:
#      x y z
#    x 1.770170 0.000000 0.000000 
#    y 0.000000 1.774940 0.000000 
#    z 0.000000 0.000000 1.785150 
# 
# From -- ./inp_files/20772.got.cif
#   From: 2010.03.12/outbox.cif.g09.slc.cpg/sg62_11_cif.got.tgz:20772.got - 2010.04.10 19:12:36.
