data_PCOD8252292
_publ_section_title
;
Structure prediction by ZEFSAII (Michael W. Deem and Ramdas Pophale) SiO2 
 PCOD8252292
Probable space group: P N M A
;
_chemical_formula_sum "Si O2"
_cell_formula_units_Z 64
_cell_length_a 14.273914
_cell_length_b 8.510463
_cell_length_c 30.000501
_cell_angle_alpha 90.000000
_cell_angle_beta 90.000000
_cell_angle_gamma 90.000000
_cell_volume 3644.389369
_symmetry_space_group_name_H-M "P N M A"
_symmetry_group_IT_number 62
_symmetry_cell_setting 'orthorhombic'
loop_
_space_group_symop_operation_xyz
x,y,z
1/2-x,-y,1/2+z
1/2+x,1/2-y,1/2-z
-x,1/2+y,-z
-x,-y,-z
1/2+x,y,1/2-z
1/2-x,1/2+y,1/2+z
x,1/2-y,z
loop_
_atom_site_type_symbol
_atom_site_label
_atom_site_fract_x
_atom_site_fract_y
_atom_site_fract_z
Si Si1 0.686861 0.432232 0.364420
Si Si2 0.333727 0.567418 0.195035
Si Si3 0.608560 0.934214 0.451951
Si Si4 0.108507 0.064837 0.954112
Si Si5 0.768804 0.565880 0.718837
Si Si6 0.644541 0.567003 0.635053
Si Si7 0.018870 0.068619 0.276957
Si Si8 0.518850 0.929834 0.314831
O O1 0.663681 0.250000 0.357796
O O2 0.790651 0.471430 0.346674
O O3 0.672694 0.477901 0.415759
O O4 0.622201 0.536500 0.332300
O O5 0.318581 0.750000 0.186772
O O6 0.287643 0.521715 0.242457
O O7 0.444389 0.528424 0.194008
O O8 0.622576 0.750000 0.445775
O O9 0.500011 0.982375 0.446238
O O10 0.645045 0.988417 0.500172
O O11 0.122734 0.250000 0.956534
O O12 0.172071 0.990353 0.914591
O O13 0.766316 0.750000 0.730384
O O14 0.725555 0.528344 0.670473
O O15 0.875742 0.504830 0.715786
O O16 0.619378 0.750000 0.635072
O O17 0.552882 0.464480 0.645624
O O18 0.010019 0.250000 0.289910
O O19 0.991888 0.045138 0.225342
O O20 0.511942 0.750000 0.298967
#
# Coordination Sequence:
#
# PCOD8252292 Si02
#       8
#     8   8   8   8   8   8   8   8
#     4  12  23  36  54  76 106 145 183 219 266 321
#     4  12  24  36  54  78 107 140 181 226 268 314
#     4  10  20  34  52  76 108 139 176 220 265 317
#     4  10  20  33  51  76 108 142 177 216 265 317
#     4  10  22  37  55  76 104 142 183 221 265 319
#     4  11  21  34  53  77 106 144 183 218 265 317
#     4  11  22  38  55  74 105 143 183 224 267 314
#     4  12  22  32  49  77 108 141 181 223 265 311
#
# _framework density 17.561240000000002
#
# number of rings (size 3 to 8) (size 9 to 14) (size 15 to 20)
#    0.000    1.000    3.750    4.875    0.000    2.000 
#    0.000    0.000    0.000    0.000    0.000    0.875 
#    0.000    0.000    0.000    0.000    0.000    0.000 
#
# Total GULP energy -793815.148530 kJ/mol
# GULP energy per Si atom -12403.361696 kJ/mol
# Density = 1.752127 g / cm^3
# Si number density = 17.561240 Si / 1000 Ang^3
#
#
#
# Elastic Constant Matrix: (Units=GPa)
#
#
# Indices 1 2 3 4 5 6 
#
# 1 62.8055 26.2207 19.7010 0.0000 0.0000 0.0000
# 2 26.2207 75.3397 25.9525 0.0000 0.0000 0.0000
# 3 19.7010 25.9525 98.4623 0.0000 0.0000 0.0000
# 4 0.0000 0.0000 0.0000 30.5060 0.0000 0.0000
# 5 0.0000 0.0000 0.0000 0.0000 24.6067 0.0000
# 6 0.0000 0.0000 0.0000 0.0000 0.0000 20.4968
#
#
#
# Elastic Compliance Matrix: (Units=1/GPa)
#
#
# Indices 1 2 3 4 5 6 
#
# 1 0.019081 -0.005857 -0.002274 0.000000 0.000000 0.000000
# 2 -0.005857 0.016397 -0.003150 0.000000 0.000000 0.000000
# 3 -0.002274 -0.003150 0.011441 0.000000 0.000000 0.000000
# 4 0.000000 0.000000 0.000000 0.032780 0.000000 0.000000
# 5 0.000000 0.000000 0.000000 0.000000 0.040639 0.000000
# 6 0.000000 0.000000 0.000000 0.000000 0.000000 0.048788
#
#
# Mechanical properties :
#
#
# Convention : Reuss Voigt Hill
#
# Bulk Modulus (GPa) = 41.05658 42.26177 41.65918
# Shear Modulus (GPa) = 25.02396 26.10411 25.56403
#
# Velocity S-wave (km/s) = 3.77895 3.85965 3.81951
# Velocity P-wave (km/s) = 6.51694 6.63175 6.57460
#
# Compressibility (1/GPa) = 0.02435663
#
# Stress axis : x y z
#
# Youngs Moduli (GPa) = 52.40842 60.98737 87.40192
#
# Poissons Ratio (x) = 0.35723 0.19875
# Poissons Ratio (y) = 0.30698 0.27530
# Poissons Ratio (z) = 0.11917 0.19210
#
# Static dielectric constant tensor:
#      x y z
#    x 3.182450 0.000000 0.000000 
#    y 0.000000 3.265340 0.000000 
#    z 0.000000 0.000000 3.293220 
# 
# 
# High freq. dielectric constant tensor:
#      x y z
#    x 1.647420 0.000000 0.000000 
#    y 0.000000 1.692280 0.000000 
#    z 0.000000 0.000000 1.671150 
# 
# From -- ./inp_files/32728.got.cif
#   From: 2010.03.12/outbox.cif.g09.slc.cpg/sg62_17_cif.got.tgz:32728.got - 2010.04.10 19:12:36.
