data_PCOD8252144
_publ_section_title
;
Structure prediction by ZEFSAII (Michael W. Deem and Ramdas Pophale) SiO2 
 PCOD8252144
Probable space group: P N M A
;
_chemical_formula_sum "Si O2"
_cell_formula_units_Z 56
_cell_length_a 21.684098
_cell_length_b 8.918409
_cell_length_c 14.606259
_cell_angle_alpha 90.000000
_cell_angle_beta 90.000000
_cell_angle_gamma 90.000000
_cell_volume 2824.670173
_symmetry_space_group_name_H-M "P N M A"
_symmetry_group_IT_number 62
_symmetry_cell_setting 'orthorhombic'
loop_
_space_group_symop_operation_xyz
x,y,z
1/2-x,-y,1/2+z
1/2+x,1/2-y,1/2-z
-x,1/2+y,-z
-x,-y,-z
1/2+x,y,1/2-z
1/2-x,1/2+y,1/2+z
x,1/2-y,z
loop_
_atom_site_type_symbol
_atom_site_label
_atom_site_fract_x
_atom_site_fract_y
_atom_site_fract_z
Si Si1 0.747184 0.923888 0.383434
Si Si2 0.956994 0.427256 0.575329
Si Si3 0.393768 0.572629 0.386163
Si Si4 0.011280 0.572603 0.224197
Si Si5 0.723456 0.924099 0.698615
Si Si6 0.391925 0.072754 0.575575
Si Si7 0.328441 0.921916 0.939807
O O1 0.750307 0.750000 0.355429
O O2 0.677501 0.975221 0.400962
O O3 0.786164 0.958257 0.473395
O O4 0.775857 0.020939 0.302351
O O5 0.964482 0.250000 0.570114
O O6 0.977977 0.491649 0.674106
O O7 0.886337 0.468875 0.557564
O O8 0.000000 0.500000 0.500000
O O9 0.390842 0.750000 0.393614
O O10 0.444426 0.520742 0.311562
O O11 0.327628 0.511735 0.358112
O O12 0.414190 0.507372 0.483528
O O13 0.015818 0.750000 0.227286
O O14 0.064707 0.512541 0.157013
O O15 0.706307 0.750000 0.694501
O O16 0.789511 0.954775 0.651859
O O17 0.397471 0.250000 0.560851
O O18 0.351101 0.750000 0.942462
#
# Coordination Sequence:
#
# PCOD8252144 Si02
#       7
#     8   8   8   8   8   8   8
#     4  10  21  38  62  88 120 160 197 244 308 366
#     4  11  24  43  65  90 121 161 209 255 304 365
#     4  11  22  37  59  90 123 159 200 247 303 362
#     4   9  21  39  61  86 119 161 202 245 302 365
#     4  11  23  40  61  90 123 159 205 254 302 361
#     4  10  19  39  64  89 121 160 199 243 304 362
#     4  10  22  42  63  87 123 161 198 249 308 359
#
# _framework density 19.825323000000001
#
# number of rings (size 3 to 8) (size 9 to 14) (size 15 to 20)
#    0.000    1.714    1.429    2.571    2.000    3.429 
#    0.000    4.286    0.000    0.000    0.000    0.000 
#    0.000    0.000    0.000    0.000    0.000    0.000 
#
# Total GULP energy -694671.009898 kJ/mol
# GULP energy per Si atom -12404.839462 kJ/mol
# Density = 1.978020 g / cm^3
# Si number density = 19.825323 Si / 1000 Ang^3
#
#
#
# Elastic Constant Matrix: (Units=GPa)
#
#
# Indices 1 2 3 4 5 6 
#
# 1 100.2636 38.1800 42.2754 0.0000 0.0000 0.0000
# 2 38.1800 60.7258 43.6888 0.0000 0.0000 0.0000
# 3 42.2754 43.6888 130.9086 0.0000 0.0000 0.0000
# 4 0.0000 0.0000 0.0000 33.1288 0.0000 0.0000
# 5 0.0000 0.0000 0.0000 0.0000 31.0276 0.0000
# 6 0.0000 0.0000 0.0000 0.0000 0.0000 31.5259
#
#
#
# Elastic Compliance Matrix: (Units=1/GPa)
#
#
# Indices 1 2 3 4 5 6 
#
# 1 0.013504 -0.007044 -0.002010 0.000000 0.000000 0.000000
# 2 -0.007044 0.025345 -0.006184 0.000000 0.000000 0.000000
# 3 -0.002010 -0.006184 0.010352 0.000000 0.000000 0.000000
# 4 0.000000 0.000000 0.000000 0.030185 0.000000 0.000000
# 5 0.000000 0.000000 0.000000 0.000000 0.032229 0.000000
# 6 0.000000 0.000000 0.000000 0.000000 0.000000 0.031720
#
#
# Mechanical properties :
#
#
# Convention : Reuss Voigt Hill
#
# Bulk Modulus (GPa) = 53.40482 60.02070 56.71276
# Shear Modulus (GPa) = 27.76976 30.32004 29.04490
#
# Velocity S-wave (km/s) = 3.74668 3.91495 3.83174
# Velocity P-wave (km/s) = 6.76114 7.12574 6.94583
#
# Compressibility (1/GPa) = 0.01872490
#
# Stress axis : x y z
#
# Youngs Moduli (GPa) = 74.05480 39.45543 96.60196
#
# Poissons Ratio (x) = 0.27792 0.19417
# Poissons Ratio (y) = 0.52164 0.59736
# Poissons Ratio (z) = 0.14885 0.24398
#
# Static dielectric constant tensor:
#      x y z
#    x 3.677270 0.000000 0.000000 
#    y 0.000000 3.430270 0.000000 
#    z 0.000000 0.000000 3.889520 
# 
# 
# High freq. dielectric constant tensor:
#      x y z
#    x 1.783010 0.000000 0.000000 
#    y 0.000000 1.758040 0.000000 
#    z 0.000000 0.000000 1.788650 
# 
# From -- ./inp_files/20309.got.cif
#   From: 2010.03.12/outbox.cif.g09.slc.cpg/sg62_11_cif.got.tgz:20309.got - 2010.04.10 19:12:36.
