data_PCOD8252785
_publ_section_title
;
Structure prediction by ZEFSAII (Michael W. Deem and Ramdas Pophale) SiO2 
 PCOD8252785
Probable space group: P N M A
;
_chemical_formula_sum "Si O2"
_cell_formula_units_Z 64
_cell_length_a 15.544827
_cell_length_b 30.797530
_cell_length_c 6.914354
_cell_angle_alpha 90.000000
_cell_angle_beta 90.000000
_cell_angle_gamma 90.000000
_cell_volume 3310.193570
_symmetry_space_group_name_H-M "P N M A"
_symmetry_group_IT_number 62
_symmetry_cell_setting 'orthorhombic'
loop_
_space_group_symop_operation_xyz
x,y,z
1/2-x,-y,1/2+z
1/2+x,1/2-y,1/2-z
-x,1/2+y,-z
-x,-y,-z
1/2+x,y,1/2-z
1/2-x,1/2+y,1/2+z
x,1/2-y,z
loop_
_atom_site_type_symbol
_atom_site_label
_atom_site_fract_x
_atom_site_fract_y
_atom_site_fract_z
Si Si1 0.650722 0.852387 0.638118
Si Si2 0.023947 0.801023 0.583403
Si Si3 0.873527 0.925650 0.851163
Si Si4 0.414794 0.909126 0.231123
Si Si5 0.096384 0.488460 0.475509
Si Si6 0.086516 0.635304 0.287570
Si Si7 0.682530 0.921173 0.941690
Si Si8 0.349837 0.849104 0.936439
O O1 0.587908 0.819818 0.752001
O O2 0.606261 0.857564 0.433760
O O3 0.650349 0.899876 0.739661
O O4 0.750939 0.835262 0.615921
O O5 0.034016 0.750000 0.589006
O O6 0.059788 0.818431 0.378780
O O7 0.921065 0.811562 0.602955
O O8 0.892670 0.971164 0.744274
O O9 0.781822 0.928962 0.945151
O O10 0.884456 0.887572 0.698331
O O11 0.930054 0.914907 0.039376
O O12 0.376411 0.952433 0.133408
O O13 0.511471 0.899096 0.160790
O O14 0.355672 0.868056 0.157676
O O15 0.147603 0.531620 0.516944
O O16 0.000000 0.500000 0.500000
O O17 0.168668 0.614068 0.389775
#
# Coordination Sequence:
#
# PCOD8252785 Si02
#       8
#     8   8   8   8   8   8   8   8
#     4  10  21  38  65  84 114 158 200 230 291 358
#     4  10  22  39  61  91 122 142 180 244 297 354
#     4  10  22  36  57  78 111 156 197 237 285 342
#     4  10  20  35  57  78 112 155 198 243 292 341
#     4  11  23  36  49  80 117 147 196 247 287 330
#     4  10  20  37  61  82 110 152 193 237 286 353
#     4  10  22  38  52  81 115 152 197 246 283 331
#     4   9  20  40  59  86 116 155 194 239 287 351
#
# _framework density 19.334216000000001
#
# number of rings (size 3 to 8) (size 9 to 14) (size 15 to 20)
#    0.000    2.000    1.250    1.500    5.250    2.500 
#    0.000    0.000    0.000    0.000    0.000    0.000 
#    0.000    0.000    0.000    0.000    0.000    0.000 
#
# Total GULP energy -792929.366967 kJ/mol
# GULP energy per Si atom -12389.521359 kJ/mol
# Density = 1.929021 g / cm^3
# Si number density = 19.334216 Si / 1000 Ang^3
#
#
#
# Elastic Constant Matrix: (Units=GPa)
#
#
# Indices 1 2 3 4 5 6 
#
# 1 82.3849 46.6313 28.7871 0.0000 0.0000 0.0000
# 2 46.6313 111.0494 37.4667 0.0000 0.0000 0.0000
# 3 28.7871 37.4667 121.3376 0.0000 0.0000 0.0000
# 4 0.0000 0.0000 0.0000 16.8724 0.0000 0.0000
# 5 0.0000 0.0000 0.0000 0.0000 28.1906 0.0000
# 6 0.0000 0.0000 0.0000 0.0000 0.0000 24.9405
#
#
#
# Elastic Compliance Matrix: (Units=1/GPa)
#
#
# Indices 1 2 3 4 5 6 
#
# 1 0.016330 -0.006196 -0.001961 0.000000 0.000000 0.000000
# 2 -0.006196 0.012403 -0.002360 0.000000 0.000000 0.000000
# 3 -0.001961 -0.002360 0.009435 0.000000 0.000000 0.000000
# 4 0.000000 0.000000 0.000000 0.059268 0.000000 0.000000
# 5 0.000000 0.000000 0.000000 0.000000 0.035473 0.000000
# 6 0.000000 0.000000 0.000000 0.000000 0.000000 0.040095
#
#
# Mechanical properties :
#
#
# Convention : Reuss Voigt Hill
#
# Bulk Modulus (GPa) = 58.35970 60.06024 59.20997
# Shear Modulus (GPa) = 25.03124 27.45981 26.24553
#
# Velocity S-wave (km/s) = 3.60204 3.77274 3.68838
# Velocity P-wave (km/s) = 6.89564 7.07882 6.98783
#
# Compressibility (1/GPa) = 0.01713511
#
# Stress axis : x y z
#
# Youngs Moduli (GPa) = 61.23594 80.62680 105.98336
#
# Poissons Ratio (x) = 0.49953 0.20786
# Poissons Ratio (y) = 0.37940 0.25010
# Poissons Ratio (z) = 0.12010 0.19027
#
# Static dielectric constant tensor:
#      x y z
#    x 3.546250 0.000000 0.000000 
#    y 0.000000 3.152050 0.000000 
#    z 0.000000 0.000000 3.565510 
# 
# 
# High freq. dielectric constant tensor:
#      x y z
#    x 1.764340 0.000000 0.000000 
#    y 0.000000 1.729410 0.000000 
#    z 0.000000 0.000000 1.758780 
# 
# From -- ./inp_files/1877.got.cif
#   From: 2010.03.12/outbox.cif.g09.slc.cpg/sg62_1_cif.got.tgz:1877.got - 2010.04.10 19:12:36.
