data_PCOD8252207
_publ_section_title
;
Structure prediction by ZEFSAII (Michael W. Deem and Ramdas Pophale) SiO2 
 PCOD8252207
Probable space group: P N M A
;
_chemical_formula_sum "Si O2"
_cell_formula_units_Z 64
_cell_length_a 20.876002
_cell_length_b 9.327319
_cell_length_c 17.930680
_cell_angle_alpha 90.000000
_cell_angle_beta 90.000000
_cell_angle_gamma 90.000000
_cell_volume 3491.410550
_symmetry_space_group_name_H-M "P N M A"
_symmetry_group_IT_number 62
_symmetry_cell_setting 'orthorhombic'
loop_
_space_group_symop_operation_xyz
x,y,z
1/2-x,-y,1/2+z
1/2+x,1/2-y,1/2-z
-x,1/2+y,-z
-x,-y,-z
1/2+x,y,1/2-z
1/2-x,1/2+y,1/2+z
x,1/2-y,z
loop_
_atom_site_type_symbol
_atom_site_label
_atom_site_fract_x
_atom_site_fract_y
_atom_site_fract_z
Si Si1 0.484714 0.920321 0.777768
Si Si2 0.849441 0.920613 0.662553
Si Si3 0.509265 0.917995 0.614121
Si Si4 0.663822 0.418817 0.991363
Si Si5 0.778418 0.590890 0.942607
Si Si6 0.252330 0.412483 0.219586
Si Si7 0.913373 0.589191 0.012497
Si Si8 0.115784 0.578691 0.646503
O O1 0.482515 0.750000 0.779715
O O2 0.418218 0.982327 0.810324
O O3 0.491087 0.979671 0.694292
O O4 0.548028 0.973765 0.821018
O O5 0.848665 0.750000 0.671369
O O6 0.845206 0.967906 0.576724
O O7 0.789336 0.984089 0.712371
O O8 0.521244 0.750000 0.618064
O O9 0.452841 0.965412 0.558862
O O10 0.574568 0.990399 0.584514
O O11 0.652173 0.250000 0.981293
O O12 0.735633 0.460300 0.970074
O O13 0.617873 0.506590 0.935419
O O14 0.746859 0.750000 0.954274
O O15 0.792238 0.574293 0.854227
O O16 0.840253 0.578824 0.992258
O O17 0.264234 0.250000 0.243714
O O18 0.323723 0.475355 0.198723
O O19 0.934319 0.750000 0.032610
O O20 0.119487 0.750000 0.637748
#
# Coordination Sequence:
#
# PCOD8252207 Si02
#       8
#     8   8   8   8   8   8   8   8
#     4   9  17  30  49  71  93 123 166 207 237 275
#     4   9  17  29  48  74  98 119 153 203 246 278
#     4   9  17  29  47  72  98 124 161 203 237 280
#     4  10  20  32  48  72  98 122 154 200 250 289
#     4   9  17  31  51  70  92 127 164 194 232 287
#     4   8  14  27  47  68  90 119 155 193 231 273
#     4   9  17  29  46  70 101 133 158 189 242 298
#     4   9  18  33  52  71  94 126 161 195 235 288
#
# _framework density 18.3307
#
# number of rings (size 3 to 8) (size 9 to 14) (size 15 to 20)
#    0.000    3.000    0.000    1.875    0.000    5.000 
#    0.000    3.125    0.000    9.750    0.000    0.000 
#    0.000    0.000    0.000    0.000    0.000    0.000 
#
# Total GULP energy -792874.290729 kJ/mol
# GULP energy per Si atom -12388.660793 kJ/mol
# Density = 1.828898 g / cm^3
# Si number density = 18.330700 Si / 1000 Ang^3
#
#
#
# Elastic Constant Matrix: (Units=GPa)
#
#
# Indices 1 2 3 4 5 6 
#
# 1 89.1008 14.3906 56.3515 0.0000 0.0000 0.0000
# 2 14.3906 26.8555 31.0409 0.0000 0.0000 0.0000
# 3 56.3515 31.0409 140.8473 0.0000 0.0000 0.0000
# 4 0.0000 0.0000 0.0000 25.7513 0.0000 0.0000
# 5 0.0000 0.0000 0.0000 0.0000 25.9053 0.0000
# 6 0.0000 0.0000 0.0000 0.0000 0.0000 16.1646
#
#
#
# Elastic Compliance Matrix: (Units=1/GPa)
#
#
# Indices 1 2 3 4 5 6 
#
# 1 0.015069 -0.001484 -0.005702 0.000000 0.000000 0.000000
# 2 -0.001484 0.050110 -0.010450 0.000000 0.000000 0.000000
# 3 -0.005702 -0.010450 0.011684 0.000000 0.000000 0.000000
# 4 0.000000 0.000000 0.000000 0.038833 0.000000 0.000000
# 5 0.000000 0.000000 0.000000 0.000000 0.038602 0.000000
# 6 0.000000 0.000000 0.000000 0.000000 0.000000 0.061864
#
#
# Mechanical properties :
#
#
# Convention : Reuss Voigt Hill
#
# Bulk Modulus (GPa) = 24.04344 51.15218 37.59781
# Shear Modulus (GPa) = 18.84675 23.89893 21.37284
#
# Velocity S-wave (km/s) = 3.20996 3.61469 3.41832
# Velocity P-wave (km/s) = 5.18492 6.73699 6.01126
#
# Compressibility (1/GPa) = 0.04159138
#
# Stress axis : x y z
#
# Youngs Moduli (GPa) = 66.36098 19.95611 85.58627
#
# Poissons Ratio (x) = 0.02962 0.48800
# Poissons Ratio (y) = 0.09850 0.89435
# Poissons Ratio (z) = 0.37838 0.20854
#
# Static dielectric constant tensor:
#      x y z
#    x 3.524870 0.000000 0.000000 
#    y 0.000000 3.024910 0.000000 
#    z 0.000000 0.000000 3.550290 
# 
# 
# High freq. dielectric constant tensor:
#      x y z
#    x 1.711460 0.000000 0.000000 
#    y 0.000000 1.661710 0.000000 
#    z 0.000000 0.000000 1.715780 
# 
# From -- ./inp_files/24729.got.cif
#   From: 2010.03.12/outbox.cif.g09.slc.cpg/sg62_13_cif.got.tgz:24729.got - 2010.04.10 19:12:36.
