data_PCOD8252539
_publ_section_title
;
Structure prediction by ZEFSAII (Michael W. Deem and Ramdas Pophale) SiO2 
 PCOD8252539
Probable space group: P N M A
;
_chemical_formula_sum "Si O2"
_cell_formula_units_Z 52
_cell_length_a 13.660613
_cell_length_b 11.220195
_cell_length_c 17.982168
_cell_angle_alpha 90.000000
_cell_angle_beta 90.000000
_cell_angle_gamma 90.000000
_cell_volume 2756.212155
_symmetry_space_group_name_H-M "P N M A"
_symmetry_group_IT_number 62
_symmetry_cell_setting 'orthorhombic'
loop_
_space_group_symop_operation_xyz
x,y,z
1/2-x,-y,1/2+z
1/2+x,1/2-y,1/2-z
-x,1/2+y,-z
-x,-y,-z
1/2+x,y,1/2-z
1/2-x,1/2+y,1/2+z
x,1/2-y,z
loop_
_atom_site_type_symbol
_atom_site_label
_atom_site_fract_x
_atom_site_fract_y
_atom_site_fract_z
Si Si1 0.057784 0.250000 0.124820
Si Si2 0.796074 0.987074 0.133242
Si Si3 0.891450 0.540605 0.983126
Si Si4 0.252210 0.750000 0.684426
Si Si5 0.126955 0.610015 0.278249
Si Si6 0.737793 0.990419 0.359112
Si Si7 0.596818 0.387015 0.773040
Si Si8 0.331019 0.250000 0.345519
O O1 0.128775 0.250000 0.197326
O O2 0.947126 0.250000 0.147837
O O3 0.091533 0.142765 0.074732
O O4 0.839657 0.922933 0.060279
O O5 0.689426 0.932380 0.150055
O O6 0.868057 0.966522 0.203340
O O7 0.789383 0.129598 0.116699
O O8 0.816771 0.453465 0.936726
O O9 0.000000 0.500000 0.000000
O O10 0.225675 0.628728 0.639951
O O11 0.194478 0.750000 0.760042
O O12 0.144720 0.750000 0.263681
O O13 0.161181 0.534314 0.207437
O O14 0.014021 0.580580 0.294210
O O15 0.835067 0.911276 0.345108
O O16 0.606298 0.250000 0.748765
#
# Coordination Sequence:
#
# PCOD8252539 Si02
#       8
#     4   8   8   4   8   8   8   4
#     4  10  24  36  56  86 117 152 189 227 291 346
#     4  11  22  36  57  85 115 149 187 235 286 342
#     4  11  22  38  54  84 119 150 181 230 291 343
#     4  10  20  34  56  80 116 146 188 230 278 341
#     4  10  21  37  58  83 108 148 196 234 277 329
#     4  10  20  37  56  83 115 150 186 236 286 336
#     4  10  21  38  59  84 110 147 197 240 278 329
#     4  12  20  36  56  84 119 144 193 231 285 335
#
# _framework density 18.866474
#
# number of rings (size 3 to 8) (size 9 to 14) (size 15 to 20)
#    0.000    1.538    4.615    2.769    4.308    0.000 
#    5.538    0.769    0.000    0.000    0.000    0.000 
#    0.000    0.000    0.000    0.000    0.000    0.000 
#
# Total GULP energy -644242.487382 kJ/mol
# GULP energy per Si atom -12389.278604 kJ/mol
# Density = 1.882353 g / cm^3
# Si number density = 18.866474 Si / 1000 Ang^3
#
#
#
# Elastic Constant Matrix: (Units=GPa)
#
#
# Indices 1 2 3 4 5 6 
#
# 1 158.0477 29.1980 65.3911 0.0000 0.0000 0.0000
# 2 29.1980 83.3404 10.8404 0.0000 0.0000 0.0000
# 3 65.3911 10.8404 103.4771 0.0000 0.0000 0.0000
# 4 0.0000 0.0000 0.0000 22.2439 0.0000 0.0000
# 5 0.0000 0.0000 0.0000 0.0000 135.3716 0.0000
# 6 0.0000 0.0000 0.0000 0.0000 0.0000 29.8893
#
#
#
# Elastic Compliance Matrix: (Units=1/GPa)
#
#
# Indices 1 2 3 4 5 6 
#
# 1 0.009038 -0.002457 -0.005454 0.000000 0.000000 0.000000
# 2 -0.002457 0.012833 0.000208 0.000000 0.000000 0.000000
# 3 -0.005454 0.000208 0.013089 0.000000 0.000000 0.000000
# 4 0.000000 0.000000 0.000000 0.044956 0.000000 0.000000
# 5 0.000000 0.000000 0.000000 0.000000 0.007387 0.000000
# 6 0.000000 0.000000 0.000000 0.000000 0.000000 0.033457
#
#
# Mechanical properties :
#
#
# Convention : Reuss Voigt Hill
#
# Bulk Modulus (GPa) = 51.14057 61.74712 56.44385
# Shear Modulus (GPa) = 35.04303 53.46333 44.25318
#
# Velocity S-wave (km/s) = 4.31446 5.32910 4.84839
# Velocity P-wave (km/s) = 7.21005 8.40626 7.83103
#
# Compressibility (1/GPa) = 0.01955395
#
# Stress axis : x y z
#
# Youngs Moduli (GPa) = 110.64940 77.92618 76.40227
#
# Poissons Ratio (x) = 0.19145 0.41668
# Poissons Ratio (y) = 0.27185 -0.01591
# Poissons Ratio (z) = 0.60346 -0.01623
#
# Static dielectric constant tensor:
#      x y z
#    x 2.548590 0.000000 0.000000 
#    y 0.000000 3.671280 0.000000 
#    z 0.000000 0.000000 4.133090 
# 
# 
# High freq. dielectric constant tensor:
#      x y z
#    x 1.739150 0.000000 0.000000 
#    y 0.000000 1.740310 0.000000 
#    z 0.000000 0.000000 1.706210 
# 
# From -- ./inp_files/23951.got.cif
#   From: 2010.03.12/outbox.cif.g09.slc.cpg/sg62_12_cif.got.tgz:23951.got - 2010.04.10 19:12:36.
