data_PCOD8252892
_publ_section_title
;
Structure prediction by ZEFSAII (Michael W. Deem and Ramdas Pophale) SiO2 
 PCOD8252892
Probable space group: P N M A
;
_chemical_formula_sum "Si O2"
_cell_formula_units_Z 40
_cell_length_a 20.787994
_cell_length_b 9.187081
_cell_length_c 10.288822
_cell_angle_alpha 90.000000
_cell_angle_beta 90.000000
_cell_angle_gamma 90.000000
_cell_volume 1964.969357
_symmetry_space_group_name_H-M "P N M A"
_symmetry_group_IT_number 62
_symmetry_cell_setting 'orthorhombic'
loop_
_space_group_symop_operation_xyz
x,y,z
1/2-x,-y,1/2+z
1/2+x,1/2-y,1/2-z
-x,1/2+y,-z
-x,-y,-z
1/2+x,y,1/2-z
1/2-x,1/2+y,1/2+z
x,1/2-y,z
loop_
_atom_site_type_symbol
_atom_site_label
_atom_site_fract_x
_atom_site_fract_y
_atom_site_fract_z
Si Si1 0.589092 0.916294 0.071840
Si Si2 0.721321 0.579176 0.203027
Si Si3 0.300567 0.083134 0.509793
Si Si4 0.049818 0.417401 0.675171
Si Si5 0.941830 0.082406 0.067084
O O1 0.593521 0.750000 0.021366
O O2 0.650087 0.962308 0.156276
O O3 0.526774 0.935991 0.162039
O O4 0.586626 0.025127 0.951120
O O5 0.732657 0.750000 0.195118
O O6 0.728555 0.526188 0.352878
O O7 0.774038 0.505644 0.112087
O O8 0.281229 0.250000 0.487242
O O9 0.377685 0.067385 0.519114
O O10 0.069145 0.250000 0.697136
O O11 0.073991 0.512573 0.794439
O O12 0.961778 0.250000 0.084612
O O13 0.000000 0.000000 0.000000
#
# Coordination Sequence:
#
# PCOD8252892 Si02
#       5
#     8   8   8   8   8
#     4   9  19  37  59  85 121 160 198 246 301 356
#     4  10  22  41  63  86 119 160 204 250 301 363
#     4  10  24  43  62  89 124 161 202 253 308 361
#     4  10  20  35  59  90 122 157 200 248 303 363
#     4  11  23  40  62  87 121 158 202 256 311 367
#
# _framework density 20.356553000000002
#
# number of rings (size 3 to 8) (size 9 to 14) (size 15 to 20)
#    0.000    2.000    0.000    2.400    2.800    7.200 
#    0.000    2.000    0.000    0.000    0.000    0.000 
#    0.000    0.000    0.000    0.000    0.000    0.000 
#
# Total GULP energy -496125.477382 kJ/mol
# GULP energy per Si atom -12403.136935 kJ/mol
# Density = 2.031022 g / cm^3
# Si number density = 20.356553 Si / 1000 Ang^3
#
#
#
# Elastic Constant Matrix: (Units=GPa)
#
#
# Indices 1 2 3 4 5 6 
#
# 1 62.8817 32.0648 37.9713 0.0000 0.0000 0.0000
# 2 32.0648 100.5726 57.0268 0.0000 0.0000 0.0000
# 3 37.9713 57.0268 123.3382 0.0000 0.0000 0.0000
# 4 0.0000 0.0000 0.0000 36.5145 0.0000 0.0000
# 5 0.0000 0.0000 0.0000 0.0000 29.8891 0.0000
# 6 0.0000 0.0000 0.0000 0.0000 0.0000 32.8288
#
#
#
# Elastic Compliance Matrix: (Units=1/GPa)
#
#
# Indices 1 2 3 4 5 6 
#
# 1 0.020680 -0.004043 -0.004497 0.000000 0.000000 0.000000
# 2 -0.004043 0.014267 -0.005352 0.000000 0.000000 0.000000
# 3 -0.004497 -0.005352 0.011967 0.000000 0.000000 0.000000
# 4 0.000000 0.000000 0.000000 0.027386 0.000000 0.000000
# 5 0.000000 0.000000 0.000000 0.000000 0.033457 0.000000
# 6 0.000000 0.000000 0.000000 0.000000 0.000000 0.030461
#
#
# Mechanical properties :
#
#
# Convention : Reuss Voigt Hill
#
# Bulk Modulus (GPa) = 52.27555 60.10203 56.18879
# Shear Modulus (GPa) = 29.00589 30.49510 29.75050
#
# Velocity S-wave (km/s) = 3.77887 3.87466 3.82707
# Velocity P-wave (km/s) = 6.69145 7.04316 6.86956
#
# Compressibility (1/GPa) = 0.01912940
#
# Stress axis : x y z
#
# Youngs Moduli (GPa) = 48.35514 70.09373 83.56551
#
# Poissons Ratio (x) = 0.28341 0.37581
# Poissons Ratio (y) = 0.19552 0.44720
# Poissons Ratio (z) = 0.21746 0.37511
#
# Static dielectric constant tensor:
#      x y z
#    x 3.652660 0.000000 0.000000 
#    y 0.000000 3.685180 0.000000 
#    z 0.000000 0.000000 3.867080 
# 
# 
# High freq. dielectric constant tensor:
#      x y z
#    x 1.797210 0.000000 0.000000 
#    y 0.000000 1.793070 0.000000 
#    z 0.000000 0.000000 1.802770 
# 
# From -- ./inp_files/14614.got.cif
#   From: 2010.03.12/outbox.cif.g09.slc.cpg/sg62_8_cif.got.tgz:14614.got - 2010.04.10 19:12:36.
