data_PCOD8252459
_publ_section_title
;
Structure prediction by ZEFSAII (Michael W. Deem and Ramdas Pophale) SiO2 
 PCOD8252459
Probable space group: P N M A
;
_chemical_formula_sum "Si O2"
_cell_formula_units_Z 48
_cell_length_a 17.650544
_cell_length_b 15.291463
_cell_length_c 9.827493
_cell_angle_alpha 90.000000
_cell_angle_beta 90.000000
_cell_angle_gamma 90.000000
_cell_volume 2652.466310
_symmetry_space_group_name_H-M "P N M A"
_symmetry_group_IT_number 62
_symmetry_cell_setting 'orthorhombic'
loop_
_space_group_symop_operation_xyz
x,y,z
1/2-x,-y,1/2+z
1/2+x,1/2-y,1/2-z
-x,1/2+y,-z
-x,-y,-z
1/2+x,y,1/2-z
1/2-x,1/2+y,1/2+z
x,1/2-y,z
loop_
_atom_site_type_symbol
_atom_site_label
_atom_site_fract_x
_atom_site_fract_y
_atom_site_fract_z
Si Si1 0.416654 0.649989 0.543687
Si Si2 0.683949 0.482442 0.094371
Si Si3 0.558858 0.154661 0.155941
Si Si4 0.179735 0.512136 0.098382
Si Si5 0.449033 0.148434 0.661757
Si Si6 0.048306 0.584754 0.461941
O O1 0.385039 0.750000 0.535928
O O2 0.458403 0.630871 0.687333
O O3 0.349033 0.579551 0.533491
O O4 0.475998 0.633002 0.425386
O O5 0.622071 0.406333 0.090490
O O6 0.711605 0.498349 0.248947
O O7 0.639034 0.567410 0.034656
O O8 0.752906 0.455692 0.998473
O O9 0.594829 0.250000 0.146224
O O10 0.478532 0.154025 0.075339
O O11 0.116480 0.587551 0.099329
O O12 0.422946 0.250000 0.657964
O O13 0.472480 0.119406 0.812440
O O14 0.000000 0.500000 0.500000
#
# Coordination Sequence:
#
# PCOD8252459 Si02
#       6
#     8   8   8   8   8   8
#     4   9  19  35  54  77 102 133 175 218 261 308
#     4   9  20  33  48  71 101 134 169 207 255 308
#     4   9  17  32  53  74  98 129 168 213 256 304
#     4  10  20  35  51  72 105 140 170 213 262 309
#     4  10  20  34  54  80 107 135 172 217 262 311
#     4   9  18  33  51  74 101 131 168 212 257 302
#
# _framework density 18.096366
#
# number of rings (size 3 to 8) (size 9 to 14) (size 15 to 20)
#    0.000    2.667    0.000    2.000    0.000    4.667 
#    0.000    4.167    0.000    0.000    0.000    0.000 
#    0.000    0.000    0.000    0.000    0.000    0.000 
#
# Total GULP energy -594813.536159 kJ/mol
# GULP energy per Si atom -12391.948670 kJ/mol
# Density = 1.805518 g / cm^3
# Si number density = 18.096366 Si / 1000 Ang^3
#
#
#
# Elastic Constant Matrix: (Units=GPa)
#
#
# Indices 1 2 3 4 5 6 
#
# 1 44.3691 21.0180 33.7704 0.0000 0.0000 0.0000
# 2 21.0180 78.2724 26.7506 0.0000 0.0000 0.0000
# 3 33.7704 26.7506 76.9648 0.0000 0.0000 0.0000
# 4 0.0000 0.0000 0.0000 25.8528 0.0000 0.0000
# 5 0.0000 0.0000 0.0000 0.0000 34.1128 0.0000
# 6 0.0000 0.0000 0.0000 0.0000 0.0000 14.4647
#
#
#
# Elastic Compliance Matrix: (Units=1/GPa)
#
#
# Indices 1 2 3 4 5 6 
#
# 1 0.035332 -0.004754 -0.013851 0.000000 0.000000 0.000000
# 2 -0.004754 0.015138 -0.003175 0.000000 0.000000 0.000000
# 3 -0.013851 -0.003175 0.020174 0.000000 0.000000 0.000000
# 4 0.000000 0.000000 0.000000 0.038681 0.000000 0.000000
# 5 0.000000 0.000000 0.000000 0.000000 0.029315 0.000000
# 6 0.000000 0.000000 0.000000 0.000000 0.000000 0.069134
#
#
# Mechanical properties :
#
#
# Convention : Reuss Voigt Hill
#
# Bulk Modulus (GPa) = 36.92241 40.29826 38.61033
# Shear Modulus (GPa) = 19.20407 22.75719 20.98063
#
# Velocity S-wave (km/s) = 3.26116 3.55005 3.40867
# Velocity P-wave (km/s) = 5.88453 6.25467 6.07242
#
# Compressibility (1/GPa) = 0.02708383
#
# Stress axis : x y z
#
# Youngs Moduli (GPa) = 28.30266 66.06019 49.56868
#
# Poissons Ratio (x) = 0.31405 0.68656
# Poissons Ratio (y) = 0.13455 0.15740
# Poissons Ratio (z) = 0.39201 0.20977
#
# Static dielectric constant tensor:
#      x y z
#    x 3.318050 0.000000 0.000000 
#    y 0.000000 3.952370 0.000000 
#    z 0.000000 0.000000 3.712820 
# 
# 
# High freq. dielectric constant tensor:
#      x y z
#    x 1.671560 0.000000 0.000000 
#    y 0.000000 1.709720 0.000000 
#    z 0.000000 0.000000 1.711150 
# 
# From -- ./inp_files/8590.got.cif
#   From: 2010.03.12/outbox.cif.g09.slc.cpg/sg62_5_cif.got.tgz:8590.got - 2010.04.10 19:12:36.
