data_PCOD8252582
_publ_section_title
;
Structure prediction by ZEFSAII (Michael W. Deem and Ramdas Pophale) SiO2 
 PCOD8252582
Probable space group: P N M A
;
_chemical_formula_sum "Si O2"
_cell_formula_units_Z 40
_cell_length_a 10.628255
_cell_length_b 9.693914
_cell_length_c 20.408364
_cell_angle_alpha 90.000000
_cell_angle_beta 90.000000
_cell_angle_gamma 90.000000
_cell_volume 2102.661293
_symmetry_space_group_name_H-M "P N M A"
_symmetry_group_IT_number 62
_symmetry_cell_setting 'orthorhombic'
loop_
_space_group_symop_operation_xyz
x,y,z
1/2-x,-y,1/2+z
1/2+x,1/2-y,1/2-z
-x,1/2+y,-z
-x,-y,-z
1/2+x,y,1/2-z
1/2-x,1/2+y,1/2+z
x,1/2-y,z
loop_
_atom_site_type_symbol
_atom_site_label
_atom_site_fract_x
_atom_site_fract_y
_atom_site_fract_z
Si Si1 0.382297 0.250000 0.177830
Si Si2 0.394434 0.750000 0.724816
Si Si3 0.402130 0.028740 0.656128
Si Si4 0.892268 0.750000 0.141114
Si Si5 0.312126 0.250000 0.961993
Si Si6 0.682804 0.529287 0.927904
Si Si7 0.765592 0.750000 0.278360
Si Si8 0.935861 0.750000 0.398889
O O1 0.260625 0.250000 0.228709
O O2 0.522576 0.250000 0.208807
O O3 0.374579 0.113742 0.133318
O O4 0.441977 0.615952 0.686655
O O5 0.527505 0.111423 0.641241
O O6 0.314122 0.113318 0.706443
O O7 0.328701 0.003019 0.588090
O O8 0.821421 0.750000 0.072478
O O9 0.799798 0.750000 0.202771
O O10 0.414005 0.250000 0.903622
O O11 0.327264 0.113305 0.005306
O O12 0.612331 0.384786 0.937443
O O13 0.891968 0.750000 0.323172
#
# Coordination Sequence:
#
# PCOD8252582 Si02
#       8
#     4   4   8   4   4   8   4   4
#     4   9  20  36  57  85 119 160 193 245 303 364
#     4  10  20  34  57  85 117 158 203 237 303 363
#     4   9  21  39  58  80 119 160 192 240 301 360
#     4  11  24  36  57  93 117 156 199 247 294 355
#     4  11  23  37  60  89 119 150 204 247 285 358
#     4   9  20  41  59  81 116 161 195 238 305 349
#     4   9  21  38  59  85 120 150 193 241 305 359
#     4  10  20  37  64  87 112 158 194 251 292 347
#
# _framework density 19.023510000000002
#
# number of rings (size 3 to 8) (size 9 to 14) (size 15 to 20)
#    0.000    2.400    0.000    1.800   11.200    0.800 
#    0.000    1.000    0.000    0.000    0.000    0.000 
#    0.000    0.000    0.000    0.000    0.000    0.000 
#
# Total GULP energy -495877.596777 kJ/mol
# GULP energy per Si atom -12396.939919 kJ/mol
# Density = 1.898021 g / cm^3
# Si number density = 19.023510 Si / 1000 Ang^3
#
#
#
# Elastic Constant Matrix: (Units=GPa)
#
#
# Indices 1 2 3 4 5 6 
#
# 1 99.7998 42.2934 50.6021 0.0000 0.0000 0.0000
# 2 42.2934 151.3996 32.3813 0.0000 0.0000 0.0000
# 3 50.6021 32.3813 75.1671 0.0000 0.0000 0.0000
# 4 0.0000 0.0000 0.0000 -3.4532 0.0000 0.0000
# 5 0.0000 0.0000 0.0000 0.0000 28.1067 0.0000
# 6 0.0000 0.0000 0.0000 0.0000 0.0000 -48.9628
#
#
#
# Elastic Compliance Matrix: (Units=1/GPa)
#
#
# Indices 1 2 3 4 5 6 
#
# 1 0.015954 -0.002379 -0.009716 0.000000 0.000000 0.000000
# 2 -0.002379 0.007630 -0.001686 0.000000 0.000000 0.000000
# 3 -0.009716 -0.001686 0.020570 0.000000 0.000000 0.000000
# 4 0.000000 0.000000 0.000000 -0.289585 0.000000 0.000000
# 5 0.000000 0.000000 0.000000 0.000000 0.035579 0.000000
# 6 0.000000 0.000000 0.000000 0.000000 0.000000 -0.020424
#
#
# Mechanical properties :
#
#
# Convention : Reuss Voigt Hill
#
# Bulk Modulus (GPa) = 60.26007 64.10224 62.18115
# Shear Modulus (GPa) = -25.35706 8.54413 -8.40646
#
# Velocity S-wave (km/s) = -3.65490 2.12158 -2.10442
# Velocity P-wave (km/s) = 3.73288 6.30642 5.18196
#
# Compressibility (1/GPa) = 0.01659474
#
# Stress axis : x y z
#
# Youngs Moduli (GPa) = 62.67897 131.06028 48.61391
#
# Poissons Ratio (x) = 0.31178 0.47231
# Poissons Ratio (y) = 0.14911 0.08194
# Poissons Ratio (z) = 0.60896 0.22091
#
# Static dielectric constant tensor:
#      x y z
#    x 3.434810 0.000000 0.000000 
#    y 0.000000 3.805830 0.000000 
#    z 0.000000 0.000000 3.156600 
# 
# 
# High freq. dielectric constant tensor:
#      x y z
#    x 1.735350 0.000000 0.000000 
#    y 0.000000 1.763130 0.000000 
#    z 0.000000 0.000000 1.710630 
# 
# From -- ./inp_files/25814.got.cif
#   From: 2010.03.12/outbox.cif.g09.slc.cpg/sg62_13_cif.got.tgz:25814.got - 2010.04.10 19:12:36.
