data_PCOD8252825
_publ_section_title
;
Structure prediction by ZEFSAII (Michael W. Deem and Ramdas Pophale) SiO2 
 PCOD8252825
Probable space group: P N M A
;
_chemical_formula_sum "Si O2"
_cell_formula_units_Z 64
_cell_length_a 18.739882
_cell_length_b 9.195577
_cell_length_c 18.789053
_cell_angle_alpha 90.000000
_cell_angle_beta 90.000000
_cell_angle_gamma 90.000000
_cell_volume 3237.805293
_symmetry_space_group_name_H-M "P N M A"
_symmetry_group_IT_number 62
_symmetry_cell_setting 'orthorhombic'
loop_
_space_group_symop_operation_xyz
x,y,z
1/2-x,-y,1/2+z
1/2+x,1/2-y,1/2-z
-x,1/2+y,-z
-x,-y,-z
1/2+x,y,1/2-z
1/2-x,1/2+y,1/2+z
x,1/2-y,z
loop_
_atom_site_type_symbol
_atom_site_label
_atom_site_fract_x
_atom_site_fract_y
_atom_site_fract_z
Si Si1 0.371629 0.077380 0.157587
Si Si2 0.973685 0.584245 0.712951
Si Si3 0.658464 0.914606 0.465707
Si Si4 0.319722 0.583884 0.027184
Si Si5 0.330846 0.917370 0.865241
Si Si6 0.214119 0.418046 0.775261
Si Si7 0.955402 0.422179 0.855250
Si Si8 0.391892 0.585265 0.402347
O O1 0.360748 0.250000 0.158534
O O2 0.449705 0.030506 0.185039
O O3 0.367694 0.019013 0.076683
O O4 0.309228 0.002921 0.204154
O O5 0.979619 0.750000 0.738642
O O6 0.914611 0.566487 0.651598
O O7 0.946721 0.489314 0.778160
O O8 0.634410 0.750000 0.479121
O O9 0.739911 0.926107 0.441767
O O10 0.609390 0.981595 0.403584
O O11 0.649829 0.994156 0.539980
O O12 0.347987 0.750000 0.030362
O O13 0.321101 0.526329 0.945984
O O14 0.305245 0.750000 0.858995
O O15 0.284225 0.012146 0.810579
O O16 0.231016 0.250000 0.756276
O O17 0.147518 0.430594 0.827731
O O18 0.954365 0.250000 0.845727
O O19 0.028300 0.475112 0.892399
O O20 0.393163 0.750000 0.429306
#
# Coordination Sequence:
#
# PCOD8252825 Si02
#       8
#     8   8   8   8   8   8   8   8
#     4  11  24  41  62  88 120 155 198 249 297 351
#     4  10  23  41  61  87 116 153 200 247 297 353
#     4  10  21  36  57  86 120 158 198 238 292 355
#     4  10  22  40  61  87 120 157 197 247 299 354
#     4  10  22  42  64  88 120 157 199 246 300 352
#     4  11  22  38  62  90 120 156 198 241 294 356
#     4  10  21  37  56  85 122 158 196 241 291 351
#     4  10  20  35  57  85 119 156 195 239 289 350
#
# _framework density 19.766476000000001
#
# number of rings (size 3 to 8) (size 9 to 14) (size 15 to 20)
#    0.000    1.750    2.500    1.125    1.750    4.000 
#    0.000    0.000    0.000    0.000    0.000    0.000 
#    0.000    0.000    0.000    0.000    0.000    0.000 
#
# Total GULP energy -793813.316102 kJ/mol
# GULP energy per Si atom -12403.333064 kJ/mol
# Density = 1.972149 g / cm^3
# Si number density = 19.766476 Si / 1000 Ang^3
#
#
#
# Elastic Constant Matrix: (Units=GPa)
#
#
# Indices 1 2 3 4 5 6 
#
# 1 71.6972 29.1227 35.0220 0.0000 0.0000 0.0000
# 2 29.1227 70.4752 42.0073 0.0000 0.0000 0.0000
# 3 35.0220 42.0073 94.2758 0.0000 0.0000 0.0000
# 4 0.0000 0.0000 0.0000 35.6868 0.0000 0.0000
# 5 0.0000 0.0000 0.0000 0.0000 31.2882 0.0000
# 6 0.0000 0.0000 0.0000 0.0000 0.0000 24.9824
#
#
#
# Elastic Compliance Matrix: (Units=1/GPa)
#
#
# Indices 1 2 3 4 5 6 
#
# 1 0.018130 -0.004735 -0.004625 0.000000 0.000000 0.000000
# 2 -0.004735 0.020558 -0.007401 0.000000 0.000000 0.000000
# 3 -0.004625 -0.007401 0.015623 0.000000 0.000000 0.000000
# 4 0.000000 0.000000 0.000000 0.028022 0.000000 0.000000
# 5 0.000000 0.000000 0.000000 0.000000 0.031961 0.000000
# 6 0.000000 0.000000 0.000000 0.000000 0.000000 0.040028
#
#
# Mechanical properties :
#
#
# Convention : Reuss Voigt Hill
#
# Bulk Modulus (GPa) = 48.10421 49.86133 48.98277
# Shear Modulus (GPa) = 25.67084 27.07788 26.37436
#
# Velocity S-wave (km/s) = 3.60767 3.70522 3.65677
# Velocity P-wave (km/s) = 6.46086 6.60188 6.53175
#
# Compressibility (1/GPa) = 0.02078820
#
# Stress axis : x y z
#
# Youngs Moduli (GPa) = 55.15663 48.64402 64.00779
#
# Poissons Ratio (x) = 0.23033 0.29605
# Poissons Ratio (y) = 0.26117 0.47372
# Poissons Ratio (z) = 0.25511 0.36001
#
# Static dielectric constant tensor:
#      x y z
#    x 3.668340 0.000000 0.000000 
#    y 0.000000 3.558090 0.000000 
#    z 0.000000 0.000000 3.509830 
# 
# 
# High freq. dielectric constant tensor:
#      x y z
#    x 1.776440 0.000000 0.000000 
#    y 0.000000 1.762880 0.000000 
#    z 0.000000 0.000000 1.772570 
# 
# From -- ./inp_files/24738.got.cif
#   From: 2010.03.12/outbox.cif.g09.slc.cpg/sg62_13_cif.got.tgz:24738.got - 2010.04.10 19:12:36.
