data_PCOD8252769
_publ_section_title
;
Structure prediction by ZEFSAII (Michael W. Deem and Ramdas Pophale) SiO2 
 PCOD8252769
Probable space group: P N M A
;
_chemical_formula_sum "Si O2"
_cell_formula_units_Z 64
_cell_length_a 9.441942
_cell_length_b 11.091350
_cell_length_c 30.565292
_cell_angle_alpha 90.000000
_cell_angle_beta 90.000000
_cell_angle_gamma 90.000000
_cell_volume 3200.916076
_symmetry_space_group_name_H-M "P N M A"
_symmetry_group_IT_number 62
_symmetry_cell_setting 'orthorhombic'
loop_
_space_group_symop_operation_xyz
x,y,z
1/2-x,-y,1/2+z
1/2+x,1/2-y,1/2-z
-x,1/2+y,-z
-x,-y,-z
1/2+x,y,1/2-z
1/2-x,1/2+y,1/2+z
x,1/2-y,z
loop_
_atom_site_type_symbol
_atom_site_label
_atom_site_fract_x
_atom_site_fract_y
_atom_site_fract_z
Si Si1 0.330427 0.536199 0.391289
Si Si2 0.589007 0.615467 0.984724
Si Si3 0.492958 0.005885 0.253354
Si Si4 0.596439 0.386469 0.515957
Si Si5 0.062398 0.388174 0.157129
Si Si6 0.133285 0.892230 0.671453
Si Si7 0.569904 0.383682 0.101044
Si Si8 0.247882 0.616913 0.296651
O O1 0.386236 0.618189 0.431104
O O2 0.460064 0.455245 0.375916
O O3 0.205293 0.459304 0.413877
O O4 0.264155 0.602736 0.349189
O O5 0.547612 0.750000 0.004864
O O6 0.557153 0.621365 0.933512
O O7 0.500000 0.500000 0.000000
O O8 0.753983 0.591997 0.992317
O O9 0.633279 0.968948 0.226668
O O10 0.403632 0.896744 0.274925
O O11 0.524151 0.100144 0.291779
O O12 0.383985 0.072072 0.221456
O O13 0.500000 0.500000 0.500000
O O14 0.539123 0.250000 0.503522
O O15 0.055171 0.250000 0.143555
O O16 0.219644 0.444570 0.152201
O O17 0.140008 0.750000 0.666752
O O18 0.000165 0.943450 0.644146
O O19 0.626710 0.250000 0.111644
O O20 0.192011 0.750000 0.287568
#
# Coordination Sequence:
#
# PCOD8252769 Si02
#       8
#     8   8   8   8   8   8   8   8
#     4  11  22  40  64  87 123 158 208 253 312 373
#     4  10  21  40  66  95 126 161 201 258 319 378
#     4  11  20  38  57  82 116 157 201 246 307 358
#     4  11  26  45  68  95 131 172 214 263 325 390
#     4  10  22  36  57  88 123 162 203 253 307 367
#     4  10  20  35  56  84 120 153 192 244 300 361
#     4  10  20  35  60  92 122 154 196 250 311 376
#     4  11  23  38  59  82 114 157 206 254 299 361
#
# _framework density 19.994275999999999
#
# number of rings (size 3 to 8) (size 9 to 14) (size 15 to 20)
#    0.000    1.500    3.750    1.500    1.750    1.500 
#    0.000    0.000    0.000    0.000    0.000    0.000 
#    0.000    0.000    0.000    0.000    0.000    0.000 
#
# Total GULP energy -792842.589575 kJ/mol
# GULP energy per Si atom -12388.165462 kJ/mol
# Density = 1.994877 g / cm^3
# Si number density = 19.994276 Si / 1000 Ang^3
#
#
#
# Elastic Constant Matrix: (Units=GPa)
#
#
# Indices 1 2 3 4 5 6 
#
# 1 95.9404 49.6640 25.1100 0.0000 0.0000 0.0000
# 2 49.6640 91.8721 19.2678 0.0000 0.0000 0.0000
# 3 25.1100 19.2678 81.6673 0.0000 0.0000 0.0000
# 4 0.0000 0.0000 0.0000 18.5297 0.0000 0.0000
# 5 0.0000 0.0000 0.0000 0.0000 38.1887 0.0000
# 6 0.0000 0.0000 0.0000 0.0000 0.0000 26.6687
#
#
#
# Elastic Compliance Matrix: (Units=1/GPa)
#
#
# Indices 1 2 3 4 5 6 
#
# 1 0.015080 -0.007553 -0.002855 0.000000 0.000000 0.000000
# 2 -0.007553 0.015235 -0.001272 0.000000 0.000000 0.000000
# 3 -0.002855 -0.001272 0.013423 0.000000 0.000000 0.000000
# 4 0.000000 0.000000 0.000000 0.053967 0.000000 0.000000
# 5 0.000000 0.000000 0.000000 0.000000 0.026186 0.000000
# 6 0.000000 0.000000 0.000000 0.000000 0.000000 0.037497
#
#
# Mechanical properties :
#
#
# Convention : Reuss Voigt Hill
#
# Bulk Modulus (GPa) = 49.07323 50.84039 49.95681
# Shear Modulus (GPa) = 26.10417 28.37329 27.23873
#
# Velocity S-wave (km/s) = 3.61720 3.77114 3.69498
# Velocity P-wave (km/s) = 6.48402 6.66669 6.57599
#
# Compressibility (1/GPa) = 0.02037771
#
# Stress axis : x y z
#
# Youngs Moduli (GPa) = 66.31159 65.63988 74.50126
#
# Poissons Ratio (x) = 0.49580 0.21267
# Poissons Ratio (y) = 0.50088 0.09476
# Poissons Ratio (z) = 0.18929 0.08349
#
# Static dielectric constant tensor:
#      x y z
#    x 3.743310 0.000000 0.000000 
#    y 0.000000 3.565770 0.000000 
#    z 0.000000 0.000000 3.775960 
# 
# 
# High freq. dielectric constant tensor:
#      x y z
#    x 1.786190 0.000000 0.000000 
#    y 0.000000 1.766490 0.000000 
#    z 0.000000 0.000000 1.785180 
# 
# From -- ./inp_files/32250.got.cif
#   From: 2010.03.12/outbox.cif.g09.slc.cpg/sg62_17_cif.got.tgz:32250.got - 2010.04.10 19:12:36.
