data_PCOD8252694
_publ_section_title
;
Structure prediction by ZEFSAII (Michael W. Deem and Ramdas Pophale) SiO2 
 PCOD8252694
Probable space group: P N M A
;
_chemical_formula_sum "Si O2"
_cell_formula_units_Z 56
_cell_length_a 21.210160
_cell_length_b 9.145674
_cell_length_c 14.937053
_cell_angle_alpha 90.000000
_cell_angle_beta 90.000000
_cell_angle_gamma 90.000000
_cell_volume 2897.507598
_symmetry_space_group_name_H-M "P N M A"
_symmetry_group_IT_number 62
_symmetry_cell_setting 'orthorhombic'
loop_
_space_group_symop_operation_xyz
x,y,z
1/2-x,-y,1/2+z
1/2+x,1/2-y,1/2-z
-x,1/2+y,-z
-x,-y,-z
1/2+x,y,1/2-z
1/2-x,1/2+y,1/2+z
x,1/2-y,z
loop_
_atom_site_type_symbol
_atom_site_label
_atom_site_fract_x
_atom_site_fract_y
_atom_site_fract_z
Si Si1 0.242559 0.423213 0.737511
Si Si2 0.277087 0.916896 0.907926
Si Si3 0.317712 0.422794 0.562277
Si Si4 0.567114 0.424727 0.513952
Si Si5 0.084570 0.083417 0.458838
Si Si6 0.985128 0.921897 0.363409
Si Si7 0.394810 0.576868 0.287428
O O1 0.242003 0.250000 0.739726
O O2 0.281817 0.481110 0.821621
O O3 0.276434 0.477512 0.646883
O O4 0.171249 0.485617 0.748391
O O5 0.269058 0.750000 0.876472
O O6 0.340984 0.939024 0.963206
O O7 0.220489 0.963540 0.972848
O O8 0.331505 0.250000 0.568895
O O9 0.383675 0.510998 0.558992
O O10 0.500000 0.500000 0.500000
O O11 0.561208 0.250000 0.503619
O O12 0.592999 0.472538 0.611218
O O13 0.065686 0.250000 0.442052
O O14 0.059047 0.029148 0.554203
O O15 0.053740 0.993296 0.376847
O O16 0.994513 0.750000 0.357885
O O17 0.952263 0.982642 0.273431
O O18 0.392352 0.750000 0.280297
#
# Coordination Sequence:
#
# PCOD8252694 Si02
#       7
#     8   8   8   8   8   8   8
#     4  10  20  36  59  84 109 145 192 238 284 343
#     4  10  20  35  55  81 113 145 179 229 287 340
#     4  10  21  38  60  85 115 150 192 241 296 351
#     4  11  23  40  61  84 115 152 195 242 292 349
#     4   9  18  32  50  77 111 141 172 220 280 331
#     4   9  17  32  54  76 102 140 184 223 265 326
#     4   9  18  35  58  81 105 143 192 235 277 332
#
# _framework density 19.326955999999999
#
# number of rings (size 3 to 8) (size 9 to 14) (size 15 to 20)
#    0.000    2.286    1.429    1.286    0.000    5.714 
#    0.000    6.429    0.000    3.429    0.000    0.000 
#    0.000    0.000    0.000    0.000    0.000    0.000 
#
# Total GULP energy -694341.823512 kJ/mol
# GULP energy per Si atom -12398.961134 kJ/mol
# Density = 1.928297 g / cm^3
# Si number density = 19.326956 Si / 1000 Ang^3
#
#
#
# Elastic Constant Matrix: (Units=GPa)
#
#
# Indices 1 2 3 4 5 6 
#
# 1 124.1084 39.7339 44.0319 0.0000 0.0000 0.0000
# 2 39.7339 36.7977 31.8105 0.0000 0.0000 0.0000
# 3 44.0319 31.8105 101.1211 0.0000 0.0000 0.0000
# 4 0.0000 0.0000 0.0000 26.4525 0.0000 0.0000
# 5 0.0000 0.0000 0.0000 0.0000 34.5065 0.0000
# 6 0.0000 0.0000 0.0000 0.0000 0.0000 32.3882
#
#
#
# Elastic Compliance Matrix: (Units=1/GPa)
#
#
# Indices 1 2 3 4 5 6 
#
# 1 0.012511 -0.012087 -0.001645 0.000000 0.000000 0.000000
# 2 -0.012087 0.049003 -0.010152 0.000000 0.000000 0.000000
# 3 -0.001645 -0.010152 0.013799 0.000000 0.000000 0.000000
# 4 0.000000 0.000000 0.000000 0.037804 0.000000 0.000000
# 5 0.000000 0.000000 0.000000 0.000000 0.028980 0.000000
# 6 0.000000 0.000000 0.000000 0.000000 0.000000 0.030875
#
#
# Mechanical properties :
#
#
# Convention : Reuss Voigt Hill
#
# Bulk Modulus (GPa) = 36.30508 54.79775 45.55142
# Shear Modulus (GPa) = 21.74640 28.43283 25.08962
#
# Velocity S-wave (km/s) = 3.35802 3.83972 3.60692
# Velocity P-wave (km/s) = 5.81898 6.93343 6.40051
#
# Compressibility (1/GPa) = 0.02754436
#
# Stress axis : x y z
#
# Youngs Moduli (GPa) = 79.93035 20.40682 72.46714
#
# Poissons Ratio (x) = 0.24665 0.11924
# Poissons Ratio (y) = 0.96610 0.73571
# Poissons Ratio (z) = 0.13152 0.20718
#
# Static dielectric constant tensor:
#      x y z
#    x 3.655950 0.000000 0.000000 
#    y 0.000000 3.293300 0.000000 
#    z 0.000000 0.000000 3.620390 
# 
# 
# High freq. dielectric constant tensor:
#      x y z
#    x 1.761860 0.000000 0.000000 
#    y 0.000000 1.727510 0.000000 
#    z 0.000000 0.000000 1.750490 
# 
# From -- ./inp_files/20291.got.cif
#   From: 2010.03.12/outbox.cif.g09.slc.cpg/sg62_11_cif.got.tgz:20291.got - 2010.04.10 19:12:36.
