data_PCOD8252004
_publ_section_title
;
Structure prediction by ZEFSAII (Michael W. Deem and Ramdas Pophale) SiO2 
 PCOD8252004
Probable space group: P N M A
;
_chemical_formula_sum "Si O2"
_cell_formula_units_Z 64
_cell_length_a 18.824319
_cell_length_b 8.882878
_cell_length_c 19.156594
_cell_angle_alpha 90.000000
_cell_angle_beta 90.000000
_cell_angle_gamma 90.000000
_cell_volume 3203.253182
_symmetry_space_group_name_H-M "P N M A"
_symmetry_group_IT_number 62
_symmetry_cell_setting 'orthorhombic'
loop_
_space_group_symop_operation_xyz
x,y,z
1/2-x,-y,1/2+z
1/2+x,1/2-y,1/2-z
-x,1/2+y,-z
-x,-y,-z
1/2+x,y,1/2-z
1/2-x,1/2+y,1/2+z
x,1/2-y,z
loop_
_atom_site_type_symbol
_atom_site_label
_atom_site_fract_x
_atom_site_fract_y
_atom_site_fract_z
Si Si1 0.540894 0.575888 0.832241
Si Si2 0.588630 0.579683 0.101138
Si Si3 0.633911 0.570805 0.330731
Si Si4 0.220211 0.575481 0.303045
Si Si5 0.853015 0.078827 0.454023
Si Si6 0.345501 0.428738 0.380792
Si Si7 0.973438 0.927619 0.189391
Si Si8 0.793653 0.427203 0.969954
O O1 0.540087 0.750000 0.810189
O O2 0.466434 0.538467 0.868356
O O3 0.604947 0.539175 0.884208
O O4 0.554404 0.472623 0.765532
O O5 0.563790 0.750000 0.119572
O O6 0.665572 0.549213 0.133929
O O7 0.593513 0.554448 0.018484
O O8 0.633750 0.750000 0.328374
O O9 0.685210 0.512344 0.268552
O O10 0.553840 0.511846 0.319496
O O11 0.661457 0.506923 0.404796
O O12 0.240773 0.750000 0.295325
O O13 0.291532 0.484639 0.320810
O O14 0.824617 0.250000 0.453819
O O15 0.788036 0.966343 0.459658
O O16 0.347456 0.250000 0.378730
O O17 0.423983 0.493168 0.367876
O O18 0.322330 0.492006 0.456736
O O19 0.968610 0.750000 0.179285
O O20 0.801649 0.250000 0.970563
#
# Coordination Sequence:
#
# PCOD8252004 Si02
#       8
#     8   8   8   8   8   8   8   8
#     4  11  23  37  56  88 127 159 194 249 305 352
#     4  10  19  36  61  86 117 160 203 239 285 358
#     4   9  20  40  63  88 113 148 203 249 288 344
#     4  10  19  37  64  88 115 155 202 244 285 350
#     4  10  22  38  56  85 125 160 197 244 291 356
#     4  11  24  40  59  90 125 153 191 247 305 354
#     4  11  23  42  65  86 114 159 205 249 295 356
#     4  10  22  40  62  87 118 154 196 250 301 352
#
# _framework density 19.979687999999999
#
# number of rings (size 3 to 8) (size 9 to 14) (size 15 to 20)
#    0.000    1.750    2.500    1.500    1.750    3.000 
#    0.000    1.250    0.000    0.000    0.000    0.000 
#    0.000    0.000    0.000    0.000    0.000    0.000 
#
# Total GULP energy -793828.909694 kJ/mol
# GULP energy per Si atom -12403.576714 kJ/mol
# Density = 1.993421 g / cm^3
# Si number density = 19.979688 Si / 1000 Ang^3
#
#
#
# Elastic Constant Matrix: (Units=GPa)
#
#
# Indices 1 2 3 4 5 6 
#
# 1 76.2297 26.6413 51.4317 0.0000 0.0000 0.0000
# 2 26.6413 42.9954 26.2036 0.0000 0.0000 0.0000
# 3 51.4317 26.2036 119.1244 0.0000 0.0000 0.0000
# 4 0.0000 0.0000 0.0000 25.4208 0.0000 0.0000
# 5 0.0000 0.0000 0.0000 0.0000 30.9156 0.0000
# 6 0.0000 0.0000 0.0000 0.0000 0.0000 33.0119
#
#
#
# Elastic Compliance Matrix: (Units=1/GPa)
#
#
# Indices 1 2 3 4 5 6 
#
# 1 0.020958 -0.008628 -0.007151 0.000000 0.000000 0.000000
# 2 -0.008628 0.030411 -0.002964 0.000000 0.000000 0.000000
# 3 -0.007151 -0.002964 0.012134 0.000000 0.000000 0.000000
# 4 0.000000 0.000000 0.000000 0.039338 0.000000 0.000000
# 5 0.000000 0.000000 0.000000 0.000000 0.032346 0.000000
# 6 0.000000 0.000000 0.000000 0.000000 0.000000 0.030292
#
#
# Mechanical properties :
#
#
# Convention : Reuss Voigt Hill
#
# Bulk Modulus (GPa) = 38.43668 49.65587 44.04627
# Shear Modulus (GPa) = 23.62516 26.80784 25.21650
#
# Velocity S-wave (km/s) = 3.44242 3.66697 3.55647
# Velocity P-wave (km/s) = 5.92284 6.54492 6.24163
#
# Compressibility (1/GPa) = 0.02601681
#
# Stress axis : x y z
#
# Youngs Moduli (GPa) = 47.71371 32.88250 82.41350
#
# Poissons Ratio (x) = 0.28372 0.58932
# Poissons Ratio (y) = 0.41169 0.24429
# Poissons Ratio (z) = 0.34119 0.09747
#
# Static dielectric constant tensor:
#      x y z
#    x 3.572070 0.000000 0.000000 
#    y 0.000000 3.403280 0.000000 
#    z 0.000000 0.000000 3.941600 
# 
# 
# High freq. dielectric constant tensor:
#      x y z
#    x 1.780410 0.000000 0.000000 
#    y 0.000000 1.759970 0.000000 
#    z 0.000000 0.000000 1.792050 
# 
# From -- ./inp_files/24762.got.cif
#   From: 2010.03.12/outbox.cif.g09.slc.cpg/sg62_13_cif.got.tgz:24762.got - 2010.04.10 19:12:36.
