data_PCOD8252826
_publ_section_title
;
Structure prediction by ZEFSAII (Michael W. Deem and Ramdas Pophale) SiO2 
 PCOD8252826
Probable space group: P N M A
;
_chemical_formula_sum "Si O2"
_cell_formula_units_Z 48
_cell_length_a 20.139906
_cell_length_b 8.818534
_cell_length_c 14.414173
_cell_angle_alpha 90.000000
_cell_angle_beta 90.000000
_cell_angle_gamma 90.000000
_cell_volume 2560.021208
_symmetry_space_group_name_H-M "P N M A"
_symmetry_group_IT_number 62
_symmetry_cell_setting 'orthorhombic'
loop_
_space_group_symop_operation_xyz
x,y,z
1/2-x,-y,1/2+z
1/2+x,1/2-y,1/2-z
-x,1/2+y,-z
-x,-y,-z
1/2+x,y,1/2-z
1/2-x,1/2+y,1/2+z
x,1/2-y,z
loop_
_atom_site_type_symbol
_atom_site_label
_atom_site_fract_x
_atom_site_fract_y
_atom_site_fract_z
Si Si1 0.568400 0.428150 0.794089
Si Si2 0.133697 0.074872 0.513611
Si Si3 0.569608 0.074241 0.178339
Si Si4 0.773454 0.571109 0.988945
Si Si5 0.299488 0.929753 0.717738
Si Si6 0.825919 0.070190 0.166990
O O1 0.574905 0.250000 0.780346
O O2 0.599234 0.480546 0.892097
O O3 0.492019 0.474863 0.789243
O O4 0.606113 0.511661 0.711257
O O5 0.156203 0.250000 0.518429
O O6 0.081448 0.050148 0.430993
O O7 0.197598 0.973872 0.492945
O O8 0.555711 0.250000 0.200819
O O9 0.632989 0.012267 0.235237
O O10 0.780834 0.750000 0.998111
O O11 0.796084 0.512557 0.887797
O O12 0.821549 0.491820 0.062698
O O13 0.296253 0.750000 0.722853
O O14 0.236214 0.994687 0.773721
O O15 0.826504 0.250000 0.164829
#
# Coordination Sequence:
#
# PCOD8252826 Si02
#       6
#     8   8   8   8   8   8
#     4  11  23  37  55  88 122 150 191 243 288 339
#     4  10  20  35  57  85 120 153 187 232 287 349
#     4  10  20  38  59  81 114 158 194 229 285 352
#     4  11  21  35  58  90 117 144 189 243 287 333
#     4   9  19  36  59  83 112 148 192 235 279 339
#     4  11  21  39  61  83 114 156 194 232 286 346
#
# _framework density 18.749844
#
# number of rings (size 3 to 8) (size 9 to 14) (size 15 to 20)
#    0.000    1.667    3.333    2.000    0.000    1.333 
#    0.000    2.500    0.000    0.000    0.000    0.000 
#    0.000    0.000    0.000    0.000    0.000    0.000 
#
# Total GULP energy -595431.249277 kJ/mol
# GULP energy per Si atom -12404.817693 kJ/mol
# Density = 1.870717 g / cm^3
# Si number density = 18.749844 Si / 1000 Ang^3
#
#
#
# Elastic Constant Matrix: (Units=GPa)
#
#
# Indices 1 2 3 4 5 6 
#
# 1 72.1705 16.5230 19.8446 0.0000 0.0000 0.0000
# 2 16.5230 54.5459 21.9295 0.0000 0.0000 0.0000
# 3 19.8446 21.9295 93.7306 0.0000 0.0000 0.0000
# 4 0.0000 0.0000 0.0000 25.6570 0.0000 0.0000
# 5 0.0000 0.0000 0.0000 0.0000 31.7821 0.0000
# 6 0.0000 0.0000 0.0000 0.0000 0.0000 31.8776
#
#
#
# Elastic Compliance Matrix: (Units=1/GPa)
#
#
# Indices 1 2 3 4 5 6 
#
# 1 0.015358 -0.003692 -0.002388 0.000000 0.000000 0.000000
# 2 -0.003692 0.021124 -0.004161 0.000000 0.000000 0.000000
# 3 -0.002388 -0.004161 0.012148 0.000000 0.000000 0.000000
# 4 0.000000 0.000000 0.000000 0.038976 0.000000 0.000000
# 5 0.000000 0.000000 0.000000 0.000000 0.031464 0.000000
# 6 0.000000 0.000000 0.000000 0.000000 0.000000 0.031370
#
#
# Mechanical properties :
#
#
# Convention : Reuss Voigt Hill
#
# Bulk Modulus (GPa) = 35.52530 37.44903 36.48716
# Shear Modulus (GPa) = 27.73090 28.67333 28.20212
#
# Velocity S-wave (km/s) = 3.84994 3.91481 3.88251
# Velocity P-wave (km/s) = 6.22502 6.36009 6.29291
#
# Compressibility (1/GPa) = 0.02814896
#
# Stress axis : x y z
#
# Youngs Moduli (GPa) = 65.11290 47.33872 82.31925
#
# Poissons Ratio (x) = 0.17479 0.19656
# Poissons Ratio (y) = 0.24041 0.34250
# Poissons Ratio (z) = 0.15547 0.19696
#
# Static dielectric constant tensor:
#      x y z
#    x 3.367520 0.000000 0.000000 
#    y 0.000000 3.268680 0.000000 
#    z 0.000000 0.000000 3.674150 
# 
# 
# High freq. dielectric constant tensor:
#      x y z
#    x 1.722050 0.000000 0.000000 
#    y 0.000000 1.716260 0.000000 
#    z 0.000000 0.000000 1.734770 
# 
# From -- ./inp_files/19518.got.cif
#   From: 2010.03.12/outbox.cif.g09.slc.cpg/sg62_10_cif.got.tgz:19518.got - 2010.04.10 19:12:36.
