data_PCOD8252025
_publ_section_title
;
Structure prediction by ZEFSAII (Michael W. Deem and Ramdas Pophale) SiO2 
 PCOD8252025
Probable space group: P N M A
;
_chemical_formula_sum "Si O2"
_cell_formula_units_Z 48
_cell_length_a 13.608288
_cell_length_b 13.635630
_cell_length_c 13.401227
_cell_angle_alpha 90.000000
_cell_angle_beta 90.000000
_cell_angle_gamma 90.000000
_cell_volume 2486.699253
_symmetry_space_group_name_H-M "P N M A"
_symmetry_group_IT_number 62
_symmetry_cell_setting 'orthorhombic'
loop_
_space_group_symop_operation_xyz
x,y,z
1/2-x,-y,1/2+z
1/2+x,1/2-y,1/2-z
-x,1/2+y,-z
-x,-y,-z
1/2+x,y,1/2-z
1/2-x,1/2+y,1/2+z
x,1/2-y,z
loop_
_atom_site_type_symbol
_atom_site_label
_atom_site_fract_x
_atom_site_fract_y
_atom_site_fract_z
Si Si1 0.894070 0.859064 0.935474
Si Si2 0.878018 0.001615 0.257036
Si Si3 0.214135 0.547160 0.089814
Si Si4 0.751128 0.864076 0.618334
Si Si5 0.511135 0.637089 0.368678
Si Si6 0.542503 0.138922 0.211031
O O1 0.848124 0.750000 0.945843
O O2 0.945894 0.872652 0.829603
O O3 0.805482 0.936177 0.948794
O O4 0.978882 0.876542 0.016556
O O5 0.828124 0.071973 0.176208
O O6 0.954573 0.066925 0.321592
O O7 0.801067 0.952080 0.330902
O O8 0.932258 0.912530 0.203080
O O9 0.116889 0.587244 0.144410
O O10 0.244502 0.617058 0.999247
O O11 0.729884 0.750000 0.640865
O O12 0.858727 0.894684 0.655912
O O13 0.518239 0.750000 0.337700
O O14 0.515542 0.250000 0.181274
#
# Coordination Sequence:
#
# PCOD8252025 Si02
#       6
#     8   8   8   8   8   8
#     4  10  19  36  62  89 117 148 194 253 296 349
#     4  12  22  38  64  88 119 162 199 252 300 356
#     4  12  23  39  62  89 124 154 203 249 305 354
#     4  11  23  39  62  92 123 159 202 248 302 359
#     4  11  23  39  59  86 119 157 203 249 300 359
#     4  10  21  38  60  91 122 151 199 253 301 354
#
# _framework density 19.302696000000001
#
# number of rings (size 3 to 8) (size 9 to 14) (size 15 to 20)
#    0.000    1.000    5.000    2.500    0.000    4.000 
#    0.000    0.000    0.000    0.000    0.000    0.000 
#    0.000    0.000    0.000    0.000    0.000    0.000 
#
# Total GULP energy -595443.217774 kJ/mol
# GULP energy per Si atom -12405.067037 kJ/mol
# Density = 1.925876 g / cm^3
# Si number density = 19.302696 Si / 1000 Ang^3
#
#
#
# Elastic Constant Matrix: (Units=GPa)
#
#
# Indices 1 2 3 4 5 6 
#
# 1 134.1675 67.3764 51.2441 0.0000 0.0000 0.0000
# 2 67.3764 119.0540 31.0574 0.0000 0.0000 0.0000
# 3 51.2441 31.0574 49.8319 0.0000 0.0000 0.0000
# 4 0.0000 0.0000 0.0000 27.2051 0.0000 0.0000
# 5 0.0000 0.0000 0.0000 0.0000 25.9584 0.0000
# 6 0.0000 0.0000 0.0000 0.0000 0.0000 24.5776
#
#
#
# Elastic Compliance Matrix: (Units=1/GPa)
#
#
# Indices 1 2 3 4 5 6 
#
# 1 0.014519 -0.005161 -0.011714 0.000000 0.000000 0.000000
# 2 -0.005161 0.011865 -0.002087 0.000000 0.000000 0.000000
# 3 -0.011714 -0.002087 0.033415 0.000000 0.000000 0.000000
# 4 0.000000 0.000000 0.000000 0.036758 0.000000 0.000000
# 5 0.000000 0.000000 0.000000 0.000000 0.038523 0.000000
# 6 0.000000 0.000000 0.000000 0.000000 0.000000 0.040687
#
#
# Mechanical properties :
#
#
# Convention : Reuss Voigt Hill
#
# Bulk Modulus (GPa) = 45.71737 66.93435 56.32586
# Shear Modulus (GPa) = 22.62610 25.77324 24.19967
#
# Velocity S-wave (km/s) = 3.42742 3.65802 3.54460
# Velocity P-wave (km/s) = 6.27684 7.25210 6.78202
#
# Compressibility (1/GPa) = 0.02187352
#
# Stress axis : x y z
#
# Youngs Moduli (GPa) = 68.87390 84.28230 29.92705
#
# Poissons Ratio (x) = 0.43499 0.35057
# Poissons Ratio (y) = 0.35546 0.06247
# Poissons Ratio (z) = 0.80680 0.17593
#
# Static dielectric constant tensor:
#      x y z
#    x 3.516080 0.000000 0.000000 
#    y 0.000000 3.776040 0.000000 
#    z 0.000000 0.000000 3.339600 
# 
# 
# High freq. dielectric constant tensor:
#      x y z
#    x 1.750460 0.000000 0.000000 
#    y 0.000000 1.767540 0.000000 
#    z 0.000000 0.000000 1.730870 
# 
# From -- ./inp_files/13309.got.cif
#   From: 2010.03.12/outbox.cif.g09.slc.cpg/sg62_7_cif.got.tgz:13309.got - 2010.04.10 19:12:36.
