data_PCOD8252502
_publ_section_title
;
Structure prediction by ZEFSAII (Michael W. Deem and Ramdas Pophale) SiO2 
 PCOD8252502
Probable space group: P N M A
;
_chemical_formula_sum "Si O2"
_cell_formula_units_Z 40
_cell_length_a 19.057298
_cell_length_b 13.723303
_cell_length_c 8.655810
_cell_angle_alpha 90.000000
_cell_angle_beta 90.000000
_cell_angle_gamma 90.000000
_cell_volume 2263.745981
_symmetry_space_group_name_H-M "P N M A"
_symmetry_group_IT_number 62
_symmetry_cell_setting 'orthorhombic'
loop_
_space_group_symop_operation_xyz
x,y,z
1/2-x,-y,1/2+z
1/2+x,1/2-y,1/2-z
-x,1/2+y,-z
-x,-y,-z
1/2+x,y,1/2-z
1/2-x,1/2+y,1/2+z
x,1/2-y,z
loop_
_atom_site_type_symbol
_atom_site_label
_atom_site_fract_x
_atom_site_fract_y
_atom_site_fract_z
Si Si1 0.250572 0.250000 0.686491
Si Si2 0.517418 0.750000 0.187731
Si Si3 0.123405 0.114512 0.180574
Si Si4 0.882233 0.750000 0.098380
Si Si5 0.516663 0.250000 0.167910
Si Si6 0.728862 0.250000 0.166021
Si Si7 0.114118 0.750000 0.882380
Si Si8 0.123605 0.615269 0.162369
O O1 0.215295 0.250000 0.517461
O O2 0.299461 0.345245 0.709312
O O3 0.190361 0.250000 0.811336
O O4 0.448208 0.750000 0.290592
O O5 0.563991 0.845693 0.221449
O O6 0.493293 0.750000 0.013124
O O7 0.115001 0.153827 0.006909
O O8 0.195114 0.153539 0.257783
O O9 0.058708 0.152995 0.283487
O O10 0.124016 0.999588 0.172252
O O11 0.441793 0.250000 0.248301
O O12 0.811167 0.250000 0.203309
O O13 0.105945 0.654065 0.989897
#
# Coordination Sequence:
#
# PCOD8252502 Si02
#       8
#     4   4   8   4   4   4   4   8
#     4   9  19  36  54  76 108 138 168 214 261 305
#     4  10  21  37  54  76 106 138 174 217 261 306
#     4  10  20  35  55  78 104 138 176 212 256 311
#     4  10  20  34  55  78 105 138 173 212 258 310
#     4  10  21  35  54  78 106 138 174 217 261 304
#     4   8  18  35  53  74 108 138 169 217 260 302
#     4   9  19  37  54  76 107 138 170 213 261 307
#     4   9  20  37  55  76 105 139 174 212 258 310
#
# _framework density 17.669827000000002
#
# number of rings (size 3 to 8) (size 9 to 14) (size 15 to 20)
#    0.000    3.200    0.000    3.600    0.000   10.400 
#    0.000    2.000    0.000    0.000    0.000    0.000 
#    0.000    0.000    0.000    0.000    0.000    0.000 
#
# Total GULP energy -495873.432503 kJ/mol
# GULP energy per Si atom -12396.835813 kJ/mol
# Density = 1.762961 g / cm^3
# Si number density = 17.669827 Si / 1000 Ang^3
#
#
#
# Elastic Constant Matrix: (Units=GPa)
#
#
# Indices 1 2 3 4 5 6 
#
# 1 131.7473 61.9707 80.8954 0.0000 0.0000 0.0000
# 2 61.9707 194.8525 63.6691 0.0000 0.0000 0.0000
# 3 80.8954 63.6691 134.9647 0.0000 0.0000 0.0000
# 4 0.0000 0.0000 0.0000 10.0096 0.0000 0.0000
# 5 0.0000 0.0000 0.0000 0.0000 47.4476 0.0000
# 6 0.0000 0.0000 0.0000 0.0000 0.0000 11.0300
#
#
#
# Elastic Compliance Matrix: (Units=1/GPa)
#
#
# Indices 1 2 3 4 5 6 
#
# 1 0.012528 -0.001810 -0.006655 0.000000 0.000000 0.000000
# 2 -0.001810 0.006329 -0.001901 0.000000 0.000000 0.000000
# 3 -0.006655 -0.001901 0.012295 0.000000 0.000000 0.000000
# 4 0.000000 0.000000 0.000000 0.099904 0.000000 0.000000
# 5 0.000000 0.000000 0.000000 0.000000 0.021076 0.000000
# 6 0.000000 0.000000 0.000000 0.000000 0.000000 0.090662
#
#
# Mechanical properties :
#
#
# Convention : Reuss Voigt Hill
#
# Bulk Modulus (GPa) = 95.96831 97.18166 96.57499
# Shear Modulus (GPa) = 18.72667 30.69940 24.71303
#
# Velocity S-wave (km/s) = 3.25901 4.17272 3.74384
# Velocity P-wave (km/s) = 8.28199 8.85062 8.57102
#
# Compressibility (1/GPa) = 0.01042011
#
# Stress axis : x y z
#
# Youngs Moduli (GPa) = 79.82072 158.00869 81.33270
#
# Poissons Ratio (x) = 0.28595 0.54130
# Poissons Ratio (y) = 0.14445 0.15460
# Poissons Ratio (z) = 0.53124 0.30035
#
# Static dielectric constant tensor:
#      x y z
#    x 3.441450 0.000000 0.000000 
#    y 0.000000 3.072600 0.000000 
#    z 0.000000 0.000000 3.254740 
# 
# 
# High freq. dielectric constant tensor:
#      x y z
#    x 1.700700 0.000000 0.000000 
#    y 0.000000 1.665540 0.000000 
#    z 0.000000 0.000000 1.684040 
# 
# From -- ./inp_files/7525.got.cif
#   From: 2010.03.12/outbox.cif.g09.slc.cpg/sg62_4_cif.got.tgz:7525.got - 2010.04.10 19:12:36.
