data_PCOD8252591
_publ_section_title
;
Structure prediction by ZEFSAII (Michael W. Deem and Ramdas Pophale) SiO2 
 PCOD8252591
Probable space group: P N M A
;
_chemical_formula_sum "Si O2"
_cell_formula_units_Z 40
_cell_length_a 21.119649
_cell_length_b 9.108906
_cell_length_c 10.220064
_cell_angle_alpha 90.000000
_cell_angle_beta 90.000000
_cell_angle_gamma 90.000000
_cell_volume 1966.104205
_symmetry_space_group_name_H-M "P N M A"
_symmetry_group_IT_number 62
_symmetry_cell_setting 'orthorhombic'
loop_
_space_group_symop_operation_xyz
x,y,z
1/2-x,-y,1/2+z
1/2+x,1/2-y,1/2-z
-x,1/2+y,-z
-x,-y,-z
1/2+x,y,1/2-z
1/2-x,1/2+y,1/2+z
x,1/2-y,z
loop_
_atom_site_type_symbol
_atom_site_label
_atom_site_fract_x
_atom_site_fract_y
_atom_site_fract_z
Si Si1 0.960528 0.919412 0.312792
Si Si2 0.697346 0.920991 0.464922
Si Si3 0.281619 0.921852 0.796729
Si Si4 0.081080 0.081384 0.398952
Si Si5 0.439086 0.078023 0.440452
O O1 0.963643 0.750000 0.270865
O O2 0.921934 0.943841 0.445629
O O3 0.924597 0.012161 0.202364
O O4 0.032243 0.976529 0.325116
O O5 0.711867 0.750000 0.449053
O O6 0.729714 0.977873 0.598954
O O7 0.622262 0.953697 0.470197
O O8 0.729206 0.000048 0.341695
O O9 0.275151 0.750000 0.771932
O O10 0.349884 0.964745 0.853029
O O11 0.064723 0.250000 0.364507
O O12 0.452535 0.250000 0.428414
O O13 0.500000 0.000000 0.500000
#
# Coordination Sequence:
#
# PCOD8252591 Si02
#       5
#     8   8   8   8   8
#     4  10  20  34  57  89 118 152 196 242 295 349
#     4  10  24  42  61  89 122 156 199 248 297 354
#     4  10  22  41  62  86 118 156 199 243 294 355
#     4   9  19  36  58  84 118 156 194 240 291 351
#     4  11  23  39  59  85 119 155 198 248 297 352
#
# _framework density 20.344801
#
# number of rings (size 3 to 8) (size 9 to 14) (size 15 to 20)
#    0.000    2.000    0.000    2.400    2.800    7.200 
#    0.000    0.000    0.000    0.000    0.000    0.000 
#    0.000    0.000    0.000    0.000    0.000    0.000 
#
# Total GULP energy -496167.123207 kJ/mol
# GULP energy per Si atom -12404.178080 kJ/mol
# Density = 2.029850 g / cm^3
# Si number density = 20.344801 Si / 1000 Ang^3
#
#
#
# Elastic Constant Matrix: (Units=GPa)
#
#
# Indices 1 2 3 4 5 6 
#
# 1 79.8682 41.4486 52.6016 0.0000 0.0000 0.0000
# 2 41.4486 84.5804 56.8672 0.0000 0.0000 0.0000
# 3 52.6016 56.8672 134.9069 0.0000 0.0000 0.0000
# 4 0.0000 0.0000 0.0000 42.3218 0.0000 0.0000
# 5 0.0000 0.0000 0.0000 0.0000 32.3624 0.0000
# 6 0.0000 0.0000 0.0000 0.0000 0.0000 26.3484
#
#
#
# Elastic Compliance Matrix: (Units=1/GPa)
#
#
# Indices 1 2 3 4 5 6 
#
# 1 0.018787 -0.005975 -0.004807 0.000000 0.000000 0.000000
# 2 -0.005975 0.018399 -0.005426 0.000000 0.000000 0.000000
# 3 -0.004807 -0.005426 0.011574 0.000000 0.000000 0.000000
# 4 0.000000 0.000000 0.000000 0.023628 0.000000 0.000000
# 5 0.000000 0.000000 0.000000 0.000000 0.030900 0.000000
# 6 0.000000 0.000000 0.000000 0.000000 0.000000 0.037953
#
#
# Mechanical properties :
#
#
# Convention : Reuss Voigt Hill
#
# Bulk Modulus (GPa) = 61.18114 66.79892 63.99003
# Shear Modulus (GPa) = 27.91649 30.10239 29.00944
#
# Velocity S-wave (km/s) = 3.70830 3.85074 3.78019
# Velocity P-wave (km/s) = 6.96223 7.25780 7.11155
#
# Compressibility (1/GPa) = 0.01634491
#
# Stress axis : x y z
#
# Youngs Moduli (GPa) = 53.22817 54.34997 86.40054
#
# Poissons Ratio (x) = 0.32473 0.41530
# Poissons Ratio (y) = 0.31803 0.46883
# Poissons Ratio (z) = 0.25585 0.29491
#
# Static dielectric constant tensor:
#      x y z
#    x 3.615060 0.000000 0.000000 
#    y 0.000000 3.633030 0.000000 
#    z 0.000000 0.000000 3.852550 
# 
# 
# High freq. dielectric constant tensor:
#      x y z
#    x 1.792740 0.000000 0.000000 
#    y 0.000000 1.791210 0.000000 
#    z 0.000000 0.000000 1.807160 
# 
# From -- ./inp_files/9114.got.cif
#   From: 2010.03.12/outbox.cif.g09.slc.cpg/sg62_5_cif.got.tgz:9114.got - 2010.04.10 19:12:36.
