data_PCOD8252594
_publ_section_title
;
Structure prediction by ZEFSAII (Michael W. Deem and Ramdas Pophale) SiO2 
 PCOD8252594
Probable space group: P N M A
;
_chemical_formula_sum "Si O2"
_cell_formula_units_Z 56
_cell_length_a 15.824181
_cell_length_b 8.993857
_cell_length_c 19.110579
_cell_angle_alpha 90.000000
_cell_angle_beta 90.000000
_cell_angle_gamma 90.000000
_cell_volume 2719.825650
_symmetry_space_group_name_H-M "P N M A"
_symmetry_group_IT_number 62
_symmetry_cell_setting 'orthorhombic'
loop_
_space_group_symop_operation_xyz
x,y,z
1/2-x,-y,1/2+z
1/2+x,1/2-y,1/2-z
-x,1/2+y,-z
-x,-y,-z
1/2+x,y,1/2-z
1/2-x,1/2+y,1/2+z
x,1/2-y,z
loop_
_atom_site_type_symbol
_atom_site_label
_atom_site_fract_x
_atom_site_fract_y
_atom_site_fract_z
Si Si1 0.736965 0.078227 0.578481
Si Si2 0.271225 0.427745 0.275644
Si Si3 0.038735 0.924885 0.749965
Si Si4 0.414547 0.919794 0.517059
Si Si5 0.007539 0.417714 0.610142
Si Si6 0.125451 0.426064 0.169553
Si Si7 0.121495 0.418815 0.486160
O O1 0.764703 0.250000 0.581391
O O2 0.640923 0.061977 0.552862
O O3 0.757842 0.001867 0.652154
O O4 0.785507 0.986630 0.518384
O O5 0.268885 0.250000 0.282799
O O6 0.366926 0.488496 0.263728
O O7 0.206545 0.484335 0.214721
O O8 0.043481 0.750000 0.755916
O O9 0.965148 0.986679 0.801272
O O10 0.011671 0.968345 0.672797
O O11 0.437157 0.750000 0.531977
O O12 0.369251 0.979994 0.588512
O O13 0.500000 0.000000 0.500000
O O14 0.989801 0.250000 0.636540
O O15 0.094921 0.424146 0.567110
O O16 0.933315 0.469078 0.559875
O O17 0.127674 0.250000 0.176311
O O18 0.115952 0.250000 0.457363
#
# Coordination Sequence:
#
# PCOD8252594 Si02
#       7
#     8   8   8   8   8   8   8
#     4  11  23  37  59  88 119 153 194 254 311 354
#     4  10  21  37  60  85 115 161 207 246 296 361
#     4  10  20  34  58  84 111 154 201 243 294 355
#     4  10  22  40  62  87 118 156 202 252 302 358
#     4  10  21  36  56  84 117 151 188 239 298 353
#     4   9  19  37  58  84 115 152 203 250 288 350
#     4  10  21  37  57  82 114 153 194 235 288 362
#
# _framework density 20.589555000000001
#
# number of rings (size 3 to 8) (size 9 to 14) (size 15 to 20)
#    0.000    2.000    0.000    3.000    2.000    5.714 
#    0.000    1.429    0.000    0.000    0.000    0.000 
#    0.000    0.000    0.000    0.000    0.000    0.000 
#
# Total GULP energy -694126.969411 kJ/mol
# GULP energy per Si atom -12395.124454 kJ/mol
# Density = 2.054269 g / cm^3
# Si number density = 20.589555 Si / 1000 Ang^3
#
#
#
# Elastic Constant Matrix: (Units=GPa)
#
#
# Indices 1 2 3 4 5 6 
#
# 1 93.1602 19.5122 27.8886 0.0000 0.0000 0.0000
# 2 19.5122 26.8497 15.6959 0.0000 0.0000 0.0000
# 3 27.8886 15.6959 103.3112 0.0000 0.0000 0.0000
# 4 0.0000 0.0000 0.0000 22.7227 0.0000 0.0000
# 5 0.0000 0.0000 0.0000 0.0000 28.3876 0.0000
# 6 0.0000 0.0000 0.0000 0.0000 0.0000 25.9670
#
#
#
# Elastic Compliance Matrix: (Units=1/GPa)
#
#
# Indices 1 2 3 4 5 6 
#
# 1 0.013142 -0.008205 -0.002301 0.000000 0.000000 0.000000
# 2 -0.008205 0.045998 -0.004773 0.000000 0.000000 0.000000
# 3 -0.002301 -0.004773 0.011026 0.000000 0.000000 0.000000
# 4 0.000000 0.000000 0.000000 0.044009 0.000000 0.000000
# 5 0.000000 0.000000 0.000000 0.000000 0.035227 0.000000
# 6 0.000000 0.000000 0.000000 0.000000 0.000000 0.038510
#
#
# Mechanical properties :
#
#
# Convention : Reuss Voigt Hill
#
# Bulk Modulus (GPa) = 25.24863 38.83496 32.04179
# Shear Modulus (GPa) = 21.58224 26.09709 23.83966
#
# Velocity S-wave (km/s) = 3.24112 3.56405 3.40641
# Velocity P-wave (km/s) = 5.12796 5.98657 5.57382
#
# Compressibility (1/GPa) = 0.03960611
#
# Stress axis : x y z
#
# Youngs Moduli (GPa) = 76.09449 21.74024 90.69609
#
# Poissons Ratio (x) = 0.17838 0.20869
# Poissons Ratio (y) = 0.62437 0.43293
# Poissons Ratio (z) = 0.17509 0.10377
#
# Static dielectric constant tensor:
#      x y z
#    x 4.056950 0.000000 0.000000 
#    y 0.000000 3.496330 0.000000 
#    z 0.000000 0.000000 3.933830 
# 
# 
# High freq. dielectric constant tensor:
#      x y z
#    x 1.814380 0.000000 0.000000 
#    y 0.000000 1.783670 0.000000 
#    z 0.000000 0.000000 1.806260 
# 
# From -- ./inp_files/27238.got.cif
#   From: 2010.03.12/outbox.cif.g09.slc.cpg/sg62_14_cif.got.tgz:27238.got - 2010.04.10 19:12:36.
