data_PCOD8252468
_publ_section_title
;
Structure prediction by ZEFSAII (Michael W. Deem and Ramdas Pophale) SiO2 
 PCOD8252468
Probable space group: P N M A
;
_chemical_formula_sum "Si O2"
_cell_formula_units_Z 40
_cell_length_a 9.000522
_cell_length_b 9.179549
_cell_length_c 25.388517
_cell_angle_alpha 90.000000
_cell_angle_beta 90.000000
_cell_angle_gamma 90.000000
_cell_volume 2097.617877
_symmetry_space_group_name_H-M "P N M A"
_symmetry_group_IT_number 62
_symmetry_cell_setting 'orthorhombic'
loop_
_space_group_symop_operation_xyz
x,y,z
1/2-x,-y,1/2+z
1/2+x,1/2-y,1/2-z
-x,1/2+y,-z
-x,-y,-z
1/2+x,y,1/2-z
1/2-x,1/2+y,1/2+z
x,1/2-y,z
loop_
_atom_site_type_symbol
_atom_site_label
_atom_site_fract_x
_atom_site_fract_y
_atom_site_fract_z
Si Si1 0.213990 0.078977 0.292167
Si Si2 0.849968 0.080516 0.014266
Si Si3 0.627139 0.422102 0.614530
Si Si4 0.285141 0.084256 0.599596
Si Si5 0.878489 0.419199 0.312899
O O1 0.239794 0.250000 0.303797
O O2 0.265195 0.038075 0.233398
O O3 0.043370 0.031440 0.296879
O O4 0.311316 0.982881 0.331194
O O5 0.880576 0.250000 0.026496
O O6 0.784352 0.001302 0.066242
O O7 0.745364 0.064644 0.962583
O O8 0.000000 0.000000 0.000000
O O9 0.652937 0.250000 0.610209
O O10 0.453928 0.465134 0.611339
O O11 0.266109 0.250000 0.617133
O O12 0.168098 0.992963 0.632770
O O13 0.874998 0.250000 0.324256
#
# Coordination Sequence:
#
# PCOD8252468 Si02
#       5
#     8   8   8   8   8
#     4  10  21  37  55  78 105 136 175 219 265 316
#     4   9  17  31  52  79 109 141 177 218 260 309
#     4  10  20  34  54  81 108 140 179 218 262 312
#     4   9  19  34  53  79 109 138 173 214 259 308
#     4  10  21  36  56  79 104 137 177 217 265 319
#
# _framework density 19.06925
#
# number of rings (size 3 to 8) (size 9 to 14) (size 15 to 20)
#    0.000    2.400    0.000    3.600    0.000    8.000 
#    0.000    1.000    0.000    0.000    0.000    0.000 
#    0.000    0.000    0.000    0.000    0.000    0.000 
#
# Total GULP energy -495916.622154 kJ/mol
# GULP energy per Si atom -12397.915554 kJ/mol
# Density = 1.902585 g / cm^3
# Si number density = 19.069250 Si / 1000 Ang^3
#
#
#
# Elastic Constant Matrix: (Units=GPa)
#
#
# Indices 1 2 3 4 5 6 
#
# 1 36.6639 7.5357 -10.0984 0.0000 0.0000 0.0000
# 2 7.5357 61.7789 20.8442 0.0000 0.0000 0.0000
# 3 -10.0984 20.8442 46.9178 0.0000 0.0000 0.0000
# 4 0.0000 0.0000 0.0000 40.4215 0.0000 0.0000
# 5 0.0000 0.0000 0.0000 0.0000 26.7106 0.0000
# 6 0.0000 0.0000 0.0000 0.0000 0.0000 26.5431
#
#
#
# Elastic Compliance Matrix: (Units=1/GPa)
#
#
# Indices 1 2 3 4 5 6 
#
# 1 0.031508 -0.007212 0.009986 0.000000 0.000000 0.000000
# 2 -0.007212 0.020692 -0.010745 0.000000 0.000000 0.000000
# 3 0.009986 -0.010745 0.028237 0.000000 0.000000 0.000000
# 4 0.000000 0.000000 0.000000 0.024739 0.000000 0.000000
# 5 0.000000 0.000000 0.000000 0.000000 0.037438 0.000000
# 6 0.000000 0.000000 0.000000 0.000000 0.000000 0.037675
#
#
# Mechanical properties :
#
#
# Convention : Reuss Voigt Hill
#
# Bulk Modulus (GPa) = 15.50560 20.21374 17.85967
# Shear Modulus (GPa) = 22.96422 27.20698 25.08560
#
# Velocity S-wave (km/s) = 3.47400 3.78133 3.63092
# Velocity P-wave (km/s) = 4.92346 5.44865 5.19270
#
# Compressibility (1/GPa) = 0.06449284
#
# Stress axis : x y z
#
# Youngs Moduli (GPa) = 31.73839 48.32791 35.41455
#
# Poissons Ratio (x) = 0.34856 -0.35364
# Poissons Ratio (y) = 0.22891 0.38054
# Poissons Ratio (z) = -0.31693 0.51929
#
# Static dielectric constant tensor:
#      x y z
#    x 3.403540 0.000000 0.000000 
#    y 0.000000 3.515790 0.000000 
#    z 0.000000 0.000000 4.185110 
# 
# 
# High freq. dielectric constant tensor:
#      x y z
#    x 1.709710 0.000000 0.000000 
#    y 0.000000 1.743580 0.000000 
#    z 0.000000 0.000000 1.758480 
# 
# From -- ./inp_files/28561.got.cif
#   From: 2010.03.12/outbox.cif.g09.slc.cpg/sg62_15_cif.got.tgz:28561.got - 2010.04.10 19:12:36.
