data_PCOD8252177
_publ_section_title
;
Structure prediction by ZEFSAII (Michael W. Deem and Ramdas Pophale) SiO2 
 PCOD8252177
Probable space group: P N M A
;
_chemical_formula_sum "Si O2"
_cell_formula_units_Z 28
_cell_length_a 12.444876
_cell_length_b 7.249455
_cell_length_c 13.370744
_cell_angle_alpha 90.000000
_cell_angle_beta 90.000000
_cell_angle_gamma 90.000000
_cell_volume 1206.289384
_symmetry_space_group_name_H-M "P N M A"
_symmetry_group_IT_number 62
_symmetry_cell_setting 'orthorhombic'
loop_
_space_group_symop_operation_xyz
x,y,z
1/2-x,-y,1/2+z
1/2+x,1/2-y,1/2-z
-x,1/2+y,-z
-x,-y,-z
1/2+x,y,1/2-z
1/2-x,1/2+y,1/2+z
x,1/2-y,z
loop_
_atom_site_type_symbol
_atom_site_label
_atom_site_fract_x
_atom_site_fract_y
_atom_site_fract_z
Si Si1 0.778048 0.750000 0.488467
Si Si2 0.794775 0.750000 0.710769
Si Si3 0.076273 0.537509 0.592847
Si Si4 0.418712 0.250000 0.387408
Si Si5 0.052419 0.541282 0.211357
O O1 0.840206 0.750000 0.596350
O O2 0.811220 0.568345 0.426912
O O3 0.648586 0.750000 0.508578
O O4 0.665224 0.750000 0.707380
O O5 0.836968 0.565791 0.765197
O O6 0.105968 0.750000 0.604980
O O7 0.021945 0.455685 0.691260
O O8 0.000000 0.500000 0.500000
O O9 0.490452 0.434465 0.378163
O O10 0.079234 0.750000 0.177718
#
# Coordination Sequence:
#
# PCOD8252177 Si02
#       5
#     4   4   8   4   8
#     4  10  20  30  48  70 110 134 159 203 252 311
#     4   9  19  34  47  73 111 135 163 211 251 307
#     4  12  17  27  48  77 103 129 162 205 258 309
#     4   9  21  36  43  75 115 139 164 210 253 316
#     4  11  19  31  53  75 104 141 172 206 257 311
#
# _framework density 23.211677999999999
#
# number of rings (size 3 to 8) (size 9 to 14) (size 15 to 20)
#    0.857    0.571    8.571    0.000    0.000    2.286 
#    0.000    0.000    0.000    0.000    0.000    8.000 
#    0.000    0.000    0.000    0.000    0.000    0.000 
#
# Total GULP energy -347082.200379 kJ/mol
# GULP energy per Si atom -12395.792871 kJ/mol
# Density = 2.315885 g / cm^3
# Si number density = 23.211678 Si / 1000 Ang^3
#
#
#
# Elastic Constant Matrix: (Units=GPa)
#
#
# Indices 1 2 3 4 5 6 
#
# 1 29.4148 22.9263 -13.3648 0.0000 0.0000 0.0000
# 2 22.9263 198.9493 -3.4895 0.0000 0.0000 0.0000
# 3 -13.3648 -3.4895 31.9485 0.0000 0.0000 0.0000
# 4 0.0000 0.0000 0.0000 9.3704 0.0000 0.0000
# 5 0.0000 0.0000 0.0000 0.0000 37.9467 0.0000
# 6 0.0000 0.0000 0.0000 0.0000 0.0000 22.8946
#
#
#
# Elastic Compliance Matrix: (Units=1/GPa)
#
#
# Indices 1 2 3 4 5 6 
#
# 1 0.046504 -0.005027 0.018905 0.000000 0.000000 0.000000
# 2 -0.005027 0.005580 -0.001494 0.000000 0.000000 0.000000
# 3 0.018905 -0.001494 0.039046 0.000000 0.000000 0.000000
# 4 0.000000 0.000000 0.000000 0.106718 0.000000 0.000000
# 5 0.000000 0.000000 0.000000 0.000000 0.026353 0.000000
# 6 0.000000 0.000000 0.000000 0.000000 0.000000 0.043678
#
#
# Mechanical properties :
#
#
# Convention : Reuss Voigt Hill
#
# Bulk Modulus (GPa) = 8.62835 30.27295 19.45065
# Shear Modulus (GPa) = 17.74659 30.99171 24.36915
#
# Velocity S-wave (km/s) = 2.76806 3.65797 3.24368
# Velocity P-wave (km/s) = 3.73383 5.55981 4.73566
#
# Compressibility (1/GPa) = 0.11589699
#
# Stress axis : x y z
#
# Youngs Moduli (GPa) = 21.50333 179.22578 25.61107
#
# Poissons Ratio (x) = 0.90105 -0.48417
# Poissons Ratio (y) = 0.10811 0.03826
# Poissons Ratio (z) = -0.40652 0.26771
#
# Static dielectric constant tensor:
#      x y z
#    x 3.950430 0.000000 0.000000 
#    y 0.000000 4.270590 0.000000 
#    z 0.000000 0.000000 3.960110 
# 
# 
# High freq. dielectric constant tensor:
#      x y z
#    x 1.907090 0.000000 0.000000 
#    y 0.000000 1.916630 0.000000 
#    z 0.000000 0.000000 1.909870 
# 
# From -- ./inp_files/18415.got.cif
#   From: 2010.03.12/outbox.cif.g09.slc.cpg/sg62_10_cif.got.tgz:18415.got - 2010.04.10 19:12:36.
