data_PCOD8252718
_publ_section_title
;
Structure prediction by ZEFSAII (Michael W. Deem and Ramdas Pophale) SiO2 
 PCOD8252718
Probable space group: P N M A
;
_chemical_formula_sum "Si O2"
_cell_formula_units_Z 48
_cell_length_a 29.480410
_cell_length_b 9.036692
_cell_length_c 9.461837
_cell_angle_alpha 90.000000
_cell_angle_beta 90.000000
_cell_angle_gamma 90.000000
_cell_volume 2520.684331
_symmetry_space_group_name_H-M "P N M A"
_symmetry_group_IT_number 62
_symmetry_cell_setting 'orthorhombic'
loop_
_space_group_symop_operation_xyz
x,y,z
1/2-x,-y,1/2+z
1/2+x,1/2-y,1/2-z
-x,1/2+y,-z
-x,-y,-z
1/2+x,y,1/2-z
1/2-x,1/2+y,1/2+z
x,1/2-y,z
loop_
_atom_site_type_symbol
_atom_site_label
_atom_site_fract_x
_atom_site_fract_y
_atom_site_fract_z
Si Si1 0.724896 0.420447 0.393165
Si Si2 0.126961 0.418603 0.198591
Si Si3 0.199677 0.922260 0.831905
Si Si4 0.965379 0.077604 0.306391
Si Si5 0.444315 0.421784 0.874615
Si Si6 0.892137 0.921652 0.124468
O O1 0.721962 0.250000 0.442719
O O2 0.680346 0.456922 0.300125
O O3 0.726704 0.521759 0.531168
O O4 0.769587 0.453807 0.304100
O O5 0.118313 0.250000 0.245872
O O6 0.103415 0.527193 0.310110
O O7 0.106940 0.447111 0.042996
O O8 0.189175 0.750000 0.850450
O O9 0.152724 0.007000 0.807796
O O10 0.967748 0.250000 0.271479
O O11 0.942932 0.046076 0.458451
O O12 0.936450 0.998144 0.186558
O O13 0.015984 0.013841 0.299920
O O14 0.452604 0.250000 0.843797
O O15 0.892235 0.750000 0.164630
#
# Coordination Sequence:
#
# PCOD8252718 Si02
#       6
#     8   8   8   8   8   8
#     4   9  20  37  54  77 109 141 177 219 262 313
#     4   9  19  36  55  76 105 140 176 216 262 313
#     4  10  20  35  56  81 108 140 179 221 265 313
#     4  10  21  37  56  79 107 139 176 217 262 315
#     4  10  21  36  55  80 107 137 175 218 264 313
#     4  10  21  37  56  79 108 141 177 218 265 315
#
# _framework density 19.042448
#
# number of rings (size 3 to 8) (size 9 to 14) (size 15 to 20)
#    0.000    2.333    0.000    3.000    0.000    8.667 
#    0.000    3.333    0.000    0.000    0.000    0.000 
#    0.000    0.000    0.000    0.000    0.000    0.000 
#
# Total GULP energy -595413.572769 kJ/mol
# GULP energy per Si atom -12404.449433 kJ/mol
# Density = 1.899911 g / cm^3
# Si number density = 19.042448 Si / 1000 Ang^3
#
#
#
# Elastic Constant Matrix: (Units=GPa)
#
#
# Indices 1 2 3 4 5 6 
#
# 1 28.6977 14.6887 -1.7101 0.0000 0.0000 0.0000
# 2 14.6887 83.9898 14.1281 0.0000 0.0000 0.0000
# 3 -1.7101 14.1281 18.0534 0.0000 0.0000 0.0000
# 4 0.0000 0.0000 0.0000 31.0584 0.0000 0.0000
# 5 0.0000 0.0000 0.0000 0.0000 31.2796 0.0000
# 6 0.0000 0.0000 0.0000 0.0000 0.0000 37.4775
#
#
#
# Elastic Compliance Matrix: (Units=1/GPa)
#
#
# Indices 1 2 3 4 5 6 
#
# 1 0.039978 -0.008785 0.010662 0.000000 0.000000 0.000000
# 2 -0.008785 0.015642 -0.013073 0.000000 0.000000 0.000000
# 3 0.010662 -0.013073 0.066632 0.000000 0.000000 0.000000
# 4 0.000000 0.000000 0.000000 0.032197 0.000000 0.000000
# 5 0.000000 0.000000 0.000000 0.000000 0.031970 0.000000
# 6 0.000000 0.000000 0.000000 0.000000 0.000000 0.026683
#
#
# Mechanical properties :
#
#
# Convention : Reuss Voigt Hill
#
# Bulk Modulus (GPa) = 10.01412 20.55047 15.28230
# Shear Modulus (GPa) = 18.60263 26.87207 22.73735
#
# Velocity S-wave (km/s) = 3.12894 3.76063 3.45923
# Velocity P-wave (km/s) = 4.28064 5.44718 4.89876
#
# Compressibility (1/GPa) = 0.09985898
#
# Stress axis : x y z
#
# Youngs Moduli (GPa) = 25.01386 63.93211 15.00789
#
# Poissons Ratio (x) = 0.56165 -0.16001
# Poissons Ratio (y) = 0.21975 0.19620
# Poissons Ratio (z) = -0.26669 0.83577
#
# Static dielectric constant tensor:
#      x y z
#    x 3.432950 0.000000 0.000000 
#    y 0.000000 3.548160 0.000000 
#    z 0.000000 0.000000 3.325090 
# 
# 
# High freq. dielectric constant tensor:
#      x y z
#    x 1.743920 0.000000 0.000000 
#    y 0.000000 1.750860 0.000000 
#    z 0.000000 0.000000 1.729870 
# 
# From -- ./inp_files/10175.got.cif
#   From: 2010.03.12/outbox.cif.g09.slc.cpg/sg62_6_cif.got.tgz:10175.got - 2010.04.10 19:12:36.
