data_PCOD8252596
_publ_section_title
;
Structure prediction by ZEFSAII (Michael W. Deem and Ramdas Pophale) SiO2 
 PCOD8252596
Probable space group: P N M A
;
_chemical_formula_sum "Si O2"
_cell_formula_units_Z 56
_cell_length_a 15.126723
_cell_length_b 8.906185
_cell_length_c 21.353223
_cell_angle_alpha 90.000000
_cell_angle_beta 90.000000
_cell_angle_gamma 90.000000
_cell_volume 2876.735958
_symmetry_space_group_name_H-M "P N M A"
_symmetry_group_IT_number 62
_symmetry_cell_setting 'orthorhombic'
loop_
_space_group_symop_operation_xyz
x,y,z
1/2-x,-y,1/2+z
1/2+x,1/2-y,1/2-z
-x,1/2+y,-z
-x,-y,-z
1/2+x,y,1/2-z
1/2-x,1/2+y,1/2+z
x,1/2-y,z
loop_
_atom_site_type_symbol
_atom_site_label
_atom_site_fract_x
_atom_site_fract_y
_atom_site_fract_z
Si Si1 0.442743 0.428360 0.684837
Si Si2 0.875358 0.922025 0.529367
Si Si3 0.278144 0.427273 0.769315
Si Si4 0.518935 0.929412 0.567620
Si Si5 0.092053 0.072504 0.722529
Si Si6 0.213311 0.577520 0.892783
Si Si7 0.969542 0.926950 0.407321
O O1 0.436738 0.250000 0.673770
O O2 0.361603 0.484687 0.728604
O O3 0.445571 0.510193 0.617190
O O4 0.531871 0.480950 0.719844
O O5 0.904815 0.750000 0.537015
O O6 0.771735 0.943087 0.544065
O O7 0.897286 0.977373 0.459112
O O8 0.932638 0.017535 0.577813
O O9 0.284687 0.250000 0.777783
O O10 0.191982 0.480072 0.731624
O O11 0.268200 0.494405 0.838537
O O12 0.514276 0.750000 0.562429
O O13 0.615774 0.985452 0.591554
O O14 0.500000 0.000000 0.500000
O O15 0.085507 0.250000 0.718015
O O16 0.058720 0.998627 0.658169
O O17 0.205857 0.750000 0.872729
O O18 0.973089 0.750000 0.400697
#
# Coordination Sequence:
#
# PCOD8252596 Si02
#       7
#     8   8   8   8   8   8   8
#     4  10  20  36  58  85 115 148 191 239 289 347
#     4   9  18  32  51  76 107 140 176 222 271 327
#     4  10  20  34  58  85 109 145 189 234 284 337
#     4  11  24  41  61  84 113 153 195 242 297 349
#     4   9  17  31  52  79 108 138 178 227 271 320
#     4  10  21  37  56  81 112 150 192 233 288 347
#     4   9  17  31  51  76 107 141 177 219 269 325
#
# _framework density 19.466507
#
# number of rings (size 3 to 8) (size 9 to 14) (size 15 to 20)
#    0.000    2.286    1.429    1.286    0.000    4.000 
#    0.000    5.714    0.000    3.429    0.000    0.000 
#    0.000    0.000    0.000    0.000    0.000    0.000 
#
# Total GULP energy -694150.015353 kJ/mol
# GULP energy per Si atom -12395.535988 kJ/mol
# Density = 1.942220 g / cm^3
# Si number density = 19.466507 Si / 1000 Ang^3
#
#
#
# Elastic Constant Matrix: (Units=GPa)
#
#
# Indices 1 2 3 4 5 6 
#
# 1 111.5947 26.8699 53.9116 0.0000 0.0000 0.0000
# 2 26.8699 34.7988 34.4480 0.0000 0.0000 0.0000
# 3 53.9116 34.4480 135.4346 0.0000 0.0000 0.0000
# 4 0.0000 0.0000 0.0000 29.3257 0.0000 0.0000
# 5 0.0000 0.0000 0.0000 0.0000 32.0664 0.0000
# 6 0.0000 0.0000 0.0000 0.0000 0.0000 20.2408
#
#
#
# Elastic Compliance Matrix: (Units=1/GPa)
#
#
# Indices 1 2 3 4 5 6 
#
# 1 0.011978 -0.006053 -0.003228 0.000000 0.000000 0.000000
# 2 -0.006053 0.041466 -0.008137 0.000000 0.000000 0.000000
# 3 -0.003228 -0.008137 0.010739 0.000000 0.000000 0.000000
# 4 0.000000 0.000000 0.000000 0.034100 0.000000 0.000000
# 5 0.000000 0.000000 0.000000 0.000000 0.031185 0.000000
# 6 0.000000 0.000000 0.000000 0.000000 0.000000 0.049405
#
#
# Mechanical properties :
#
#
# Convention : Reuss Voigt Hill
#
# Bulk Modulus (GPa) = 34.07771 56.92081 45.49926
# Shear Modulus (GPa) = 22.37217 27.43315 24.90266
#
# Velocity S-wave (km/s) = 3.39376 3.75807 3.58055
# Velocity P-wave (km/s) = 5.73591 6.93791 6.36535
#
# Compressibility (1/GPa) = 0.02934469
#
# Stress axis : x y z
#
# Youngs Moduli (GPa) = 83.48547 24.11629 93.12260
#
# Poissons Ratio (x) = 0.14598 0.30064
# Poissons Ratio (y) = 0.50534 0.75777
# Poissons Ratio (z) = 0.26953 0.19624
#
# Static dielectric constant tensor:
#      x y z
#    x 3.725650 0.000000 0.000000 
#    y 0.000000 3.298540 0.000000 
#    z 0.000000 0.000000 3.844180 
# 
# 
# High freq. dielectric constant tensor:
#      x y z
#    x 1.760250 0.000000 0.000000 
#    y 0.000000 1.729460 0.000000 
#    z 0.000000 0.000000 1.767910 
# 
# From -- ./inp_files/27163.got.cif
#   From: 2010.03.12/outbox.cif.g09.slc.cpg/sg62_14_cif.got.tgz:27163.got - 2010.04.10 19:12:36.
