data_PCOD8252423
_publ_section_title
;
Structure prediction by ZEFSAII (Michael W. Deem and Ramdas Pophale) SiO2 
 PCOD8252423
Probable space group: P N M A
;
_chemical_formula_sum "Si O2"
_cell_formula_units_Z 64
_cell_length_a 15.203458
_cell_length_b 8.838586
_cell_length_c 24.306163
_cell_angle_alpha 90.000000
_cell_angle_beta 90.000000
_cell_angle_gamma 90.000000
_cell_volume 3266.190992
_symmetry_space_group_name_H-M "P N M A"
_symmetry_group_IT_number 62
_symmetry_cell_setting 'orthorhombic'
loop_
_space_group_symop_operation_xyz
x,y,z
1/2-x,-y,1/2+z
1/2+x,1/2-y,1/2-z
-x,1/2+y,-z
-x,-y,-z
1/2+x,y,1/2-z
1/2-x,1/2+y,1/2+z
x,1/2-y,z
loop_
_atom_site_type_symbol
_atom_site_label
_atom_site_fract_x
_atom_site_fract_y
_atom_site_fract_z
Si Si1 0.693846 0.927184 0.810276
Si Si2 0.616256 0.921340 0.528215
Si Si3 0.123269 0.928229 0.189430
Si Si4 0.038161 0.925320 0.397286
Si Si5 0.810979 0.923197 0.541155
Si Si6 0.480041 0.574086 0.223999
Si Si7 0.063018 0.075864 0.079652
Si Si8 0.633279 0.926897 0.931875
O O1 0.699165 0.750000 0.801201
O O2 0.678614 0.969392 0.874157
O O3 0.785045 0.999881 0.790450
O O4 0.613187 0.988563 0.773596
O O5 0.604019 0.750000 0.505785
O O6 0.709272 0.940329 0.558720
O O7 0.541032 0.956803 0.573170
O O8 0.610986 0.035880 0.477278
O O9 0.133386 0.750000 0.194544
O O10 0.044033 0.987222 0.228165
O O11 0.101908 0.972898 0.127331
O O12 0.022050 0.750000 0.410712
O O13 0.030289 0.959250 0.332855
O O14 0.134457 0.973817 0.416990
O O15 0.968471 0.024266 0.431316
O O16 0.842612 0.750000 0.545114
O O17 0.817715 0.979081 0.478515
O O18 0.459420 0.750000 0.231353
O O19 0.083410 0.250000 0.093922
O O20 0.639422 0.750000 0.945034
#
# Coordination Sequence:
#
# PCOD8252423 Si02
#       8
#     8   8   8   8   8   8   8   8
#     4  10  21  37  60  88 113 143 186 237 287 332
#     4   9  20  37  55  78 113 150 182 222 278 335
#     4  11  22  38  61  86 114 150 191 232 282 341
#     4  10  20  36  55  75 104 142 183 228 275 323
#     4  11  21  33  51  78 110 146 182 218 270 333
#     4   9  21  41  60  80 111 150 190 234 281 335
#     4  10  20  36  58  83 112 143 185 234 277 327
#     4  10  20  34  53  79 110 142 181 226 272 326
#
# _framework density 19.594691000000001
#
# number of rings (size 3 to 8) (size 9 to 14) (size 15 to 20)
#    0.000    2.000    0.000    3.375    0.000    6.500 
#    2.250    0.000    0.000    0.000    0.000    0.000 
#    0.000    0.000    0.000    0.000    0.000    0.000 
#
# Total GULP energy -793850.959008 kJ/mol
# GULP energy per Si atom -12403.921235 kJ/mol
# Density = 1.955009 g / cm^3
# Si number density = 19.594691 Si / 1000 Ang^3
#
#
#
# Elastic Constant Matrix: (Units=GPa)
#
#
# Indices 1 2 3 4 5 6 
#
# 1 141.2898 42.1251 41.3957 0.0000 0.0000 0.0000
# 2 42.1251 64.3597 23.9538 0.0000 0.0000 0.0000
# 3 41.3957 23.9538 45.1016 0.0000 0.0000 0.0000
# 4 0.0000 0.0000 0.0000 23.9613 0.0000 0.0000
# 5 0.0000 0.0000 0.0000 0.0000 25.5285 0.0000
# 6 0.0000 0.0000 0.0000 0.0000 0.0000 33.8968
#
#
#
# Elastic Compliance Matrix: (Units=1/GPa)
#
#
# Indices 1 2 3 4 5 6 
#
# 1 0.010478 -0.004086 -0.007446 0.000000 0.000000 0.000000
# 2 -0.004086 0.020960 -0.007381 0.000000 0.000000 0.000000
# 3 -0.007446 -0.007381 0.032927 0.000000 0.000000 0.000000
# 4 0.000000 0.000000 0.000000 0.041734 0.000000 0.000000
# 5 0.000000 0.000000 0.000000 0.000000 0.039172 0.000000
# 6 0.000000 0.000000 0.000000 0.000000 0.000000 0.029501
#
#
# Mechanical properties :
#
#
# Convention : Reuss Voigt Hill
#
# Bulk Modulus (GPa) = 37.68440 51.74448 44.71444
# Shear Modulus (GPa) = 22.57901 26.22908 24.40405
#
# Velocity S-wave (km/s) = 3.39824 3.66263 3.53291
# Velocity P-wave (km/s) = 5.88822 6.65967 6.28579
#
# Compressibility (1/GPa) = 0.02653618
#
# Stress axis : x y z
#
# Youngs Moduli (GPa) = 95.44079 47.71098 30.37034
#
# Poissons Ratio (x) = 0.19497 0.22615
# Poissons Ratio (y) = 0.39002 0.22417
# Poissons Ratio (z) = 0.71069 0.35216
#
# Static dielectric constant tensor:
#      x y z
#    x 3.738620 0.000000 0.000000 
#    y 0.000000 3.581780 0.000000 
#    z 0.000000 0.000000 3.354690 
# 
# 
# High freq. dielectric constant tensor:
#      x y z
#    x 1.776280 0.000000 0.000000 
#    y 0.000000 1.771250 0.000000 
#    z 0.000000 0.000000 1.738760 
# 
# From -- ./inp_files/29944.got.cif
#   From: 2010.03.12/outbox.cif.g09.slc.cpg/sg62_15_cif.got.tgz:29944.got - 2010.04.10 19:12:36.
