data_PCOD8252940
_publ_section_title
;
Structure prediction by ZEFSAII (Michael W. Deem and Ramdas Pophale) SiO2 
 PCOD8252940
Probable space group: P N M A
;
_chemical_formula_sum "Si O2"
_cell_formula_units_Z 64
_cell_length_a 15.024542
_cell_length_b 8.628648
_cell_length_c 24.342970
_cell_angle_alpha 90.000000
_cell_angle_beta 90.000000
_cell_angle_gamma 90.000000
_cell_volume 3155.858763
_symmetry_space_group_name_H-M "P N M A"
_symmetry_group_IT_number 62
_symmetry_cell_setting 'orthorhombic'
loop_
_space_group_symop_operation_xyz
x,y,z
1/2-x,-y,1/2+z
1/2+x,1/2-y,1/2-z
-x,1/2+y,-z
-x,-y,-z
1/2+x,y,1/2-z
1/2-x,1/2+y,1/2+z
x,1/2-y,z
loop_
_atom_site_type_symbol
_atom_site_label
_atom_site_fract_x
_atom_site_fract_y
_atom_site_fract_z
Si Si1 0.940807 0.070272 0.580565
Si Si2 0.143860 0.571338 0.921637
Si Si3 0.946481 0.572680 0.888057
Si Si4 0.886449 0.070306 0.458959
Si Si5 0.113859 0.070072 0.309105
Si Si6 0.703248 0.569753 0.458319
Si Si7 0.796710 0.570170 0.188107
Si Si8 0.991027 0.568471 0.221433
O O1 0.929735 0.250000 0.595248
O O2 0.894781 0.025722 0.523069
O O3 0.891919 0.968814 0.626507
O O4 0.044952 0.028295 0.577385
O O5 0.168527 0.750000 0.909844
O O6 0.191568 0.465974 0.876356
O O7 0.038287 0.546595 0.920036
O O8 0.175371 0.514209 0.981032
O O9 0.914675 0.750000 0.891737
O O10 0.874788 0.461700 0.915602
O O11 0.956318 0.526560 0.824668
O O12 0.906933 0.250000 0.449191
O O13 0.788400 0.027179 0.438685
O O14 0.098566 0.250000 0.298291
O O15 0.212174 0.022515 0.287549
O O16 0.035392 0.974940 0.279187
O O17 0.726777 0.750000 0.458058
O O18 0.775711 0.750000 0.195242
O O19 0.886256 0.521510 0.221116
O O20 0.000095 0.750000 0.209193
#
# Coordination Sequence:
#
# PCOD8252940 Si02
#       8
#     8   8   8   8   8   8   8   8
#     4  10  21  39  62  86 115 150 190 238 290 345
#     4   9  19  34  55  83 116 152 193 240 287 342
#     4  10  20  36  56  80 114 152 192 240 293 344
#     4  10  21  37  57  84 118 153 190 236 289 345
#     4  12  24  39  63  91 119 153 195 242 291 350
#     4  11  21  33  52  82 117 156 196 233 283 347
#     4  10  21  38  62  89 116 150 193 243 294 347
#     4  10  22  42  63  85 116 152 195 246 297 348
#
# _framework density 20.279741999999999
#
# number of rings (size 3 to 8) (size 9 to 14) (size 15 to 20)
#    0.000    1.750    0.000    4.500    0.000    6.500 
#    2.250    0.000    0.000    0.000    0.000    0.000 
#    0.000    0.000    0.000    0.000    0.000    0.000 
#
# Total GULP energy -793977.720913 kJ/mol
# GULP energy per Si atom -12405.901889 kJ/mol
# Density = 2.023358 g / cm^3
# Si number density = 20.279742 Si / 1000 Ang^3
#
#
#
# Elastic Constant Matrix: (Units=GPa)
#
#
# Indices 1 2 3 4 5 6 
#
# 1 111.5670 30.1479 31.2235 0.0000 0.0000 0.0000
# 2 30.1479 60.2238 16.6449 0.0000 0.0000 0.0000
# 3 31.2235 16.6449 44.9447 0.0000 0.0000 0.0000
# 4 0.0000 0.0000 0.0000 32.5747 0.0000 0.0000
# 5 0.0000 0.0000 0.0000 0.0000 23.1237 0.0000
# 6 0.0000 0.0000 0.0000 0.0000 0.0000 34.8913
#
#
#
# Elastic Compliance Matrix: (Units=1/GPa)
#
#
# Indices 1 2 3 4 5 6 
#
# 1 0.011978 -0.004118 -0.006796 0.000000 0.000000 0.000000
# 2 -0.004118 0.019914 -0.004514 0.000000 0.000000 0.000000
# 3 -0.006796 -0.004514 0.028643 0.000000 0.000000 0.000000
# 4 0.000000 0.000000 0.000000 0.030699 0.000000 0.000000
# 5 0.000000 0.000000 0.000000 0.000000 0.043246 0.000000
# 6 0.000000 0.000000 0.000000 0.000000 0.000000 0.028660
#
#
# Mechanical properties :
#
#
# Convention : Reuss Voigt Hill
#
# Bulk Modulus (GPa) = 33.69497 41.41868 37.55682
# Shear Modulus (GPa) = 24.52324 27.36589 25.94457
#
# Velocity S-wave (km/s) = 3.48120 3.67743 3.58066
# Velocity P-wave (km/s) = 5.72795 6.20478 5.97113
#
# Compressibility (1/GPa) = 0.02967802
#
# Stress axis : x y z
#
# Youngs Moduli (GPa) = 83.48673 50.21655 34.91286
#
# Poissons Ratio (x) = 0.20678 0.23728
# Poissons Ratio (y) = 0.34378 0.15760
# Poissons Ratio (z) = 0.56739 0.22669
#
# Static dielectric constant tensor:
#      x y z
#    x 3.759400 0.000000 0.000000 
#    y 0.000000 3.610230 0.000000 
#    z 0.000000 0.000000 3.433300 
# 
# 
# High freq. dielectric constant tensor:
#      x y z
#    x 1.802340 0.000000 0.000000 
#    y 0.000000 1.798530 0.000000 
#    z 0.000000 0.000000 1.770720 
# 
# From -- ./inp_files/29833.got.cif
#   From: 2010.03.12/outbox.cif.g09.slc.cpg/sg62_15_cif.got.tgz:29833.got - 2010.04.10 19:12:36.
