data_PCOD8252399
_publ_section_title
;
Structure prediction by ZEFSAII (Michael W. Deem and Ramdas Pophale) SiO2 
 PCOD8252399
Probable space group: P N M A
;
_chemical_formula_sum "Si O2"
_cell_formula_units_Z 56
_cell_length_a 16.436424
_cell_length_b 9.203087
_cell_length_c 19.912064
_cell_angle_alpha 90.000000
_cell_angle_beta 90.000000
_cell_angle_gamma 90.000000
_cell_volume 3012.015088
_symmetry_space_group_name_H-M "P N M A"
_symmetry_group_IT_number 62
_symmetry_cell_setting 'orthorhombic'
loop_
_space_group_symop_operation_xyz
x,y,z
1/2-x,-y,1/2+z
1/2+x,1/2-y,1/2-z
-x,1/2+y,-z
-x,-y,-z
1/2+x,y,1/2-z
1/2-x,1/2+y,1/2+z
x,1/2-y,z
loop_
_atom_site_type_symbol
_atom_site_label
_atom_site_fract_x
_atom_site_fract_y
_atom_site_fract_z
Si Si1 0.747251 0.577516 0.533561
Si Si2 0.990624 0.919298 0.810584
Si Si3 0.183792 0.077990 0.605585
Si Si4 0.436577 0.418449 0.453443
Si Si5 0.523942 0.079073 0.822214
Si Si6 0.326995 0.418374 0.700078
Si Si7 0.657356 0.915471 0.146345
O O1 0.749903 0.750000 0.537193
O O2 0.793119 0.515877 0.467575
O O3 0.654128 0.523134 0.531570
O O4 0.792598 0.519602 0.598658
O O5 0.979703 0.750000 0.794645
O O6 0.046210 0.946860 0.875272
O O7 0.902866 0.988163 0.824883
O O8 0.034420 0.995722 0.747880
O O9 0.185742 0.250000 0.602803
O O10 0.094223 0.024461 0.627217
O O11 0.248699 0.023278 0.660362
O O12 0.500000 0.500000 0.500000
O O13 0.444039 0.250000 0.471587
O O14 0.530473 0.250000 0.806152
O O15 0.437947 0.042419 0.856715
O O16 0.346265 0.250000 0.684142
O O17 0.309637 0.440030 0.778647
O O18 0.670275 0.750000 0.123198
#
# Coordination Sequence:
#
# PCOD8252399 Si02
#       7
#     8   8   8   8   8   8   8
#     4  10  21  36  54  78 109 144 179 219 271 326
#     4  10  20  34  52  79 111 139 175 221 272 325
#     4   9  18  34  57  80 102 137 186 226 262 316
#     4  10  22  37  54  79 111 145 181 220 268 327
#     4   9  19  36  57  79 103 137 184 228 264 313
#     4   9  18  35  58  80 105 140 183 225 266 318
#     4   9  19  34  52  79 109 136 177 227 268 316
#
# _framework density 18.592205
#
# number of rings (size 3 to 8) (size 9 to 14) (size 15 to 20)
#    0.000    2.571    0.000    2.143    2.000    5.714 
#    0.000    2.143    0.000    0.000    0.000    0.000 
#    0.000    0.000    0.000    0.000    0.000    0.000 
#
# Total GULP energy -694464.080833 kJ/mol
# GULP energy per Si atom -12401.144301 kJ/mol
# Density = 1.854989 g / cm^3
# Si number density = 18.592205 Si / 1000 Ang^3
#
#
#
# Elastic Constant Matrix: (Units=GPa)
#
#
# Indices 1 2 3 4 5 6 
#
# 1 109.1360 40.0446 62.1375 0.0000 0.0000 0.0000
# 2 40.0446 51.0905 40.2558 0.0000 0.0000 0.0000
# 3 62.1375 40.2558 97.1487 0.0000 0.0000 0.0000
# 4 0.0000 0.0000 0.0000 29.0551 0.0000 0.0000
# 5 0.0000 0.0000 0.0000 0.0000 36.6880 0.0000
# 6 0.0000 0.0000 0.0000 0.0000 0.0000 23.4793
#
#
#
# Elastic Compliance Matrix: (Units=1/GPa)
#
#
# Indices 1 2 3 4 5 6 
#
# 1 0.015760 -0.006548 -0.007367 0.000000 0.000000 0.000000
# 2 -0.006548 0.031782 -0.008982 0.000000 0.000000 0.000000
# 3 -0.007367 -0.008982 0.018727 0.000000 0.000000 0.000000
# 4 0.000000 0.000000 0.000000 0.034417 0.000000 0.000000
# 5 0.000000 0.000000 0.000000 0.000000 0.027257 0.000000
# 6 0.000000 0.000000 0.000000 0.000000 0.000000 0.042591
#
#
# Mechanical properties :
#
#
# Convention : Reuss Voigt Hill
#
# Bulk Modulus (GPa) = 48.83661 60.25013 54.54337
# Shear Modulus (GPa) = 22.40619 25.50697 23.95658
#
# Velocity S-wave (km/s) = 3.47528 3.70796 3.59350
# Velocity P-wave (km/s) = 6.51365 7.12800 6.82774
#
# Compressibility (1/GPa) = 0.02047644
#
# Stress axis : x y z
#
# Youngs Moduli (GPa) = 63.45224 31.46415 53.39825
#
# Poissons Ratio (x) = 0.20602 0.39338
# Poissons Ratio (y) = 0.41548 0.47960
# Poissons Ratio (z) = 0.46745 0.28260
#
# Static dielectric constant tensor:
#      x y z
#    x 3.645580 0.000000 0.000000 
#    y 0.000000 3.214740 0.000000 
#    z 0.000000 0.000000 3.500160 
# 
# 
# High freq. dielectric constant tensor:
#      x y z
#    x 1.729150 0.000000 0.000000 
#    y 0.000000 1.699750 0.000000 
#    z 0.000000 0.000000 1.727010 
# 
# From -- ./inp_files/27182.got.cif
#   From: 2010.03.12/outbox.cif.g09.slc.cpg/sg62_14_cif.got.tgz:27182.got - 2010.04.10 19:12:36.
