data_PCOD8252092
_publ_section_title
;
Structure prediction by ZEFSAII (Michael W. Deem and Ramdas Pophale) SiO2 
 PCOD8252092
Probable space group: P N M A
;
_chemical_formula_sum "Si O2"
_cell_formula_units_Z 40
_cell_length_a 8.895793
_cell_length_b 8.274768
_cell_length_c 25.496464
_cell_angle_alpha 90.000000
_cell_angle_beta 90.000000
_cell_angle_gamma 90.000000
_cell_volume 1876.810606
_symmetry_space_group_name_H-M "P N M A"
_symmetry_group_IT_number 62
_symmetry_cell_setting 'orthorhombic'
loop_
_space_group_symop_operation_xyz
x,y,z
1/2-x,-y,1/2+z
1/2+x,1/2-y,1/2-z
-x,1/2+y,-z
-x,-y,-z
1/2+x,y,1/2-z
1/2-x,1/2+y,1/2+z
x,1/2-y,z
loop_
_atom_site_type_symbol
_atom_site_label
_atom_site_fract_x
_atom_site_fract_y
_atom_site_fract_z
Si Si1 0.834258 0.441498 0.193058
Si Si2 0.672925 0.057637 0.297755
Si Si3 0.167377 0.063868 0.001317
Si Si4 0.849706 0.562570 0.593164
Si Si5 0.676717 0.064981 0.900176
O O1 0.841932 0.250000 0.193719
O O2 0.736779 0.503624 0.242122
O O3 0.757320 0.502920 0.139625
O O4 0.003678 0.509867 0.196078
O O5 0.679089 0.250000 0.302022
O O6 0.778919 0.982334 0.341631
O O7 0.172367 0.250000 0.984265
O O8 0.266682 0.958194 0.961937
O O9 0.231591 0.046716 0.059749
O O10 0.000000 0.000000 0.000000
O O11 0.890617 0.750000 0.601687
O O12 0.999858 0.458606 0.592705
O O13 0.717462 0.250000 0.911664
#
# Coordination Sequence:
#
# PCOD8252092 Si02
#       5
#     8   8   8   8   8
#     4   9  19  35  62  92 120 155 200 248 304 368
#     4  10  19  37  62  90 120 157 202 251 303 366
#     4  12  25  43  65  92 123 159 200 249 302 362
#     4  11  22  40  64  92 123 161 204 252 304 362
#     4  12  25  41  60  88 122 162 206 254 306 360
#
# _framework density 21.312752
#
# number of rings (size 3 to 8) (size 9 to 14) (size 15 to 20)
#    0.000    1.200    0.000    7.200    0.000    4.800 
#    0.000    6.000    0.000    0.000    0.000    0.000 
#    0.000    0.000    0.000    0.000    0.000    0.000 
#
# Total GULP energy -496298.780209 kJ/mol
# GULP energy per Si atom -12407.469505 kJ/mol
# Density = 2.126424 g / cm^3
# Si number density = 21.312752 Si / 1000 Ang^3
#
#
#
# Elastic Constant Matrix: (Units=GPa)
#
#
# Indices 1 2 3 4 5 6 
#
# 1 119.7401 17.4953 17.7461 0.0000 0.0000 0.0000
# 2 17.4953 58.7932 17.6728 0.0000 0.0000 0.0000
# 3 17.7461 17.6728 99.8008 0.0000 0.0000 0.0000
# 4 0.0000 0.0000 0.0000 22.5675 0.0000 0.0000
# 5 0.0000 0.0000 0.0000 0.0000 48.7512 0.0000
# 6 0.0000 0.0000 0.0000 0.0000 0.0000 29.1860
#
#
#
# Elastic Compliance Matrix: (Units=1/GPa)
#
#
# Indices 1 2 3 4 5 6 
#
# 1 0.008859 -0.002284 -0.001171 0.000000 0.000000 0.000000
# 2 -0.002284 0.018554 -0.002879 0.000000 0.000000 0.000000
# 3 -0.001171 -0.002879 0.010738 0.000000 0.000000 0.000000
# 4 0.000000 0.000000 0.000000 0.044311 0.000000 0.000000
# 5 0.000000 0.000000 0.000000 0.000000 0.020512 0.000000
# 6 0.000000 0.000000 0.000000 0.000000 0.000000 0.034263
#
#
# Mechanical properties :
#
#
# Convention : Reuss Voigt Hill
#
# Bulk Modulus (GPa) = 39.24328 42.68473 40.96400
# Shear Modulus (GPa) = 31.56564 35.12895 33.34729
#
# Velocity S-wave (km/s) = 3.85264 4.06428 3.95987
# Velocity P-wave (km/s) = 6.18413 6.48813 6.33795
#
# Compressibility (1/GPa) = 0.02548207
#
# Stress axis : x y z
#
# Youngs Moduli (GPa) = 112.88372 53.89669 93.12706
#
# Poissons Ratio (x) = 0.12311 0.10903
# Poissons Ratio (y) = 0.25785 0.26815
# Poissons Ratio (z) = 0.13215 0.15519
#
# Static dielectric constant tensor:
#      x y z
#    x 4.173420 0.000000 0.000000 
#    y 0.000000 3.561670 0.000000 
#    z 0.000000 0.000000 4.084170 
# 
# 
# High freq. dielectric constant tensor:
#      x y z
#    x 1.852600 0.000000 0.000000 
#    y 0.000000 1.815260 0.000000 
#    z 0.000000 0.000000 1.850840 
# 
# From -- ./inp_files/28582.got.cif
#   From: 2010.03.12/outbox.cif.g09.slc.cpg/sg62_15_cif.got.tgz:28582.got - 2010.04.10 19:12:36.
