data_PCOD8252406
_publ_section_title
;
Structure prediction by ZEFSAII (Michael W. Deem and Ramdas Pophale) SiO2 
 PCOD8252406
Probable space group: P N M A
;
_chemical_formula_sum "Si O2"
_cell_formula_units_Z 32
_cell_length_a 5.440878
_cell_length_b 23.879248
_cell_length_c 8.676294
_cell_angle_alpha 90.000000
_cell_angle_beta 90.000000
_cell_angle_gamma 90.000000
_cell_volume 1127.259473
_symmetry_space_group_name_H-M "P N M A"
_symmetry_group_IT_number 62
_symmetry_cell_setting 'orthorhombic'
loop_
_space_group_symop_operation_xyz
x,y,z
1/2-x,-y,1/2+z
1/2+x,1/2-y,1/2-z
-x,1/2+y,-z
-x,-y,-z
1/2+x,y,1/2-z
1/2-x,1/2+y,1/2+z
x,1/2-y,z
loop_
_atom_site_type_symbol
_atom_site_label
_atom_site_fract_x
_atom_site_fract_y
_atom_site_fract_z
Si Si1 0.994728 0.184726 0.823559
Si Si2 0.472050 0.844873 0.673776
Si Si3 0.707929 0.433740 0.815452
Si Si4 0.857022 0.462208 0.121271
O O1 0.220680 0.159959 0.717030
O O2 0.981434 0.250000 0.786397
O O3 0.058053 0.174291 0.000063
O O4 0.231393 0.820896 0.761245
O O5 0.473211 0.912991 0.695302
O O6 0.478904 0.405952 0.721464
O O7 0.774042 0.497247 0.747337
O O8 0.658790 0.433102 0.000424
O O9 0.000000 0.500000 0.000000
#
# Coordination Sequence:
#
# PCOD8252406 Si02
#       4
#     8   8   8   8
#     4  10  23  46  74 103 135 172 218 272 333 406
#     4  12  26  43  66 100 139 176 222 278 337 400
#     4  10  20  34  53  75 106 152 205 258 309 360
#     4  10  22  39  58  84 123 170 219 270 319 378
#
# _framework density 28.387429999999998
#
# number of rings (size 3 to 8) (size 9 to 14) (size 15 to 20)
#    0.000    1.500    0.000    5.250    0.000    9.000 
#    0.000    0.000    0.000    0.000    0.000    0.000 
#    0.000    0.000    0.000    0.000    0.000    0.000 
#
# Total GULP energy -396969.582493 kJ/mol
# GULP energy per Si atom -12405.299453 kJ/mol
# Density = 2.832282 g / cm^3
# Si number density = 28.387430 Si / 1000 Ang^3
#
#
#
# Elastic Constant Matrix: (Units=GPa)
#
#
# Indices 1 2 3 4 5 6 
#
# 1 190.1909 51.3760 44.2349 0.0000 0.0000 0.0000
# 2 51.3760 82.2064 -4.2677 0.0000 0.0000 0.0000
# 3 44.2349 -4.2677 125.6907 0.0000 0.0000 0.0000
# 4 0.0000 0.0000 0.0000 35.3042 0.0000 0.0000
# 5 0.0000 0.0000 0.0000 0.0000 49.7681 0.0000
# 6 0.0000 0.0000 0.0000 0.0000 0.0000 36.5696
#
#
#
# Elastic Compliance Matrix: (Units=1/GPa)
#
#
# Indices 1 2 3 4 5 6 
#
# 1 0.007115 -0.004585 -0.002660 0.000000 0.000000 0.000000
# 2 -0.004585 0.015140 0.002128 0.000000 0.000000 0.000000
# 3 -0.002660 0.002128 0.008964 0.000000 0.000000 0.000000
# 4 0.000000 0.000000 0.000000 0.028325 0.000000 0.000000
# 5 0.000000 0.000000 0.000000 0.000000 0.020093 0.000000
# 6 0.000000 0.000000 0.000000 0.000000 0.000000 0.027345
#
#
# Mechanical properties :
#
#
# Convention : Reuss Voigt Hill
#
# Bulk Modulus (GPa) = 47.65093 64.53050 56.09072
# Shear Modulus (GPa) = 40.25387 44.77803 42.51595
#
# Velocity S-wave (km/s) = 3.76974 3.97594 3.87422
# Velocity P-wave (km/s) = 5.98083 6.62261 6.30988
#
# Compressibility (1/GPa) = 0.02098595
#
# Stress axis : x y z
#
# Youngs Moduli (GPa) = 140.55012 66.04941 111.55357
#
# Poissons Ratio (x) = 0.30281 0.29669
# Poissons Ratio (y) = 0.64437 -0.23734
# Poissons Ratio (z) = 0.37381 -0.14052
#
# Static dielectric constant tensor:
#      x y z
#    x 5.476420 0.000000 0.000000 
#    y 0.000000 5.797530 0.000000 
#    z 0.000000 0.000000 6.167150 
# 
# 
# High freq. dielectric constant tensor:
#      x y z
#    x 2.185070 0.000000 0.000000 
#    y 0.000000 2.201930 0.000000 
#    z 0.000000 0.000000 2.151450 
# 
# From -- ./inp_files/3816.got.cif
#   From: 2010.03.12/outbox.cif.g09.slc.cpg/sg62_2_cif.got.tgz:3816.got - 2010.04.10 19:12:36.
