data_PCOD8252018
_publ_section_title
;
Structure prediction by ZEFSAII (Michael W. Deem and Ramdas Pophale) SiO2 
 PCOD8252018
Probable space group: P N M A
;
_chemical_formula_sum "Si O2"
_cell_formula_units_Z 64
_cell_length_a 30.482044
_cell_length_b 9.263316
_cell_length_c 11.958147
_cell_angle_alpha 90.000000
_cell_angle_beta 90.000000
_cell_angle_gamma 90.000000
_cell_volume 3376.559857
_symmetry_space_group_name_H-M "P N M A"
_symmetry_group_IT_number 62
_symmetry_cell_setting 'orthorhombic'
loop_
_space_group_symop_operation_xyz
x,y,z
1/2-x,-y,1/2+z
1/2+x,1/2-y,1/2-z
-x,1/2+y,-z
-x,-y,-z
1/2+x,y,1/2-z
1/2-x,1/2+y,1/2+z
x,1/2-y,z
loop_
_atom_site_type_symbol
_atom_site_label
_atom_site_fract_x
_atom_site_fract_y
_atom_site_fract_z
Si Si1 0.045614 0.080842 0.487838
Si Si2 0.573535 0.590157 0.220899
Si Si3 0.374448 0.421437 0.395022
Si Si4 0.695783 0.420596 0.010326
Si Si5 0.673473 0.910827 0.228012
Si Si6 0.457564 0.418768 0.540163
Si Si7 0.792921 0.421723 0.960188
Si Si8 0.878614 0.581158 0.338888
O O1 0.036947 0.250000 0.477546
O O2 0.077227 0.045587 0.592032
O O3 0.068659 0.027586 0.375162
O O4 0.000000 0.000000 0.500000
O O5 0.558708 0.750000 0.178113
O O6 0.623086 0.598312 0.263135
O O7 0.545837 0.543870 0.328822
O O8 0.373544 0.250000 0.380070
O O9 0.414942 0.472058 0.471954
O O10 0.329307 0.478367 0.452000
O O11 0.379616 0.492033 0.274302
O O12 0.694844 0.250000 0.022612
O O13 0.678324 0.484988 0.124320
O O14 0.744928 0.479616 0.992433
O O15 0.664004 0.468872 0.909485
O O16 0.691119 0.750000 0.198359
O O17 0.698352 0.978256 0.334692
O O18 0.500000 0.500000 0.500000
O O19 0.464054 0.250000 0.520710
O O20 0.795039 0.250000 0.957889
O O21 0.875922 0.750000 0.310710
#
# Coordination Sequence:
#
# PCOD8252018 Si02
#       8
#     8   8   8   8   8   8   8   8
#     4  11  24  41  60  84 116 151 192 235 285 340
#     4  10  20  38  62  85 113 147 189 239 286 334
#     4  10  21  39  60  83 113 151 192 231 276 338
#     4  10  21  38  58  83 117 152 186 230 287 337
#     4  10  19  36  62  85 109 146 193 236 277 331
#     4  10  22  39  59  85 115 147 187 234 284 336
#     4   9  19  37  60  84 114 152 187 229 285 337
#     4  10  23  40  56  81 118 153 183 230 288 335
#
# _framework density 18.954203
#
# number of rings (size 3 to 8) (size 9 to 14) (size 15 to 20)
#    0.000    2.000    2.500    0.375    3.500    2.500 
#    0.000    1.250    0.000    0.000    0.000    0.000 
#    0.000    0.000    0.000    0.000    0.000    0.000 
#
# Total GULP energy -793627.587039 kJ/mol
# GULP energy per Si atom -12400.431047 kJ/mol
# Density = 1.891106 g / cm^3
# Si number density = 18.954203 Si / 1000 Ang^3
#
#
#
# Elastic Constant Matrix: (Units=GPa)
#
#
# Indices 1 2 3 4 5 6 
#
# 1 117.6517 35.1207 38.6225 0.0000 0.0000 0.0000
# 2 35.1207 45.0747 44.0244 0.0000 0.0000 0.0000
# 3 38.6225 44.0244 114.2359 0.0000 0.0000 0.0000
# 4 0.0000 0.0000 0.0000 28.3381 0.0000 0.0000
# 5 0.0000 0.0000 0.0000 0.0000 32.7001 0.0000
# 6 0.0000 0.0000 0.0000 0.0000 0.0000 25.2973
#
#
#
# Elastic Compliance Matrix: (Units=1/GPa)
#
#
# Indices 1 2 3 4 5 6 
#
# 1 0.011108 -0.007997 -0.000674 0.000000 0.000000 0.000000
# 2 -0.007997 0.041334 -0.013226 0.000000 0.000000 0.000000
# 3 -0.000674 -0.013226 0.014078 0.000000 0.000000 0.000000
# 4 0.000000 0.000000 0.000000 0.035288 0.000000 0.000000
# 5 0.000000 0.000000 0.000000 0.000000 0.030581 0.000000
# 6 0.000000 0.000000 0.000000 0.000000 0.000000 0.039530
#
#
# Mechanical properties :
#
#
# Convention : Reuss Voigt Hill
#
# Bulk Modulus (GPa) = 43.99897 56.94417 50.47157
# Shear Modulus (GPa) = 22.39264 27.88009 25.13637
#
# Velocity S-wave (km/s) = 3.44089 3.83942 3.64560
# Velocity P-wave (km/s) = 6.24900 7.05429 6.66382
#
# Compressibility (1/GPa) = 0.02272781
#
# Stress axis : x y z
#
# Youngs Moduli (GPa) = 90.02480 24.19329 71.03064
#
# Poissons Ratio (x) = 0.19348 0.04785
# Poissons Ratio (y) = 0.71994 0.93942
# Poissons Ratio (z) = 0.06064 0.31997
#
# Static dielectric constant tensor:
#      x y z
#    x 4.116330 0.000000 0.000000 
#    y 0.000000 3.281400 0.000000 
#    z 0.000000 0.000000 3.475140 
# 
# 
# High freq. dielectric constant tensor:
#      x y z
#    x 1.749880 0.000000 0.000000 
#    y 0.000000 1.715710 0.000000 
#    z 0.000000 0.000000 1.745990 
# 
# From -- ./inp_files/15921.got.cif
#   From: 2010.03.12/outbox.cif.g09.slc.cpg/sg62_8_cif.got.tgz:15921.got - 2010.04.10 19:12:36.
