data_PCOD8252952
_publ_section_title
;
Structure prediction by ZEFSAII (Michael W. Deem and Ramdas Pophale) SiO2 
 PCOD8252952
Probable space group: P N M A
;
_chemical_formula_sum "Si O2"
_cell_formula_units_Z 64
_cell_length_a 19.088868
_cell_length_b 8.772518
_cell_length_c 20.805853
_cell_angle_alpha 90.000000
_cell_angle_beta 90.000000
_cell_angle_gamma 90.000000
_cell_volume 3484.094841
_symmetry_space_group_name_H-M "P N M A"
_symmetry_group_IT_number 62
_symmetry_cell_setting 'orthorhombic'
loop_
_space_group_symop_operation_xyz
x,y,z
1/2-x,-y,1/2+z
1/2+x,1/2-y,1/2-z
-x,1/2+y,-z
-x,-y,-z
1/2+x,y,1/2-z
1/2-x,1/2+y,1/2+z
x,1/2-y,z
loop_
_atom_site_type_symbol
_atom_site_label
_atom_site_fract_x
_atom_site_fract_y
_atom_site_fract_z
Si Si1 0.454722 0.430849 0.814451
Si Si2 0.032621 0.572254 0.062475
Si Si3 0.182046 0.424744 0.757795
Si Si4 0.463610 0.929535 0.309168
Si Si5 0.325690 0.571927 0.756113
Si Si6 0.469034 0.070376 0.064078
Si Si7 0.667499 0.424516 0.890790
Si Si8 0.823586 0.427589 0.880528
O O1 0.460687 0.250000 0.821558
O O2 0.495849 0.496264 0.752353
O O3 0.374404 0.482119 0.806449
O O4 0.487002 0.505763 0.877057
O O5 0.017528 0.750000 0.058853
O O6 0.116129 0.538675 0.066959
O O7 0.994546 0.500751 0.125124
O O8 0.000000 0.500000 0.000000
O O9 0.205755 0.250000 0.767343
O O10 0.118522 0.469655 0.804835
O O11 0.245932 0.534508 0.775126
O O12 0.155788 0.448489 0.685020
O O13 0.476246 0.750000 0.308628
O O14 0.339480 0.750000 0.762870
O O15 0.341454 0.520379 0.683481
O O16 0.476806 0.250000 0.061286
O O17 0.386792 0.028553 0.070438
O O18 0.500000 0.000000 0.000000
O O19 0.653229 0.250000 0.910170
O O20 0.747465 0.472918 0.908985
O O21 0.822762 0.250000 0.860290
#
# Coordination Sequence:
#
# PCOD8252952 Si02
#       8
#     8   8   8   8   8   8   8   8
#     4  11  20  38  62  83 109 147 190 236 284 340
#     4  10  20  36  56  83 114 150 190 232 280 332
#     4   9  17  33  56  82 110 149 191 231 281 339
#     4   9  17  33  59  82 106 143 191 231 274 335
#     4  11  21  32  51  86 120 146 182 237 292 338
#     4  12  25  40  58  85 118 152 189 234 287 345
#     4   9  17  33  58  84 108 145 192 234 280 338
#     4   9  18  35  58  79 108 153 196 229 277 342
#
# _framework density 18.369188999999999
#
# number of rings (size 3 to 8) (size 9 to 14) (size 15 to 20)
#    0.000    2.000    2.500    3.375    0.000    2.500 
#    0.000    1.875    0.000    3.000    0.000    0.000 
#    0.000    0.000    0.000    0.000    0.000    0.000 
#
# Total GULP energy -793588.109923 kJ/mol
# GULP energy per Si atom -12399.814218 kJ/mol
# Density = 1.832738 g / cm^3
# Si number density = 18.369189 Si / 1000 Ang^3
#
#
#
# Elastic Constant Matrix: (Units=GPa)
#
#
# Indices 1 2 3 4 5 6 
#
# 1 134.9551 47.5726 75.9554 0.0000 0.0000 0.0000
# 2 47.5726 87.1896 44.6929 0.0000 0.0000 0.0000
# 3 75.9554 44.6929 122.9573 0.0000 0.0000 0.0000
# 4 0.0000 0.0000 0.0000 27.9060 0.0000 0.0000
# 5 0.0000 0.0000 0.0000 0.0000 27.8605 0.0000
# 6 0.0000 0.0000 0.0000 0.0000 0.0000 27.6721
#
#
#
# Elastic Compliance Matrix: (Units=1/GPa)
#
#
# Indices 1 2 3 4 5 6 
#
# 1 0.012133 -0.003414 -0.006254 0.000000 0.000000 0.000000
# 2 -0.003414 0.015056 -0.003364 0.000000 0.000000 0.000000
# 3 -0.006254 -0.003364 0.013219 0.000000 0.000000 0.000000
# 4 0.000000 0.000000 0.000000 0.035835 0.000000 0.000000
# 5 0.000000 0.000000 0.000000 0.000000 0.035893 0.000000
# 6 0.000000 0.000000 0.000000 0.000000 0.000000 0.036138
#
#
# Mechanical properties :
#
#
# Convention : Reuss Voigt Hill
#
# Bulk Modulus (GPa) = 69.71325 75.72709 72.72017
# Shear Modulus (GPa) = 27.91428 28.47980 28.19704
#
# Velocity S-wave (km/s) = 3.90247 3.94180 3.92218
# Velocity P-wave (km/s) = 7.63801 7.87601 7.75793
#
# Compressibility (1/GPa) = 0.01434448
#
# Stress axis : x y z
#
# Youngs Moduli (GPa) = 82.41658 66.41717 75.64887
#
# Poissons Ratio (x) = 0.22678 0.47313
# Poissons Ratio (y) = 0.28140 0.25445
# Poissons Ratio (z) = 0.51545 0.22340
#
# Static dielectric constant tensor:
#      x y z
#    x 3.608300 0.000000 0.000000 
#    y 0.000000 3.209460 0.000000 
#    z 0.000000 0.000000 3.116130 
# 
# 
# High freq. dielectric constant tensor:
#      x y z
#    x 1.731160 0.000000 0.000000 
#    y 0.000000 1.696340 0.000000 
#    z 0.000000 0.000000 1.683630 
# 
# From -- ./inp_files/27701.got.cif
#   From: 2010.03.12/outbox.cif.g09.slc.cpg/sg62_14_cif.got.tgz:27701.got - 2010.04.10 19:12:36.
