data_PCOD8252010
_publ_section_title
;
Structure prediction by ZEFSAII (Michael W. Deem and Ramdas Pophale) SiO2 
 PCOD8252010
Probable space group: P N M A
;
_chemical_formula_sum "Si O2"
_cell_formula_units_Z 64
_cell_length_a 30.484399
_cell_length_b 8.889315
_cell_length_c 11.950898
_cell_angle_alpha 90.000000
_cell_angle_beta 90.000000
_cell_angle_gamma 90.000000
_cell_volume 3238.519177
_symmetry_space_group_name_H-M "P N M A"
_symmetry_group_IT_number 62
_symmetry_cell_setting 'orthorhombic'
loop_
_space_group_symop_operation_xyz
x,y,z
1/2-x,-y,1/2+z
1/2+x,1/2-y,1/2-z
-x,1/2+y,-z
-x,-y,-z
1/2+x,y,1/2-z
1/2-x,1/2+y,1/2+z
x,1/2-y,z
loop_
_atom_site_type_symbol
_atom_site_label
_atom_site_fract_x
_atom_site_fract_y
_atom_site_fract_z
Si Si1 0.877495 0.572120 0.358101
Si Si2 0.931296 0.420036 0.982778
Si Si3 0.946968 0.577237 0.754364
Si Si4 0.296425 0.572125 0.288146
Si Si5 0.800109 0.428757 0.758811
Si Si6 0.623437 0.571961 0.100054
Si Si7 0.954408 0.077295 0.225575
Si Si8 0.829986 0.421046 0.997959
O O1 0.875923 0.750000 0.370099
O O2 0.833975 0.510011 0.295321
O O3 0.879845 0.501264 0.479643
O O4 0.920551 0.529206 0.288747
O O5 0.942205 0.250000 0.942877
O O6 0.958392 0.465626 0.093820
O O7 0.881179 0.432079 0.020970
O O8 0.941190 0.534503 0.883874
O O9 0.932664 0.750000 0.739424
O O10 0.918254 0.473148 0.674434
O O11 0.997748 0.554637 0.720123
O O12 0.296061 0.750000 0.283653
O O13 0.248949 0.506334 0.253909
O O14 0.304638 0.522491 0.414147
O O15 0.800163 0.250000 0.757115
O O16 0.831967 0.486186 0.659667
O O17 0.819444 0.487516 0.875729
O O18 0.622993 0.750000 0.086813
O O19 0.938505 0.250000 0.236779
O O20 0.813119 0.250000 0.009082
#
# Coordination Sequence:
#
# PCOD8252010 Si02
#       8
#     8   8   8   8   8   8   8   8
#     4  11  24  40  60  88 120 153 194 249 300 341
#     4  10  19  36  61  88 120 156 195 234 285 352
#     4  11  23  38  60  90 121 151 193 247 296 343
#     4  10  22  39  59  87 122 153 190 242 295 341
#     4   9  20  39  60  85 118 156 193 236 289 347
#     4  11  23  42  64  83 114 160 201 239 289 353
#     4  10  22  40  61  87 119 158 198 237 288 356
#     4  10  19  36  63  88 116 155 197 236 284 348
#
# _framework density 19.762119999999999
#
# number of rings (size 3 to 8) (size 9 to 14) (size 15 to 20)
#    0.000    1.750    2.500    1.500    1.750    3.000 
#    0.000    1.250    0.000    0.000    0.000    0.000 
#    0.000    0.000    0.000    0.000    0.000    0.000 
#
# Total GULP energy -793755.665750 kJ/mol
# GULP energy per Si atom -12402.432277 kJ/mol
# Density = 1.971714 g / cm^3
# Si number density = 19.762120 Si / 1000 Ang^3
#
#
#
# Elastic Constant Matrix: (Units=GPa)
#
#
# Indices 1 2 3 4 5 6 
#
# 1 104.7695 30.6976 39.2316 0.0000 0.0000 0.0000
# 2 30.6976 47.1753 29.6813 0.0000 0.0000 0.0000
# 3 39.2316 29.6813 115.1891 0.0000 0.0000 0.0000
# 4 0.0000 0.0000 0.0000 37.5851 0.0000 0.0000
# 5 0.0000 0.0000 0.0000 0.0000 24.8565 0.0000
# 6 0.0000 0.0000 0.0000 0.0000 0.0000 24.7798
#
#
#
# Elastic Compliance Matrix: (Units=1/GPa)
#
#
# Indices 1 2 3 4 5 6 
#
# 1 0.012394 -0.006456 -0.002558 0.000000 0.000000 0.000000
# 2 -0.006456 0.028662 -0.005187 0.000000 0.000000 0.000000
# 3 -0.002558 -0.005187 0.010889 0.000000 0.000000 0.000000
# 4 0.000000 0.000000 0.000000 0.026606 0.000000 0.000000
# 5 0.000000 0.000000 0.000000 0.000000 0.040231 0.000000
# 6 0.000000 0.000000 0.000000 0.000000 0.000000 0.040355
#
#
# Mechanical properties :
#
#
# Convention : Reuss Voigt Hill
#
# Bulk Modulus (GPa) = 42.47287 51.81720 47.14503
# Shear Modulus (GPa) = 25.59041 28.61252 27.10146
#
# Velocity S-wave (km/s) = 3.60241 3.80919 3.70724
# Velocity P-wave (km/s) = 6.23232 6.75455 6.49868
#
# Compressibility (1/GPa) = 0.02354444
#
# Stress axis : x y z
#
# Youngs Moduli (GPa) = 80.68386 34.88982 91.83608
#
# Poissons Ratio (x) = 0.22524 0.23489
# Poissons Ratio (y) = 0.52087 0.47632
# Poissons Ratio (z) = 0.20637 0.18096
#
# Static dielectric constant tensor:
#      x y z
#    x 3.863460 0.000000 0.000000 
#    y 0.000000 3.440870 0.000000 
#    z 0.000000 0.000000 3.577260 
# 
# 
# High freq. dielectric constant tensor:
#      x y z
#    x 1.782420 0.000000 0.000000 
#    y 0.000000 1.753960 0.000000 
#    z 0.000000 0.000000 1.774450 
# 
# From -- ./inp_files/15886.got.cif
#   From: 2010.03.12/outbox.cif.g09.slc.cpg/sg62_8_cif.got.tgz:15886.got - 2010.04.10 19:12:36.
