data_PCOD8252510
_publ_section_title
;
Structure prediction by ZEFSAII (Michael W. Deem and Ramdas Pophale) SiO2 
 PCOD8252510
Probable space group: P N M A
;
_chemical_formula_sum "Si O2"
_cell_formula_units_Z 64
_cell_length_a 24.254046
_cell_length_b 8.747424
_cell_length_c 15.200534
_cell_angle_alpha 90.000000
_cell_angle_beta 90.000000
_cell_angle_gamma 90.000000
_cell_volume 3224.951740
_symmetry_space_group_name_H-M "P N M A"
_symmetry_group_IT_number 62
_symmetry_cell_setting 'orthorhombic'
loop_
_space_group_symop_operation_xyz
x,y,z
1/2-x,-y,1/2+z
1/2+x,1/2-y,1/2-z
-x,1/2+y,-z
-x,-y,-z
1/2+x,y,1/2-z
1/2-x,1/2+y,1/2+z
x,1/2-y,z
loop_
_atom_site_type_symbol
_atom_site_label
_atom_site_fract_x
_atom_site_fract_y
_atom_site_fract_z
Si Si1 0.079660 0.569930 0.554454
Si Si2 0.539671 0.073992 0.308934
Si Si3 0.961076 0.573359 0.610994
Si Si4 0.193968 0.569098 0.629687
Si Si5 0.274948 0.072372 0.491278
Si Si6 0.569766 0.072584 0.637231
Si Si7 0.693147 0.429565 0.686463
Si Si8 0.899483 0.425825 0.963939
O O1 0.083171 0.750000 0.553641
O O2 0.080934 0.512842 0.453545
O O3 0.132601 0.507309 0.607104
O O4 0.023670 0.509158 0.600399
O O5 0.545841 0.250000 0.336841
O O6 0.559975 0.047184 0.209590
O O7 0.475725 0.027277 0.313415
O O8 0.578249 0.968476 0.368238
O O9 0.961078 0.750000 0.584694
O O10 0.195786 0.750000 0.643438
O O11 0.232796 0.524033 0.549079
O O12 0.214438 0.488918 0.719394
O O13 0.258699 0.250000 0.492713
O O14 0.334629 0.042791 0.533414
O O15 0.273101 0.013400 0.390793
O O16 0.555560 0.250000 0.647908
O O17 0.628610 0.028720 0.678337
O O18 0.568855 0.030767 0.534160
O O19 0.703533 0.250000 0.677715
O O20 0.912923 0.250000 0.984915
#
# Coordination Sequence:
#
# PCOD8252510 Si02
#       8
#     8   8   8   8   8   8   8   8
#     4   9  19  36  57  81 110 144 182 227 277 328
#     4  11  21  33  52  80 113 149 187 227 276 339
#     4   9  19  35  54  79 112 147 182 224 274 328
#     4  11  22  38  62  89 116 151 192 237 288 345
#     4  10  22  41  61  83 113 151 193 243 294 341
#     4  10  20  34  55  82 112 146 186 232 280 334
#     4  10  21  38  61  88 115 147 190 240 290 344
#     4  10  21  37  55  76 108 147 186 232 284 335
#
# _framework density 19.845258999999999
#
# number of rings (size 3 to 8) (size 9 to 14) (size 15 to 20)
#    0.000    2.000    0.000    3.375    0.000    6.000 
#    2.250    2.500    0.000    0.000    0.000    0.000 
#    0.000    0.000    0.000    0.000    0.000    0.000 
#
# Total GULP energy -793839.747180 kJ/mol
# GULP energy per Si atom -12403.746050 kJ/mol
# Density = 1.980009 g / cm^3
# Si number density = 19.845259 Si / 1000 Ang^3
#
#
#
# Elastic Constant Matrix: (Units=GPa)
#
#
# Indices 1 2 3 4 5 6 
#
# 1 43.5135 16.4500 30.4236 0.0000 0.0000 0.0000
# 2 16.4500 45.4610 19.5988 0.0000 0.0000 0.0000
# 3 30.4236 19.5988 111.5731 0.0000 0.0000 0.0000
# 4 0.0000 0.0000 0.0000 36.9870 0.0000 0.0000
# 5 0.0000 0.0000 0.0000 0.0000 27.1212 0.0000
# 6 0.0000 0.0000 0.0000 0.0000 0.0000 29.1973
#
#
#
# Elastic Compliance Matrix: (Units=1/GPa)
#
#
# Indices 1 2 3 4 5 6 
#
# 1 0.030977 -0.008187 -0.007008 0.000000 0.000000 0.000000
# 2 -0.008187 0.025963 -0.002328 0.000000 0.000000 0.000000
# 3 -0.007008 -0.002328 0.011283 0.000000 0.000000 0.000000
# 4 0.000000 0.000000 0.000000 0.027036 0.000000 0.000000
# 5 0.000000 0.000000 0.000000 0.000000 0.036872 0.000000
# 6 0.000000 0.000000 0.000000 0.000000 0.000000 0.034250
#
#
# Mechanical properties :
#
#
# Convention : Reuss Voigt Hill
#
# Bulk Modulus (GPa) = 30.14357 37.05470 33.59913
# Shear Modulus (GPa) = 23.53089 27.59946 25.56518
#
# Velocity S-wave (km/s) = 3.44716 3.73330 3.59308
# Velocity P-wave (km/s) = 5.57370 6.10702 5.84645
#
# Compressibility (1/GPa) = 0.03317457
#
# Stress axis : x y z
#
# Youngs Moduli (GPa) = 32.28233 38.51610 88.63084
#
# Poissons Ratio (x) = 0.31535 0.62117
# Poissons Ratio (y) = 0.26431 0.20634
# Poissons Ratio (z) = 0.22625 0.08967
#
# Static dielectric constant tensor:
#      x y z
#    x 3.518800 0.000000 0.000000 
#    y 0.000000 3.557790 0.000000 
#    z 0.000000 0.000000 3.614010 
# 
# 
# High freq. dielectric constant tensor:
#      x y z
#    x 1.755640 0.000000 0.000000 
#    y 0.000000 1.778740 0.000000 
#    z 0.000000 0.000000 1.781540 
# 
# From -- ./inp_files/20767.got.cif
#   From: 2010.03.12/outbox.cif.g09.slc.cpg/sg62_11_cif.got.tgz:20767.got - 2010.04.10 19:12:36.
