data_PCOD8252633
_publ_section_title
;
Structure prediction by ZEFSAII (Michael W. Deem and Ramdas Pophale) SiO2 
 PCOD8252633
Probable space group: P N M A
;
_chemical_formula_sum "Si O2"
_cell_formula_units_Z 40
_cell_length_a 25.670874
_cell_length_b 9.167685
_cell_length_c 9.137065
_cell_angle_alpha 90.000000
_cell_angle_beta 90.000000
_cell_angle_gamma 90.000000
_cell_volume 2150.339596
_symmetry_space_group_name_H-M "P N M A"
_symmetry_group_IT_number 62
_symmetry_cell_setting 'orthorhombic'
loop_
_space_group_symop_operation_xyz
x,y,z
1/2-x,-y,1/2+z
1/2+x,1/2-y,1/2-z
-x,1/2+y,-z
-x,-y,-z
1/2+x,y,1/2-z
1/2-x,1/2+y,1/2+z
x,1/2-y,z
loop_
_atom_site_type_symbol
_atom_site_label
_atom_site_fract_x
_atom_site_fract_y
_atom_site_fract_z
Si Si1 0.787673 0.576564 0.197206
Si Si2 0.405579 0.580201 0.796851
Si Si3 0.198542 0.419455 0.135075
Si Si4 0.502227 0.079886 0.846352
Si Si5 0.615882 0.419355 0.878430
O O1 0.785654 0.750000 0.207746
O O2 0.734493 0.511473 0.257444
O O3 0.836383 0.509520 0.288772
O O4 0.793771 0.526211 0.029971
O O5 0.420024 0.750000 0.809198
O O6 0.361264 0.550917 0.677722
O O7 0.457854 0.494081 0.744566
O O8 0.387168 0.518401 0.955837
O O9 0.212578 0.250000 0.154371
O O10 0.489844 0.250000 0.864702
O O11 0.561561 0.056006 0.788970
O O12 0.500000 0.000000 0.000000
O O13 0.628259 0.250000 0.892299
#
# Coordination Sequence:
#
# PCOD8252633 Si02
#       5
#     8   8   8   8   8
#     4  10  20  35  54  74  99 133 170 207 252 305
#     4   9  17  31  49  70  99 132 165 203 247 293
#     4  10  21  35  52  75 101 131 167 208 255 302
#     4   9  16  28  48  73  99 129 166 203 244 293
#     4   8  15  29  49  70  95 129 162 197 242 289
#
# _framework density 18.601713
#
# number of rings (size 3 to 8) (size 9 to 14) (size 15 to 20)
#    0.000    2.800    0.000    3.000    0.000    3.200 
#    0.000    8.000    0.000    0.000    0.000    0.000 
#    0.000    0.000    0.000    0.000    0.000    0.000 
#
# Total GULP energy -495757.169964 kJ/mol
# GULP energy per Si atom -12393.929249 kJ/mol
# Density = 1.855937 g / cm^3
# Si number density = 18.601713 Si / 1000 Ang^3
#
#
#
# Elastic Constant Matrix: (Units=GPa)
#
#
# Indices 1 2 3 4 5 6 
#
# 1 68.3056 25.4704 6.1925 0.0000 0.0000 0.0000
# 2 25.4704 43.8604 10.3197 0.0000 0.0000 0.0000
# 3 6.1925 10.3197 56.9268 0.0000 0.0000 0.0000
# 4 0.0000 0.0000 0.0000 18.4888 0.0000 0.0000
# 5 0.0000 0.0000 0.0000 0.0000 28.6489 0.0000
# 6 0.0000 0.0000 0.0000 0.0000 0.0000 34.4558
#
#
#
# Elastic Compliance Matrix: (Units=1/GPa)
#
#
# Indices 1 2 3 4 5 6 
#
# 1 0.018687 -0.010836 -0.000068 0.000000 0.000000 0.000000
# 2 -0.010836 0.030098 -0.004278 0.000000 0.000000 0.000000
# 3 -0.000068 -0.004278 0.018349 0.000000 0.000000 0.000000
# 4 0.000000 0.000000 0.000000 0.054087 0.000000 0.000000
# 5 0.000000 0.000000 0.000000 0.000000 0.034905 0.000000
# 6 0.000000 0.000000 0.000000 0.000000 0.000000 0.029023
#
#
# Mechanical properties :
#
#
# Convention : Reuss Voigt Hill
#
# Bulk Modulus (GPa) = 27.19513 28.11757 27.65635
# Shear Modulus (GPa) = 21.95200 24.79272 23.37236
#
# Velocity S-wave (km/s) = 3.43899 3.65474 3.54851
# Velocity P-wave (km/s) = 5.51546 5.74090 5.62931
#
# Compressibility (1/GPa) = 0.03677128
#
# Stress axis : x y z
#
# Youngs Moduli (GPa) = 53.51377 33.22431 54.49797
#
# Poissons Ratio (x) = 0.36001 0.00373
# Poissons Ratio (y) = 0.57985 0.23312
# Poissons Ratio (z) = 0.00366 0.14212
#
# Static dielectric constant tensor:
#      x y z
#    x 3.970670 0.000000 0.000000 
#    y 0.000000 3.311860 0.000000 
#    z 0.000000 0.000000 3.343850 
# 
# 
# High freq. dielectric constant tensor:
#      x y z
#    x 1.741260 0.000000 0.000000 
#    y 0.000000 1.697700 0.000000 
#    z 0.000000 0.000000 1.693450 
# 
# From -- ./inp_files/9100.got.cif
#   From: 2010.03.12/outbox.cif.g09.slc.cpg/sg62_5_cif.got.tgz:9100.got - 2010.04.10 19:12:36.
