data_PCOD8252851
_publ_section_title
;
Structure prediction by ZEFSAII (Michael W. Deem and Ramdas Pophale) SiO2 
 PCOD8252851
Probable space group: P N M A
;
_chemical_formula_sum "Si O2"
_cell_formula_units_Z 48
_cell_length_a 20.136142
_cell_length_b 8.804420
_cell_length_c 14.586289
_cell_angle_alpha 90.000000
_cell_angle_beta 90.000000
_cell_angle_gamma 90.000000
_cell_volume 2585.960167
_symmetry_space_group_name_H-M "P N M A"
_symmetry_group_IT_number 62
_symmetry_cell_setting 'orthorhombic'
loop_
_space_group_symop_operation_xyz
x,y,z
1/2-x,-y,1/2+z
1/2+x,1/2-y,1/2-z
-x,1/2+y,-z
-x,-y,-z
1/2+x,y,1/2-z
1/2-x,1/2+y,1/2+z
x,1/2-y,z
loop_
_atom_site_type_symbol
_atom_site_label
_atom_site_fract_x
_atom_site_fract_y
_atom_site_fract_z
Si Si1 0.482646 0.075708 0.720315
Si Si2 0.152750 0.077071 0.192728
Si Si3 0.047539 0.572516 0.425996
Si Si4 0.190335 0.074871 0.993915
Si Si5 0.554741 0.571726 0.565851
Si Si6 0.187191 0.072929 0.393967
O O1 0.495227 0.250000 0.695455
O O2 0.487435 0.045288 0.828357
O O3 0.409978 0.032760 0.682996
O O4 0.538733 0.976009 0.670370
O O5 0.125869 0.250000 0.197375
O O6 0.194143 0.040431 0.284880
O O7 0.198928 0.052486 0.103750
O O8 0.059308 0.750000 0.445040
O O9 0.117200 0.486440 0.430940
O O10 0.000000 0.500000 0.500000
O O11 0.178963 0.250000 0.969144
O O12 0.128082 0.981549 0.957852
O O13 0.256125 0.017513 0.945585
O O14 0.500000 0.500000 0.500000
O O15 0.550778 0.750000 0.555205
O O16 0.193754 0.250000 0.416671
#
# Coordination Sequence:
#
# PCOD8252851 Si02
#       6
#     8   8   8   8   8   8
#     4  10  20  35  58  86 115 147 190 238 285 341
#     4   9  19  36  59  81 109 150 192 231 285 346
#     4  10  21  39  63  89 116 152 196 241 290 343
#     4  11  22  38  59  85 116 153 193 240 290 343
#     4  12  23  36  57  87 119 153 191 235 288 344
#     4  10  21  39  60  85 115 152 195 239 289 346
#
# _framework density 18.561772000000001
#
# number of rings (size 3 to 8) (size 9 to 14) (size 15 to 20)
#    0.000    1.667    1.667    3.500    0.000    3.333 
#    3.000    0.000    0.000    0.000    0.000    0.000 
#    0.000    0.000    0.000    0.000    0.000    0.000 
#
# Total GULP energy -595336.552221 kJ/mol
# GULP energy per Si atom -12402.844838 kJ/mol
# Density = 1.851952 g / cm^3
# Si number density = 18.561772 Si / 1000 Ang^3
#
#
#
# Elastic Constant Matrix: (Units=GPa)
#
#
# Indices 1 2 3 4 5 6 
#
# 1 82.9394 41.6967 65.5167 0.0000 0.0000 0.0000
# 2 41.6967 119.2362 58.0773 0.0000 0.0000 0.0000
# 3 65.5167 58.0773 121.7974 0.0000 0.0000 0.0000
# 4 0.0000 0.0000 0.0000 29.9541 0.0000 0.0000
# 5 0.0000 0.0000 0.0000 0.0000 34.2153 0.0000
# 6 0.0000 0.0000 0.0000 0.0000 0.0000 37.8529
#
#
#
# Elastic Compliance Matrix: (Units=1/GPa)
#
#
# Indices 1 2 3 4 5 6 
#
# 1 0.021504 -0.002456 -0.010396 0.000000 0.000000 0.000000
# 2 -0.002456 0.011204 -0.004021 0.000000 0.000000 0.000000
# 3 -0.010396 -0.004021 0.015720 0.000000 0.000000 0.000000
# 4 0.000000 0.000000 0.000000 0.033384 0.000000 0.000000
# 5 0.000000 0.000000 0.000000 0.000000 0.029227 0.000000
# 6 0.000000 0.000000 0.000000 0.000000 0.000000 0.026418
#
#
# Mechanical properties :
#
#
# Convention : Reuss Voigt Hill
#
# Bulk Modulus (GPa) = 68.11493 72.72827 70.42160
# Shear Modulus (GPa) = 28.39308 30.98328 29.68818
#
# Velocity S-wave (km/s) = 3.91532 4.09001 4.00362
# Velocity P-wave (km/s) = 7.56410 7.84673 7.70671
#
# Compressibility (1/GPa) = 0.01468107
#
# Stress axis : x y z
#
# Youngs Moduli (GPa) = 46.50265 89.25071 63.61239
#
# Poissons Ratio (x) = 0.21922 0.66133
# Poissons Ratio (y) = 0.11422 0.25581
# Poissons Ratio (z) = 0.48345 0.35892
#
# Static dielectric constant tensor:
#      x y z
#    x 3.299740 0.000000 0.000000 
#    y 0.000000 3.609970 0.000000 
#    z 0.000000 0.000000 3.692510 
# 
# 
# High freq. dielectric constant tensor:
#      x y z
#    x 1.700770 0.000000 0.000000 
#    y 0.000000 1.738200 0.000000 
#    z 0.000000 0.000000 1.731300 
# 
# From -- ./inp_files/19607.got.cif
#   From: 2010.03.12/outbox.cif.g09.slc.cpg/sg62_10_cif.got.tgz:19607.got - 2010.04.10 19:12:36.
