data_PCOD8252557
_publ_section_title
;
Structure prediction by ZEFSAII (Michael W. Deem and Ramdas Pophale) SiO2 
 PCOD8252557
Probable space group: P N M A
;
_chemical_formula_sum "Si O2"
_cell_formula_units_Z 64
_cell_length_a 22.013580
_cell_length_b 8.852076
_cell_length_c 16.983474
_cell_angle_alpha 90.000000
_cell_angle_beta 90.000000
_cell_angle_gamma 90.000000
_cell_volume 3309.499661
_symmetry_space_group_name_H-M "P N M A"
_symmetry_group_IT_number 62
_symmetry_cell_setting 'orthorhombic'
loop_
_space_group_symop_operation_xyz
x,y,z
1/2-x,-y,1/2+z
1/2+x,1/2-y,1/2-z
-x,1/2+y,-z
-x,-y,-z
1/2+x,y,1/2-z
1/2-x,1/2+y,1/2+z
x,1/2-y,z
loop_
_atom_site_type_symbol
_atom_site_label
_atom_site_fract_x
_atom_site_fract_y
_atom_site_fract_z
Si Si1 0.885928 0.072686 0.275576
Si Si2 0.360707 0.926314 0.467411
Si Si3 0.343292 0.425805 0.793809
Si Si4 0.896165 0.426550 0.874641
Si Si5 0.280940 0.426969 0.341708
Si Si6 0.563730 0.423579 0.917021
Si Si7 0.563666 0.423023 0.094725
Si Si8 0.033548 0.072839 0.849639
O O1 0.889500 0.250000 0.291119
O O2 0.825130 0.025572 0.229545
O O3 0.884019 0.983038 0.358215
O O4 0.944771 0.020035 0.226337
O O5 0.349692 0.750000 0.470810
O O6 0.423729 0.967444 0.423707
O O7 0.362191 0.988635 0.555412
O O8 0.303399 0.997003 0.422239
O O9 0.328346 0.250000 0.802480
O O10 0.360613 0.467771 0.704765
O O11 0.286099 0.522148 0.820446
O O12 0.399436 0.466334 0.849281
O O13 0.894601 0.250000 0.892592
O O14 0.965789 0.481996 0.869230
O O15 0.281792 0.250000 0.356063
O O16 0.546598 0.250000 0.899355
O O17 0.506230 0.530083 0.902240
O O18 0.588457 0.441196 0.005658
O O19 0.569855 0.250000 0.123196
O O20 0.035794 0.250000 0.828938
#
# Coordination Sequence:
#
# PCOD8252557 Si02
#       8
#     8   8   8   8   8   8   8   8
#     4  10  20  34  56  84 111 147 191 236 282 332
#     4  10  20  35  58  86 113 147 188 231 278 333
#     4  11  23  39  59  83 112 151 194 237 286 338
#     4  10  21  36  55  83 116 149 183 226 280 338
#     4  10  22  41  60  78 109 150 192 237 284 334
#     4  10  20  35  57  86 117 148 185 232 284 340
#     4  10  21  37  58  84 115 151 187 232 286 338
#     4   9  18  33  55  84 119 152 183 224 280 339
#
# _framework density 19.338270999999999
#
# number of rings (size 3 to 8) (size 9 to 14) (size 15 to 20)
#    0.000    2.000    0.000    3.375    0.000    6.000 
#    2.250    0.000    0.000    0.000    0.000    0.000 
#    0.000    0.000    0.000    0.000    0.000    0.000 
#
# Total GULP energy -793902.847087 kJ/mol
# GULP energy per Si atom -12404.731986 kJ/mol
# Density = 1.929426 g / cm^3
# Si number density = 19.338271 Si / 1000 Ang^3
#
#
#
# Elastic Constant Matrix: (Units=GPa)
#
#
# Indices 1 2 3 4 5 6 
#
# 1 56.1770 14.1728 12.5471 0.0000 0.0000 0.0000
# 2 14.1728 56.7752 42.1869 0.0000 0.0000 0.0000
# 3 12.5471 42.1869 93.0255 0.0000 0.0000 0.0000
# 4 0.0000 0.0000 0.0000 33.3130 0.0000 0.0000
# 5 0.0000 0.0000 0.0000 0.0000 16.8542 0.0000
# 6 0.0000 0.0000 0.0000 0.0000 0.0000 31.5157
#
#
#
# Elastic Compliance Matrix: (Units=1/GPa)
#
#
# Indices 1 2 3 4 5 6 
#
# 1 0.019021 -0.004286 -0.000622 0.000000 0.000000 0.000000
# 2 -0.004286 0.027531 -0.011907 0.000000 0.000000 0.000000
# 3 -0.000622 -0.011907 0.016233 0.000000 0.000000 0.000000
# 4 0.000000 0.000000 0.000000 0.030018 0.000000 0.000000
# 5 0.000000 0.000000 0.000000 0.000000 0.059332 0.000000
# 6 0.000000 0.000000 0.000000 0.000000 0.000000 0.031730
#
#
# Mechanical properties :
#
#
# Convention : Reuss Voigt Hill
#
# Bulk Modulus (GPa) = 34.29909 38.19902 36.24905
# Shear Modulus (GPa) = 22.00561 25.47466 23.74014
#
# Velocity S-wave (km/s) = 3.37698 3.63343 3.50755
# Velocity P-wave (km/s) = 5.74284 6.11542 5.93206
#
# Compressibility (1/GPa) = 0.02915529
#
# Stress axis : x y z
#
# Youngs Moduli (GPa) = 52.57318 36.32285 61.60127
#
# Poissons Ratio (x) = 0.15569 0.03830
# Poissons Ratio (y) = 0.22534 0.73349
# Poissons Ratio (z) = 0.03268 0.43250
#
# Static dielectric constant tensor:
#      x y z
#    x 3.367290 0.000000 0.000000 
#    y 0.000000 3.523900 0.000000 
#    z 0.000000 0.000000 3.675170 
# 
# 
# High freq. dielectric constant tensor:
#      x y z
#    x 1.736160 0.000000 0.000000 
#    y 0.000000 1.761370 0.000000 
#    z 0.000000 0.000000 1.761330 
# 
# From -- ./inp_files/24840.got.cif
#   From: 2010.03.12/outbox.cif.g09.slc.cpg/sg62_13_cif.got.tgz:24840.got - 2010.04.10 19:12:36.
