data_PCOD8252527
_publ_section_title
;
Structure prediction by ZEFSAII (Michael W. Deem and Ramdas Pophale) SiO2 
 PCOD8252527
Probable space group: P N M A
;
_chemical_formula_sum "Si O2"
_cell_formula_units_Z 48
_cell_length_a 14.110954
_cell_length_b 8.998003
_cell_length_c 18.613875
_cell_angle_alpha 90.000000
_cell_angle_beta 90.000000
_cell_angle_gamma 90.000000
_cell_volume 2363.411274
_symmetry_space_group_name_H-M "P N M A"
_symmetry_group_IT_number 62
_symmetry_cell_setting 'orthorhombic'
loop_
_space_group_symop_operation_xyz
x,y,z
1/2-x,-y,1/2+z
1/2+x,1/2-y,1/2-z
-x,1/2+y,-z
-x,-y,-z
1/2+x,y,1/2-z
1/2-x,1/2+y,1/2+z
x,1/2-y,z
loop_
_atom_site_type_symbol
_atom_site_label
_atom_site_fract_x
_atom_site_fract_y
_atom_site_fract_z
Si Si1 0.536931 0.922058 0.606192
Si Si2 0.356243 0.424701 0.858819
Si Si3 0.066786 0.422555 0.639338
Si Si4 0.325996 0.426211 0.019659
Si Si5 0.830800 0.576362 0.217001
Si Si6 0.634819 0.922068 0.455566
O O1 0.512355 0.750000 0.616168
O O2 0.599440 0.950615 0.535937
O O3 0.593967 0.981133 0.673564
O O4 0.439619 0.013253 0.601380
O O5 0.347356 0.250000 0.863698
O O6 0.461671 0.470296 0.832480
O O7 0.275561 0.480733 0.802737
O O8 0.337541 0.489061 0.938764
O O9 0.065827 0.250000 0.617188
O O10 0.087083 0.517770 0.568273
O O11 0.146477 0.453572 0.699593
O O12 0.321886 0.250000 0.021132
O O13 0.232036 0.491833 0.055471
O O14 0.844018 0.750000 0.197907
O O15 0.650817 0.750000 0.438132
#
# Coordination Sequence:
#
# PCOD8252527 Si02
#       6
#     8   8   8   8   8   8
#     4  10  20  34  55  85 118 150 192 241 289 346
#     4   9  19  37  59  83 112 151 196 242 292 347
#     4  10  22  38  58  85 117 154 201 245 291 357
#     4  11  21  36  59  84 117 153 194 250 300 347
#     4  10  20  37  60  83 116 159 198 242 296 354
#     4  10  20  34  56  85 116 151 192 237 288 351
#
# _framework density 20.309626000000002
#
# number of rings (size 3 to 8) (size 9 to 14) (size 15 to 20)
#    0.000    2.000    1.667    2.000    0.000    3.333 
#    0.000    5.000    0.000    0.000    0.000    0.000 
#    0.000    0.000    0.000    0.000    0.000    0.000 
#
# Total GULP energy -595222.021402 kJ/mol
# GULP energy per Si atom -12400.458779 kJ/mol
# Density = 2.026340 g / cm^3
# Si number density = 20.309626 Si / 1000 Ang^3
#
#
#
# Elastic Constant Matrix: (Units=GPa)
#
#
# Indices 1 2 3 4 5 6 
#
# 1 133.6279 28.6926 52.4291 0.0000 0.0000 0.0000
# 2 28.6926 65.5172 25.2461 0.0000 0.0000 0.0000
# 3 52.4291 25.2461 78.3840 0.0000 0.0000 0.0000
# 4 0.0000 0.0000 0.0000 27.3073 0.0000 0.0000
# 5 0.0000 0.0000 0.0000 0.0000 31.6212 0.0000
# 6 0.0000 0.0000 0.0000 0.0000 0.0000 30.9495
#
#
#
# Elastic Compliance Matrix: (Units=1/GPa)
#
#
# Indices 1 2 3 4 5 6 
#
# 1 0.010403 -0.002140 -0.006269 0.000000 0.000000 0.000000
# 2 -0.002140 0.017866 -0.004323 0.000000 0.000000 0.000000
# 3 -0.006269 -0.004323 0.018343 0.000000 0.000000 0.000000
# 4 0.000000 0.000000 0.000000 0.036620 0.000000 0.000000
# 5 0.000000 0.000000 0.000000 0.000000 0.031624 0.000000
# 6 0.000000 0.000000 0.000000 0.000000 0.000000 0.032311
#
#
# Mechanical properties :
#
#
# Convention : Reuss Voigt Hill
#
# Bulk Modulus (GPa) = 47.28519 54.47386 50.87952
# Shear Modulus (GPa) = 27.82726 29.38635 28.60681
#
# Velocity S-wave (km/s) = 3.70557 3.80796 3.75712
# Velocity P-wave (km/s) = 6.45299 6.79809 6.62779
#
# Compressibility (1/GPa) = 0.02114827
#
# Stress axis : x y z
#
# Youngs Moduli (GPa) = 96.13048 55.97165 54.51669
#
# Poissons Ratio (x) = 0.11979 0.34175
# Poissons Ratio (y) = 0.20573 0.23567
# Poissons Ratio (z) = 0.60261 0.24196
#
# Static dielectric constant tensor:
#      x y z
#    x 3.935950 0.000000 0.000000 
#    y 0.000000 3.477550 0.000000 
#    z 0.000000 0.000000 3.598990 
# 
# 
# High freq. dielectric constant tensor:
#      x y z
#    x 1.807300 0.000000 0.000000 
#    y 0.000000 1.773660 0.000000 
#    z 0.000000 0.000000 1.781000 
# 
# From -- ./inp_files/23703.got.cif
#   From: 2010.03.12/outbox.cif.g09.slc.cpg/sg62_12_cif.got.tgz:23703.got - 2010.04.10 19:12:36.
