data_PCOD8252838
_publ_section_title
;
Structure prediction by ZEFSAII (Michael W. Deem and Ramdas Pophale) SiO2 
 PCOD8252838
Probable space group: P N M A
;
_chemical_formula_sum "Si O2"
_cell_formula_units_Z 48
_cell_length_a 16.142442
_cell_length_b 13.537772
_cell_length_c 9.653294
_cell_angle_alpha 90.000000
_cell_angle_beta 90.000000
_cell_angle_gamma 90.000000
_cell_volume 2109.560395
_symmetry_space_group_name_H-M "P N M A"
_symmetry_group_IT_number 62
_symmetry_cell_setting 'orthorhombic'
loop_
_space_group_symop_operation_xyz
x,y,z
1/2-x,-y,1/2+z
1/2+x,1/2-y,1/2-z
-x,1/2+y,-z
-x,-y,-z
1/2+x,y,1/2-z
1/2-x,1/2+y,1/2+z
x,1/2-y,z
loop_
_atom_site_type_symbol
_atom_site_label
_atom_site_fract_x
_atom_site_fract_y
_atom_site_fract_z
Si Si1 0.109930 0.362854 0.744648
Si Si2 0.806246 0.362141 0.114140
Si Si3 0.521169 0.638964 0.028420
Si Si4 0.829584 0.451427 0.394714
Si Si5 0.351840 0.548470 0.527023
Si Si6 0.877690 0.863930 0.690505
O O1 0.140009 0.250000 0.718888
O O2 0.018072 0.377884 0.680321
O O3 0.173602 0.436544 0.666185
O O4 0.104759 0.387152 0.907162
O O5 0.817685 0.250000 0.065021
O O6 0.845658 0.376967 0.266358
O O7 0.855932 0.431515 0.006462
O O8 0.709272 0.395672 0.118917
O O9 0.555175 0.750000 0.013617
O O10 0.596201 0.562671 0.005269
O O11 0.450389 0.617159 0.916232
O O12 0.744423 0.420327 0.466692
O O13 0.396178 0.571204 0.672447
O O14 0.870483 0.750000 0.736058
#
# Coordination Sequence:
#
# PCOD8252838 Si02
#       6
#     8   8   8   8   8   8
#     4  10  21  36  55  83 117 148 180 224 280 334
#     4   9  18  33  53  81 113 144 185 230 271 326
#     4  10  20  35  58  84 111 148 188 224 269 329
#     4  10  20  35  58  85 111 145 190 231 267 321
#     4  10  20  35  59  85 109 143 185 231 279 321
#     4   9  18  34  56  80 110 150 186 218 272 341
#
# _framework density 22.753556
#
# number of rings (size 3 to 8) (size 9 to 14) (size 15 to 20)
#    0.000    2.333    0.000    2.500    0.000    4.000 
#    0.000    3.333    0.000    7.000    0.000   11.667 
#    0.000    0.000    0.000    0.000    0.000    0.000 
#
# Total GULP energy -595233.154381 kJ/mol
# GULP energy per Si atom -12400.690716 kJ/mol
# Density = 2.270177 g / cm^3
# Si number density = 22.753556 Si / 1000 Ang^3
#
#
#
# Elastic Constant Matrix: (Units=GPa)
#
#
# Indices 1 2 3 4 5 6 
#
# 1 39.1653 5.6725 0.4752 0.0000 0.0000 0.0000
# 2 5.6725 107.5584 24.4958 0.0000 0.0000 0.0000
# 3 0.4752 24.4958 83.0602 0.0000 0.0000 0.0000
# 4 0.0000 0.0000 0.0000 22.7011 0.0000 0.0000
# 5 0.0000 0.0000 0.0000 0.0000 22.8079 0.0000
# 6 0.0000 0.0000 0.0000 0.0000 0.0000 24.1265
#
#
#
# Elastic Compliance Matrix: (Units=1/GPa)
#
#
# Indices 1 2 3 4 5 6 
#
# 1 0.025735 -0.001419 0.000271 0.000000 0.000000 0.000000
# 2 -0.001419 0.010045 -0.002954 0.000000 0.000000 0.000000
# 3 0.000271 -0.002954 0.012909 0.000000 0.000000 0.000000
# 4 0.000000 0.000000 0.000000 0.044051 0.000000 0.000000
# 5 0.000000 0.000000 0.000000 0.000000 0.043844 0.000000
# 6 0.000000 0.000000 0.000000 0.000000 0.000000 0.041448
#
#
# Mechanical properties :
#
#
# Convention : Reuss Voigt Hill
#
# Bulk Modulus (GPa) = 24.70047 32.34121 28.52084
# Shear Modulus (GPa) = 25.03361 27.20314 26.11838
#
# Velocity S-wave (km/s) = 3.32053 3.46143 3.39171
# Velocity P-wave (km/s) = 5.05772 5.49726 5.28206
#
# Compressibility (1/GPa) = 0.04048506
#
# Stress axis : x y z
#
# Youngs Moduli (GPa) = 38.85752 99.55265 77.46426
#
# Poissons Ratio (x) = 0.14127 -0.02101
# Poissons Ratio (y) = 0.05514 0.22885
# Poissons Ratio (z) = -0.01054 0.29411
#
# Static dielectric constant tensor:
#      x y z
#    x 3.752130 0.000000 0.000000 
#    y 0.000000 4.228070 0.000000 
#    z 0.000000 0.000000 4.072800 
# 
# 
# High freq. dielectric constant tensor:
#      x y z
#    x 1.863700 0.000000 0.000000 
#    y 0.000000 1.909970 0.000000 
#    z 0.000000 0.000000 1.895640 
# 
# From -- ./inp_files/7662.got.cif
#   From: 2010.03.12/outbox.cif.g09.slc.cpg/sg62_4_cif.got.tgz:7662.got - 2010.04.10 19:12:36.
