data_PCOD8252951
_publ_section_title
;
Structure prediction by ZEFSAII (Michael W. Deem and Ramdas Pophale) SiO2 
 PCOD8252951
Probable space group: P N M A
;
_chemical_formula_sum "Si O2"
_cell_formula_units_Z 48
_cell_length_a 8.952830
_cell_length_b 8.407663
_cell_length_c 30.985399
_cell_angle_alpha 90.000000
_cell_angle_beta 90.000000
_cell_angle_gamma 90.000000
_cell_volume 2332.344652
_symmetry_space_group_name_H-M "P N M A"
_symmetry_group_IT_number 62
_symmetry_cell_setting 'orthorhombic'
loop_
_space_group_symop_operation_xyz
x,y,z
1/2-x,-y,1/2+z
1/2+x,1/2-y,1/2-z
-x,1/2+y,-z
-x,-y,-z
1/2+x,y,1/2-z
1/2-x,1/2+y,1/2+z
x,1/2-y,z
loop_
_atom_site_type_symbol
_atom_site_label
_atom_site_fract_x
_atom_site_fract_y
_atom_site_fract_z
Si Si1 0.417496 0.562260 0.958277
Si Si2 0.080603 0.938957 0.957734
Si Si3 0.400261 0.434823 0.290223
Si Si4 0.916502 0.938734 0.872788
Si Si5 0.076347 0.932957 0.287590
Si Si6 0.922755 0.061027 0.371292
O O1 0.413916 0.750000 0.960032
O O2 0.249271 0.494392 0.956748
O O3 0.506536 0.504276 0.916296
O O4 0.500000 0.500000 0.000000
O O5 0.079020 0.750000 0.957332
O O6 0.994452 0.006761 0.915855
O O7 0.000000 0.000000 0.000000
O O8 0.358085 0.250000 0.295847
O O9 0.493523 0.499165 0.331105
O O10 0.498185 0.455263 0.247494
O O11 0.252289 0.538055 0.286429
O O12 0.915539 0.750000 0.874113
O O13 0.747218 0.001052 0.870005
O O14 0.043644 0.750000 0.276566
O O15 0.014894 0.974763 0.334389
O O16 0.934128 0.250000 0.365052
#
# Coordination Sequence:
#
# PCOD8252951 Si02
#       6
#     8   8   8   8   8   8
#     4  10  21  36  58  85 116 152 196 245 295 352
#     4  10  20  36  56  83 114 148 189 237 289 343
#     4  11  22  40  64  87 114 156 201 239 286 356
#     4   9  19  36  61  86 109 142 193 243 281 333
#     4  12  25  40  59  89 124 154 189 245 303 349
#     4  10  20  38  62  86 112 152 199 241 289 357
#
# _framework density 20.580148000000001
#
# number of rings (size 3 to 8) (size 9 to 14) (size 15 to 20)
#    0.000    1.667    0.000    5.000    0.000    6.667 
#    0.000    5.000    0.000    0.000    0.000    0.000 
#    0.000    0.000    0.000    0.000    0.000    0.000 
#
# Total GULP energy -595440.824967 kJ/mol
# GULP energy per Si atom -12405.017187 kJ/mol
# Density = 2.053331 g / cm^3
# Si number density = 20.580148 Si / 1000 Ang^3
#
#
#
# Elastic Constant Matrix: (Units=GPa)
#
#
# Indices 1 2 3 4 5 6 
#
# 1 168.9412 12.4789 71.8553 0.0000 0.0000 0.0000
# 2 12.4789 32.9773 14.3958 0.0000 0.0000 0.0000
# 3 71.8553 14.3958 167.7116 0.0000 0.0000 0.0000
# 4 0.0000 0.0000 0.0000 27.3470 0.0000 0.0000
# 5 0.0000 0.0000 0.0000 0.0000 49.1735 0.0000
# 6 0.0000 0.0000 0.0000 0.0000 0.0000 26.3789
#
#
#
# Elastic Compliance Matrix: (Units=1/GPa)
#
#
# Indices 1 2 3 4 5 6 
#
# 1 0.007305 -0.001452 -0.003005 0.000000 0.000000 0.000000
# 2 -0.001452 0.031793 -0.002107 0.000000 0.000000 0.000000
# 3 -0.003005 -0.002107 0.007431 0.000000 0.000000 0.000000
# 4 0.000000 0.000000 0.000000 0.036567 0.000000 0.000000
# 5 0.000000 0.000000 0.000000 0.000000 0.020336 0.000000
# 6 0.000000 0.000000 0.000000 0.000000 0.000000 0.037909
#
#
# Mechanical properties :
#
#
# Convention : Reuss Voigt Hill
#
# Bulk Modulus (GPa) = 29.93966 63.01001 46.47483
# Shear Modulus (GPa) = 30.19276 38.63989 34.41633
#
# Velocity S-wave (km/s) = 3.83441 4.33775 4.09382
# Velocity P-wave (km/s) = 5.84662 7.46803 6.70651
#
# Compressibility (1/GPa) = 0.03340052
#
# Stress axis : x y z
#
# Youngs Moduli (GPa) = 136.90024 31.45332 134.57293
#
# Poissons Ratio (x) = 0.04568 0.40439
# Poissons Ratio (y) = 0.19883 0.28351
# Poissons Ratio (z) = 0.41138 0.06626
#
# Static dielectric constant tensor:
#      x y z
#    x 3.699550 0.000000 0.000000 
#    y 0.000000 3.535300 0.000000 
#    z 0.000000 0.000000 3.908970 
# 
# 
# High freq. dielectric constant tensor:
#      x y z
#    x 1.825280 0.000000 0.000000 
#    y 0.000000 1.776370 0.000000 
#    z 0.000000 0.000000 1.823280 
# 
# From -- ./inp_files/32014.got.cif
#   From: 2010.03.12/outbox.cif.g09.slc.cpg/sg62_17_cif.got.tgz:32014.got - 2010.04.10 19:12:36.
