data_PCOD8252723
_publ_section_title
;
Structure prediction by ZEFSAII (Michael W. Deem and Ramdas Pophale) SiO2 
 PCOD8252723
Probable space group: P N M A
;
_chemical_formula_sum "Si O2"
_cell_formula_units_Z 64
_cell_length_a 21.547699
_cell_length_b 8.892413
_cell_length_c 17.151220
_cell_angle_alpha 90.000000
_cell_angle_beta 90.000000
_cell_angle_gamma 90.000000
_cell_volume 3286.363079
_symmetry_space_group_name_H-M "P N M A"
_symmetry_group_IT_number 62
_symmetry_cell_setting 'orthorhombic'
loop_
_space_group_symop_operation_xyz
x,y,z
1/2-x,-y,1/2+z
1/2+x,1/2-y,1/2-z
-x,1/2+y,-z
-x,-y,-z
1/2+x,y,1/2-z
1/2-x,1/2+y,1/2+z
x,1/2-y,z
loop_
_atom_site_type_symbol
_atom_site_label
_atom_site_fract_x
_atom_site_fract_y
_atom_site_fract_z
Si Si1 0.880670 0.071592 0.270376
Si Si2 0.366198 0.074996 0.476449
Si Si3 0.350235 0.427023 0.789865
Si Si4 0.889081 0.571752 0.865977
Si Si5 0.272178 0.424831 0.339680
Si Si6 0.578058 0.577536 0.933908
Si Si7 0.567242 0.421371 0.089064
Si Si8 0.029353 0.928664 0.859839
O O1 0.887456 0.250000 0.270351
O O2 0.815333 0.024292 0.232822
O O3 0.884511 0.012968 0.359220
O O4 0.937552 0.007144 0.218250
O O5 0.370080 0.250000 0.498291
O O6 0.307847 0.043835 0.420309
O O7 0.429895 0.021312 0.434518
O O8 0.356370 0.978255 0.554137
O O9 0.352025 0.250000 0.780026
O O10 0.350485 0.502291 0.704992
O O11 0.289312 0.475834 0.837473
O O12 0.409884 0.480872 0.838321
O O13 0.887324 0.750000 0.858478
O O14 0.959668 0.507802 0.865259
O O15 0.254481 0.250000 0.332541
O O16 0.595047 0.750000 0.952158
O O17 0.506069 0.561014 0.913877
O O18 0.597302 0.479561 0.008387
O O19 0.588054 0.250000 0.101736
O O20 0.028324 0.750000 0.856268
#
# Coordination Sequence:
#
# PCOD8252723 Si02
#       8
#     8   8   8   8   8   8   8   8
#     4   8  14  29  55  82 107 140 180 222 267 319
#     4   9  18  35  58  84 114 145 180 223 273 324
#     4  12  25  40  56  76 107 146 190 236 281 323
#     4  11  21  34  56  85 115 146 182 220 269 332
#     4   9  19  38  60  78 103 142 185 228 276 326
#     4   9  17  32  56  86 115 142 178 222 271 330
#     4  10  20  35  56  81 112 146 179 222 278 334
#     4   8  15  29  53  85 118 149 177 214 267 324
#
# _framework density 19.474416999999999
#
# number of rings (size 3 to 8) (size 9 to 14) (size 15 to 20)
#    0.000    2.500    0.000    4.500    0.000    3.000 
#    2.250    1.250    0.000    3.750    0.000    0.000 
#    0.000    0.000    0.000    0.000    0.000    0.000 
#
# Total GULP energy -793591.920558 kJ/mol
# GULP energy per Si atom -12399.873759 kJ/mol
# Density = 1.943009 g / cm^3
# Si number density = 19.474417 Si / 1000 Ang^3
#
#
#
# Elastic Constant Matrix: (Units=GPa)
#
#
# Indices 1 2 3 4 5 6 
#
# 1 54.0631 30.7883 24.2005 0.0000 0.0000 0.0000
# 2 30.7883 81.0460 40.8689 0.0000 0.0000 0.0000
# 3 24.2005 40.8689 113.0696 0.0000 0.0000 0.0000
# 4 0.0000 0.0000 0.0000 28.5979 0.0000 0.0000
# 5 0.0000 0.0000 0.0000 0.0000 19.5570 0.0000
# 6 0.0000 0.0000 0.0000 0.0000 0.0000 21.5394
#
#
#
# Elastic Compliance Matrix: (Units=1/GPa)
#
#
# Indices 1 2 3 4 5 6 
#
# 1 0.024066 -0.008004 -0.002258 0.000000 0.000000 0.000000
# 2 -0.008004 0.017751 -0.004703 0.000000 0.000000 0.000000
# 3 -0.002258 -0.004703 0.011027 0.000000 0.000000 0.000000
# 4 0.000000 0.000000 0.000000 0.034968 0.000000 0.000000
# 5 0.000000 0.000000 0.000000 0.000000 0.051133 0.000000
# 6 0.000000 0.000000 0.000000 0.000000 0.000000 0.046427
#
#
# Mechanical properties :
#
#
# Convention : Reuss Voigt Hill
#
# Bulk Modulus (GPa) = 43.64031 48.87713 46.25872
# Shear Modulus (GPa) = 22.42785 24.09360 23.26073
#
# Velocity S-wave (km/s) = 3.39729 3.52119 3.45979
# Velocity P-wave (km/s) = 6.15195 6.45634 6.30598
#
# Compressibility (1/GPa) = 0.02291460
#
# Stress axis : x y z
#
# Youngs Moduli (GPa) = 41.55318 56.33597 90.68445
#
# Poissons Ratio (x) = 0.45089 0.20476
# Poissons Ratio (y) = 0.33257 0.42648
# Poissons Ratio (z) = 0.09382 0.26494
#
# Static dielectric constant tensor:
#      x y z
#    x 3.459040 0.000000 0.000000 
#    y 0.000000 3.255790 0.000000 
#    z 0.000000 0.000000 3.807770 
# 
# 
# High freq. dielectric constant tensor:
#      x y z
#    x 1.745260 0.000000 0.000000 
#    y 0.000000 1.728880 0.000000 
#    z 0.000000 0.000000 1.770300 
# 
# From -- ./inp_files/24839.got.cif
#   From: 2010.03.12/outbox.cif.g09.slc.cpg/sg62_13_cif.got.tgz:24839.got - 2010.04.10 19:12:36.
