data_PCOD8252442
_publ_section_title
;
Structure prediction by ZEFSAII (Michael W. Deem and Ramdas Pophale) SiO2 
 PCOD8252442
Probable space group: P N M A
;
_chemical_formula_sum "Si O2"
_cell_formula_units_Z 40
_cell_length_a 15.440197
_cell_length_b 9.317534
_cell_length_c 15.688442
_cell_angle_alpha 90.000000
_cell_angle_beta 90.000000
_cell_angle_gamma 90.000000
_cell_volume 2257.010813
_symmetry_space_group_name_H-M "P N M A"
_symmetry_group_IT_number 62
_symmetry_cell_setting 'orthorhombic'
loop_
_space_group_symop_operation_xyz
x,y,z
1/2-x,-y,1/2+z
1/2+x,1/2-y,1/2-z
-x,1/2+y,-z
-x,-y,-z
1/2+x,y,1/2-z
1/2-x,1/2+y,1/2+z
x,1/2-y,z
loop_
_atom_site_type_symbol
_atom_site_label
_atom_site_fract_x
_atom_site_fract_y
_atom_site_fract_z
Si Si1 0.525734 0.414807 0.121593
Si Si2 0.444076 0.915216 0.432326
Si Si3 0.199649 0.413352 0.057875
Si Si4 0.048296 0.415256 0.186556
Si Si5 0.626443 0.417915 0.954927
O O1 0.496377 0.250000 0.111299
O O2 0.566913 0.444174 0.214126
O O3 0.441458 0.512624 0.110255
O O4 0.598531 0.453895 0.051873
O O5 0.473250 0.750000 0.428581
O O6 0.344724 0.927542 0.464088
O O7 0.500000 0.000000 0.500000
O O8 0.464247 0.990340 0.341578
O O9 0.230881 0.250000 0.072224
O O10 0.133210 0.458954 0.132869
O O11 0.279639 0.519234 0.062854
O O12 0.024946 0.250000 0.168568
O O13 0.629387 0.250000 0.936793
#
# Coordination Sequence:
#
# PCOD8252442 Si02
#       5
#     8   8   8   8   8
#     4   9  19  37  56  73  99 137 176 213 257 309
#     4   9  17  30  50  75 105 137 168 205 254 306
#     4   9  18  33  52  75 106 137 167 207 255 307
#     4   9  18  34  55  77 102 135 175 214 258 309
#     4  10  20  34  54  77 102 135 176 214 254 307
#
# _framework density 17.722556999999998
#
# number of rings (size 3 to 8) (size 9 to 14) (size 15 to 20)
#    0.000    2.800    0.000    2.400    0.000    5.600 
#    3.600    0.000    0.000    0.000    0.000    0.000 
#    0.000    0.000    0.000    0.000    0.000    0.000 
#
# Total GULP energy -495851.771486 kJ/mol
# GULP energy per Si atom -12396.294287 kJ/mol
# Density = 1.768222 g / cm^3
# Si number density = 17.722557 Si / 1000 Ang^3
#
#
#
# Elastic Constant Matrix: (Units=GPa)
#
#
# Indices 1 2 3 4 5 6 
#
# 1 104.7430 61.3678 48.5705 0.0000 0.0000 0.0000
# 2 61.3678 96.6082 43.3521 0.0000 0.0000 0.0000
# 3 48.5705 43.3521 103.3903 0.0000 0.0000 0.0000
# 4 0.0000 0.0000 0.0000 27.5598 0.0000 0.0000
# 5 0.0000 0.0000 0.0000 0.0000 15.4527 0.0000
# 6 0.0000 0.0000 0.0000 0.0000 0.0000 34.2017
#
#
#
# Elastic Compliance Matrix: (Units=1/GPa)
#
#
# Indices 1 2 3 4 5 6 
#
# 1 0.016532 -0.008642 -0.004142 0.000000 0.000000 0.000000
# 2 -0.008642 0.017268 -0.003181 0.000000 0.000000 0.000000
# 3 -0.004142 -0.003181 0.012952 0.000000 0.000000 0.000000
# 4 0.000000 0.000000 0.000000 0.036285 0.000000 0.000000
# 5 0.000000 0.000000 0.000000 0.000000 0.064714 0.000000
# 6 0.000000 0.000000 0.000000 0.000000 0.000000 0.029238
#
#
# Mechanical properties :
#
#
# Convention : Reuss Voigt Hill
#
# Bulk Modulus (GPa) = 67.47313 67.92470 67.69892
# Shear Modulus (GPa) = 23.37988 25.53957 24.45972
#
# Velocity S-wave (km/s) = 3.63604 3.80027 3.71906
# Velocity P-wave (km/s) = 7.46875 7.59381 7.53154
#
# Compressibility (1/GPa) = 0.01482071
#
# Stress axis : x y z
#
# Youngs Moduli (GPa) = 60.49053 57.90984 77.20966
#
# Poissons Ratio (x) = 0.50048 0.31983
# Poissons Ratio (y) = 0.52278 0.24558
# Poissons Ratio (z) = 0.25057 0.18419
#
# Static dielectric constant tensor:
#      x y z
#    x 3.181790 0.000000 0.000000 
#    y 0.000000 3.482270 0.000000 
#    z 0.000000 0.000000 3.597750 
# 
# 
# High freq. dielectric constant tensor:
#      x y z
#    x 1.665140 0.000000 0.000000 
#    y 0.000000 1.694180 0.000000 
#    z 0.000000 0.000000 1.679870 
# 
# From -- ./inp_files/18612.got.cif
#   From: 2010.03.12/outbox.cif.g09.slc.cpg/sg62_10_cif.got.tgz:18612.got - 2010.04.10 19:12:36.
