data_PCOD8252904
_publ_section_title
;
Structure prediction by ZEFSAII (Michael W. Deem and Ramdas Pophale) SiO2 
 PCOD8252904
Probable space group: P N M A
;
_chemical_formula_sum "Si O2"
_cell_formula_units_Z 48
_cell_length_a 14.536311
_cell_length_b 13.460400
_cell_length_c 12.447305
_cell_angle_alpha 90.000000
_cell_angle_beta 90.000000
_cell_angle_gamma 90.000000
_cell_volume 2435.496463
_symmetry_space_group_name_H-M "P N M A"
_symmetry_group_IT_number 62
_symmetry_cell_setting 'orthorhombic'
loop_
_space_group_symop_operation_xyz
x,y,z
1/2-x,-y,1/2+z
1/2+x,1/2-y,1/2-z
-x,1/2+y,-z
-x,-y,-z
1/2+x,y,1/2-z
1/2-x,1/2+y,1/2+z
x,1/2-y,z
loop_
_atom_site_type_symbol
_atom_site_label
_atom_site_fract_x
_atom_site_fract_y
_atom_site_fract_z
Si Si1 0.659200 0.996995 0.314280
Si Si2 0.797916 0.637590 0.618925
Si Si3 0.538825 0.059849 0.718122
Si Si4 0.413750 0.636594 0.507816
Si Si5 0.587342 0.859217 0.645297
Si Si6 0.673018 0.364261 0.881233
O O1 0.665999 0.065524 0.209935
O O2 0.650412 0.067545 0.418336
O O3 0.570539 0.926143 0.296416
O O4 0.748980 0.930003 0.324590
O O5 0.824576 0.750000 0.651801
O O6 0.689041 0.627901 0.600077
O O7 0.843123 0.607037 0.505418
O O8 0.593350 0.100366 0.614269
O O9 0.575748 0.118200 0.821651
O O10 0.562410 0.942438 0.733506
O O11 0.378770 0.750000 0.516599
O O12 0.520008 0.626383 0.543691
O O13 0.573578 0.750000 0.698210
O O14 0.703536 0.250000 0.872152
#
# Coordination Sequence:
#
# PCOD8252904 Si02
#       6
#     8   8   8   8   8   8
#     4  11  22  37  64  86 116 153 202 244 291 349
#     4  10  20  37  59  85 117 156 195 235 291 357
#     4  11  21  37  58  87 119 153 190 241 300 348
#     4  10  20  35  60  92 117 145 195 252 299 340
#     4   9  17  33  57  83 112 146 192 245 288 338
#     4  11  24  39  58  84 120 159 196 241 299 358
#
# _framework density 19.708507000000001
#
# number of rings (size 3 to 8) (size 9 to 14) (size 15 to 20)
#    0.000    1.667    1.667    5.000    0.000    4.000 
#    0.000    0.000    0.000    1.000    0.000    0.000 
#    0.000    0.000    0.000    0.000    0.000    0.000 
#
# Total GULP energy -595262.213403 kJ/mol
# GULP energy per Si atom -12401.296113 kJ/mol
# Density = 1.966365 g / cm^3
# Si number density = 19.708507 Si / 1000 Ang^3
#
#
#
# Elastic Constant Matrix: (Units=GPa)
#
#
# Indices 1 2 3 4 5 6 
#
# 1 41.5961 17.2965 9.9094 0.0000 0.0000 0.0000
# 2 17.2965 80.2519 35.8140 0.0000 0.0000 0.0000
# 3 9.9094 35.8140 96.2617 0.0000 0.0000 0.0000
# 4 0.0000 0.0000 0.0000 30.8845 0.0000 0.0000
# 5 0.0000 0.0000 0.0000 0.0000 21.3212 0.0000
# 6 0.0000 0.0000 0.0000 0.0000 0.0000 24.4688
#
#
#
# Elastic Compliance Matrix: (Units=1/GPa)
#
#
# Indices 1 2 3 4 5 6 
#
# 1 0.026449 -0.005378 -0.000722 0.000000 0.000000 0.000000
# 2 -0.005378 0.016035 -0.005412 0.000000 0.000000 0.000000
# 3 -0.000722 -0.005412 0.012476 0.000000 0.000000 0.000000
# 4 0.000000 0.000000 0.000000 0.032379 0.000000 0.000000
# 5 0.000000 0.000000 0.000000 0.000000 0.046902 0.000000
# 6 0.000000 0.000000 0.000000 0.000000 0.000000 0.040868
#
#
# Mechanical properties :
#
#
# Convention : Reuss Voigt Hill
#
# Bulk Modulus (GPa) = 31.31272 38.23885 34.77579
# Shear Modulus (GPa) = 23.94874 25.67424 24.81149
#
# Velocity S-wave (km/s) = 3.48968 3.61321 3.55198
# Velocity P-wave (km/s) = 5.67094 6.07053 5.87413
#
# Compressibility (1/GPa) = 0.03193590
#
# Stress axis : x y z
#
# Youngs Moduli (GPa) = 37.80845 62.36247 80.15231
#
# Poissons Ratio (x) = 0.33541 0.05785
# Poissons Ratio (y) = 0.20335 0.43380
# Poissons Ratio (z) = 0.02729 0.33752
#
# Static dielectric constant tensor:
#      x y z
#    x 3.443820 0.000000 0.000000 
#    y 0.000000 3.861260 0.000000 
#    z 0.000000 0.000000 3.409660 
# 
# 
# High freq. dielectric constant tensor:
#      x y z
#    x 1.752590 0.000000 0.000000 
#    y 0.000000 1.780610 0.000000 
#    z 0.000000 0.000000 1.753000 
# 
# From -- ./inp_files/13286.got.cif
#   From: 2010.03.12/outbox.cif.g09.slc.cpg/sg62_7_cif.got.tgz:13286.got - 2010.04.10 19:12:36.
