data_PCOD8252889
_publ_section_title
;
Structure prediction by ZEFSAII (Michael W. Deem and Ramdas Pophale) SiO2 
 PCOD8252889
Probable space group: P N M A
;
_chemical_formula_sum "Si O2"
_cell_formula_units_Z 40
_cell_length_a 11.783061
_cell_length_b 8.798881
_cell_length_c 20.174209
_cell_angle_alpha 90.000000
_cell_angle_beta 90.000000
_cell_angle_gamma 90.000000
_cell_volume 2091.616629
_symmetry_space_group_name_H-M "P N M A"
_symmetry_group_IT_number 62
_symmetry_cell_setting 'orthorhombic'
loop_
_space_group_symop_operation_xyz
x,y,z
1/2-x,-y,1/2+z
1/2+x,1/2-y,1/2-z
-x,1/2+y,-z
-x,-y,-z
1/2+x,y,1/2-z
1/2-x,1/2+y,1/2+z
x,1/2-y,z
loop_
_atom_site_type_symbol
_atom_site_label
_atom_site_fract_x
_atom_site_fract_y
_atom_site_fract_z
Si Si1 0.308909 0.422001 0.081305
Si Si2 0.985907 0.072404 0.633661
Si Si3 0.254791 0.430181 0.361885
Si Si4 0.619066 0.069233 0.519321
Si Si5 0.648105 0.921637 0.776295
O O1 0.338235 0.250000 0.059349
O O2 0.424334 0.522416 0.076188
O O3 0.268677 0.425519 0.158943
O O4 0.210926 0.488886 0.034741
O O5 0.964034 0.250000 0.631655
O O6 0.868712 0.988977 0.618751
O O7 0.036189 0.021841 0.705768
O O8 0.258385 0.250000 0.369165
O O9 0.347457 0.505893 0.409203
O O10 0.285800 0.484922 0.287421
O O11 0.610928 0.250000 0.520477
O O12 0.500000 0.000000 0.500000
O O13 0.605836 0.750000 0.762520
#
# Coordination Sequence:
#
# PCOD8252889 Si02
#       5
#     8   8   8   8   8
#     4   8  18  40  61  81 113 157 200 236 287 354
#     4  10  20  35  59  90 118 147 193 251 301 344
#     4  11  22  38  62  89 121 160 201 243 294 362
#     4  11  24  41  61  88 121 157 200 249 301 357
#     4   8  18  38  59  82 113 156 200 237 288 354
#
# _framework density 19.123963
#
# number of rings (size 3 to 8) (size 9 to 14) (size 15 to 20)
#    1.200    1.200    0.000    2.400    0.000    5.600 
#    0.000    4.000    0.000    0.000    0.000    0.000 
#    0.000    0.000    0.000    0.000    0.000    0.000 
#
# Total GULP energy -495681.574389 kJ/mol
# GULP energy per Si atom -12392.039360 kJ/mol
# Density = 1.908044 g / cm^3
# Si number density = 19.123963 Si / 1000 Ang^3
#
#
#
# Elastic Constant Matrix: (Units=GPa)
#
#
# Indices 1 2 3 4 5 6 
#
# 1 99.2922 36.2502 23.9557 0.0000 0.0000 0.0000
# 2 36.2502 81.4576 27.7250 0.0000 0.0000 0.0000
# 3 23.9557 27.7250 73.1757 0.0000 0.0000 0.0000
# 4 0.0000 0.0000 0.0000 23.4470 0.0000 0.0000
# 5 0.0000 0.0000 0.0000 0.0000 35.1676 0.0000
# 6 0.0000 0.0000 0.0000 0.0000 0.0000 34.1428
#
#
#
# Elastic Compliance Matrix: (Units=1/GPa)
#
#
# Indices 1 2 3 4 5 6 
#
# 1 0.012339 -0.004726 -0.002249 0.000000 0.000000 0.000000
# 2 -0.004726 0.015904 -0.004479 0.000000 0.000000 0.000000
# 3 -0.002249 -0.004479 0.016099 0.000000 0.000000 0.000000
# 4 0.000000 0.000000 0.000000 0.042649 0.000000 0.000000
# 5 0.000000 0.000000 0.000000 0.000000 0.028435 0.000000
# 6 0.000000 0.000000 0.000000 0.000000 0.000000 0.029289
#
#
# Mechanical properties :
#
#
# Convention : Reuss Voigt Hill
#
# Bulk Modulus (GPa) = 46.65233 47.75413 47.20323
# Shear Modulus (GPa) = 28.60958 29.61780 29.11369
#
# Velocity S-wave (km/s) = 3.87202 3.93966 3.90598
# Velocity P-wave (km/s) = 6.66616 6.76162 6.71406
#
# Compressibility (1/GPa) = 0.02143516
#
# Stress axis : x y z
#
# Youngs Moduli (GPa) = 81.04270 62.87857 62.11617
#
# Poissons Ratio (x) = 0.29714 0.13970
# Poissons Ratio (y) = 0.38298 0.27819
# Poissons Ratio (z) = 0.18227 0.28161
#
# Static dielectric constant tensor:
#      x y z
#    x 3.298610 0.000000 0.000000 
#    y 0.000000 3.454750 0.000000 
#    z 0.000000 0.000000 5.541320 
# 
# 
# High freq. dielectric constant tensor:
#      x y z
#    x 1.730410 0.000000 0.000000 
#    y 0.000000 1.742970 0.000000 
#    z 0.000000 0.000000 1.739620 
# 
# From -- ./inp_files/26442.got.cif
#   From: 2010.03.12/outbox.cif.g09.slc.cpg/sg62_14_cif.got.tgz:26442.got - 2010.04.10 19:12:36.
