data_PCOD8252196
_publ_section_title
;
Structure prediction by ZEFSAII (Michael W. Deem and Ramdas Pophale) SiO2 
 PCOD8252196
Probable space group: P N M A
;
_chemical_formula_sum "Si O2"
_cell_formula_units_Z 64
_cell_length_a 17.705030
_cell_length_b 9.421042
_cell_length_c 22.798173
_cell_angle_alpha 90.000000
_cell_angle_beta 90.000000
_cell_angle_gamma 90.000000
_cell_volume 3802.731409
_symmetry_space_group_name_H-M "P N M A"
_symmetry_group_IT_number 62
_symmetry_cell_setting 'orthorhombic'
loop_
_space_group_symop_operation_xyz
x,y,z
1/2-x,-y,1/2+z
1/2+x,1/2-y,1/2-z
-x,1/2+y,-z
-x,-y,-z
1/2+x,y,1/2-z
1/2-x,1/2+y,1/2+z
x,1/2-y,z
loop_
_atom_site_type_symbol
_atom_site_label
_atom_site_fract_x
_atom_site_fract_y
_atom_site_fract_z
Si Si1 0.527970 0.910894 0.074972
Si Si2 0.390252 0.412888 0.034112
Si Si3 0.554565 0.593801 0.575836
Si Si4 0.824943 0.582152 0.859977
Si Si5 0.017759 0.418220 0.192805
Si Si6 0.108166 0.094441 0.019015
Si Si7 0.682662 0.084834 0.871453
Si Si8 0.026697 0.409016 0.695639
O O1 0.494412 0.750000 0.063750
O O2 0.538045 0.927296 0.145311
O O3 0.472179 0.035488 0.055226
O O4 0.606270 0.926149 0.037633
O O5 0.376412 0.250000 0.053343
O O6 0.327002 0.511303 0.064294
O O7 0.590137 0.750000 0.583247
O O8 0.535945 0.526714 0.639714
O O9 0.615003 0.501490 0.539291
O O10 0.477722 0.605430 0.539629
O O11 0.809342 0.750000 0.855566
O O12 0.895404 0.538136 0.818971
O O13 0.842031 0.535889 0.927173
O O14 0.752523 0.492190 0.838889
O O15 0.011646 0.250000 0.195727
O O16 0.988844 0.481803 0.253085
O O17 0.137795 0.250000 0.001212
O O18 0.700385 0.250000 0.880164
O O19 0.608308 0.058869 0.832744
O O20 0.024903 0.250000 0.721514
#
# Coordination Sequence:
#
# PCOD8252196 Si02
#       8
#     8   8   8   8   8   8   8   8
#     4   8  15  27  42  64  92 116 143 183 225 266
#     4   9  15  25  44  66  88 116 146 178 223 273
#     4   8  14  25  41  63  90 114 138 175 220 263
#     4   9  18  32  48  68  94 121 152 193 239 285
#     4   9  18  31  47  69  95 123 159 199 234 275
#     4   8  14  25  42  64  88 112 139 174 218 268
#     4  10  20  32  46  68  96 122 153 195 239 285
#     4   9  18  31  46  67  95 124 158 198 234 274
#
# _framework density 16.830009
#
# number of rings (size 3 to 8) (size 9 to 14) (size 15 to 20)
#    0.000    3.250    0.000    3.000    0.000    4.500 
#    0.000    2.500    0.000    1.500    0.000    1.750 
#    0.000    0.000    0.000    0.000    0.000    0.000 
#
# Total GULP energy -792836.536157 kJ/mol
# GULP energy per Si atom -12388.070877 kJ/mol
# Density = 1.679170 g / cm^3
# Si number density = 16.830009 Si / 1000 Ang^3
#
#
#
# Elastic Constant Matrix: (Units=GPa)
#
#
# Indices 1 2 3 4 5 6 
#
# 1 46.8778 28.2739 27.1521 0.0000 0.0000 0.0000
# 2 28.2739 69.2267 40.8863 0.0000 0.0000 0.0000
# 3 27.1521 40.8863 97.7750 0.0000 0.0000 0.0000
# 4 0.0000 0.0000 0.0000 30.1445 0.0000 0.0000
# 5 0.0000 0.0000 0.0000 0.0000 14.8687 0.0000
# 6 0.0000 0.0000 0.0000 0.0000 0.0000 23.2818
#
#
#
# Elastic Compliance Matrix: (Units=1/GPa)
#
#
# Indices 1 2 3 4 5 6 
#
# 1 0.029546 -0.009590 -0.004195 0.000000 0.000000 0.000000
# 2 -0.009590 0.022296 -0.006660 0.000000 0.000000 0.000000
# 3 -0.004195 -0.006660 0.014178 0.000000 0.000000 0.000000
# 4 0.000000 0.000000 0.000000 0.033174 0.000000 0.000000
# 5 0.000000 0.000000 0.000000 0.000000 0.067255 0.000000
# 6 0.000000 0.000000 0.000000 0.000000 0.000000 0.042952
#
#
# Mechanical properties :
#
#
# Convention : Reuss Voigt Hill
#
# Bulk Modulus (GPa) = 39.79394 45.16713 42.48054
# Shear Modulus (GPa) = 19.32999 21.49682 20.41341
#
# Velocity S-wave (km/s) = 3.39269 3.57780 3.48647
# Velocity P-wave (km/s) = 6.24845 6.63046 6.44229
#
# Compressibility (1/GPa) = 0.02512945
#
# Stress axis : x y z
#
# Youngs Moduli (GPa) = 33.84592 44.85189 70.53418
#
# Poissons Ratio (x) = 0.43012 0.29587
# Poissons Ratio (y) = 0.32457 0.46977
# Poissons Ratio (z) = 0.14197 0.29872
#
# Static dielectric constant tensor:
#      x y z
#    x 2.899080 0.000000 0.000000 
#    y 0.000000 3.302330 0.000000 
#    z 0.000000 0.000000 3.209690 
# 
# 
# High freq. dielectric constant tensor:
#      x y z
#    x 1.606460 0.000000 0.000000 
#    y 0.000000 1.654020 0.000000 
#    z 0.000000 0.000000 1.635900 
# 
# From -- ./inp_files/30116.got.cif
#   From: 2010.03.12/outbox.cif.g09.slc.cpg/sg62_16_cif.got.tgz:30116.got - 2010.04.10 19:12:36.
