data_PCOD8252770
_publ_section_title
;
Structure prediction by ZEFSAII (Michael W. Deem and Ramdas Pophale) SiO2 
 PCOD8252770
Probable space group: P N M A
;
_chemical_formula_sum "Si O2"
_cell_formula_units_Z 64
_cell_length_a 24.722095
_cell_length_b 10.097081
_cell_length_c 13.725458
_cell_angle_alpha 90.000000
_cell_angle_beta 90.000000
_cell_angle_gamma 90.000000
_cell_volume 3426.162492
_symmetry_space_group_name_H-M "P N M A"
_symmetry_group_IT_number 62
_symmetry_cell_setting 'orthorhombic'
loop_
_space_group_symop_operation_xyz
x,y,z
1/2-x,-y,1/2+z
1/2+x,1/2-y,1/2-z
-x,1/2+y,-z
-x,-y,-z
1/2+x,y,1/2-z
1/2-x,1/2+y,1/2+z
x,1/2-y,z
loop_
_atom_site_type_symbol
_atom_site_label
_atom_site_fract_x
_atom_site_fract_y
_atom_site_fract_z
Si Si1 0.699575 0.903884 0.783213
Si Si2 0.709420 0.594117 0.200968
Si Si3 0.449697 0.404351 0.509075
Si Si4 0.914748 0.099150 0.203720
Si Si5 0.495387 0.022112 0.835755
Si Si6 0.399265 0.398686 0.704931
Si Si7 0.163979 0.599741 0.505146
Si Si8 0.568135 0.392609 0.003307
O O1 0.710712 0.750000 0.753871
O O2 0.641697 0.955032 0.744605
O O3 0.700577 0.921728 0.899588
O O4 0.742482 0.002403 0.736934
O O5 0.720642 0.750000 0.222890
O O6 0.655129 0.536160 0.252132
O O7 0.702733 0.570420 0.085737
O O8 0.500000 0.500000 0.500000
O O9 0.467566 0.250000 0.524648
O O10 0.413615 0.418521 0.412624
O O11 0.415974 0.461347 0.601129
O O12 0.920709 0.250000 0.235710
O O13 0.965795 0.026557 0.249927
O O14 0.447251 0.100702 0.783518
O O15 0.529112 0.113174 0.909378
O O16 0.468244 0.905737 0.899522
O O17 0.382828 0.250000 0.682917
O O18 0.141560 0.750000 0.500619
O O19 0.111295 0.508645 0.506746
O O20 0.597654 0.250000 0.009323
#
# Coordination Sequence:
#
# PCOD8252770 Si02
#       8
#     8   8   8   8   8   8   8   8
#     4  10  22  41  62  85 113 153 195 240 289 340
#     4  10  22  41  62  85 113 153 195 240 289 340
#     4  10  20  35  56  85 116 153 195 235 281 340
#     4  10  20  36  58  83 117 158 194 232 287 347
#     4  11  20  35  56  84 124 159 186 229 296 350
#     4  10  20  36  58  83 117 158 194 232 287 347
#     4  10  21  40  63  84 117 158 191 230 295 357
#     4  11  23  33  55  94 123 150 192 239 284 344
#
# _framework density 18.679791000000002
#
# number of rings (size 3 to 8) (size 9 to 14) (size 15 to 20)
#    0.000    1.750    3.750    0.750    0.000    4.000 
#    0.000    2.500    0.000    0.000    0.000    0.000 
#    0.000    0.000    0.000    0.000    0.000    0.000 
#
# Total GULP energy -793353.374570 kJ/mol
# GULP energy per Si atom -12396.146478 kJ/mol
# Density = 1.863728 g / cm^3
# Si number density = 18.679791 Si / 1000 Ang^3
#
#
#
# Elastic Constant Matrix: (Units=GPa)
#
#
# Indices 1 2 3 4 5 6 
#
# 1 101.7229 45.8169 37.5070 0.0000 0.0000 0.0000
# 2 45.8169 82.8211 31.9478 0.0000 0.0000 0.0000
# 3 37.5070 31.9478 121.6460 0.0000 0.0000 0.0000
# 4 0.0000 0.0000 0.0000 13.1063 0.0000 0.0000
# 5 0.0000 0.0000 0.0000 0.0000 27.4961 0.0000
# 6 0.0000 0.0000 0.0000 0.0000 0.0000 30.3028
#
#
#
# Elastic Compliance Matrix: (Units=1/GPa)
#
#
# Indices 1 2 3 4 5 6 
#
# 1 0.013740 -0.006640 -0.002493 0.000000 0.000000 0.000000
# 2 -0.006640 0.016644 -0.002324 0.000000 0.000000 0.000000
# 3 -0.002493 -0.002324 0.009600 0.000000 0.000000 0.000000
# 4 0.000000 0.000000 0.000000 0.076299 0.000000 0.000000
# 5 0.000000 0.000000 0.000000 0.000000 0.036369 0.000000
# 6 0.000000 0.000000 0.000000 0.000000 0.000000 0.033000
#
#
# Mechanical properties :
#
#
# Convention : Reuss Voigt Hill
#
# Bulk Modulus (GPa) = 58.57933 59.63705 59.10819
# Shear Modulus (GPa) = 23.33673 26.90892 25.12283
#
# Velocity S-wave (km/s) = 3.53838 3.79956 3.67129
# Velocity P-wave (km/s) = 6.93696 7.15850 7.04860
#
# Compressibility (1/GPa) = 0.01707087
#
# Stress axis : x y z
#
# Youngs Moduli (GPa) = 72.77864 60.08280 104.17200
#
# Poissons Ratio (x) = 0.39892 0.25968
# Poissons Ratio (y) = 0.48322 0.24209
# Poissons Ratio (z) = 0.18142 0.13963
#
# Static dielectric constant tensor:
#      x y z
#    x 3.343650 0.000000 0.000000 
#    y 0.000000 3.295590 0.000000 
#    z 0.000000 0.000000 3.910890 
# 
# 
# High freq. dielectric constant tensor:
#      x y z
#    x 1.711880 0.000000 0.000000 
#    y 0.000000 1.709410 0.000000 
#    z 0.000000 0.000000 1.745690 
# 
# From -- ./inp_files/15330.got.cif
#   From: 2010.03.12/outbox.cif.g09.slc.cpg/sg62_8_cif.got.tgz:15330.got - 2010.04.10 19:12:36.
