data_PCOD8252063
_publ_section_title
;
Structure prediction by ZEFSAII (Michael W. Deem and Ramdas Pophale) SiO2 
 PCOD8252063
Probable space group: P N M A
;
_chemical_formula_sum "Si O2"
_cell_formula_units_Z 56
_cell_length_a 14.838252
_cell_length_b 9.014867
_cell_length_c 21.019366
_cell_angle_alpha 90.000000
_cell_angle_beta 90.000000
_cell_angle_gamma 90.000000
_cell_volume 2811.652725
_symmetry_space_group_name_H-M "P N M A"
_symmetry_group_IT_number 62
_symmetry_cell_setting 'orthorhombic'
loop_
_space_group_symop_operation_xyz
x,y,z
1/2-x,-y,1/2+z
1/2+x,1/2-y,1/2-z
-x,1/2+y,-z
-x,-y,-z
1/2+x,y,1/2-z
1/2-x,1/2+y,1/2+z
x,1/2-y,z
loop_
_atom_site_type_symbol
_atom_site_label
_atom_site_fract_x
_atom_site_fract_y
_atom_site_fract_z
Si Si1 0.052725 0.412770 0.634271
Si Si2 0.738103 0.925417 0.533693
Si Si3 0.936024 0.576925 0.549604
Si Si4 0.186497 0.074072 0.233624
Si Si5 0.840933 0.425760 0.165062
Si Si6 0.501877 0.082192 0.729210
Si Si7 0.254117 0.078660 0.606531
O O1 0.016814 0.250000 0.613727
O O2 0.067074 0.417804 0.709632
O O3 0.146946 0.442007 0.598903
O O4 0.978607 0.537188 0.617893
O O5 0.745091 0.750000 0.537595
O O6 0.837040 0.992560 0.545194
O O7 0.678007 0.981494 0.592755
O O8 0.703120 0.969023 0.462421
O O9 0.934842 0.750000 0.537944
O O10 0.000000 0.500000 0.500000
O O11 0.174363 0.250000 0.236532
O O12 0.261703 0.022790 0.285678
O O13 0.211900 0.028302 0.161836
O O14 0.091367 0.996837 0.247791
O O15 0.850101 0.250000 0.169641
O O16 0.939009 0.495699 0.177447
O O17 0.481988 0.250000 0.705752
O O18 0.277793 0.250000 0.622961
#
# Coordination Sequence:
#
# PCOD8252063 Si02
#       7
#     8   8   8   8   8   8   8
#     4  10  20  35  55  82 115 151 192 238 291 353
#     4   9  19  36  57  81 115 156 192 238 295 351
#     4  11  20  32  52  81 118 154 192 233 289 355
#     4  11  23  39  61  90 121 154 200 248 296 352
#     4  10  21  39  62  88 118 153 196 246 297 348
#     4  11  23  39  61  87 118 155 197 245 299 355
#     4  10  19  37  60  82 116 155 195 237 291 351
#
# _framework density 19.917110999999998
#
# number of rings (size 3 to 8) (size 9 to 14) (size 15 to 20)
#    0.000    1.714    2.857    2.143    0.000    3.429 
#    0.000    2.857    0.000    0.000    0.000    0.000 
#    0.000    0.000    0.000    0.000    0.000    0.000 
#
# Total GULP energy -693994.793147 kJ/mol
# GULP energy per Si atom -12392.764163 kJ/mol
# Density = 1.987178 g / cm^3
# Si number density = 19.917111 Si / 1000 Ang^3
#
#
#
# Elastic Constant Matrix: (Units=GPa)
#
#
# Indices 1 2 3 4 5 6 
#
# 1 55.6462 22.3872 13.7976 0.0000 0.0000 0.0000
# 2 22.3872 61.1206 19.2819 0.0000 0.0000 0.0000
# 3 13.7976 19.2819 110.6181 0.0000 0.0000 0.0000
# 4 0.0000 0.0000 0.0000 30.1424 0.0000 0.0000
# 5 0.0000 0.0000 0.0000 0.0000 30.2069 0.0000
# 6 0.0000 0.0000 0.0000 0.0000 0.0000 29.9722
#
#
#
# Elastic Compliance Matrix: (Units=1/GPa)
#
#
# Indices 1 2 3 4 5 6 
#
# 1 0.021271 -0.007359 -0.001370 0.000000 0.000000 0.000000
# 2 -0.007359 0.019859 -0.002544 0.000000 0.000000 0.000000
# 3 -0.001370 -0.002544 0.009654 0.000000 0.000000 0.000000
# 4 0.000000 0.000000 0.000000 0.033176 0.000000 0.000000
# 5 0.000000 0.000000 0.000000 0.000000 0.033105 0.000000
# 6 0.000000 0.000000 0.000000 0.000000 0.000000 0.033364
#
#
# Mechanical properties :
#
#
# Convention : Reuss Voigt Hill
#
# Bulk Modulus (GPa) = 35.41273 37.59093 36.50183
# Shear Modulus (GPa) = 27.41406 29.52553 28.46979
#
# Velocity S-wave (km/s) = 3.71402 3.85440 3.78486
# Velocity P-wave (km/s) = 6.01752 6.22279 6.12102
#
# Compressibility (1/GPa) = 0.02823843
#
# Stress axis : x y z
#
# Youngs Moduli (GPa) = 47.01237 50.35518 103.57913
#
# Poissons Ratio (x) = 0.37055 0.14195
# Poissons Ratio (y) = 0.34595 0.26348
# Poissons Ratio (z) = 0.06443 0.12809
#
# Static dielectric constant tensor:
#      x y z
#    x 3.645290 0.000000 0.000000 
#    y 0.000000 3.854690 0.000000 
#    z 0.000000 0.000000 4.132220 
# 
# 
# High freq. dielectric constant tensor:
#      x y z
#    x 1.760440 0.000000 0.000000 
#    y 0.000000 1.758650 0.000000 
#    z 0.000000 0.000000 1.789870 
# 
# From -- ./inp_files/27113.got.cif
#   From: 2010.03.12/outbox.cif.g09.slc.cpg/sg62_14_cif.got.tgz:27113.got - 2010.04.10 19:12:36.
