data_PCOD8252677
_publ_section_title
;
Structure prediction by ZEFSAII (Michael W. Deem and Ramdas Pophale) SiO2 
 PCOD8252677
Probable space group: P N M A
;
_chemical_formula_sum "Si O2"
_cell_formula_units_Z 48
_cell_length_a 30.942129
_cell_length_b 9.080324
_cell_length_c 8.936634
_cell_angle_alpha 90.000000
_cell_angle_beta 90.000000
_cell_angle_gamma 90.000000
_cell_volume 2510.877409
_symmetry_space_group_name_H-M "P N M A"
_symmetry_group_IT_number 62
_symmetry_cell_setting 'orthorhombic'
loop_
_space_group_symop_operation_xyz
x,y,z
1/2-x,-y,1/2+z
1/2+x,1/2-y,1/2-z
-x,1/2+y,-z
-x,-y,-z
1/2+x,y,1/2-z
1/2-x,1/2+y,1/2+z
x,1/2-y,z
loop_
_atom_site_type_symbol
_atom_site_label
_atom_site_fract_x
_atom_site_fract_y
_atom_site_fract_z
Si Si1 0.290979 0.920798 0.899375
Si Si2 0.460240 0.577020 0.578331
Si Si3 0.626506 0.075318 0.916752
Si Si4 0.872154 0.575363 0.078451
Si Si5 0.205418 0.579510 0.088965
Si Si6 0.540177 0.424108 0.077239
O O1 0.297345 0.750000 0.855716
O O2 0.286351 0.017274 0.752661
O O3 0.331789 0.980836 0.993308
O O4 0.248708 0.946223 0.996675
O O5 0.500000 0.500000 0.500000
O O6 0.466690 0.750000 0.561670
O O7 0.416590 0.524822 0.497911
O O8 0.457810 0.528395 0.750394
O O9 0.626092 0.250000 0.912497
O O10 0.628125 0.014267 0.747799
O O11 0.583552 0.016445 0.998156
O O12 0.866572 0.750000 0.072321
O O13 0.833201 0.505366 0.988846
O O14 0.193258 0.750000 0.100233
O O15 0.535589 0.250000 0.058614
O O16 0.500000 0.500000 0.000000
#
# Coordination Sequence:
#
# PCOD8252677 Si02
#       6
#     8   8   8   8   8   8
#     4  10  21  38  58  80 110 146 182 223 272 327
#     4  10  21  36  57  83 111 147 188 230 277 329
#     4   9  18  35  59  81 103 140 187 224 263 328
#     4  10  20  37  60  82 109 148 186 224 278 336
#     4  11  23  37  57  86 114 143 183 230 276 324
#     4  10  20  35  55  80 108 140 182 227 272 324
#
# _framework density 19.116823
#
# number of rings (size 3 to 8) (size 9 to 14) (size 15 to 20)
#    0.000    2.000    0.000    3.500    0.000    8.000 
#    0.000    4.167    0.000    0.000    0.000    0.000 
#    0.000    0.000    0.000    0.000    0.000    0.000 
#
# Total GULP energy -595386.975730 kJ/mol
# GULP energy per Si atom -12403.895328 kJ/mol
# Density = 1.907331 g / cm^3
# Si number density = 19.116823 Si / 1000 Ang^3
#
#
#
# Elastic Constant Matrix: (Units=GPa)
#
#
# Indices 1 2 3 4 5 6 
#
# 1 151.4889 42.3023 62.3980 0.0000 0.0000 0.0000
# 2 42.3023 33.1977 39.5945 0.0000 0.0000 0.0000
# 3 62.3980 39.5945 152.5615 0.0000 0.0000 0.0000
# 4 0.0000 0.0000 0.0000 29.2126 0.0000 0.0000
# 5 0.0000 0.0000 0.0000 0.0000 38.9364 0.0000
# 6 0.0000 0.0000 0.0000 0.0000 0.0000 32.6992
#
#
#
# Elastic Compliance Matrix: (Units=1/GPa)
#
#
# Indices 1 2 3 4 5 6 
#
# 1 0.010392 -0.011836 -0.001178 0.000000 0.000000 0.000000
# 2 -0.011836 0.057108 -0.009980 0.000000 0.000000 0.000000
# 3 -0.001178 -0.009980 0.009627 0.000000 0.000000 0.000000
# 4 0.000000 0.000000 0.000000 0.034232 0.000000 0.000000
# 5 0.000000 0.000000 0.000000 0.000000 0.025683 0.000000
# 6 0.000000 0.000000 0.000000 0.000000 0.000000 0.030582
#
#
# Mechanical properties :
#
#
# Convention : Reuss Voigt Hill
#
# Bulk Modulus (GPa) = 32.11609 69.53752 50.82680
# Shear Modulus (GPa) = 22.32219 33.03320 27.67770
#
# Velocity S-wave (km/s) = 3.42083 4.16139 3.80915
# Velocity P-wave (km/s) = 5.69554 7.71645 6.78169
#
# Compressibility (1/GPa) = 0.03113704
#
# Stress axis : x y z
#
# Youngs Moduli (GPa) = 96.23057 17.51057 103.87570
#
# Poissons Ratio (x) = 0.20726 0.12240
# Poissons Ratio (y) = 1.13901 1.03671
# Poissons Ratio (z) = 0.11339 0.17476
#
# Static dielectric constant tensor:
#      x y z
#    x 3.756570 0.000000 0.000000 
#    y 0.000000 3.258290 0.000000 
#    z 0.000000 0.000000 3.656750 
# 
# 
# High freq. dielectric constant tensor:
#      x y z
#    x 1.763470 0.000000 0.000000 
#    y 0.000000 1.717890 0.000000 
#    z 0.000000 0.000000 1.764790 
# 
# From -- ./inp_files/10138.got.cif
#   From: 2010.03.12/outbox.cif.g09.slc.cpg/sg62_6_cif.got.tgz:10138.got - 2010.04.10 19:12:36.
