data_PCOD8252333
_publ_section_title
;
Structure prediction by ZEFSAII (Michael W. Deem and Ramdas Pophale) SiO2 
 PCOD8252333
Probable space group: P N M A
;
_chemical_formula_sum "Si O2"
_cell_formula_units_Z 56
_cell_length_a 14.408287
_cell_length_b 8.979918
_cell_length_c 21.573139
_cell_angle_alpha 90.000000
_cell_angle_beta 90.000000
_cell_angle_gamma 90.000000
_cell_volume 2791.245676
_symmetry_space_group_name_H-M "P N M A"
_symmetry_group_IT_number 62
_symmetry_cell_setting 'orthorhombic'
loop_
_space_group_symop_operation_xyz
x,y,z
1/2-x,-y,1/2+z
1/2+x,1/2-y,1/2-z
-x,1/2+y,-z
-x,-y,-z
1/2+x,y,1/2-z
1/2-x,1/2+y,1/2+z
x,1/2-y,z
loop_
_atom_site_type_symbol
_atom_site_label
_atom_site_fract_x
_atom_site_fract_y
_atom_site_fract_z
Si Si1 0.803111 0.574698 0.114181
Si Si2 0.986712 0.580964 0.651581
Si Si3 0.646980 0.419482 0.903900
Si Si4 0.650328 0.080497 0.041995
Si Si5 0.332254 0.077629 0.778439
Si Si6 0.488236 0.072744 0.432326
Si Si7 0.152992 0.578482 0.136727
O O1 0.824764 0.750000 0.112646
O O2 0.732229 0.533101 0.059377
O O3 0.755533 0.523805 0.179658
O O4 0.897399 0.484908 0.103380
O O5 0.995086 0.750000 0.672090
O O6 0.937242 0.557238 0.585918
O O7 0.928647 0.500334 0.704593
O O8 0.090263 0.516692 0.645535
O O9 0.627909 0.250000 0.884858
O O10 0.756091 0.454246 0.903441
O O11 0.614037 0.455409 0.973416
O O12 0.688744 0.250000 0.046418
O O13 0.346873 0.250000 0.792053
O O14 0.315698 0.041659 0.706798
O O15 0.483360 0.250000 0.440315
O O16 0.500000 0.000000 0.500000
O O17 0.573836 0.029879 0.388279
O O18 0.119647 0.750000 0.130660
#
# Coordination Sequence:
#
# PCOD8252333 Si02
#       7
#     8   8   8   8   8   8   8
#     4  10  20  36  60  87 115 153 195 236 285 344
#     4  10  20  33  53  81 113 147 184 226 274 331
#     4  10  20  34  54  79 108 143 182 226 283 338
#     4   9  18  33  53  81 115 148 183 228 278 332
#     4   9  20  39  60  82 112 150 192 234 283 343
#     4  12  25  41  62  89 120 156 197 245 298 351
#     4  10  22  40  60  83 112 149 194 243 287 337
#
# _framework density 20.062726000000001
#
# number of rings (size 3 to 8) (size 9 to 14) (size 15 to 20)
#    0.000    2.000    0.000    3.429    0.000    5.143 
#    0.000    2.857    0.000    0.000    0.000    0.000 
#    0.000    0.000    0.000    0.000    0.000    0.000 
#
# Total GULP energy -694441.641988 kJ/mol
# GULP energy per Si atom -12400.743607 kJ/mol
# Density = 2.001706 g / cm^3
# Si number density = 20.062726 Si / 1000 Ang^3
#
#
#
# Elastic Constant Matrix: (Units=GPa)
#
#
# Indices 1 2 3 4 5 6 
#
# 1 83.3615 41.5866 26.3248 0.0000 0.0000 0.0000
# 2 41.5866 88.4098 39.3742 0.0000 0.0000 0.0000
# 3 26.3248 39.3742 71.2048 0.0000 0.0000 0.0000
# 4 0.0000 0.0000 0.0000 28.0800 0.0000 0.0000
# 5 0.0000 0.0000 0.0000 0.0000 21.7916 0.0000
# 6 0.0000 0.0000 0.0000 0.0000 0.0000 36.4805
#
#
#
# Elastic Compliance Matrix: (Units=1/GPa)
#
#
# Indices 1 2 3 4 5 6 
#
# 1 0.015958 -0.006473 -0.002320 0.000000 0.000000 0.000000
# 2 -0.006473 0.017632 -0.007357 0.000000 0.000000 0.000000
# 3 -0.002320 -0.007357 0.018970 0.000000 0.000000 0.000000
# 4 0.000000 0.000000 0.000000 0.035613 0.000000 0.000000
# 5 0.000000 0.000000 0.000000 0.000000 0.045889 0.000000
# 6 0.000000 0.000000 0.000000 0.000000 0.000000 0.027412
#
#
# Mechanical properties :
#
#
# Convention : Reuss Voigt Hill
#
# Bulk Modulus (GPa) = 49.35954 50.83859 50.09907
# Shear Modulus (GPa) = 24.93420 26.31645 25.62532
#
# Velocity S-wave (km/s) = 3.52918 3.62568 3.57775
# Velocity P-wave (km/s) = 6.42361 6.55151 6.48788
#
# Compressibility (1/GPa) = 0.02025951
#
# Stress axis : x y z
#
# Youngs Moduli (GPa) = 62.66508 56.71421 52.71460
#
# Poissons Ratio (x) = 0.36711 0.12232
# Poissons Ratio (y) = 0.40563 0.38782
# Poissons Ratio (z) = 0.14540 0.41725
#
# Static dielectric constant tensor:
#      x y z
#    x 3.612890 0.000000 0.000000 
#    y 0.000000 3.636990 0.000000 
#    z 0.000000 0.000000 3.678300 
# 
# 
# High freq. dielectric constant tensor:
#      x y z
#    x 1.784630 0.000000 0.000000 
#    y 0.000000 1.779440 0.000000 
#    z 0.000000 0.000000 1.781560 
# 
# From -- ./inp_files/27133.got.cif
#   From: 2010.03.12/outbox.cif.g09.slc.cpg/sg62_14_cif.got.tgz:27133.got - 2010.04.10 19:12:36.
