data_PCOD8252610
_publ_section_title
;
Structure prediction by ZEFSAII (Michael W. Deem and Ramdas Pophale) SiO2 
 PCOD8252610
Probable space group: P N M A
;
_chemical_formula_sum "Si O2"
_cell_formula_units_Z 48
_cell_length_a 10.005877
_cell_length_b 13.662078
_cell_length_c 17.650742
_cell_angle_alpha 90.000000
_cell_angle_beta 90.000000
_cell_angle_gamma 90.000000
_cell_volume 2412.875354
_symmetry_space_group_name_H-M "P N M A"
_symmetry_group_IT_number 62
_symmetry_cell_setting 'orthorhombic'
loop_
_space_group_symop_operation_xyz
x,y,z
1/2-x,-y,1/2+z
1/2+x,1/2-y,1/2-z
-x,1/2+y,-z
-x,-y,-z
1/2+x,y,1/2-z
1/2-x,1/2+y,1/2+z
x,1/2-y,z
loop_
_atom_site_type_symbol
_atom_site_label
_atom_site_fract_x
_atom_site_fract_y
_atom_site_fract_z
Si Si1 0.354125 0.038113 0.225812
Si Si2 0.932105 0.541257 0.120936
Si Si3 0.635417 0.250000 0.657115
Si Si4 0.886540 0.642663 0.700910
Si Si5 0.726518 0.580570 0.391748
Si Si6 0.233685 0.639411 0.943924
Si Si7 0.651920 0.750000 0.281884
O O1 0.207596 0.069911 0.252752
O O2 0.457895 0.126377 0.217336
O O3 0.416328 0.964935 0.287973
O O4 0.338308 0.991732 0.142313
O O5 0.876413 0.652026 0.103400
O O6 0.863306 0.449422 0.079587
O O7 0.083919 0.529745 0.092707
O O8 0.780458 0.250000 0.698458
O O9 0.510601 0.250000 0.717585
O O10 0.850212 0.750000 0.730199
O O11 0.861782 0.632577 0.610765
O O12 0.781897 0.625425 0.469795
O O13 0.706117 0.657234 0.325520
O O14 0.169276 0.750000 0.936126
#
# Coordination Sequence:
#
# PCOD8252610 Si02
#       7
#     8   8   4   8   8   8   4
#     4  11  20  36  63  88 114 153 197 252 290 343
#     4  10  21  37  59  88 118 152 199 243 289 355
#     4  10  20  34  60  88 116 147 189 250 298 337
#     4  10  22  39  59  84 118 158 201 240 293 357
#     4  11  20  37  59  87 118 152 198 245 297 348
#     4  10  22  39  60  85 121 163 196 236 299 360
#     4  10  20  34  60  86 114 149 191 242 298 359
#
# _framework density 19.893279
#
# number of rings (size 3 to 8) (size 9 to 14) (size 15 to 20)
#    0.000    1.667    4.167    1.000    0.000    1.333 
#    0.000    0.000    3.667    0.000    0.000    0.000 
#    0.000    0.000    0.000    0.000    0.000    0.000 
#
# Total GULP energy -594717.435686 kJ/mol
# GULP energy per Si atom -12389.946577 kJ/mol
# Density = 1.984800 g / cm^3
# Si number density = 19.893279 Si / 1000 Ang^3
#
#
#
# Elastic Constant Matrix: (Units=GPa)
#
#
# Indices 1 2 3 4 5 6 
#
# 1 65.7318 24.3253 14.8001 0.0000 0.0000 0.0000
# 2 24.3253 117.4174 34.8577 0.0000 0.0000 0.0000
# 3 14.8001 34.8577 82.3507 0.0000 0.0000 0.0000
# 4 0.0000 0.0000 0.0000 -257.1985 0.0000 0.0000
# 5 0.0000 0.0000 0.0000 0.0000 17.9522 0.0000
# 6 0.0000 0.0000 0.0000 0.0000 0.0000 29.4106
#
#
#
# Elastic Compliance Matrix: (Units=1/GPa)
#
#
# Indices 1 2 3 4 5 6 
#
# 1 0.016696 -0.002937 -0.001757 0.000000 0.000000 0.000000
# 2 -0.002937 0.010257 -0.003814 0.000000 0.000000 0.000000
# 3 -0.001757 -0.003814 0.014073 0.000000 0.000000 0.000000
# 4 0.000000 0.000000 0.000000 -0.003888 0.000000 0.000000
# 5 0.000000 0.000000 0.000000 0.000000 0.055704 0.000000
# 6 0.000000 0.000000 0.000000 0.000000 0.000000 0.034001
#
#
# Mechanical properties :
#
#
# Convention : Reuss Voigt Hill
#
# Bulk Modulus (GPa) = 41.64959 45.94069 43.79514
# Shear Modulus (GPa) = 32.92425 -29.19937 1.86244
#
# Velocity S-wave (km/s) = 4.07264 -3.83535 0.96863
# Velocity P-wave (km/s) = 6.56484 1.87897 4.82844
#
# Compressibility (1/GPa) = 0.02400984
#
# Stress axis : x y z
#
# Youngs Moduli (GPa) = 59.89468 97.49105 71.05614
#
# Poissons Ratio (x) = 0.28635 0.12487
# Poissons Ratio (y) = 0.17592 0.27100
# Poissons Ratio (z) = 0.10526 0.37182
#
# Static dielectric constant tensor:
#      x y z
#    x 3.455230 0.000000 0.000000 
#    y 0.000000 3.910030 0.000000 
#    z 0.000000 0.000000 3.544630 
# 
# 
# High freq. dielectric constant tensor:
#      x y z
#    x 1.753900 0.000000 0.000000 
#    y 0.000000 1.792620 0.000000 
#    z 0.000000 0.000000 1.758520 
# 
# From -- ./inp_files/22232.got.cif
#   From: 2010.03.12/outbox.cif.g09.slc.cpg/sg62_12_cif.got.tgz:22232.got - 2010.04.10 19:12:36.
