data_PCOD8252259
_publ_section_title
;
Structure prediction by ZEFSAII (Michael W. Deem and Ramdas Pophale) SiO2 
 PCOD8252259
Probable space group: P N M A
;
_chemical_formula_sum "Si O2"
_cell_formula_units_Z 64
_cell_length_a 8.908722
_cell_length_b 26.856313
_cell_length_c 14.752135
_cell_angle_alpha 90.000000
_cell_angle_beta 90.000000
_cell_angle_gamma 90.000000
_cell_volume 3529.528351
_symmetry_space_group_name_H-M "P N M A"
_symmetry_group_IT_number 62
_symmetry_cell_setting 'orthorhombic'
loop_
_space_group_symop_operation_xyz
x,y,z
1/2-x,-y,1/2+z
1/2+x,1/2-y,1/2-z
-x,1/2+y,-z
-x,-y,-z
1/2+x,y,1/2-z
1/2-x,1/2+y,1/2+z
x,1/2-y,z
loop_
_atom_site_type_symbol
_atom_site_label
_atom_site_fract_x
_atom_site_fract_y
_atom_site_fract_z
Si Si1 0.174438 0.583191 0.341432
Si Si2 0.825660 0.916752 0.344369
Si Si3 0.674139 0.466450 0.158538
Si Si4 0.677704 0.392164 0.477858
Si Si5 0.174624 0.966506 0.655519
Si Si6 0.677266 0.607882 0.525171
Si Si7 0.679266 0.193971 0.343978
Si Si8 0.172466 0.806046 0.840793
O O1 0.247764 0.601271 0.247877
O O2 0.200808 0.524714 0.355567
O O3 0.256745 0.612673 0.421548
O O4 0.000022 0.596975 0.340514
O O5 0.747757 0.887102 0.425831
O O6 0.800092 0.975213 0.359330
O O7 0.747184 0.448027 0.252297
O O8 0.499682 0.452442 0.160432
O O9 0.753844 0.439761 0.075081
O O10 0.750009 0.439728 0.429339
O O11 0.500097 0.399374 0.481893
O O12 0.725601 0.341888 0.426044
O O13 0.722744 0.658131 0.577887
O O14 0.733137 0.250000 0.367794
O O15 0.503765 0.192176 0.326583
O O16 0.755916 0.174418 0.252336
O O17 0.227769 0.750000 0.863441
#
# Coordination Sequence:
#
# PCOD8252259 Si02
#       8
#     8   8   8   8   8   8   8   8
#     4  10  21  36  52  71  99 134 170 208 248 291
#     4  10  21  36  52  71  99 134 170 208 248 291
#     4  10  20  33  49  72 103 136 168 204 246 293
#     4  11  21  32  51  76 101 132 168 206 248 295
#     4  10  20  33  49  72 103 136 168 204 246 293
#     4  11  21  32  51  76 101 132 168 206 248 295
#     4   9  19  35  53  75 103 132 162 199 245 295
#     4   9  19  35  53  75 103 132 162 199 245 295
#
# _framework density 18.132733999999999
#
# number of rings (size 3 to 8) (size 9 to 14) (size 15 to 20)
#    0.000    2.000    0.000    3.750    0.000   10.000 
#    0.000    0.000    0.000    0.750    0.000    0.000 
#    0.000    0.000    0.000    0.000    0.000    0.000 
#
# Total GULP energy -793908.047242 kJ/mol
# GULP energy per Si atom -12404.813238 kJ/mol
# Density = 1.809146 g / cm^3
# Si number density = 18.132734 Si / 1000 Ang^3
#
#
#
# Elastic Constant Matrix: (Units=GPa)
#
#
# Indices 1 2 3 4 5 6 
#
# 1 75.2400 31.6313 34.9483 0.0000 0.0000 0.0000
# 2 31.6313 54.3287 40.8457 0.0000 0.0000 0.0000
# 3 34.9483 40.8457 117.7607 0.0000 0.0000 0.0000
# 4 0.0000 0.0000 0.0000 37.8682 0.0000 0.0000
# 5 0.0000 0.0000 0.0000 0.0000 39.9196 0.0000
# 6 0.0000 0.0000 0.0000 0.0000 0.0000 18.9848
#
#
#
# Elastic Compliance Matrix: (Units=1/GPa)
#
#
# Indices 1 2 3 4 5 6 
#
# 1 0.018053 -0.008770 -0.002316 0.000000 0.000000 0.000000
# 2 -0.008770 0.029160 -0.007511 0.000000 0.000000 0.000000
# 3 -0.002316 -0.007511 0.011784 0.000000 0.000000 0.000000
# 4 0.000000 0.000000 0.000000 0.026407 0.000000 0.000000
# 5 0.000000 0.000000 0.000000 0.000000 0.025050 0.000000
# 6 0.000000 0.000000 0.000000 0.000000 0.000000 0.052674
#
#
# Mechanical properties :
#
#
# Convention : Reuss Voigt Hill
#
# Bulk Modulus (GPa) = 45.86505 51.35331 48.60918
# Shear Modulus (GPa) = 24.08575 28.68146 26.38360
#
# Velocity S-wave (km/s) = 3.64854 3.98144 3.81862
# Velocity P-wave (km/s) = 6.56492 7.03691 6.80500
#
# Compressibility (1/GPa) = 0.02180309
#
# Stress axis : x y z
#
# Youngs Moduli (GPa) = 55.39107 34.29378 84.85732
#
# Poissons Ratio (x) = 0.30075 0.19652
# Poissons Ratio (y) = 0.48578 0.63741
# Poissons Ratio (z) = 0.12828 0.25760
#
# Static dielectric constant tensor:
#      x y z
#    x 3.430080 0.000000 0.000000 
#    y 0.000000 3.285020 0.000000 
#    z 0.000000 0.000000 3.157320 
# 
# 
# High freq. dielectric constant tensor:
#      x y z
#    x 1.715110 0.000000 0.000000 
#    y 0.000000 1.677030 0.000000 
#    z 0.000000 0.000000 1.707360 
# 
# From -- ./inp_files/17440.got.cif
#   From: 2010.03.12/outbox.cif.g09.slc.cpg/sg62_9_cif.got.tgz:17440.got - 2010.04.10 19:12:36.
