data_PCOD8252389
_publ_section_title
;
Structure prediction by ZEFSAII (Michael W. Deem and Ramdas Pophale) SiO2 
 PCOD8252389
Probable space group: P N M A
;
_chemical_formula_sum "Si O2"
_cell_formula_units_Z 64
_cell_length_a 11.088753
_cell_length_b 9.083422
_cell_length_c 35.083579
_cell_angle_alpha 90.000000
_cell_angle_beta 90.000000
_cell_angle_gamma 90.000000
_cell_volume 3533.752200
_symmetry_space_group_name_H-M "P N M A"
_symmetry_group_IT_number 62
_symmetry_cell_setting 'orthorhombic'
loop_
_space_group_symop_operation_xyz
x,y,z
1/2-x,-y,1/2+z
1/2+x,1/2-y,1/2-z
-x,1/2+y,-z
-x,-y,-z
1/2+x,y,1/2-z
1/2-x,1/2+y,1/2+z
x,1/2-y,z
loop_
_atom_site_type_symbol
_atom_site_label
_atom_site_fract_x
_atom_site_fract_y
_atom_site_fract_z
Si Si1 0.241912 0.416963 0.431728
Si Si2 0.641412 0.419466 0.353822
Si Si3 0.374006 0.076863 0.725317
Si Si4 0.982511 0.080786 0.459949
Si Si5 0.875740 0.076506 0.995392
Si Si6 0.865260 0.080791 0.142508
Si Si7 0.232846 0.423887 0.578419
Si Si8 0.149267 0.422140 0.778642
O O1 0.289205 0.250000 0.430074
O O2 0.291914 0.488192 0.470834
O O3 0.291445 0.491757 0.392903
O O4 0.099473 0.426058 0.433534
O O5 0.682606 0.250000 0.353009
O O6 0.655898 0.486624 0.312251
O O7 0.505069 0.435631 0.368246
O O8 0.727043 0.510100 0.381622
O O9 0.364743 0.250000 0.716822
O O10 0.513874 0.038598 0.738535
O O11 0.265946 0.027431 0.753861
O O12 0.944874 0.250000 0.467967
O O13 0.891825 0.995207 0.433272
O O14 0.000000 0.000000 0.500000
O O15 0.888353 0.250000 0.998454
O O16 0.826124 0.031054 0.954378
O O17 0.000000 0.000000 0.000000
O O18 0.829567 0.250000 0.149692
O O19 0.832104 0.995151 0.180563
O O20 0.216913 0.250000 0.582314
O O21 0.156016 0.250000 0.785059
#
# Coordination Sequence:
#
# PCOD8252389 Si02
#       8
#     8   8   8   8   8   8   8   8
#     4   9  18  35  54  73 104 140 174 218 271 318
#     4  10  20  35  57  83 109 140 179 222 268 323
#     4   9  18  35  57  80 110 146 179 220 272 325
#     4  11  21  37  57  75 105 145 186 227 274 327
#     4  10  20  34  52  76 104 136 175 221 268 316
#     4   9  18  34  57  80 107 140 176 219 269 320
#     4  11  22  37  55  77 107 143 182 224 272 323
#     4   9  18  34  56  80 110 144 179 219 270 324
#
# _framework density 18.111059999999998
#
# number of rings (size 3 to 8) (size 9 to 14) (size 15 to 20)
#    0.000    2.250    1.250    1.875    0.000    3.000 
#    2.250    1.875    0.000    0.000    0.000    0.000 
#    0.000    0.000    0.000    0.000    0.000    0.000 
#
# Total GULP energy -793217.874536 kJ/mol
# GULP energy per Si atom -12394.029290 kJ/mol
# Density = 1.806984 g / cm^3
# Si number density = 18.111060 Si / 1000 Ang^3
#
#
#
# Elastic Constant Matrix: (Units=GPa)
#
#
# Indices 1 2 3 4 5 6 
#
# 1 94.3551 29.9146 51.2029 0.0000 0.0000 0.0000
# 2 29.9146 46.6200 44.5782 0.0000 0.0000 0.0000
# 3 51.2029 44.5782 98.8922 0.0000 0.0000 0.0000
# 4 0.0000 0.0000 0.0000 29.7907 0.0000 0.0000
# 5 0.0000 0.0000 0.0000 0.0000 38.6369 0.0000
# 6 0.0000 0.0000 0.0000 0.0000 0.0000 27.0538
#
#
#
# Elastic Compliance Matrix: (Units=1/GPa)
#
#
# Indices 1 2 3 4 5 6 
#
# 1 0.015132 -0.003898 -0.006078 0.000000 0.000000 0.000000
# 2 -0.003898 0.038704 -0.015428 0.000000 0.000000 0.000000
# 3 -0.006078 -0.015428 0.020214 0.000000 0.000000 0.000000
# 4 0.000000 0.000000 0.000000 0.033567 0.000000 0.000000
# 5 0.000000 0.000000 0.000000 0.000000 0.025882 0.000000
# 6 0.000000 0.000000 0.000000 0.000000 0.000000 0.036963
#
#
# Mechanical properties :
#
#
# Convention : Reuss Voigt Hill
#
# Bulk Modulus (GPa) = 43.02737 54.58431 48.80584
# Shear Modulus (GPa) = 21.83223 26.70773 24.26998
#
# Velocity S-wave (km/s) = 3.47575 3.84430 3.66466
# Velocity P-wave (km/s) = 6.31798 7.06463 6.70171
#
# Compressibility (1/GPa) = 0.02324102
#
# Stress axis : x y z
#
# Youngs Moduli (GPa) = 66.08353 25.83696 49.47166
#
# Poissons Ratio (x) = 0.10073 0.30067
# Poissons Ratio (y) = 0.25763 0.76327
# Poissons Ratio (z) = 0.40163 0.39862
#
# Static dielectric constant tensor:
#      x y z
#    x 3.451640 0.000000 0.000000 
#    y 0.000000 3.369800 0.000000 
#    z 0.000000 0.000000 3.464730 
# 
# 
# High freq. dielectric constant tensor:
#      x y z
#    x 1.707300 0.000000 0.000000 
#    y 0.000000 1.693920 0.000000 
#    z 0.000000 0.000000 1.700820 
# 
# From -- ./inp_files/32448.got.cif
#   From: 2010.03.12/outbox.cif.g09.slc.cpg/sg62_17_cif.got.tgz:32448.got - 2010.04.10 19:12:36.
