data_PCOD8252444
_publ_section_title
;
Structure prediction by ZEFSAII (Michael W. Deem and Ramdas Pophale) SiO2 
 PCOD8252444
Probable space group: P N M A
;
_chemical_formula_sum "Si O2"
_cell_formula_units_Z 48
_cell_length_a 17.028996
_cell_length_b 9.384189
_cell_length_c 16.295466
_cell_angle_alpha 90.000000
_cell_angle_beta 90.000000
_cell_angle_gamma 90.000000
_cell_volume 2604.069518
_symmetry_space_group_name_H-M "P N M A"
_symmetry_group_IT_number 62
_symmetry_cell_setting 'orthorhombic'
loop_
_space_group_symop_operation_xyz
x,y,z
1/2-x,-y,1/2+z
1/2+x,1/2-y,1/2-z
-x,1/2+y,-z
-x,-y,-z
1/2+x,y,1/2-z
1/2-x,1/2+y,1/2+z
x,1/2-y,z
loop_
_atom_site_type_symbol
_atom_site_label
_atom_site_fract_x
_atom_site_fract_y
_atom_site_fract_z
Si Si1 0.090396 0.413468 0.923386
Si Si2 0.440635 0.585357 0.610514
Si Si3 0.117269 0.911360 0.253328
Si Si4 0.734637 0.915548 0.102121
Si Si5 0.993304 0.089047 0.608326
Si Si6 0.876436 0.586908 0.502999
O O1 0.067799 0.250000 0.904576
O O2 0.174423 0.454917 0.884724
O O3 0.025926 0.513282 0.881914
O O4 0.095255 0.439023 0.020855
O O5 0.449965 0.750000 0.632728
O O6 0.380655 0.513556 0.674731
O O7 0.133041 0.750000 0.223946
O O8 0.185340 0.959356 0.317125
O O9 0.030781 0.923993 0.296074
O O10 0.724891 0.750000 0.082708
O O11 0.701891 0.996673 0.021083
O O12 0.968675 0.250000 0.578647
O O13 0.087172 0.069310 0.589861
O O14 0.945887 0.966850 0.561674
O O15 0.856385 0.750000 0.522632
#
# Coordination Sequence:
#
# PCOD8252444 Si02
#       6
#     8   8   8   8   8   8
#     4   9  19  37  57  73  95 131 170 204 242 293
#     4  10  20  34  54  78 100 125 163 209 251 289
#     4   9  17  31  51  73 100 133 166 200 242 297
#     4   9  18  33  52  73  99 133 167 200 246 301
#     4   8  15  27  42  63  94 133 170 197 232 290
#     4   9  15  24  42  68  96 126 162 204 243 282
#
# _framework density 18.432689
#
# number of rings (size 3 to 8) (size 9 to 14) (size 15 to 20)
#    0.000    3.000    0.000    2.000    0.000    4.667 
#    0.000    1.667    0.000    6.000    0.000    0.000 
#    0.000    0.000    0.000    0.000    0.000    0.000 
#
# Total GULP energy -594756.604555 kJ/mol
# GULP energy per Si atom -12390.762595 kJ/mol
# Density = 1.839074 g / cm^3
# Si number density = 18.432689 Si / 1000 Ang^3
#
#
#
# Elastic Constant Matrix: (Units=GPa)
#
#
# Indices 1 2 3 4 5 6 
#
# 1 88.7354 42.0595 31.4348 0.0000 0.0000 0.0000
# 2 42.0595 80.9970 34.1563 0.0000 0.0000 0.0000
# 3 31.4348 34.1563 58.4630 0.0000 0.0000 0.0000
# 4 0.0000 0.0000 0.0000 28.1005 0.0000 0.0000
# 5 0.0000 0.0000 0.0000 0.0000 17.2545 0.0000
# 6 0.0000 0.0000 0.0000 0.0000 0.0000 26.1620
#
#
#
# Elastic Compliance Matrix: (Units=1/GPa)
#
#
# Indices 1 2 3 4 5 6 
#
# 1 0.015965 -0.006197 -0.004964 0.000000 0.000000 0.000000
# 2 -0.006197 0.018788 -0.007644 0.000000 0.000000 0.000000
# 3 -0.004964 -0.007644 0.024240 0.000000 0.000000 0.000000
# 4 0.000000 0.000000 0.000000 0.035586 0.000000 0.000000
# 5 0.000000 0.000000 0.000000 0.000000 0.057956 0.000000
# 6 0.000000 0.000000 0.000000 0.000000 0.000000 0.038223
#
#
# Mechanical properties :
#
#
# Convention : Reuss Voigt Hill
#
# Bulk Modulus (GPa) = 46.76738 49.27741 48.02240
# Shear Modulus (GPa) = 21.23171 22.33971 21.78571
#
# Velocity S-wave (km/s) = 3.39757 3.48510 3.44162
# Velocity P-wave (km/s) = 6.38893 6.55639 6.47320
#
# Compressibility (1/GPa) = 0.02138242
#
# Stress axis : x y z
#
# Youngs Moduli (GPa) = 62.63606 53.22607 41.25430
#
# Poissons Ratio (x) = 0.32985 0.20477
# Poissons Ratio (y) = 0.38816 0.31536
# Poissons Ratio (z) = 0.31091 0.40688
#
# Static dielectric constant tensor:
#      x y z
#    x 3.411090 0.000000 0.000000 
#    y 0.000000 3.435050 0.000000 
#    z 0.000000 0.000000 3.258210 
# 
# 
# High freq. dielectric constant tensor:
#      x y z
#    x 1.698160 0.000000 0.000000 
#    y 0.000000 1.718190 0.000000 
#    z 0.000000 0.000000 1.688700 
# 
# From -- ./inp_files/24225.got.cif
#   From: 2010.03.12/outbox.cif.g09.slc.cpg/sg62_13_cif.got.tgz:24225.got - 2010.04.10 19:12:36.
