data_PCOD8252928
_publ_section_title
;
Structure prediction by ZEFSAII (Michael W. Deem and Ramdas Pophale) SiO2 
 PCOD8252928
Probable space group: P N M A
;
_chemical_formula_sum "Si O2"
_cell_formula_units_Z 48
_cell_length_a 9.417777
_cell_length_b 8.724332
_cell_length_c 30.750243
_cell_angle_alpha 90.000000
_cell_angle_beta 90.000000
_cell_angle_gamma 90.000000
_cell_volume 2526.557223
_symmetry_space_group_name_H-M "P N M A"
_symmetry_group_IT_number 62
_symmetry_cell_setting 'orthorhombic'
loop_
_space_group_symop_operation_xyz
x,y,z
1/2-x,-y,1/2+z
1/2+x,1/2-y,1/2-z
-x,1/2+y,-z
-x,-y,-z
1/2+x,y,1/2-z
1/2-x,1/2+y,1/2+z
x,1/2-y,z
loop_
_atom_site_type_symbol
_atom_site_label
_atom_site_fract_x
_atom_site_fract_y
_atom_site_fract_z
Si Si1 0.093687 0.574498 0.212378
Si Si2 0.420070 0.927498 0.208247
Si Si3 0.593132 0.932695 0.384162
Si Si4 0.586528 0.931986 0.539859
Si Si5 0.604722 0.570634 0.882391
Si Si6 0.409562 0.570476 0.961643
O O1 0.046066 0.750000 0.211601
O O2 0.258285 0.554794 0.222371
O O3 0.057888 0.506625 0.164679
O O4 0.008934 0.496408 0.252123
O O5 0.459804 0.750000 0.199535
O O6 0.452761 0.021266 0.164690
O O7 0.584532 0.750000 0.387698
O O8 0.479668 0.010233 0.415287
O O9 0.753165 0.980923 0.396381
O O10 0.578343 0.750000 0.538018
O O11 0.748387 0.992188 0.537551
O O12 0.500000 0.000000 0.500000
O O13 0.639449 0.750000 0.882889
O O14 0.481046 0.526213 0.915947
O O15 0.408226 0.750000 0.968883
O O16 0.500000 0.500000 0.000000
#
# Coordination Sequence:
#
# PCOD8252928 Si02
#       6
#     8   8   8   8   8   8
#     4   8  16  30  50  74 102 134 173 216 260 306
#     4   9  17  32  52  75 103 139 179 221 263 311
#     4  10  20  36  57  82 109 142 181 223 269 321
#     4  11  23  39  57  81 110 141 177 222 270 322
#     4  10  20  36  55  78 108 143 178 219 268 318
#     4  10  23  39  56  78 107 139 175 217 264 316
#
# _framework density 18.998186
#
# number of rings (size 3 to 8) (size 9 to 14) (size 15 to 20)
#    0.000    2.333    0.000    3.500    0.000    6.667 
#    0.000    5.833    0.000    0.000    0.000    0.000 
#    0.000    0.000    0.000    0.000    0.000    0.000 
#
# Total GULP energy -595163.778975 kJ/mol
# GULP energy per Si atom -12399.245395 kJ/mol
# Density = 1.895495 g / cm^3
# Si number density = 18.998186 Si / 1000 Ang^3
#
#
#
# Elastic Constant Matrix: (Units=GPa)
#
#
# Indices 1 2 3 4 5 6 
#
# 1 139.9321 37.1228 97.2608 0.0000 0.0000 0.0000
# 2 37.1228 49.0782 38.3451 0.0000 0.0000 0.0000
# 3 97.2608 38.3451 148.1550 0.0000 0.0000 0.0000
# 4 0.0000 0.0000 0.0000 31.8934 0.0000 0.0000
# 5 0.0000 0.0000 0.0000 0.0000 44.7954 0.0000
# 6 0.0000 0.0000 0.0000 0.0000 0.0000 26.3424
#
#
#
# Elastic Compliance Matrix: (Units=1/GPa)
#
#
# Indices 1 2 3 4 5 6 
#
# 1 0.013805 -0.004214 -0.007972 0.000000 0.000000 0.000000
# 2 -0.004214 0.026826 -0.004177 0.000000 0.000000 0.000000
# 3 -0.007972 -0.004177 0.013065 0.000000 0.000000 0.000000
# 4 0.000000 0.000000 0.000000 0.031354 0.000000 0.000000
# 5 0.000000 0.000000 0.000000 0.000000 0.022324 0.000000
# 6 0.000000 0.000000 0.000000 0.000000 0.000000 0.037962
#
#
# Mechanical properties :
#
#
# Convention : Reuss Voigt Hill
#
# Bulk Modulus (GPa) = 47.68661 75.84698 61.76679
# Shear Modulus (GPa) = 27.01941 31.56868 29.29405
#
# Velocity S-wave (km/s) = 3.77531 4.08078 3.93101
# Velocity P-wave (km/s) = 6.64523 7.88756 7.29290
#
# Compressibility (1/GPa) = 0.02097025
#
# Stress axis : x y z
#
# Youngs Moduli (GPa) = 72.43507 37.27691 76.54308
#
# Poissons Ratio (x) = 0.15707 0.61024
# Poissons Ratio (y) = 0.30521 0.31972
# Poissons Ratio (z) = 0.57749 0.15571
#
# Static dielectric constant tensor:
#      x y z
#    x 3.610380 0.000000 0.000000 
#    y 0.000000 3.353810 0.000000 
#    z 0.000000 0.000000 3.840880 
# 
# 
# High freq. dielectric constant tensor:
#      x y z
#    x 1.739140 0.000000 0.000000 
#    y 0.000000 1.722140 0.000000 
#    z 0.000000 0.000000 1.755240 
# 
# From -- ./inp_files/32004.got.cif
#   From: 2010.03.12/outbox.cif.g09.slc.cpg/sg62_17_cif.got.tgz:32004.got - 2010.04.10 19:12:36.
