data_PCOD8252147
_publ_section_title
;
Structure prediction by ZEFSAII (Michael W. Deem and Ramdas Pophale) SiO2 
 PCOD8252147
Probable space group: P N M A
;
_chemical_formula_sum "Si O2"
_cell_formula_units_Z 64
_cell_length_a 15.458116
_cell_length_b 8.710519
_cell_length_c 24.277985
_cell_angle_alpha 90.000000
_cell_angle_beta 90.000000
_cell_angle_gamma 90.000000
_cell_volume 3268.987298
_symmetry_space_group_name_H-M "P N M A"
_symmetry_group_IT_number 62
_symmetry_cell_setting 'orthorhombic'
loop_
_space_group_symop_operation_xyz
x,y,z
1/2-x,-y,1/2+z
1/2+x,1/2-y,1/2-z
-x,1/2+y,-z
-x,-y,-z
1/2+x,y,1/2-z
1/2-x,1/2+y,1/2+z
x,1/2-y,z
loop_
_atom_site_type_symbol
_atom_site_label
_atom_site_fract_x
_atom_site_fract_y
_atom_site_fract_z
Si Si1 0.333787 0.575212 0.375245
Si Si2 0.755122 0.569082 0.813884
Si Si3 0.252163 0.068320 0.565352
Si Si4 0.093452 0.067423 0.490438
Si Si5 0.344047 0.928578 0.875369
Si Si6 0.409261 0.930777 0.762227
Si Si7 0.898605 0.429598 0.230254
Si Si8 0.906620 0.573118 0.005003
O O1 0.300523 0.750000 0.370218
O O2 0.257401 0.453716 0.372680
O O3 0.394092 0.533043 0.324054
O O4 0.383691 0.549449 0.431597
O O5 0.757554 0.750000 0.825132
O O6 0.746315 0.484866 0.871848
O O7 0.843217 0.508389 0.784659
O O8 0.673751 0.525432 0.775175
O O9 0.258610 0.250000 0.562949
O O10 0.164764 0.010249 0.534688
O O11 0.336982 0.004109 0.535240
O O12 0.089227 0.250000 0.490691
O O13 0.119861 0.997640 0.431240
O O14 0.000000 0.000000 0.500000
O O15 0.364740 0.750000 0.876370
O O16 0.386496 0.005462 0.821408
O O17 0.394050 0.750000 0.765415
O O18 0.507685 0.974867 0.752552
O O19 0.891910 0.250000 0.215329
O O20 0.911123 0.750000 0.987957
O O21 0.000000 0.500000 0.000000
#
# Coordination Sequence:
#
# PCOD8252147 Si02
#       8
#     8   8   8   8   8   8   8   8
#     4  11  23  39  61  90 120 151 194 251 306 353
#     4  10  21  38  60  87 119 159 203 245 294 353
#     4  11  24  42  61  88 126 163 202 250 308 365
#     4  10  23  39  62  90 120 160 201 248 303 357
#     4  10  19  39  65  86 114 155 202 248 292 352
#     4   9  19  36  60  89 113 147 201 245 285 344
#     4  10  21  38  62  87 117 158 199 242 291 354
#     4  11  25  43  64  91 122 160 205 253 306 367
#
# _framework density 19.577928
#
# number of rings (size 3 to 8) (size 9 to 14) (size 15 to 20)
#    0.000    1.750    2.500    1.125    3.500    3.500 
#    0.000    0.625    0.000    0.000    0.000    0.000 
#    0.000    0.000    0.000    0.000    0.000    0.000 
#
# Total GULP energy -793517.769483 kJ/mol
# GULP energy per Si atom -12398.715148 kJ/mol
# Density = 1.953337 g / cm^3
# Si number density = 19.577928 Si / 1000 Ang^3
#
#
#
# Elastic Constant Matrix: (Units=GPa)
#
#
# Indices 1 2 3 4 5 6 
#
# 1 150.1549 21.5240 64.4517 0.0000 0.0000 0.0000
# 2 21.5240 30.9382 37.1952 0.0000 0.0000 0.0000
# 3 64.4517 37.1952 162.7142 0.0000 0.0000 0.0000
# 4 0.0000 0.0000 0.0000 31.0884 0.0000 0.0000
# 5 0.0000 0.0000 0.0000 0.0000 26.8863 0.0000
# 6 0.0000 0.0000 0.0000 0.0000 0.0000 22.7919
#
#
#
# Elastic Compliance Matrix: (Units=1/GPa)
#
#
# Indices 1 2 3 4 5 6 
#
# 1 0.008159 -0.002469 -0.002667 0.000000 0.000000 0.000000
# 2 -0.002469 0.045319 -0.009381 0.000000 0.000000 0.000000
# 3 -0.002667 -0.009381 0.009347 0.000000 0.000000 0.000000
# 4 0.000000 0.000000 0.000000 0.032166 0.000000 0.000000
# 5 0.000000 0.000000 0.000000 0.000000 0.037194 0.000000
# 6 0.000000 0.000000 0.000000 0.000000 0.000000 0.043875
#
#
# Mechanical properties :
#
#
# Convention : Reuss Voigt Hill
#
# Bulk Modulus (GPa) = 29.59587 65.57213 47.58400
# Shear Modulus (GPa) = 23.10976 30.86244 26.98610
#
# Velocity S-wave (km/s) = 3.43942 3.97468 3.71670
# Velocity P-wave (km/s) = 5.56081 7.39119 6.54035
#
# Compressibility (1/GPa) = 0.03378850
#
# Stress axis : x y z
#
# Youngs Moduli (GPa) = 122.56988 22.06565 106.98916
#
# Poissons Ratio (x) = 0.05449 0.28536
# Poissons Ratio (y) = 0.30268 1.00371
# Poissons Ratio (z) = 0.32691 0.20701
#
# Static dielectric constant tensor:
#      x y z
#    x 3.632340 0.000000 0.000000 
#    y 0.000000 3.382910 0.000000 
#    z 0.000000 0.000000 4.934510 
# 
# 
# High freq. dielectric constant tensor:
#      x y z
#    x 1.772680 0.000000 0.000000 
#    y 0.000000 1.741560 0.000000 
#    z 0.000000 0.000000 1.782530 
# 
# From -- ./inp_files/29799.got.cif
#   From: 2010.03.12/outbox.cif.g09.slc.cpg/sg62_15_cif.got.tgz:29799.got - 2010.04.10 19:12:36.
