data_PCOD8252796
_publ_section_title
;
Structure prediction by ZEFSAII (Michael W. Deem and Ramdas Pophale) SiO2 
 PCOD8252796
Probable space group: P N M A
;
_chemical_formula_sum "Si O2"
_cell_formula_units_Z 24
_cell_length_a 11.079494
_cell_length_b 10.272676
_cell_length_c 8.168354
_cell_angle_alpha 90.000000
_cell_angle_beta 90.000000
_cell_angle_gamma 90.000000
_cell_volume 929.689804
_symmetry_space_group_name_H-M "P N M A"
_symmetry_group_IT_number 62
_symmetry_cell_setting 'orthorhombic'
loop_
_space_group_symop_operation_xyz
x,y,z
1/2-x,-y,1/2+z
1/2+x,1/2-y,1/2-z
-x,1/2+y,-z
-x,-y,-z
1/2+x,y,1/2-z
1/2-x,1/2+y,1/2+z
x,1/2-y,z
loop_
_atom_site_type_symbol
_atom_site_label
_atom_site_fract_x
_atom_site_fract_y
_atom_site_fract_z
Si Si1 0.962679 0.606767 0.788493
Si Si2 0.898019 0.896091 0.375448
Si Si3 0.315443 0.496507 0.443338
O O1 0.953739 0.750000 0.709067
O O2 0.993425 0.503502 0.641739
O O3 0.839985 0.575642 0.887597
O O4 0.074116 0.605547 0.919390
O O5 0.951530 0.750000 0.384895
O O6 0.812923 0.922697 0.535415
O O7 0.812528 0.906858 0.213231
#
# Coordination Sequence:
#
# PCOD8252796 Si02
#       3
#     8   8   8
#     4   9  19  35  57  80 108 144 184 222 269 327
#     4  10  20  35  57  83 110 143 183 226 272 322
#     4   9  20  34  58  80 109 143 181 218 274 324
#
# _framework density 25.815059999999999
#
# number of rings (size 3 to 8) (size 9 to 14) (size 15 to 20)
#    2.000    0.667    0.000    2.000    0.000    4.000 
#    0.000    1.667    0.000    0.000    0.000    0.000 
#    0.000    0.000    0.000    0.000    0.000    0.000 
#
# Total GULP energy -297412.306806 kJ/mol
# GULP energy per Si atom -12392.179450 kJ/mol
# Density = 2.575630 g / cm^3
# Si number density = 25.815060 Si / 1000 Ang^3
#
#
#
# Elastic Constant Matrix: (Units=GPa)
#
#
# Indices 1 2 3 4 5 6 
#
# 1 82.0287 32.9108 -10.8370 0.0000 0.0000 0.0000
# 2 32.9108 197.9481 -1.2049 0.0000 0.0000 0.0000
# 3 -10.8370 -1.2049 95.4476 0.0000 0.0000 0.0000
# 4 0.0000 0.0000 0.0000 6.7202 0.0000 0.0000
# 5 0.0000 0.0000 0.0000 0.0000 46.8874 0.0000
# 6 0.0000 0.0000 0.0000 0.0000 0.0000 24.1398
#
#
#
# Elastic Compliance Matrix: (Units=1/GPa)
#
#
# Indices 1 2 3 4 5 6 
#
# 1 0.013268 -0.002197 0.001479 0.000000 0.000000 0.000000
# 2 -0.002197 0.005416 -0.000181 0.000000 0.000000 0.000000
# 3 0.001479 -0.000181 0.010643 0.000000 0.000000 0.000000
# 4 0.000000 0.000000 0.000000 0.148805 0.000000 0.000000
# 5 0.000000 0.000000 0.000000 0.000000 0.021328 0.000000
# 6 0.000000 0.000000 0.000000 0.000000 0.000000 0.041425
#
#
# Mechanical properties :
#
#
# Convention : Reuss Voigt Hill
#
# Bulk Modulus (GPa) = 36.32719 46.35137 41.33928
# Shear Modulus (GPa) = 19.85244 39.18651 29.51948
#
# Velocity S-wave (km/s) = 2.77614 3.90034 3.38523
# Velocity P-wave (km/s) = 4.93747 6.18690 5.59715
#
# Compressibility (1/GPa) = 0.02752759
#
# Stress axis : x y z
#
# Youngs Moduli (GPa) = 75.37147 184.63884 93.96243
#
# Poissons Ratio (x) = 0.40563 -0.13894
# Poissons Ratio (y) = 0.16558 0.01701
# Poissons Ratio (z) = -0.11145 0.03343
#
# Static dielectric constant tensor:
#      x y z
#    x 4.142550 0.000000 0.000000 
#    y 0.000000 4.080210 0.000000 
#    z 0.000000 0.000000 4.651010 
# 
# 
# High freq. dielectric constant tensor:
#      x y z
#    x 2.022690 0.000000 0.000000 
#    y 0.000000 1.994960 0.000000 
#    z 0.000000 0.000000 2.068190 
# 
# From -- ./inp_files/4708.got.cif
#   From: 2010.03.12/outbox.cif.g09.slc.cpg/sg62_3_cif.got.tgz:4708.got - 2010.04.10 19:12:36.
