data_PCOD8252293
_publ_section_title
;
Structure prediction by ZEFSAII (Michael W. Deem and Ramdas Pophale) SiO2 
 PCOD8252293
Probable space group: P N M A
;
_chemical_formula_sum "Si O2"
_cell_formula_units_Z 64
_cell_length_a 20.944705
_cell_length_b 17.823588
_cell_length_c 9.374990
_cell_angle_alpha 90.000000
_cell_angle_beta 90.000000
_cell_angle_gamma 90.000000
_cell_volume 3499.775573
_symmetry_space_group_name_H-M "P N M A"
_symmetry_group_IT_number 62
_symmetry_cell_setting 'orthorhombic'
loop_
_space_group_symop_operation_xyz
x,y,z
1/2-x,-y,1/2+z
1/2+x,1/2-y,1/2-z
-x,1/2+y,-z
-x,-y,-z
1/2+x,y,1/2-z
1/2-x,1/2+y,1/2+z
x,1/2-y,z
loop_
_atom_site_type_symbol
_atom_site_label
_atom_site_fract_x
_atom_site_fract_y
_atom_site_fract_z
Si Si1 0.942940 0.910779 0.595922
Si Si2 0.943630 0.661033 0.901686
Si Si3 0.811907 0.332811 0.579929
Si Si4 0.826894 0.839324 0.085824
Si Si5 0.562296 0.914619 0.100950
Si Si6 0.941511 0.159965 0.901668
Si Si7 0.667070 0.340033 0.908892
Si Si8 0.194772 0.668059 0.082313
O O1 0.947718 0.867477 0.742870
O O2 0.884072 0.879503 0.507034
O O3 0.008181 0.895323 0.512965
O O4 0.932017 0.997478 0.628892
O O5 0.941975 0.750000 0.901292
O O6 0.880141 0.628858 0.978157
O O7 0.005012 0.632057 0.989004
O O8 0.823458 0.250000 0.512492
O O9 0.743141 0.367163 0.531352
O O10 0.870351 0.386319 0.535677
O O11 0.807431 0.324145 0.748410
O O12 0.825465 0.750000 0.086552
O O13 0.844114 0.866254 0.245859
O O14 0.543321 0.873570 0.246905
O O15 0.939672 0.250000 0.885441
O O16 0.872542 0.128680 0.961184
O O17 0.662680 0.250000 0.922854
O O18 0.737706 0.370126 0.960179
O O19 0.195214 0.750000 0.010832
#
# Coordination Sequence:
#
# PCOD8252293 Si02
#       8
#     8   8   8   8   8   8   8   8
#     4  11  23  34  45  69 106 137 162 201 246 289
#     4  10  20  33  51  77 104 128 160 202 248 297
#     4   8  14  29  54  76  92 117 162 212 245 280
#     4   8  15  30  53  78  98 120 158 207 250 288
#     4  10  21  36  51  69  97 134 172 204 240 287
#     4   9  17  33  58  79  94 123 169 210 244 291
#     4   9  16  30  53  74  95 127 163 198 241 293
#     4   7  12  25  49  78  96 112 152 206 244 275
#
# _framework density 18.286885999999999
#
# number of rings (size 3 to 8) (size 9 to 14) (size 15 to 20)
#    0.000    3.000    0.000    3.750    0.000    3.500 
#    0.000    5.000    0.000    7.500    0.000    0.000 
#    0.000    0.000    0.000    0.000    0.000    0.000 
#
# Total GULP energy -792952.638999 kJ/mol
# GULP energy per Si atom -12389.884984 kJ/mol
# Density = 1.824526 g / cm^3
# Si number density = 18.286886 Si / 1000 Ang^3
#
#
#
# Elastic Constant Matrix: (Units=GPa)
#
#
# Indices 1 2 3 4 5 6 
#
# 1 163.9156 22.3787 49.0673 0.0000 0.0000 0.0000
# 2 22.3787 17.7550 9.0208 0.0000 0.0000 0.0000
# 3 49.0673 9.0208 68.3645 0.0000 0.0000 0.0000
# 4 0.0000 0.0000 0.0000 21.7885 0.0000 0.0000
# 5 0.0000 0.0000 0.0000 0.0000 5.3079 0.0000
# 6 0.0000 0.0000 0.0000 0.0000 0.0000 17.5216
#
#
#
# Elastic Compliance Matrix: (Units=1/GPa)
#
#
# Indices 1 2 3 4 5 6 
#
# 1 0.008816 -0.008465 -0.005211 0.000000 0.000000 0.000000
# 2 -0.008465 0.068497 -0.002963 0.000000 0.000000 0.000000
# 3 -0.005211 -0.002963 0.018758 0.000000 0.000000 0.000000
# 4 0.000000 0.000000 0.000000 0.045896 0.000000 0.000000
# 5 0.000000 0.000000 0.000000 0.000000 0.188398 0.000000
# 6 0.000000 0.000000 0.000000 0.000000 0.000000 0.057072
#
#
# Mechanical properties :
#
#
# Convention : Reuss Voigt Hill
#
# Bulk Modulus (GPa) = 15.92493 45.66318 30.79406
# Shear Modulus (GPa) = 11.32129 20.22814 15.77472
#
# Velocity S-wave (km/s) = 2.49086 3.32950 2.94023
# Velocity P-wave (km/s) = 4.12308 6.30915 5.32941
#
# Compressibility (1/GPa) = 0.06279461
#
# Stress axis : x y z
#
# Youngs Moduli (GPa) = 113.42842 14.59926 53.30965
#
# Poissons Ratio (x) = 0.12358 0.27778
# Poissons Ratio (y) = 0.96013 0.15795
# Poissons Ratio (z) = 0.59104 0.04326
#
# Static dielectric constant tensor:
#      x y z
#    x 4.142630 0.000000 0.000000 
#    y 0.000000 3.047960 0.000000 
#    z 0.000000 0.000000 3.087350 
# 
# 
# High freq. dielectric constant tensor:
#      x y z
#    x 1.739300 0.000000 0.000000 
#    y 0.000000 1.669770 0.000000 
#    z 0.000000 0.000000 1.678960 
# 
# From -- ./inp_files/8913.got.cif
#   From: 2010.03.12/outbox.cif.g09.slc.cpg/sg62_5_cif.got.tgz:8913.got - 2010.04.10 19:12:36.
