data_PCOD8252195
_publ_section_title
;
Structure prediction by ZEFSAII (Michael W. Deem and Ramdas Pophale) SiO2 
 PCOD8252195
Probable space group: P N M A
;
_chemical_formula_sum "Si O2"
_cell_formula_units_Z 48
_cell_length_a 10.149952
_cell_length_b 9.070887
_cell_length_c 29.774282
_cell_angle_alpha 90.000000
_cell_angle_beta 90.000000
_cell_angle_gamma 90.000000
_cell_volume 2741.290384
_symmetry_space_group_name_H-M "P N M A"
_symmetry_group_IT_number 62
_symmetry_cell_setting 'orthorhombic'
loop_
_space_group_symop_operation_xyz
x,y,z
1/2-x,-y,1/2+z
1/2+x,1/2-y,1/2-z
-x,1/2+y,-z
-x,-y,-z
1/2+x,y,1/2-z
1/2-x,1/2+y,1/2+z
x,1/2-y,z
loop_
_atom_site_type_symbol
_atom_site_label
_atom_site_fract_x
_atom_site_fract_y
_atom_site_fract_z
Si Si1 0.877628 0.922929 0.945775
Si Si2 0.663347 0.424628 0.211067
Si Si3 0.643603 0.077645 0.549316
Si Si4 0.646161 0.076333 0.109491
Si Si5 0.349567 0.075378 0.118648
Si Si6 0.870933 0.074055 0.281630
O O1 0.898732 0.750000 0.938029
O O2 0.761070 0.988526 0.914728
O O3 0.839892 0.959062 0.996859
O O4 0.011867 0.002962 0.931417
O O5 0.663070 0.250000 0.215436
O O6 0.692925 0.468208 0.159635
O O7 0.519789 0.483894 0.226453
O O8 0.775077 0.493412 0.243522
O O9 0.634378 0.250000 0.558502
O O10 0.770134 0.012811 0.573711
O O11 0.664142 0.250000 0.101357
O O12 0.494760 0.026335 0.102646
O O13 0.344357 0.250000 0.117791
O O14 0.321806 0.019721 0.169369
O O15 0.869778 0.250000 0.280039
#
# Coordination Sequence:
#
# PCOD8252195 Si02
#       6
#     8   8   8   8   8   8
#     4   9  18  33  50  67  90 121 154 189 231 274
#     4   8  14  23  37  61  91 117 141 175 219 264
#     4  10  20  32  46  67  93 120 154 192 227 269
#     4   9  17  30  47  68  94 121 149 183 225 270
#     4   8  15  28  46  68  93 119 149 187 228 271
#     4   8  13  22  37  62  93 116 139 178 224 266
#
# _framework density 17.510000999999999
#
# number of rings (size 3 to 8) (size 9 to 14) (size 15 to 20)
#    0.000    3.333    0.000    2.500    0.000    2.667 
#    0.000    5.833    0.000    0.000    0.000   10.500 
#    0.000    0.000    0.000    0.000    0.000    0.000 
#
# Total GULP energy -594971.616781 kJ/mol
# GULP energy per Si atom -12395.242016 kJ/mol
# Density = 1.747015 g / cm^3
# Si number density = 17.510001 Si / 1000 Ang^3
#
#
#
# Elastic Constant Matrix: (Units=GPa)
#
#
# Indices 1 2 3 4 5 6 
#
# 1 86.0821 19.7119 42.3079 0.0000 0.0000 0.0000
# 2 19.7119 23.6157 17.3803 0.0000 0.0000 0.0000
# 3 42.3079 17.3803 61.0978 0.0000 0.0000 0.0000
# 4 0.0000 0.0000 0.0000 13.9489 0.0000 0.0000
# 5 0.0000 0.0000 0.0000 0.0000 43.0607 0.0000
# 6 0.0000 0.0000 0.0000 0.0000 0.0000 15.7227
#
#
#
# Elastic Compliance Matrix: (Units=1/GPa)
#
#
# Indices 1 2 3 4 5 6 
#
# 1 0.018647 -0.007666 -0.010731 0.000000 0.000000 0.000000
# 2 -0.007666 0.056709 -0.010823 0.000000 0.000000 0.000000
# 3 -0.010731 -0.010823 0.026877 0.000000 0.000000 0.000000
# 4 0.000000 0.000000 0.000000 0.071690 0.000000 0.000000
# 5 0.000000 0.000000 0.000000 0.000000 0.023223 0.000000
# 6 0.000000 0.000000 0.000000 0.000000 0.000000 0.063602
#
#
# Mechanical properties :
#
#
# Convention : Reuss Voigt Hill
#
# Bulk Modulus (GPa) = 22.83559 36.62175 29.72867
# Shear Modulus (GPa) = 14.97959 20.63948 17.80954
#
# Velocity S-wave (km/s) = 2.92805 3.43698 3.19267
# Velocity P-wave (km/s) = 4.94985 6.05893 5.53225
#
# Compressibility (1/GPa) = 0.04379130
#
# Stress axis : x y z
#
# Youngs Moduli (GPa) = 53.62918 17.63376 37.20655
#
# Poissons Ratio (x) = 0.13519 0.39927
# Poissons Ratio (y) = 0.41115 0.40269
# Poissons Ratio (z) = 0.57551 0.19085
#
# Static dielectric constant tensor:
#      x y z
#    x 3.600380 0.000000 0.000000 
#    y 0.000000 2.726690 0.000000 
#    z 0.000000 0.000000 3.473150 
# 
# 
# High freq. dielectric constant tensor:
#      x y z
#    x 1.686280 0.000000 0.000000 
#    y 0.000000 1.620320 0.000000 
#    z 0.000000 0.000000 1.679420 
# 
# From -- ./inp_files/26537.got.cif
#   From: 2010.03.12/outbox.cif.g09.slc.cpg/sg62_14_cif.got.tgz:26537.got - 2010.04.10 19:12:36.
