data_PCOD8252908
_publ_section_title
;
Structure prediction by ZEFSAII (Michael W. Deem and Ramdas Pophale) SiO2 
 PCOD8252908
Probable space group: P N M A
;
_chemical_formula_sum "Si O2"
_cell_formula_units_Z 48
_cell_length_a 14.980477
_cell_length_b 8.818587
_cell_length_c 18.845235
_cell_angle_alpha 90.000000
_cell_angle_beta 90.000000
_cell_angle_gamma 90.000000
_cell_volume 2489.580671
_symmetry_space_group_name_H-M "P N M A"
_symmetry_group_IT_number 62
_symmetry_cell_setting 'orthorhombic'
loop_
_space_group_symop_operation_xyz
x,y,z
1/2-x,-y,1/2+z
1/2+x,1/2-y,1/2-z
-x,1/2+y,-z
-x,-y,-z
1/2+x,y,1/2-z
1/2-x,1/2+y,1/2+z
x,1/2-y,z
loop_
_atom_site_type_symbol
_atom_site_label
_atom_site_fract_x
_atom_site_fract_y
_atom_site_fract_z
Si Si1 0.506391 0.071260 0.291641
Si Si2 0.365117 0.071688 0.178058
Si Si3 0.301067 0.573524 0.766855
Si Si4 0.906259 0.068998 0.477843
Si Si5 0.245511 0.570804 0.415062
Si Si6 0.946305 0.929592 0.064442
O O1 0.495382 0.250000 0.306196
O O2 0.435825 0.007714 0.234654
O O3 0.602208 0.029768 0.260648
O O4 0.493730 0.981662 0.363908
O O5 0.377897 0.250000 0.173273
O O6 0.266545 0.027216 0.204073
O O7 0.382329 0.004181 0.100103
O O8 0.292560 0.750000 0.785663
O O9 0.278656 0.482339 0.836945
O O10 0.912871 0.250000 0.479232
O O11 0.828554 0.009000 0.530078
O O12 0.000000 0.000000 0.500000
O O13 0.245449 0.750000 0.415616
O O14 0.343736 0.511430 0.437235
O O15 0.950167 0.750000 0.058406
O O16 0.000000 0.000000 0.000000
#
# Coordination Sequence:
#
# PCOD8252908 Si02
#       6
#     8   8   8   8   8   8
#     4  10  20  36  60  87 113 147 193 240 287 345
#     4   9  18  34  56  83 112 144 186 233 279 337
#     4  10  20  35  61  87 111 150 194 237 285 345
#     4  10  21  38  59  85 116 151 191 235 289 346
#     4  10  22  39  60  86 120 155 189 240 297 343
#     4  11  24  40  59  85 118 157 197 243 295 350
#
# _framework density 19.280355
#
# number of rings (size 3 to 8) (size 9 to 14) (size 15 to 20)
#    0.000    2.000    1.667    1.500    2.333    3.333 
#    0.000    1.667    0.000    0.000    0.000    0.000 
#    0.000    0.000    0.000    0.000    0.000    0.000 
#
# Total GULP energy -595274.585684 kJ/mol
# GULP energy per Si atom -12401.553868 kJ/mol
# Density = 1.923647 g / cm^3
# Si number density = 19.280355 Si / 1000 Ang^3
#
#
#
# Elastic Constant Matrix: (Units=GPa)
#
#
# Indices 1 2 3 4 5 6 
#
# 1 93.2593 11.2960 -2.8142 0.0000 0.0000 0.0000
# 2 11.2960 17.6224 6.3336 0.0000 0.0000 0.0000
# 3 -2.8142 6.3336 81.3821 0.0000 0.0000 0.0000
# 4 0.0000 0.0000 0.0000 31.2620 0.0000 0.0000
# 5 0.0000 0.0000 0.0000 0.0000 36.3565 0.0000
# 6 0.0000 0.0000 0.0000 0.0000 0.0000 20.3123
#
#
#
# Elastic Compliance Matrix: (Units=1/GPa)
#
#
# Indices 1 2 3 4 5 6 
#
# 1 0.011707 -0.007870 0.001017 0.000000 0.000000 0.000000
# 2 -0.007870 0.063669 -0.005227 0.000000 0.000000 0.000000
# 3 0.001017 -0.005227 0.012730 0.000000 0.000000 0.000000
# 4 0.000000 0.000000 0.000000 0.031988 0.000000 0.000000
# 5 0.000000 0.000000 0.000000 0.000000 0.027505 0.000000
# 6 0.000000 0.000000 0.000000 0.000000 0.000000 0.049231
#
#
# Mechanical properties :
#
#
# Convention : Reuss Voigt Hill
#
# Bulk Modulus (GPa) = 15.63812 24.65497 20.14654
# Shear Modulus (GPa) = 20.63521 29.41607 25.02564
#
# Velocity S-wave (km/s) = 3.27505 3.91026 3.60667
# Velocity P-wave (km/s) = 4.73601 5.76214 5.27409
#
# Compressibility (1/GPa) = 0.06394629
#
# Stress axis : x y z
#
# Youngs Moduli (GPa) = 85.42123 15.70622 78.55646
#
# Poissons Ratio (x) = 0.12360 -0.07991
# Poissons Ratio (y) = 0.67223 0.41063
# Poissons Ratio (z) = -0.08690 0.08210
#
# Static dielectric constant tensor:
#      x y z
#    x 3.833190 0.000000 0.000000 
#    y 0.000000 3.279290 0.000000 
#    z 0.000000 0.000000 3.643300 
# 
# 
# High freq. dielectric constant tensor:
#      x y z
#    x 1.771020 0.000000 0.000000 
#    y 0.000000 1.721200 0.000000 
#    z 0.000000 0.000000 1.764700 
# 
# From -- ./inp_files/23660.got.cif
#   From: 2010.03.12/outbox.cif.g09.slc.cpg/sg62_12_cif.got.tgz:23660.got - 2010.04.10 19:12:36.
