data_PCOD8252150
_publ_section_title
;
Structure prediction by ZEFSAII (Michael W. Deem and Ramdas Pophale) SiO2 
 PCOD8252150
Probable space group: P N M A
;
_chemical_formula_sum "Si O2"
_cell_formula_units_Z 40
_cell_length_a 9.337111
_cell_length_b 13.124034
_cell_length_c 16.727545
_cell_angle_alpha 90.000000
_cell_angle_beta 90.000000
_cell_angle_gamma 90.000000
_cell_volume 2049.802769
_symmetry_space_group_name_H-M "P N M A"
_symmetry_group_IT_number 62
_symmetry_cell_setting 'orthorhombic'
loop_
_space_group_symop_operation_xyz
x,y,z
1/2-x,-y,1/2+z
1/2+x,1/2-y,1/2-z
-x,1/2+y,-z
-x,-y,-z
1/2+x,y,1/2-z
1/2-x,1/2+y,1/2+z
x,1/2-y,z
loop_
_atom_site_type_symbol
_atom_site_label
_atom_site_fract_x
_atom_site_fract_y
_atom_site_fract_z
Si Si1 0.622978 0.635241 0.487756
Si Si2 0.840232 0.463538 0.512015
Si Si3 0.952541 0.056862 0.816422
Si Si4 0.638977 0.366107 0.396948
Si Si5 0.763079 0.368060 0.674578
O O1 0.676182 0.750000 0.501778
O O2 0.741516 0.562396 0.525796
O O3 0.602924 0.616355 0.394070
O O4 0.471550 0.615968 0.530394
O O5 0.791780 0.400418 0.433179
O O6 0.830805 0.391225 0.588640
O O7 0.000000 0.500000 0.500000
O O8 0.882957 0.106850 0.739290
O O9 0.123057 0.064717 0.807839
O O10 0.907792 0.937500 0.822873
O O11 0.643878 0.250000 0.366411
O O12 0.719656 0.250000 0.678047
#
# Coordination Sequence:
#
# PCOD8252150 Si02
#       5
#     8   8   8   8   8
#     4  10  19  39  66  86 112 159 209 248 300 359
#     4  11  23  38  60  92 127 157 202 261 299 360
#     4  11  23  40  60  92 123 157 201 251 302 370
#     4  10  20  42  69  85 113 164 211 251 302 361
#     4  12  24  40  62  90 127 161 197 249 311 366
#
# _framework density 19.514073
#
# number of rings (size 3 to 8) (size 9 to 14) (size 15 to 20)
#    0.000    1.200    4.000    3.600    5.600    1.600 
#    0.000    2.000    0.000    0.000    0.000    0.000 
#    0.000    0.000    0.000    0.000    0.000    0.000 
#
# Total GULP energy -496197.006373 kJ/mol
# GULP energy per Si atom -12404.925159 kJ/mol
# Density = 1.946966 g / cm^3
# Si number density = 19.514073 Si / 1000 Ang^3
#
#
#
# Elastic Constant Matrix: (Units=GPa)
#
#
# Indices 1 2 3 4 5 6 
#
# 1 112.2395 35.0895 17.1483 0.0000 0.0000 0.0000
# 2 35.0895 115.0409 11.9947 0.0000 0.0000 0.0000
# 3 17.1483 11.9947 50.0114 0.0000 0.0000 0.0000
# 4 0.0000 0.0000 0.0000 29.5123 0.0000 0.0000
# 5 0.0000 0.0000 0.0000 0.0000 28.2086 0.0000
# 6 0.0000 0.0000 0.0000 0.0000 0.0000 23.2585
#
#
#
# Elastic Compliance Matrix: (Units=1/GPa)
#
#
# Indices 1 2 3 4 5 6 
#
# 1 0.010224 -0.002824 -0.002829 0.000000 0.000000 0.000000
# 2 -0.002824 0.009695 -0.001357 0.000000 0.000000 0.000000
# 3 -0.002829 -0.001357 0.021291 0.000000 0.000000 0.000000
# 4 0.000000 0.000000 0.000000 0.033884 0.000000 0.000000
# 5 0.000000 0.000000 0.000000 0.000000 0.035450 0.000000
# 6 0.000000 0.000000 0.000000 0.000000 0.000000 0.042995
#
#
# Mechanical properties :
#
#
# Convention : Reuss Voigt Hill
#
# Bulk Modulus (GPa) = 36.77583 45.08410 40.92997
# Shear Modulus (GPa) = 28.30892 30.39983 29.35437
#
# Velocity S-wave (km/s) = 3.81293 3.95123 3.88270
# Velocity P-wave (km/s) = 6.18638 6.63098 6.41253
#
# Compressibility (1/GPa) = 0.02719177
#
# Stress axis : x y z
#
# Youngs Moduli (GPa) = 97.80458 103.14227 46.96857
#
# Poissons Ratio (x) = 0.29125 0.13286
# Poissons Ratio (y) = 0.27617 0.06374
# Poissons Ratio (z) = 0.27665 0.13997
#
# Static dielectric constant tensor:
#      x y z
#    x 3.511530 0.000000 0.000000 
#    y 0.000000 3.830430 0.000000 
#    z 0.000000 0.000000 3.414670 
# 
# 
# High freq. dielectric constant tensor:
#      x y z
#    x 1.757030 0.000000 0.000000 
#    y 0.000000 1.773410 0.000000 
#    z 0.000000 0.000000 1.741770 
# 
# From -- ./inp_files/16652.got.cif
#   From: 2010.03.12/outbox.cif.g09.slc.cpg/sg62_9_cif.got.tgz:16652.got - 2010.04.10 19:12:36.
