data_PCOD8252369
_publ_section_title
;
Structure prediction by ZEFSAII (Michael W. Deem and Ramdas Pophale) SiO2 
 PCOD8252369
Probable space group: P N M A
;
_chemical_formula_sum "Si O2"
_cell_formula_units_Z 40
_cell_length_a 10.231323
_cell_length_b 10.313922
_cell_length_c 20.880939
_cell_angle_alpha 90.000000
_cell_angle_beta 90.000000
_cell_angle_gamma 90.000000
_cell_volume 2203.462495
_symmetry_space_group_name_H-M "P N M A"
_symmetry_group_IT_number 62
_symmetry_cell_setting 'orthorhombic'
loop_
_space_group_symop_operation_xyz
x,y,z
1/2-x,-y,1/2+z
1/2+x,1/2-y,1/2-z
-x,1/2+y,-z
-x,-y,-z
1/2+x,y,1/2-z
1/2-x,1/2+y,1/2+z
x,1/2-y,z
loop_
_atom_site_type_symbol
_atom_site_label
_atom_site_fract_x
_atom_site_fract_y
_atom_site_fract_z
Si Si1 0.164253 0.110712 0.977960
Si Si2 0.071272 0.601118 0.545075
Si Si3 0.459991 0.392583 0.414078
Si Si4 0.621396 0.096419 0.291873
Si Si5 0.412605 0.403819 0.190504
O O1 0.185013 0.250000 0.942842
O O2 0.156873 0.997080 0.924291
O O3 0.276816 0.087661 0.029454
O O4 0.031680 0.118485 0.018260
O O5 0.022307 0.750000 0.534551
O O6 0.052158 0.556195 0.618174
O O7 0.000000 0.500000 0.500000
O O8 0.401788 0.250000 0.395607
O O9 0.556791 0.443844 0.359223
O O10 0.628456 0.250000 0.286319
O O11 0.769608 0.039892 0.288331
O O12 0.528113 0.039962 0.235584
O O13 0.404923 0.250000 0.195952
#
# Coordination Sequence:
#
# PCOD8252369 Si02
#       5
#     8   8   8   8   8
#     4   9  17  30  47  69 100 132 160 196 246 294
#     4  10  20  34  51  72 103 136 165 204 254 302
#     4   9  16  28  49  74  97 124 162 203 243 290
#     4   9  16  28  48  73 102 132 165 208 255 301
#     4   9  17  30  48  72 102 133 164 205 256 301
#
# _framework density 18.153248000000001
#
# number of rings (size 3 to 8) (size 9 to 14) (size 15 to 20)
#    0.000    2.800    2.000    0.000    0.000    2.400 
#    0.000    4.000    0.000    1.200    0.000    0.000 
#    0.000    0.000    0.000    0.000    0.000    0.000 
#
# Total GULP energy -495591.162559 kJ/mol
# GULP energy per Si atom -12389.779064 kJ/mol
# Density = 1.811193 g / cm^3
# Si number density = 18.153248 Si / 1000 Ang^3
#
#
#
# Elastic Constant Matrix: (Units=GPa)
#
#
# Indices 1 2 3 4 5 6 
#
# 1 64.9354 34.3310 56.5081 0.0000 0.0000 0.0000
# 2 34.3310 66.4440 41.2385 0.0000 0.0000 0.0000
# 3 56.5081 41.2385 97.3584 0.0000 0.0000 0.0000
# 4 0.0000 0.0000 0.0000 18.8108 0.0000 0.0000
# 5 0.0000 0.0000 0.0000 0.0000 34.3478 0.0000
# 6 0.0000 0.0000 0.0000 0.0000 0.0000 20.8016
#
#
#
# Elastic Compliance Matrix: (Units=1/GPa)
#
#
# Indices 1 2 3 4 5 6 
#
# 1 0.033410 -0.007092 -0.016388 0.000000 0.000000 0.000000
# 2 -0.007092 0.021923 -0.005170 0.000000 0.000000 0.000000
# 3 -0.016388 -0.005170 0.021973 0.000000 0.000000 0.000000
# 4 0.000000 0.000000 0.000000 0.053161 0.000000 0.000000
# 5 0.000000 0.000000 0.000000 0.000000 0.029114 0.000000
# 6 0.000000 0.000000 0.000000 0.000000 0.000000 0.048073
#
#
# Mechanical properties :
#
#
# Convention : Reuss Voigt Hill
#
# Bulk Modulus (GPa) = 49.98172 54.76589 52.37381
# Shear Modulus (GPa) = 18.40786 21.23607 19.82196
#
# Velocity S-wave (km/s) = 3.18783 3.42398 3.30801
# Velocity P-wave (km/s) = 6.41426 6.77242 6.59577
#
# Compressibility (1/GPa) = 0.02000731
#
# Stress axis : x y z
#
# Youngs Moduli (GPa) = 29.93077 45.61373 45.51033
#
# Poissons Ratio (x) = 0.32348 0.74582
# Poissons Ratio (y) = 0.21226 0.23529
# Poissons Ratio (z) = 0.49051 0.23582
#
# Static dielectric constant tensor:
#      x y z
#    x 3.743800 0.000000 0.000000 
#    y 0.000000 3.359900 0.000000 
#    z 0.000000 0.000000 3.325660 
# 
# 
# High freq. dielectric constant tensor:
#      x y z
#    x 1.698030 0.000000 0.000000 
#    y 0.000000 1.657320 0.000000 
#    z 0.000000 0.000000 1.695290 
# 
# From -- ./inp_files/21888.got.cif
#   From: 2010.03.12/outbox.cif.g09.slc.cpg/sg62_11_cif.got.tgz:21888.got - 2010.04.10 19:12:36.
