data_PCOD8252443
_publ_section_title
;
Structure prediction by ZEFSAII (Michael W. Deem and Ramdas Pophale) SiO2 
 PCOD8252443
Probable space group: P N M A
;
_chemical_formula_sum "Si O2"
_cell_formula_units_Z 40
_cell_length_a 7.633297
_cell_length_b 13.281858
_cell_length_c 21.131832
_cell_angle_alpha 90.000000
_cell_angle_beta 90.000000
_cell_angle_gamma 90.000000
_cell_volume 2142.437407
_symmetry_space_group_name_H-M "P N M A"
_symmetry_group_IT_number 62
_symmetry_cell_setting 'orthorhombic'
loop_
_space_group_symop_operation_xyz
x,y,z
1/2-x,-y,1/2+z
1/2+x,1/2-y,1/2-z
-x,1/2+y,-z
-x,-y,-z
1/2+x,y,1/2-z
1/2-x,1/2+y,1/2+z
x,1/2-y,z
loop_
_atom_site_type_symbol
_atom_site_label
_atom_site_fract_x
_atom_site_fract_y
_atom_site_fract_z
Si Si1 0.319317 0.362187 0.697404
Si Si2 0.648482 0.866237 0.534532
Si Si3 0.415865 0.138534 0.834500
Si Si4 0.644932 0.497238 0.410660
Si Si5 0.528897 0.471426 0.071582
O O1 0.406155 0.250000 0.693934
O O2 0.122391 0.356281 0.674375
O O3 0.326992 0.400933 0.769702
O O4 0.418923 0.440264 0.651155
O O5 0.615384 0.750000 0.520287
O O6 0.490473 0.907648 0.577500
O O7 0.832816 0.879187 0.572437
O O8 0.654363 0.924898 0.468518
O O9 0.344650 0.250000 0.852294
O O10 0.373921 0.063021 0.891732
O O11 0.837908 0.447014 0.398604
O O12 0.500000 0.500000 0.000000
#
# Coordination Sequence:
#
# PCOD8252443 Si02
#       5
#     8   8   8   8   8
#     4   9  17  30  50  77 108 135 163 208 265 317
#     4  10  20  34  54  77 103 137 179 214 254 308
#     4   9  18  31  50  80 108 134 167 208 264 320
#     4   9  19  35  52  78 107 137 169 213 264 305
#     4   9  19  34  51  75 106 139 171 211 257 304
#
# _framework density 18.670324999999998
#
# number of rings (size 3 to 8) (size 9 to 14) (size 15 to 20)
#    0.000    2.800    0.000    0.600    2.800    5.600 
#    0.000    8.000    0.000    1.200    0.000    0.000 
#    0.000    0.000    0.000    0.000    0.000    0.000 
#
# Total GULP energy -495748.378091 kJ/mol
# GULP energy per Si atom -12393.709452 kJ/mol
# Density = 1.862783 g / cm^3
# Si number density = 18.670325 Si / 1000 Ang^3
#
#
#
# Elastic Constant Matrix: (Units=GPa)
#
#
# Indices 1 2 3 4 5 6 
#
# 1 63.4521 35.1965 6.8082 0.0000 0.0000 0.0000
# 2 35.1965 83.7408 30.1237 0.0000 0.0000 0.0000
# 3 6.8082 30.1237 89.0207 0.0000 0.0000 0.0000
# 4 0.0000 0.0000 0.0000 29.9014 0.0000 0.0000
# 5 0.0000 0.0000 0.0000 0.0000 22.3217 0.0000
# 6 0.0000 0.0000 0.0000 0.0000 0.0000 25.0203
#
#
#
# Elastic Compliance Matrix: (Units=1/GPa)
#
#
# Indices 1 2 3 4 5 6 
#
# 1 0.020738 -0.009275 0.001552 0.000000 0.000000 0.000000
# 2 -0.009275 0.017745 -0.005295 0.000000 0.000000 0.000000
# 3 0.001552 -0.005295 0.012906 0.000000 0.000000 0.000000
# 4 0.000000 0.000000 0.000000 0.033443 0.000000 0.000000
# 5 0.000000 0.000000 0.000000 0.000000 0.044800 0.000000
# 6 0.000000 0.000000 0.000000 0.000000 0.000000 0.039968
#
#
# Mechanical properties :
#
#
# Convention : Reuss Voigt Hill
#
# Bulk Modulus (GPa) = 39.44145 42.27448 40.85796
# Shear Modulus (GPa) = 24.49951 26.38769 25.44360
#
# Velocity S-wave (km/s) = 3.62638 3.76353 3.69559
# Velocity P-wave (km/s) = 6.22136 6.44805 6.33572
#
# Compressibility (1/GPa) = 0.02535404
#
# Stress axis : x y z
#
# Youngs Moduli (GPa) = 48.22075 56.35508 77.48045
#
# Poissons Ratio (x) = 0.52268 -0.12028
# Poissons Ratio (y) = 0.44723 0.41028
# Poissons Ratio (z) = -0.07486 0.29842
#
# Static dielectric constant tensor:
#      x y z
#    x 3.763600 0.000000 0.000000 
#    y 0.000000 3.429290 0.000000 
#    z 0.000000 0.000000 3.530240 
# 
# 
# High freq. dielectric constant tensor:
#      x y z
#    x 1.733470 0.000000 0.000000 
#    y 0.000000 1.689480 0.000000 
#    z 0.000000 0.000000 1.715950 
# 
# From -- ./inp_files/21901.got.cif
#   From: 2010.03.12/outbox.cif.g09.slc.cpg/sg62_11_cif.got.tgz:21901.got - 2010.04.10 19:12:36.
