data_PCOD8252385
_publ_section_title
;
Structure prediction by ZEFSAII (Michael W. Deem and Ramdas Pophale) SiO2 
 PCOD8252385
Probable space group: P N M A
;
_chemical_formula_sum "Si O2"
_cell_formula_units_Z 48
_cell_length_a 9.765557
_cell_length_b 9.168259
_cell_length_c 29.865480
_cell_angle_alpha 90.000000
_cell_angle_beta 90.000000
_cell_angle_gamma 90.000000
_cell_volume 2673.950676
_symmetry_space_group_name_H-M "P N M A"
_symmetry_group_IT_number 62
_symmetry_cell_setting 'orthorhombic'
loop_
_space_group_symop_operation_xyz
x,y,z
1/2-x,-y,1/2+z
1/2+x,1/2-y,1/2-z
-x,1/2+y,-z
-x,-y,-z
1/2+x,y,1/2-z
1/2-x,1/2+y,1/2+z
x,1/2-y,z
loop_
_atom_site_type_symbol
_atom_site_label
_atom_site_fract_x
_atom_site_fract_y
_atom_site_fract_z
Si Si1 0.632136 0.919676 0.284698
Si Si2 0.319436 0.579321 0.296543
Si Si3 0.347343 0.421349 0.386212
Si Si4 0.618230 0.581143 0.945195
Si Si5 0.340374 0.580612 0.626824
Si Si6 0.655855 0.580420 0.047983
O O1 0.657425 0.750000 0.292054
O O2 0.711829 0.973700 0.240706
O O3 0.472009 0.957171 0.279035
O O4 0.696867 0.998067 0.327634
O O5 0.303755 0.750000 0.307503
O O6 0.284410 0.488890 0.340986
O O7 0.317677 0.250000 0.386682
O O8 0.507539 0.458639 0.389460
O O9 0.280037 0.495865 0.429115
O O10 0.578308 0.750000 0.938466
O O11 0.737509 0.530275 0.911914
O O12 0.486996 0.483476 0.934131
O O13 0.671731 0.553049 0.995205
O O14 0.326236 0.750000 0.637252
O O15 0.662409 0.750000 0.060459
#
# Coordination Sequence:
#
# PCOD8252385 Si02
#       6
#     8   8   8   8   8   8
#     4   9  18  32  50  72  99 130 165 206 248 293
#     4   9  18  33  50  70  98 130 165 205 247 292
#     4  10  20  34  52  75 103 134 168 206 249 298
#     4   9  19  36  54  74 102 134 169 210 253 298
#     4   9  19  35  53  74 102 134 168 207 250 298
#     4  10  20  34  53  76 102 133 169 209 253 300
#
# _framework density 17.950966999999999
#
# number of rings (size 3 to 8) (size 9 to 14) (size 15 to 20)
#    0.000    2.667    0.000    1.000    0.000    4.667 
#    0.000    1.667    0.000    0.000    0.000    0.000 
#    0.000    0.000    0.000    0.000    0.000    0.000 
#
# Total GULP energy -595361.296117 kJ/mol
# GULP energy per Si atom -12403.360336 kJ/mol
# Density = 1.791011 g / cm^3
# Si number density = 17.950967 Si / 1000 Ang^3
#
#
#
# Elastic Constant Matrix: (Units=GPa)
#
#
# Indices 1 2 3 4 5 6 
#
# 1 44.9285 21.4534 22.8110 0.0000 0.0000 0.0000
# 2 21.4534 56.9212 25.5816 0.0000 0.0000 0.0000
# 3 22.8110 25.5816 55.1479 0.0000 0.0000 0.0000
# 4 0.0000 0.0000 0.0000 34.6310 0.0000 0.0000
# 5 0.0000 0.0000 0.0000 0.0000 39.9326 0.0000
# 6 0.0000 0.0000 0.0000 0.0000 0.0000 27.5780
#
#
#
# Elastic Compliance Matrix: (Units=1/GPa)
#
#
# Indices 1 2 3 4 5 6 
#
# 1 0.030423 -0.007341 -0.009179 0.000000 0.000000 0.000000
# 2 -0.007341 0.023967 -0.008081 0.000000 0.000000 0.000000
# 3 -0.009179 -0.008081 0.025678 0.000000 0.000000 0.000000
# 4 0.000000 0.000000 0.000000 0.028876 0.000000 0.000000
# 5 0.000000 0.000000 0.000000 0.000000 0.025042 0.000000
# 6 0.000000 0.000000 0.000000 0.000000 0.000000 0.036261
#
#
# Mechanical properties :
#
#
# Convention : Reuss Voigt Hill
#
# Bulk Modulus (GPa) = 32.39765 32.96552 32.68158
# Shear Modulus (GPa) = 21.76394 26.23842 24.00118
#
# Velocity S-wave (km/s) = 3.48575 3.82733 3.66052
# Velocity P-wave (km/s) = 5.85556 6.15917 6.00928
#
# Compressibility (1/GPa) = 0.03086643
#
# Stress axis : x y z
#
# Youngs Moduli (GPa) = 32.86959 41.72431 38.94354
#
# Poissons Ratio (x) = 0.30631 0.35745
# Poissons Ratio (y) = 0.24131 0.31470
# Poissons Ratio (z) = 0.30170 0.33717
#
# Static dielectric constant tensor:
#      x y z
#    x 3.342910 0.000000 0.000000 
#    y 0.000000 3.317960 0.000000 
#    z 0.000000 0.000000 3.345040 
# 
# 
# High freq. dielectric constant tensor:
#      x y z
#    x 1.693060 0.000000 0.000000 
#    y 0.000000 1.696330 0.000000 
#    z 0.000000 0.000000 1.696730 
# 
# From -- ./inp_files/31940.got.cif
#   From: 2010.03.12/outbox.cif.g09.slc.cpg/sg62_16_cif.got.tgz:31940.got - 2010.04.10 19:12:36.
