data_PCOD8252127
_publ_section_title
;
Structure prediction by ZEFSAII (Michael W. Deem and Ramdas Pophale) SiO2 
 PCOD8252127
Probable space group: P N M A
;
_chemical_formula_sum "Si O2"
_cell_formula_units_Z 36
_cell_length_a 11.324141
_cell_length_b 7.500003
_cell_length_c 22.064309
_cell_angle_alpha 90.000000
_cell_angle_beta 90.000000
_cell_angle_gamma 90.000000
_cell_volume 1873.945846
_symmetry_space_group_name_H-M "P N M A"
_symmetry_group_IT_number 62
_symmetry_cell_setting 'orthorhombic'
loop_
_space_group_symop_operation_xyz
x,y,z
1/2-x,-y,1/2+z
1/2+x,1/2-y,1/2-z
-x,1/2+y,-z
-x,-y,-z
1/2+x,y,1/2-z
1/2-x,1/2+y,1/2+z
x,1/2-y,z
loop_
_atom_site_type_symbol
_atom_site_label
_atom_site_fract_x
_atom_site_fract_y
_atom_site_fract_z
Si Si1 0.772324 0.454289 0.449539
Si Si2 0.380443 0.750000 0.353028
Si Si3 0.520998 0.546231 0.858351
Si Si4 0.770191 0.954643 0.588359
Si Si5 0.848072 0.250000 0.877616
Si Si6 0.138646 0.250000 0.714107
O O1 0.730462 0.250000 0.444827
O O2 0.897022 0.487053 0.416723
O O3 0.791639 0.512662 0.517950
O O4 0.672030 0.574398 0.418361
O O5 0.336081 0.574240 0.387348
O O6 0.520732 0.750000 0.352724
O O7 0.333243 0.750000 0.284769
O O8 0.528258 0.750000 0.836315
O O9 0.389081 0.491689 0.876485
O O10 0.563300 0.425115 0.802760
O O11 0.736598 0.750000 0.600183
O O12 0.763780 0.250000 0.819452
#
# Coordination Sequence:
#
# PCOD8252127 Si02
#       6
#     8   4   8   8   4   4
#     4  10  19  38  63  93 125 157 197 250 312 368
#     4  12  27  40  61  88 122 178 206 244 301 360
#     4   9  20  37  65  94 121 154 198 260 312 347
#     4  11  22  38  60  97 126 154 200 252 309 363
#     4  10  24  42  60  90 122 165 204 252 307 357
#     4  10  23  42  65  84 122 159 218 250 294 365
#
# _framework density 19.210799000000002
#
# number of rings (size 3 to 8) (size 9 to 14) (size 15 to 20)
#    0.000    1.778    2.222    1.333    3.111    2.667 
#    0.000    0.000    0.000    0.000    0.000    0.000 
#    0.000    0.000    0.000    0.000    0.000    0.000 
#
# Total GULP energy -446574.436861 kJ/mol
# GULP energy per Si atom -12404.845468 kJ/mol
# Density = 1.916707 g / cm^3
# Si number density = 19.210799 Si / 1000 Ang^3
#
#
#
# Elastic Constant Matrix: (Units=GPa)
#
#
# Indices 1 2 3 4 5 6 
#
# 1 89.1003 47.2544 3.5715 0.0000 0.0000 0.0000
# 2 47.2544 122.2188 30.7401 0.0000 0.0000 0.0000
# 3 3.5715 30.7401 47.4531 0.0000 0.0000 0.0000
# 4 0.0000 0.0000 0.0000 14.7882 0.0000 0.0000
# 5 0.0000 0.0000 0.0000 0.0000 17.6110 0.0000
# 6 0.0000 0.0000 0.0000 0.0000 0.0000 22.2025
#
#
#
# Elastic Compliance Matrix: (Units=1/GPa)
#
#
# Indices 1 2 3 4 5 6 
#
# 1 0.014474 -0.006358 0.003029 0.000000 0.000000 0.000000
# 2 -0.006358 0.012568 -0.007663 0.000000 0.000000 0.000000
# 3 0.003029 -0.007663 0.025809 0.000000 0.000000 0.000000
# 4 0.000000 0.000000 0.000000 0.067622 0.000000 0.000000
# 5 0.000000 0.000000 0.000000 0.000000 0.056783 0.000000
# 6 0.000000 0.000000 0.000000 0.000000 0.000000 0.045040
#
#
# Mechanical properties :
#
#
# Convention : Reuss Voigt Hill
#
# Bulk Modulus (GPa) = 32.39603 46.87823 39.63713
# Shear Modulus (GPa) = 19.64116 22.73408 21.18762
#
# Velocity S-wave (km/s) = 3.20097 3.44379 3.32460
# Velocity P-wave (km/s) = 5.52826 6.34570 5.95103
#
# Compressibility (1/GPa) = 0.03086798
#
# Stress axis : x y z
#
# Youngs Moduli (GPa) = 69.08992 79.56948 38.74561
#
# Poissons Ratio (x) = 0.50591 -0.11738
# Poissons Ratio (y) = 0.43928 0.29690
# Poissons Ratio (z) = -0.20930 0.60972
#
# Static dielectric constant tensor:
#      x y z
#    x 3.337380 0.000000 0.000000 
#    y 0.000000 3.858100 0.000000 
#    z 0.000000 0.000000 3.374630 
# 
# 
# High freq. dielectric constant tensor:
#      x y z
#    x 1.738070 0.000000 0.000000 
#    y 0.000000 1.766190 0.000000 
#    z 0.000000 0.000000 1.740520 
# 
# From -- ./inp_files/25633.got.cif
#   From: 2010.03.12/outbox.cif.g09.slc.cpg/sg62_13_cif.got.tgz:25633.got - 2010.04.10 19:12:36.
