data_PCOD8252924
_publ_section_title
;
Structure prediction by ZEFSAII (Michael W. Deem and Ramdas Pophale) SiO2 
 PCOD8252924
Probable space group: P N M A
;
_chemical_formula_sum "Si O2"
_cell_formula_units_Z 64
_cell_length_a 21.934848
_cell_length_b 9.405093
_cell_length_c 17.127069
_cell_angle_alpha 90.000000
_cell_angle_beta 90.000000
_cell_angle_gamma 90.000000
_cell_volume 3533.302095
_symmetry_space_group_name_H-M "P N M A"
_symmetry_group_IT_number 62
_symmetry_cell_setting 'orthorhombic'
loop_
_space_group_symop_operation_xyz
x,y,z
1/2-x,-y,1/2+z
1/2+x,1/2-y,1/2-z
-x,1/2+y,-z
-x,-y,-z
1/2+x,y,1/2-z
1/2-x,1/2+y,1/2+z
x,1/2-y,z
loop_
_atom_site_type_symbol
_atom_site_label
_atom_site_fract_x
_atom_site_fract_y
_atom_site_fract_z
Si Si1 0.218353 0.417251 0.667994
Si Si2 0.625572 0.913444 0.734674
Si Si3 0.894721 0.583452 0.637395
Si Si4 0.929097 0.415327 0.071843
Si Si5 0.968525 0.414629 0.367722
Si Si6 0.836461 0.584674 0.794413
Si Si7 0.625167 0.414646 0.964106
Si Si8 0.567772 0.087314 0.425898
O O1 0.225777 0.250000 0.681713
O O2 0.178922 0.482670 0.738045
O O3 0.283527 0.491587 0.667320
O O4 0.185643 0.451544 0.585350
O O5 0.647591 0.750000 0.741843
O O6 0.611723 0.955722 0.645996
O O7 0.564470 0.936611 0.784900
O O8 0.900880 0.750000 0.652360
O O9 0.852984 0.524309 0.708019
O O10 0.862380 0.547775 0.554870
O O11 0.963414 0.520892 0.639025
O O12 0.924627 0.250000 0.053319
O O13 0.998514 0.461385 0.089716
O O14 0.903155 0.497552 0.996732
O O15 0.970050 0.250000 0.392513
O O16 0.932807 0.497025 0.435383
O O17 0.816447 0.750000 0.792598
O O18 0.896099 0.561106 0.846503
O O19 0.607798 0.250000 0.954358
O O20 0.570914 0.250000 0.452149
#
# Coordination Sequence:
#
# PCOD8252924 Si02
#       8
#     8   8   8   8   8   8   8   8
#     4  10  21  36  51  69 100 135 169 210 253 294
#     4   9  17  31  52  76 100 131 170 206 244 296
#     4   9  17  31  53  78 100 127 165 204 244 296
#     4   9  17  31  52  78 104 131 167 207 252 309
#     4   9  16  28  51  80 106 129 158 200 245 293
#     4  10  20  36  55  72  97 135 176 211 248 296
#     4   9  18  33  51  73 102 134 163 197 247 301
#     4   9  18  32  51  76 105 133 163 209 261 303
#
# _framework density 18.113368000000001
#
# number of rings (size 3 to 8) (size 9 to 14) (size 15 to 20)
#    0.000    2.750    0.000    1.500    0.000    4.500 
#    2.250    1.250    0.000    3.000    0.000    0.000 
#    0.000    0.000    0.000    0.000    0.000    0.000 
#
# Total GULP energy -793586.558952 kJ/mol
# GULP energy per Si atom -12399.789984 kJ/mol
# Density = 1.807214 g / cm^3
# Si number density = 18.113368 Si / 1000 Ang^3
#
#
#
# Elastic Constant Matrix: (Units=GPa)
#
#
# Indices 1 2 3 4 5 6 
#
# 1 74.9158 31.6339 33.2674 0.0000 0.0000 0.0000
# 2 31.6339 53.7384 39.5792 0.0000 0.0000 0.0000
# 3 33.2674 39.5792 119.7128 0.0000 0.0000 0.0000
# 4 0.0000 0.0000 0.0000 27.1785 0.0000 0.0000
# 5 0.0000 0.0000 0.0000 0.0000 17.4191 0.0000
# 6 0.0000 0.0000 0.0000 0.0000 0.0000 24.5184
#
#
#
# Elastic Compliance Matrix: (Units=1/GPa)
#
#
# Indices 1 2 3 4 5 6 
#
# 1 0.018117 -0.009196 -0.001994 0.000000 0.000000 0.000000
# 2 -0.009196 0.029266 -0.007120 0.000000 0.000000 0.000000
# 3 -0.001994 -0.007120 0.011262 0.000000 0.000000 0.000000
# 4 0.000000 0.000000 0.000000 0.036794 0.000000 0.000000
# 5 0.000000 0.000000 0.000000 0.000000 0.057408 0.000000
# 6 0.000000 0.000000 0.000000 0.000000 0.000000 0.040786
#
#
# Mechanical properties :
#
#
# Convention : Reuss Voigt Hill
#
# Bulk Modulus (GPa) = 45.40589 50.81423 48.11006
# Shear Modulus (GPa) = 21.04417 23.41563 22.22990
#
# Velocity S-wave (km/s) = 3.41222 3.59935 3.50703
# Velocity P-wave (km/s) = 6.37545 6.73707 6.55875
#
# Compressibility (1/GPa) = 0.02202357
#
# Stress axis : x y z
#
# Youngs Moduli (GPa) = 55.19678 34.16883 88.79682
#
# Poissons Ratio (x) = 0.31422 0.17708
# Poissons Ratio (y) = 0.50759 0.63228
# Poissons Ratio (z) = 0.11007 0.24330
#
# Static dielectric constant tensor:
#      x y z
#    x 3.240060 0.000000 0.000000 
#    y 0.000000 3.219190 0.000000 
#    z 0.000000 0.000000 3.464160 
# 
# 
# High freq. dielectric constant tensor:
#      x y z
#    x 1.689790 0.000000 0.000000 
#    y 0.000000 1.683080 0.000000 
#    z 0.000000 0.000000 1.708320 
# 
# From -- ./inp_files/24794.got.cif
#   From: 2010.03.12/outbox.cif.g09.slc.cpg/sg62_13_cif.got.tgz:24794.got - 2010.04.10 19:12:36.
