data_PCOD8252858
_publ_section_title
;
Structure prediction by ZEFSAII (Michael W. Deem and Ramdas Pophale) SiO2 
 PCOD8252858
Probable space group: P N M A
;
_chemical_formula_sum "Si O2"
_cell_formula_units_Z 64
_cell_length_a 15.312733
_cell_length_b 8.943234
_cell_length_c 23.627591
_cell_angle_alpha 90.000000
_cell_angle_beta 90.000000
_cell_angle_gamma 90.000000
_cell_volume 3235.688823
_symmetry_space_group_name_H-M "P N M A"
_symmetry_group_IT_number 62
_symmetry_cell_setting 'orthorhombic'
loop_
_space_group_symop_operation_xyz
x,y,z
1/2-x,-y,1/2+z
1/2+x,1/2-y,1/2-z
-x,1/2+y,-z
-x,-y,-z
1/2+x,y,1/2-z
1/2-x,1/2+y,1/2+z
x,1/2-y,z
loop_
_atom_site_type_symbol
_atom_site_label
_atom_site_fract_x
_atom_site_fract_y
_atom_site_fract_z
Si Si1 0.746656 0.072355 0.430178
Si Si2 0.702692 0.582764 0.199742
Si Si3 0.507209 0.923906 0.722833
Si Si4 0.985817 0.427105 0.664041
Si Si5 0.688167 0.424938 0.308985
Si Si6 0.056171 0.928094 0.550460
Si Si7 0.907747 0.575016 0.009776
Si Si8 0.375016 0.582304 0.362755
O O1 0.741767 0.250000 0.429103
O O2 0.729314 0.008374 0.366780
O O3 0.841662 0.023088 0.453880
O O4 0.668706 0.008978 0.469570
O O5 0.685157 0.750000 0.221526
O O6 0.614373 0.520535 0.171603
O O7 0.736928 0.490761 0.254115
O O8 0.773204 0.575943 0.150744
O O9 0.511341 0.750000 0.738521
O O10 0.413317 0.969352 0.697297
O O11 0.533718 0.018931 0.778526
O O12 0.575059 0.960809 0.673974
O O13 0.997552 0.250000 0.655185
O O14 0.022446 0.514115 0.610449
O O15 0.702663 0.250000 0.308560
O O16 0.046221 0.750000 0.547181
O O17 0.000000 0.000000 0.500000
O O18 0.918399 0.750000 0.998757
O O19 0.880109 0.535263 0.072735
O O20 0.000000 0.500000 0.000000
O O21 0.412398 0.750000 0.352123
#
# Coordination Sequence:
#
# PCOD8252858 Si02
#       8
#     8   8   8   8   8   8   8   8
#     4   9  20  38  62  86 115 156 197 241 296 357
#     4   9  20  36  56  83 112 149 189 233 289 348
#     4  10  20  35  58  87 120 153 188 235 292 352
#     4  10  21  39  62  85 117 154 194 242 297 351
#     4   9  18  35  57  83 112 147 188 232 288 349
#     4  11  24  41  62  87 117 156 205 252 300 355
#     4  10  21  39  62  86 117 155 195 240 293 353
#     4  10  21  35  56  84 114 150 194 236 285 351
#
# _framework density 19.779404
#
# number of rings (size 3 to 8) (size 9 to 14) (size 15 to 20)
#    0.000    2.250    0.000    1.875    3.500    3.000 
#    0.000    2.500    0.000    0.000    0.000    0.000 
#    0.000    0.000    0.000    0.000    0.000    0.000 
#
# Total GULP energy -793531.082365 kJ/mol
# GULP energy per Si atom -12398.923162 kJ/mol
# Density = 1.973439 g / cm^3
# Si number density = 19.779404 Si / 1000 Ang^3
#
#
#
# Elastic Constant Matrix: (Units=GPa)
#
#
# Indices 1 2 3 4 5 6 
#
# 1 118.9909 37.6324 80.2739 0.0000 0.0000 0.0000
# 2 37.6324 50.6541 43.4669 0.0000 0.0000 0.0000
# 3 80.2739 43.4669 155.8469 0.0000 0.0000 0.0000
# 4 0.0000 0.0000 0.0000 29.7954 0.0000 0.0000
# 5 0.0000 0.0000 0.0000 0.0000 37.2916 0.0000
# 6 0.0000 0.0000 0.0000 0.0000 0.0000 27.7474
#
#
#
# Elastic Compliance Matrix: (Units=1/GPa)
#
#
# Indices 1 2 3 4 5 6 
#
# 1 0.013964 -0.005524 -0.005652 0.000000 0.000000 0.000000
# 2 -0.005524 0.028139 -0.005003 0.000000 0.000000 0.000000
# 3 -0.005652 -0.005003 0.010723 0.000000 0.000000 0.000000
# 4 0.000000 0.000000 0.000000 0.033562 0.000000 0.000000
# 5 0.000000 0.000000 0.000000 0.000000 0.026816 0.000000
# 6 0.000000 0.000000 0.000000 0.000000 0.000000 0.036039
#
#
# Mechanical properties :
#
#
# Convention : Reuss Voigt Hill
#
# Bulk Modulus (GPa) = 48.85644 72.02648 60.44146
# Shear Modulus (GPa) = 26.53600 29.90813 28.22207
#
# Velocity S-wave (km/s) = 3.66676 3.89277 3.78145
# Velocity P-wave (km/s) = 6.53308 7.52986 7.04911
#
# Compressibility (1/GPa) = 0.02046813
#
# Stress axis : x y z
#
# Youngs Moduli (GPa) = 71.61279 35.53819 93.25780
#
# Poissons Ratio (x) = 0.19633 0.52708
# Poissons Ratio (y) = 0.39561 0.46653
# Poissons Ratio (z) = 0.40474 0.17778
#
# Static dielectric constant tensor:
#      x y z
#    x 3.688310 0.000000 0.000000 
#    y 0.000000 3.481770 0.000000 
#    z 0.000000 0.000000 3.779220 
# 
# 
# High freq. dielectric constant tensor:
#      x y z
#    x 1.776080 0.000000 0.000000 
#    y 0.000000 1.754100 0.000000 
#    z 0.000000 0.000000 1.781020 
# 
# From -- ./inp_files/29761.got.cif
#   From: 2010.03.12/outbox.cif.g09.slc.cpg/sg62_15_cif.got.tgz:29761.got - 2010.04.10 19:12:36.
