data_PCOD8252997
_publ_section_title
;
Structure prediction by ZEFSAII (Michael W. Deem and Ramdas Pophale) SiO2 
 PCOD8252997
Probable space group: P N M A
;
_chemical_formula_sum "Si O2"
_cell_formula_units_Z 64
_cell_length_a 17.754971
_cell_length_b 12.571730
_cell_length_c 15.078264
_cell_angle_alpha 90.000000
_cell_angle_beta 90.000000
_cell_angle_gamma 90.000000
_cell_volume 3365.629886
_symmetry_space_group_name_H-M "P N M A"
_symmetry_group_IT_number 62
_symmetry_cell_setting 'orthorhombic'
loop_
_space_group_symop_operation_xyz
x,y,z
1/2-x,-y,1/2+z
1/2+x,1/2-y,1/2-z
-x,1/2+y,-z
-x,-y,-z
1/2+x,y,1/2-z
1/2-x,1/2+y,1/2+z
x,1/2-y,z
loop_
_atom_site_type_symbol
_atom_site_label
_atom_site_fract_x
_atom_site_fract_y
_atom_site_fract_z
Si Si1 0.883421 0.449427 0.828723
Si Si2 0.190994 0.131921 0.929999
Si Si3 0.655346 0.628687 0.991483
Si Si4 0.911193 0.499801 0.331492
Si Si5 0.770743 0.627805 0.267966
Si Si6 0.077919 0.948748 0.979908
Si Si7 0.995818 0.130176 0.183417
Si Si8 0.053516 0.629342 0.350064
O O1 0.794142 0.449750 0.807620
O O2 0.923223 0.378985 0.753368
O O3 0.925152 0.565083 0.829244
O O4 0.890662 0.398711 0.928050
O O5 0.153571 0.250000 0.939997
O O6 0.235503 0.125891 0.837643
O O7 0.130286 0.040524 0.939577
O O8 0.254615 0.115349 0.004491
O O9 0.632214 0.750000 0.975195
O O10 0.628536 0.562621 0.908891
O O11 0.618287 0.587579 0.083561
O O12 0.852809 0.583927 0.291428
O O13 0.943405 0.419304 0.258850
O O14 0.979790 0.563616 0.373577
O O15 0.761041 0.750000 0.302428
O O16 0.058631 0.863756 0.903391
O O17 0.000000 0.000000 0.000000
O O18 0.019320 0.250000 0.208771
O O19 0.033826 0.750000 0.369891
#
# Coordination Sequence:
#
# PCOD8252997 Si02
#       8
#     8   8   8   8   8   8   8   8
#     4  10  21  37  61  84 114 153 195 242 293 345
#     4  10  20  37  60  86 116 149 193 243 290 347
#     4  10  20  36  60  84 113 152 192 231 282 348
#     4  11  21  36  57  86 116 153 187 236 289 344
#     4  11  21  37  61  88 117 152 192 244 297 343
#     4  10  21  38  56  85 117 156 194 242 297 344
#     4  10  22  39  56  81 119 155 195 236 284 350
#     4  10  20  36  57  87 115 145 192 244 291 339
#
# _framework density 19.015758000000002
#
# number of rings (size 3 to 8) (size 9 to 14) (size 15 to 20)
#    0.000    1.750    2.500    2.250    0.000    3.000 
#    0.000    3.125    0.000    0.750    0.000    0.000 
#    0.000    0.000    0.000    0.000    0.000    0.000 
#
# Total GULP energy -793158.394511 kJ/mol
# GULP energy per Si atom -12393.099914 kJ/mol
# Density = 1.897248 g / cm^3
# Si number density = 19.015758 Si / 1000 Ang^3
#
#
#
# Elastic Constant Matrix: (Units=GPa)
#
#
# Indices 1 2 3 4 5 6 
#
# 1 78.5455 40.4092 8.4780 0.0000 0.0000 0.0000
# 2 40.4092 86.2630 26.2793 0.0000 0.0000 0.0000
# 3 8.4780 26.2793 76.6154 0.0000 0.0000 0.0000
# 4 0.0000 0.0000 0.0000 5.1750 0.0000 0.0000
# 5 0.0000 0.0000 0.0000 0.0000 28.8510 0.0000
# 6 0.0000 0.0000 0.0000 0.0000 0.0000 21.2772
#
#
#
# Elastic Compliance Matrix: (Units=1/GPa)
#
#
# Indices 1 2 3 4 5 6 
#
# 1 0.016834 -0.008172 0.000940 0.000000 0.000000 0.000000
# 2 -0.008172 0.016912 -0.004897 0.000000 0.000000 0.000000
# 3 0.000940 -0.004897 0.014628 0.000000 0.000000 0.000000
# 4 0.000000 0.000000 0.000000 0.193238 0.000000 0.000000
# 5 0.000000 0.000000 0.000000 0.000000 0.034661 0.000000
# 6 0.000000 0.000000 0.000000 0.000000 0.000000 0.046999
#
#
# Mechanical properties :
#
#
# Convention : Reuss Voigt Hill
#
# Bulk Modulus (GPa) = 41.46443 43.52856 42.49650
# Shear Modulus (GPa) = 14.06196 22.14444 18.10320
#
# Velocity S-wave (km/s) = 2.72231 3.41622 3.08881
# Velocity P-wave (km/s) = 5.63329 6.20494 5.92601
#
# Compressibility (1/GPa) = 0.02411705
#
# Stress axis : x y z
#
# Youngs Moduli (GPa) = 59.40213 59.12790 68.36330
#
# Poissons Ratio (x) = 0.48322 -0.06428
# Poissons Ratio (y) = 0.48546 0.33475
# Poissons Ratio (z) = -0.05586 0.28953
#
# Static dielectric constant tensor:
#      x y z
#    x 3.611210 0.000000 0.000000 
#    y 0.000000 3.261370 0.000000 
#    z 0.000000 0.000000 4.603250 
# 
# 
# High freq. dielectric constant tensor:
#      x y z
#    x 1.746060 0.000000 0.000000 
#    y 0.000000 1.720700 0.000000 
#    z 0.000000 0.000000 1.748660 
# 
# From -- ./inp_files/19894.got.cif
#   From: 2010.03.12/outbox.cif.g09.slc.cpg/sg62_10_cif.got.tgz:19894.got - 2010.04.10 19:12:36.
