data_PCOD8252120
_publ_section_title
;
Structure prediction by ZEFSAII (Michael W. Deem and Ramdas Pophale) SiO2 
 PCOD8252120
Probable space group: P N M A
;
_chemical_formula_sum "Si O2"
_cell_formula_units_Z 48
_cell_length_a 10.803915
_cell_length_b 13.648307
_cell_length_c 16.878964
_cell_angle_alpha 90.000000
_cell_angle_beta 90.000000
_cell_angle_gamma 90.000000
_cell_volume 2488.890147
_symmetry_space_group_name_H-M "P N M A"
_symmetry_group_IT_number 62
_symmetry_cell_setting 'orthorhombic'
loop_
_space_group_symop_operation_xyz
x,y,z
1/2-x,-y,1/2+z
1/2+x,1/2-y,1/2-z
-x,1/2+y,-z
-x,-y,-z
1/2+x,y,1/2-z
1/2-x,1/2+y,1/2+z
x,1/2-y,z
loop_
_atom_site_type_symbol
_atom_site_label
_atom_site_fract_x
_atom_site_fract_y
_atom_site_fract_z
Si Si1 0.654296 0.024294 0.584618
Si Si2 0.935515 0.636334 0.705344
Si Si3 0.606024 0.433057 0.031499
Si Si4 0.960182 0.359187 0.990252
Si Si5 0.688570 0.524937 0.757302
Si Si6 0.268889 0.858322 0.114617
O O1 0.596296 0.120494 0.544458
O O2 0.787361 0.011972 0.546660
O O3 0.569578 0.929315 0.564187
O O4 0.663577 0.036966 0.678341
O O5 0.931202 0.750000 0.729226
O O6 0.923667 0.626950 0.610681
O O7 0.818732 0.584020 0.749420
O O8 0.069865 0.594439 0.729513
O O9 0.500000 0.500000 0.000000
O O10 0.643046 0.357514 0.962622
O O11 0.952414 0.250000 0.024389
O O12 0.870104 0.376229 0.915539
O O13 0.695394 0.444970 0.826378
O O14 0.281084 0.750000 0.154291
#
# Coordination Sequence:
#
# PCOD8252120 Si02
#       6
#     8   8   8   8   8   8
#     4   9  20  34  57  83 112 148 187 237 290 339
#     4  11  23  39  61  87 120 158 198 244 300 357
#     4  10  19  38  61  82 114 155 198 244 288 348
#     4   9  18  36  58  81 111 149 191 232 282 348
#     4  11  22  38  59  87 122 152 194 247 297 353
#     4  10  20  36  61  85 114 157 196 237 298 357
#
# _framework density 19.285705
#
# number of rings (size 3 to 8) (size 9 to 14) (size 15 to 20)
#    0.000    2.000    1.667    2.000    0.000    5.333 
#    0.000    2.500    0.000    0.000    0.000    0.000 
#    0.000    0.000    0.000    0.000    0.000    0.000 
#
# Total GULP energy -594958.138826 kJ/mol
# GULP energy per Si atom -12394.961226 kJ/mol
# Density = 1.924181 g / cm^3
# Si number density = 19.285705 Si / 1000 Ang^3
#
#
#
# Elastic Constant Matrix: (Units=GPa)
#
#
# Indices 1 2 3 4 5 6 
#
# 1 106.7386 39.7551 28.8831 0.0000 0.0000 0.0000
# 2 39.7551 79.9312 34.1338 0.0000 0.0000 0.0000
# 3 28.8831 34.1338 86.8053 0.0000 0.0000 0.0000
# 4 0.0000 0.0000 0.0000 21.0952 0.0000 0.0000
# 5 0.0000 0.0000 0.0000 0.0000 21.1069 0.0000
# 6 0.0000 0.0000 0.0000 0.0000 0.0000 24.6845
#
#
#
# Elastic Compliance Matrix: (Units=1/GPa)
#
#
# Indices 1 2 3 4 5 6 
#
# 1 0.011764 -0.005023 -0.001939 0.000000 0.000000 0.000000
# 2 -0.005023 0.017180 -0.005084 0.000000 0.000000 0.000000
# 3 -0.001939 -0.005084 0.014165 0.000000 0.000000 0.000000
# 4 0.000000 0.000000 0.000000 0.047404 0.000000 0.000000
# 5 0.000000 0.000000 0.000000 0.000000 0.047378 0.000000
# 6 0.000000 0.000000 0.000000 0.000000 0.000000 0.040511
#
#
# Mechanical properties :
#
#
# Convention : Reuss Voigt Hill
#
# Bulk Modulus (GPa) = 52.58747 53.22433 52.90590
# Shear Modulus (GPa) = 23.94243 24.75751 24.34997
#
# Velocity S-wave (km/s) = 3.52726 3.58680 3.55715
# Velocity P-wave (km/s) = 6.62688 6.69412 6.66058
#
# Compressibility (1/GPa) = 0.01901594
#
# Stress axis : x y z
#
# Youngs Moduli (GPa) = 85.00317 58.20633 70.59875
#
# Poissons Ratio (x) = 0.29237 0.13690
# Poissons Ratio (y) = 0.42697 0.35895
# Poissons Ratio (z) = 0.16484 0.29594
#
# Static dielectric constant tensor:
#      x y z
#    x 3.743400 0.000000 0.000000 
#    y 0.000000 3.428390 0.000000 
#    z 0.000000 0.000000 3.912000 
# 
# 
# High freq. dielectric constant tensor:
#      x y z
#    x 1.761040 0.000000 0.000000 
#    y 0.000000 1.740000 0.000000 
#    z 0.000000 0.000000 1.750130 
# 
# From -- ./inp_files/22994.got.cif
#   From: 2010.03.12/outbox.cif.g09.slc.cpg/sg62_12_cif.got.tgz:22994.got - 2010.04.10 19:12:36.
