data_PCOD8252445
_publ_section_title
;
Structure prediction by ZEFSAII (Michael W. Deem and Ramdas Pophale) SiO2 
 PCOD8252445
Probable space group: P N M A
;
_chemical_formula_sum "Si O2"
_cell_formula_units_Z 56
_cell_length_a 16.614925
_cell_length_b 13.497711
_cell_length_c 13.591173
_cell_angle_alpha 90.000000
_cell_angle_beta 90.000000
_cell_angle_gamma 90.000000
_cell_volume 3048.003427
_symmetry_space_group_name_H-M "P N M A"
_symmetry_group_IT_number 62
_symmetry_cell_setting 'orthorhombic'
loop_
_space_group_symop_operation_xyz
x,y,z
1/2-x,-y,1/2+z
1/2+x,1/2-y,1/2-z
-x,1/2+y,-z
-x,-y,-z
1/2+x,y,1/2-z
1/2-x,1/2+y,1/2+z
x,1/2-y,z
loop_
_atom_site_type_symbol
_atom_site_label
_atom_site_fract_x
_atom_site_fract_y
_atom_site_fract_z
Si Si1 0.008838 0.365019 0.648562
Si Si2 0.959548 0.360465 0.046341
Si Si3 0.826879 0.543165 0.412962
Si Si4 0.160603 0.637297 0.448467
Si Si5 0.217403 0.044752 0.806139
Si Si6 0.277075 0.140309 0.430171
Si Si7 0.035131 0.059080 0.854517
O O1 0.033888 0.250000 0.654791
O O2 0.080292 0.428968 0.601494
O O3 0.988567 0.406050 0.757272
O O4 0.931101 0.381575 0.582154
O O5 0.977924 0.250000 0.087812
O O6 0.865282 0.373772 0.022779
O O7 0.985230 0.442651 0.127021
O O8 0.007499 0.374953 0.945756
O O9 0.818527 0.433804 0.460092
O O10 0.777371 0.546718 0.311481
O O11 0.787527 0.623184 0.484541
O O12 0.172937 0.750000 0.483799
O O13 0.217821 0.618231 0.354469
O O14 0.129727 0.078750 0.841998
O O15 0.236722 0.933014 0.839354
O O16 0.265153 0.250000 0.387379
#
# Coordination Sequence:
#
# PCOD8252445 Si02
#       7
#     8   8   8   8   8   8   8
#     4  10  20  34  54  78 103 137 177 216 259 310
#     4   9  17  30  50  76 105 137 172 213 263 313
#     4  10  20  36  55  78 106 140 172 217 263 308
#     4  10  22  37  55  80 107 137 177 218 259 312
#     4   9  20  35  52  74 105 136 169 211 261 307
#     4   9  18  32  52  77 101 132 172 211 253 308
#     4   9  18  32  50  75 106 137 171 217 260 310
#
# _framework density 18.372682999999999
#
# number of rings (size 3 to 8) (size 9 to 14) (size 15 to 20)
#    0.000    2.571    0.000    1.286    2.000    4.000 
#    0.000    2.143    0.000    4.286    0.000    0.000 
#    0.000    0.000    0.000    0.000    0.000    0.000 
#
# Total GULP energy -694421.853255 kJ/mol
# GULP energy per Si atom -12400.390237 kJ/mol
# Density = 1.833087 g / cm^3
# Si number density = 18.372683 Si / 1000 Ang^3
#
#
#
# Elastic Constant Matrix: (Units=GPa)
#
#
# Indices 1 2 3 4 5 6 
#
# 1 37.9051 15.0373 9.5249 0.0000 0.0000 0.0000
# 2 15.0373 95.8218 14.1480 0.0000 0.0000 0.0000
# 3 9.5249 14.1480 50.1590 0.0000 0.0000 0.0000
# 4 0.0000 0.0000 0.0000 19.5707 0.0000 0.0000
# 5 0.0000 0.0000 0.0000 0.0000 26.2615 0.0000
# 6 0.0000 0.0000 0.0000 0.0000 0.0000 26.2181
#
#
#
# Elastic Compliance Matrix: (Units=1/GPa)
#
#
# Indices 1 2 3 4 5 6 
#
# 1 0.029040 -0.003906 -0.004413 0.000000 0.000000 0.000000
# 2 -0.003906 0.011415 -0.002478 0.000000 0.000000 0.000000
# 3 -0.004413 -0.002478 0.021474 0.000000 0.000000 0.000000
# 4 0.000000 0.000000 0.000000 0.051097 0.000000 0.000000
# 5 0.000000 0.000000 0.000000 0.000000 0.038079 0.000000
# 6 0.000000 0.000000 0.000000 0.000000 0.000000 0.038142
#
#
# Mechanical properties :
#
#
# Convention : Reuss Voigt Hill
#
# Bulk Modulus (GPa) = 24.79226 29.03404 26.91315
# Shear Modulus (GPa) = 22.29322 24.08845 23.19084
#
# Velocity S-wave (km/s) = 3.48715 3.62484 3.55666
# Velocity P-wave (km/s) = 5.45317 5.77550 5.61665
#
# Compressibility (1/GPa) = 0.04033518
#
# Stress axis : x y z
#
# Youngs Moduli (GPa) = 34.43530 87.60520 46.56896
#
# Poissons Ratio (x) = 0.34216 0.20550
# Poissons Ratio (y) = 0.13449 0.11540
# Poissons Ratio (z) = 0.15196 0.21709
#
# Static dielectric constant tensor:
#      x y z
#    x 3.349680 0.000000 0.000000 
#    y 0.000000 3.499440 0.000000 
#    z 0.000000 0.000000 3.264900 
# 
# 
# High freq. dielectric constant tensor:
#      x y z
#    x 1.711560 0.000000 0.000000 
#    y 0.000000 1.721370 0.000000 
#    z 0.000000 0.000000 1.698690 
# 
# From -- ./inp_files/19125.got.cif
#   From: 2010.03.12/outbox.cif.g09.slc.cpg/sg62_10_cif.got.tgz:19125.got - 2010.04.10 19:12:36.
