data_PCOD8252919
_publ_section_title
;
Structure prediction by ZEFSAII (Michael W. Deem and Ramdas Pophale) SiO2 
 PCOD8252919
Probable space group: P N M A
;
_chemical_formula_sum "Si O2"
_cell_formula_units_Z 64
_cell_length_a 23.044153
_cell_length_b 8.620249
_cell_length_c 18.861815
_cell_angle_alpha 90.000000
_cell_angle_beta 90.000000
_cell_angle_gamma 90.000000
_cell_volume 3746.830456
_symmetry_space_group_name_H-M "P N M A"
_symmetry_group_IT_number 62
_symmetry_cell_setting 'orthorhombic'
loop_
_space_group_symop_operation_xyz
x,y,z
1/2-x,-y,1/2+z
1/2+x,1/2-y,1/2-z
-x,1/2+y,-z
-x,-y,-z
1/2+x,y,1/2-z
1/2-x,1/2+y,1/2+z
x,1/2-y,z
loop_
_atom_site_type_symbol
_atom_site_label
_atom_site_fract_x
_atom_site_fract_y
_atom_site_fract_z
Si Si1 0.275307 0.429257 0.866453
Si Si2 0.750431 0.570649 0.491374
Si Si3 0.563612 0.069920 0.630044
Si Si4 0.667592 0.069744 0.727786
Si Si5 0.058853 0.429742 0.144150
Si Si6 0.616195 0.569875 0.492056
Si Si7 0.734894 0.929773 0.846273
Si Si8 0.656479 0.929695 0.270102
O O1 0.273112 0.250000 0.888122
O O2 0.214931 0.480263 0.830604
O O3 0.327672 0.463147 0.811772
O O4 0.285140 0.529398 0.937006
O O5 0.758628 0.750000 0.473716
O O6 0.683212 0.525571 0.502474
O O7 0.778028 0.471625 0.427669
O O8 0.569757 0.250000 0.609271
O O9 0.604421 0.030067 0.697058
O O10 0.498667 0.031394 0.652908
O O11 0.580969 0.967060 0.562946
O O12 0.675050 0.250000 0.746628
O O13 0.678303 0.972250 0.799481
O O14 0.042236 0.250000 0.145885
O O15 0.100534 0.469309 0.210135
O O16 0.091083 0.467723 0.071196
O O17 0.607962 0.750000 0.473202
O O18 0.749792 0.750000 0.838259
O O19 0.789796 0.029255 0.820739
O O20 0.642250 0.750000 0.282990
#
# Coordination Sequence:
#
# PCOD8252919 Si02
#       8
#     8   8   8   8   8   8   8   8
#     4   9  18  33  53  75 101 130 167 212 257 306
#     4  11  21  32  51  76 106 139 171 209 254 307
#     4  11  22  37  55  73 101 140 178 217 257 304
#     4   9  19  35  53  73 100 134 170 210 257 305
#     4  12  24  36  52  74 102 138 179 219 255 301
#     4  11  22  35  50  72 104 141 179 217 251 297
#     4  11  21  32  52  76 103 134 169 212 257 304
#     4  10  20  36  53  73 101 134 171 212 258 306
#
# _framework density 17.081104
#
# number of rings (size 3 to 8) (size 9 to 14) (size 15 to 20)
#    0.000    1.500    2.500    4.875    0.000    4.500 
#    0.000    0.000    0.000    0.000    0.000    0.875 
#    0.000    0.000    0.000    0.000    0.000    0.000 
#
# Total GULP energy -793910.602511 kJ/mol
# GULP energy per Si atom -12404.853164 kJ/mol
# Density = 1.704223 g / cm^3
# Si number density = 17.081104 Si / 1000 Ang^3
#
#
#
# Elastic Constant Matrix: (Units=GPa)
#
#
# Indices 1 2 3 4 5 6 
#
# 1 59.2310 16.0012 36.1048 0.0000 0.0000 0.0000
# 2 16.0012 59.6209 28.4871 0.0000 0.0000 0.0000
# 3 36.1048 28.4871 100.5641 0.0000 0.0000 0.0000
# 4 0.0000 0.0000 0.0000 30.9915 0.0000 0.0000
# 5 0.0000 0.0000 0.0000 0.0000 21.1620 0.0000
# 6 0.0000 0.0000 0.0000 0.0000 0.0000 21.9360
#
#
#
# Elastic Compliance Matrix: (Units=1/GPa)
#
#
# Indices 1 2 3 4 5 6 
#
# 1 0.021919 -0.002455 -0.007174 0.000000 0.000000 0.000000
# 2 -0.002455 0.019673 -0.004691 0.000000 0.000000 0.000000
# 3 -0.007174 -0.004691 0.013849 0.000000 0.000000 0.000000
# 4 0.000000 0.000000 0.000000 0.032267 0.000000 0.000000
# 5 0.000000 0.000000 0.000000 0.000000 0.047255 0.000000
# 6 0.000000 0.000000 0.000000 0.000000 0.000000 0.045587
#
#
# Mechanical properties :
#
#
# Convention : Reuss Voigt Hill
#
# Bulk Modulus (GPa) = 37.31357 42.28913 39.80135
# Shear Modulus (GPa) = 22.92273 24.07274 23.49774
#
# Velocity S-wave (km/s) = 3.66730 3.75816 3.71301
# Velocity P-wave (km/s) = 6.31066 6.60631 6.46018
#
# Compressibility (1/GPa) = 0.02679990
#
# Stress axis : x y z
#
# Youngs Moduli (GPa) = 45.62185 50.83080 72.20973
#
# Poissons Ratio (x) = 0.12479 0.51804
# Poissons Ratio (y) = 0.11200 0.33877
# Poissons Ratio (z) = 0.32730 0.23847
#
# Static dielectric constant tensor:
#      x y z
#    x 3.067080 0.000000 0.000000 
#    y 0.000000 3.186550 0.000000 
#    z 0.000000 0.000000 3.199670 
# 
# 
# High freq. dielectric constant tensor:
#      x y z
#    x 1.628840 0.000000 0.000000 
#    y 0.000000 1.669990 0.000000 
#    z 0.000000 0.000000 1.653760 
# 
# From -- ./inp_files/24981.got.cif
#   From: 2010.03.12/outbox.cif.g09.slc.cpg/sg62_13_cif.got.tgz:24981.got - 2010.04.10 19:12:36.
