data_PCOD8252896
_publ_section_title
;
Structure prediction by ZEFSAII (Michael W. Deem and Ramdas Pophale) SiO2 
 PCOD8252896
Probable space group: P N M A
;
_chemical_formula_sum "Si O2"
_cell_formula_units_Z 56
_cell_length_a 14.966880
_cell_length_b 13.553631
_cell_length_c 13.234578
_cell_angle_alpha 90.000000
_cell_angle_beta 90.000000
_cell_angle_gamma 90.000000
_cell_volume 2684.707847
_symmetry_space_group_name_H-M "P N M A"
_symmetry_group_IT_number 62
_symmetry_cell_setting 'orthorhombic'
loop_
_space_group_symop_operation_xyz
x,y,z
1/2-x,-y,1/2+z
1/2+x,1/2-y,1/2-z
-x,1/2+y,-z
-x,-y,-z
1/2+x,y,1/2-z
1/2-x,1/2+y,1/2+z
x,1/2-y,z
loop_
_atom_site_type_symbol
_atom_site_label
_atom_site_fract_x
_atom_site_fract_y
_atom_site_fract_z
Si Si1 0.971208 0.862539 0.070762
Si Si2 0.196540 0.521287 0.611698
Si Si3 0.528035 0.448019 0.788689
Si Si4 0.759952 0.136074 0.193007
Si Si5 0.357819 0.458424 0.488444
Si Si6 0.931962 0.362668 0.524437
Si Si7 0.054497 0.360785 0.337714
O O1 0.942899 0.750000 0.051260
O O2 0.973971 0.882684 0.189732
O O3 0.068817 0.880503 0.024732
O O4 0.898395 0.931570 0.016685
O O5 0.127144 0.446151 0.664128
O O6 0.230242 0.601628 0.692108
O O7 0.278774 0.457122 0.570518
O O8 0.152584 0.578190 0.517775
O O9 0.456401 0.403896 0.866279
O O10 0.496858 0.561417 0.764900
O O11 0.787225 0.250000 0.185320
O O12 0.659094 0.118834 0.156662
O O13 0.824653 0.072261 0.122290
O O14 0.903025 0.250000 0.535066
O O15 0.017064 0.375992 0.450834
O O16 0.033936 0.250000 0.297500
#
# Coordination Sequence:
#
# PCOD8252896 Si02
#       7
#     8   8   8   8   8   8   8
#     4  11  25  45  65  89 123 169 213 253 314 384
#     4  11  22  38  65  93 126 161 210 265 315 366
#     4  11  20  40  62  92 125 166 202 252 315 379
#     4  11  21  38  62  93 126 164 214 263 312 372
#     4  11  24  44  65  90 128 167 212 264 316 372
#     4  10  20  35  59  92 127 162 203 255 310 373
#     4   9  19  34  58  90 124 162 206 252 308 365
#
# _framework density 20.858881
#
# number of rings (size 3 to 8) (size 9 to 14) (size 15 to 20)
#    0.000    1.429    1.429    5.571    0.000    1.714 
#    0.000    4.286    0.000    0.000    0.000    0.000 
#    0.000    0.000    0.000    0.000    0.000    0.000 
#
# Total GULP energy -694701.630607 kJ/mol
# GULP energy per Si atom -12405.386261 kJ/mol
# Density = 2.081141 g / cm^3
# Si number density = 20.858881 Si / 1000 Ang^3
#
#
#
# Elastic Constant Matrix: (Units=GPa)
#
#
# Indices 1 2 3 4 5 6 
#
# 1 76.5695 6.1026 21.7386 0.0000 0.0000 0.0000
# 2 6.1026 76.2032 10.1752 0.0000 0.0000 0.0000
# 3 21.7386 10.1752 70.0823 0.0000 0.0000 0.0000
# 4 0.0000 0.0000 0.0000 27.5160 0.0000 0.0000
# 5 0.0000 0.0000 0.0000 0.0000 20.2851 0.0000
# 6 0.0000 0.0000 0.0000 0.0000 0.0000 19.8489
#
#
#
# Elastic Compliance Matrix: (Units=1/GPa)
#
#
# Indices 1 2 3 4 5 6 
#
# 1 0.014345 -0.000566 -0.004368 0.000000 0.000000 0.000000
# 2 -0.000566 0.013405 -0.001771 0.000000 0.000000 0.000000
# 3 -0.004368 -0.001771 0.015881 0.000000 0.000000 0.000000
# 4 0.000000 0.000000 0.000000 0.036342 0.000000 0.000000
# 5 0.000000 0.000000 0.000000 0.000000 0.049297 0.000000
# 6 0.000000 0.000000 0.000000 0.000000 0.000000 0.050381
#
#
# Mechanical properties :
#
#
# Convention : Reuss Voigt Hill
#
# Bulk Modulus (GPa) = 33.08780 33.20975 33.14878
# Shear Modulus (GPa) = 24.61443 25.85257 25.23350
#
# Velocity S-wave (km/s) = 3.43891 3.52434 3.48188
# Velocity P-wave (km/s) = 5.62719 5.70237 5.66490
#
# Compressibility (1/GPa) = 0.03022262
#
# Stress axis : x y z
#
# Youngs Moduli (GPa) = 69.71023 74.60158 62.96919
#
# Poissons Ratio (x) = 0.04220 0.27502
# Poissons Ratio (y) = 0.03943 0.11150
# Poissons Ratio (z) = 0.30446 0.13210
#
# Static dielectric constant tensor:
#      x y z
#    x 3.810450 0.000000 0.000000 
#    y 0.000000 3.820520 0.000000 
#    z 0.000000 0.000000 3.633170 
# 
# 
# High freq. dielectric constant tensor:
#      x y z
#    x 1.822340 0.000000 0.000000 
#    y 0.000000 1.814800 0.000000 
#    z 0.000000 0.000000 1.812710 
# 
# From -- ./inp_files/13387.got.cif
#   From: 2010.03.12/outbox.cif.g09.slc.cpg/sg62_7_cif.got.tgz:13387.got - 2010.04.10 19:12:36.
