data_PCOD8252109
_publ_section_title
;
Structure prediction by ZEFSAII (Michael W. Deem and Ramdas Pophale) SiO2 
 PCOD8252109
Probable space group: P N M A
;
_chemical_formula_sum "Si O2"
_cell_formula_units_Z 48
_cell_length_a 15.034508
_cell_length_b 8.448507
_cell_length_c 18.879660
_cell_angle_alpha 90.000000
_cell_angle_beta 90.000000
_cell_angle_gamma 90.000000
_cell_volume 2398.078291
_symmetry_space_group_name_H-M "P N M A"
_symmetry_group_IT_number 62
_symmetry_cell_setting 'orthorhombic'
loop_
_space_group_symop_operation_xyz
x,y,z
1/2-x,-y,1/2+z
1/2+x,1/2-y,1/2-z
-x,1/2+y,-z
-x,-y,-z
1/2+x,y,1/2-z
1/2-x,1/2+y,1/2+z
x,1/2-y,z
loop_
_atom_site_type_symbol
_atom_site_label
_atom_site_fract_x
_atom_site_fract_y
_atom_site_fract_z
Si Si1 0.511872 0.062127 0.292628
Si Si2 0.368370 0.062133 0.178908
Si Si3 0.298555 0.561944 0.762690
Si Si4 0.905376 0.063268 0.476472
Si Si5 0.243525 0.437049 0.419678
Si Si6 0.938915 0.935771 0.062439
O O1 0.507680 0.250000 0.305954
O O2 0.445965 0.006549 0.231080
O O3 0.607835 0.002436 0.267095
O O4 0.487100 0.973571 0.364172
O O5 0.365589 0.250000 0.175504
O O6 0.275706 0.995394 0.209189
O O7 0.384523 0.991358 0.101087
O O8 0.296213 0.750000 0.765872
O O9 0.278509 0.496776 0.841303
O O10 0.911032 0.250000 0.472853
O O11 0.826927 0.013903 0.528083
O O12 0.000000 0.000000 0.500000
O O13 0.232768 0.250000 0.422905
O O14 0.342895 0.482389 0.442063
O O15 0.925487 0.750000 0.053391
O O16 0.000000 0.000000 0.000000
#
# Coordination Sequence:
#
# PCOD8252109 Si02
#       6
#     8   8   8   8   8   8
#     4  10  19  37  65  91 117 156 206 253 301 365
#     4   9  18  35  58  88 120 158 204 247 300 373
#     4   9  18  34  62  91 116 155 203 250 306 375
#     4  11  23  39  62  93 129 169 212 256 307 368
#     4  11  22  42  68  94 125 164 208 258 314 374
#     4  12  26  43  62  90 125 165 209 259 316 374
#
# _framework density 20.016027000000001
#
# number of rings (size 3 to 8) (size 9 to 14) (size 15 to 20)
#    0.000    1.667    1.667    3.500    2.333    2.667 
#    0.000    5.000    0.000    0.000    0.000    0.000 
#    0.000    0.000    0.000    0.000    0.000    0.000 
#
# Total GULP energy -595292.236428 kJ/mol
# GULP energy per Si atom -12401.921592 kJ/mol
# Density = 1.997047 g / cm^3
# Si number density = 20.016027 Si / 1000 Ang^3
#
#
#
# Elastic Constant Matrix: (Units=GPa)
#
#
# Indices 1 2 3 4 5 6 
#
# 1 180.1869 -0.9376 87.2626 0.0000 0.0000 0.0000
# 2 -0.9376 33.4648 14.5345 0.0000 0.0000 0.0000
# 3 87.2626 14.5345 181.2776 0.0000 0.0000 0.0000
# 4 0.0000 0.0000 0.0000 30.5136 0.0000 0.0000
# 5 0.0000 0.0000 0.0000 0.0000 45.7131 0.0000
# 6 0.0000 0.0000 0.0000 0.0000 0.0000 25.8148
#
#
#
# Elastic Compliance Matrix: (Units=1/GPa)
#
#
# Indices 1 2 3 4 5 6 
#
# 1 0.007340 0.001803 -0.003678 0.000000 0.000000 0.000000
# 2 0.001803 0.031403 -0.003386 0.000000 0.000000 0.000000
# 3 -0.003678 -0.003386 0.007558 0.000000 0.000000 0.000000
# 4 0.000000 0.000000 0.000000 0.032772 0.000000 0.000000
# 5 0.000000 0.000000 0.000000 0.000000 0.021876 0.000000
# 6 0.000000 0.000000 0.000000 0.000000 0.000000 0.038738
#
#
# Mechanical properties :
#
#
# Convention : Reuss Voigt Hill
#
# Bulk Modulus (GPa) = 27.94819 66.29424 47.12122
# Shear Modulus (GPa) = 30.83835 40.01294 35.42565
#
# Velocity S-wave (km/s) = 3.92941 4.47592 4.21154
# Velocity P-wave (km/s) = 5.88050 7.73979 6.87330
#
# Compressibility (1/GPa) = 0.03578049
#
# Stress axis : x y z
#
# Youngs Moduli (GPa) = 136.23185 31.84388 132.30309
#
# Poissons Ratio (x) = -0.05742 0.48662
# Poissons Ratio (y) = -0.24564 0.44795
# Poissons Ratio (z) = 0.50107 0.10782
#
# Static dielectric constant tensor:
#      x y z
#    x 3.795880 0.000000 0.000000 
#    y 0.000000 3.343800 0.000000 
#    z 0.000000 0.000000 3.862320 
# 
# 
# High freq. dielectric constant tensor:
#      x y z
#    x 1.802050 0.000000 0.000000 
#    y 0.000000 1.751360 0.000000 
#    z 0.000000 0.000000 1.799110 
# 
# From -- ./inp_files/23712.got.cif
#   From: 2010.03.12/outbox.cif.g09.slc.cpg/sg62_12_cif.got.tgz:23712.got - 2010.04.10 19:12:36.
