data_PCOD8252475
_publ_section_title
;
Structure prediction by ZEFSAII (Michael W. Deem and Ramdas Pophale) SiO2 
 PCOD8252475
Probable space group: P N M A
;
_chemical_formula_sum "Si O2"
_cell_formula_units_Z 48
_cell_length_a 18.144539
_cell_length_b 13.636016
_cell_length_c 10.234847
_cell_angle_alpha 90.000000
_cell_angle_beta 90.000000
_cell_angle_gamma 90.000000
_cell_volume 2532.297904
_symmetry_space_group_name_H-M "P N M A"
_symmetry_group_IT_number 62
_symmetry_cell_setting 'orthorhombic'
loop_
_space_group_symop_operation_xyz
x,y,z
1/2-x,-y,1/2+z
1/2+x,1/2-y,1/2-z
-x,1/2+y,-z
-x,-y,-z
1/2+x,y,1/2-z
1/2-x,1/2+y,1/2+z
x,1/2-y,z
loop_
_atom_site_type_symbol
_atom_site_label
_atom_site_fract_x
_atom_site_fract_y
_atom_site_fract_z
Si Si1 0.880550 0.137215 0.947631
Si Si2 0.656464 0.140947 0.325187
Si Si3 0.679742 0.637697 0.917758
Si Si4 0.845331 0.006689 0.181670
Si Si5 0.182760 0.949519 0.308104
Si Si6 0.549900 0.137199 0.561584
O O1 0.870455 0.250000 0.986780
O O2 0.849134 0.120306 0.803771
O O3 0.965708 0.105045 0.954688
O O4 0.835975 0.071605 0.050702
O O5 0.650238 0.250000 0.263986
O O6 0.732019 0.129698 0.406085
O O7 0.589867 0.119495 0.423435
O O8 0.654130 0.061604 0.209051
O O9 0.653327 0.750000 0.911205
O O10 0.638895 0.578724 0.802849
O O11 0.654250 0.590955 0.054320
O O12 0.770956 0.945283 0.201969
O O13 0.912428 0.929890 0.172267
O O14 0.556394 0.250000 0.606373
#
# Coordination Sequence:
#
# PCOD8252475 Si02
#       6
#     8   8   8   8   8   8
#     4  11  23  37  61  89 114 146 196 242 280 337
#     4   9  18  34  56  81 111 150 192 234 283 338
#     4  10  20  34  54  81 119 152 182 233 296 342
#     4  11  20  37  57  86 112 153 193 235 281 344
#     4  11  20  35  56  86 115 151 190 235 290 336
#     4  10  20  37  61  86 114 151 192 242 289 329
#
# _framework density 18.955116
#
# number of rings (size 3 to 8) (size 9 to 14) (size 15 to 20)
#    0.000    1.667    3.333    2.500    0.000    1.333 
#    0.000    1.667    0.000    0.000    0.000    0.000 
#    0.000    0.000    0.000    0.000    0.000    0.000 
#
# Total GULP energy -595372.513975 kJ/mol
# GULP energy per Si atom -12403.594041 kJ/mol
# Density = 1.891197 g / cm^3
# Si number density = 18.955116 Si / 1000 Ang^3
#
#
#
# Elastic Constant Matrix: (Units=GPa)
#
#
# Indices 1 2 3 4 5 6 
#
# 1 69.1641 27.5264 17.1492 0.0000 0.0000 0.0000
# 2 27.5264 90.2382 41.5272 0.0000 0.0000 0.0000
# 3 17.1492 41.5272 111.8274 0.0000 0.0000 0.0000
# 4 0.0000 0.0000 0.0000 37.7401 0.0000 0.0000
# 5 0.0000 0.0000 0.0000 0.0000 22.1121 0.0000
# 6 0.0000 0.0000 0.0000 0.0000 0.0000 27.9771
#
#
#
# Elastic Compliance Matrix: (Units=1/GPa)
#
#
# Indices 1 2 3 4 5 6 
#
# 1 0.016515 -0.004670 -0.000798 0.000000 0.000000 0.000000
# 2 -0.004670 0.014687 -0.004738 0.000000 0.000000 0.000000
# 3 -0.000798 -0.004738 0.010824 0.000000 0.000000 0.000000
# 4 0.000000 0.000000 0.000000 0.026497 0.000000 0.000000
# 5 0.000000 0.000000 0.000000 0.000000 0.045224 0.000000
# 6 0.000000 0.000000 0.000000 0.000000 0.000000 0.035743
#
#
# Mechanical properties :
#
#
# Convention : Reuss Voigt Hill
#
# Bulk Modulus (GPa) = 46.26823 49.29281 47.78052
# Shear Modulus (GPa) = 28.23141 29.90099 29.06620
#
# Velocity S-wave (km/s) = 3.86344 3.97604 3.92014
# Velocity P-wave (km/s) = 6.66062 6.86586 6.76402
#
# Compressibility (1/GPa) = 0.02161310
#
# Stress axis : x y z
#
# Youngs Moduli (GPa) = 60.55083 68.08880 92.38624
#
# Poissons Ratio (x) = 0.31800 0.07375
# Poissons Ratio (y) = 0.28280 0.43770
# Poissons Ratio (z) = 0.04834 0.32258
#
# Static dielectric constant tensor:
#      x y z
#    x 3.343800 0.000000 0.000000 
#    y 0.000000 3.817630 0.000000 
#    z 0.000000 0.000000 3.293280 
# 
# 
# High freq. dielectric constant tensor:
#      x y z
#    x 1.717620 0.000000 0.000000 
#    y 0.000000 1.760770 0.000000 
#    z 0.000000 0.000000 1.716770 
# 
# From -- ./inp_files/7632.got.cif
#   From: 2010.03.12/outbox.cif.g09.slc.cpg/sg62_4_cif.got.tgz:7632.got - 2010.04.10 19:12:36.
