data_PCOD8252516
_publ_section_title
;
Structure prediction by ZEFSAII (Michael W. Deem and Ramdas Pophale) SiO2 
 PCOD8252516
Probable space group: P N M A
;
_chemical_formula_sum "Si O2"
_cell_formula_units_Z 40
_cell_length_a 25.186414
_cell_length_b 8.659649
_cell_length_c 9.600808
_cell_angle_alpha 90.000000
_cell_angle_beta 90.000000
_cell_angle_gamma 90.000000
_cell_volume 2093.989075
_symmetry_space_group_name_H-M "P N M A"
_symmetry_group_IT_number 62
_symmetry_cell_setting 'orthorhombic'
loop_
_space_group_symop_operation_xyz
x,y,z
1/2-x,-y,1/2+z
1/2+x,1/2-y,1/2-z
-x,1/2+y,-z
-x,-y,-z
1/2+x,y,1/2-z
1/2-x,1/2+y,1/2+z
x,1/2-y,z
loop_
_atom_site_type_symbol
_atom_site_label
_atom_site_fract_x
_atom_site_fract_y
_atom_site_fract_z
Si Si1 0.993414 0.432614 0.347531
Si Si2 0.904185 0.568184 0.166910
Si Si3 0.706543 0.570901 0.629917
Si Si4 0.797782 0.929837 0.840308
Si Si5 0.583645 0.431298 0.354887
O O1 0.997648 0.250000 0.357462
O O2 0.936852 0.480483 0.285327
O O3 0.000000 0.500000 0.500000
O O4 0.039363 0.503899 0.246982
O O5 0.912494 0.750000 0.183711
O O6 0.842379 0.528804 0.188364
O O7 0.922563 0.507812 0.013795
O O8 0.691906 0.750000 0.644285
O O9 0.720210 0.529888 0.471742
O O10 0.759264 0.527815 0.714639
O O11 0.795247 0.750000 0.882209
O O12 0.857969 0.974495 0.796851
O O13 0.575453 0.250000 0.357823
#
# Coordination Sequence:
#
# PCOD8252516 Si02
#       5
#     8   8   8   8   8
#     4  11  22  36  54  80 111 141 177 221 271 324
#     4  10  20  37  58  78 104 141 182 223 269 318
#     4  10  20  34  55  83 111 141 179 220 263 316
#     4   9  19  36  55  78 108 140 176 216 262 316
#     4   8  17  35  57  77 102 139 178 216 260 316
#
# _framework density 19.102295999999999
#
# number of rings (size 3 to 8) (size 9 to 14) (size 15 to 20)
#    0.000    2.400    0.000    3.600    0.000    3.200 
#    0.000   11.000    0.000    0.000    0.000    0.000 
#    0.000    0.000    0.000    0.000    0.000    0.000 
#
# Total GULP energy -496016.802585 kJ/mol
# GULP energy per Si atom -12400.420065 kJ/mol
# Density = 1.905882 g / cm^3
# Si number density = 19.102296 Si / 1000 Ang^3
#
#
#
# Elastic Constant Matrix: (Units=GPa)
#
#
# Indices 1 2 3 4 5 6 
#
# 1 73.4418 22.6119 36.5275 0.0000 0.0000 0.0000
# 2 22.6119 49.0091 26.0789 0.0000 0.0000 0.0000
# 3 36.5275 26.0789 78.1457 0.0000 0.0000 0.0000
# 4 0.0000 0.0000 0.0000 31.2024 0.0000 0.0000
# 5 0.0000 0.0000 0.0000 0.0000 40.5632 0.0000
# 6 0.0000 0.0000 0.0000 0.0000 0.0000 26.8629
#
#
#
# Elastic Compliance Matrix: (Units=1/GPa)
#
#
# Indices 1 2 3 4 5 6 
#
# 1 0.018631 -0.004818 -0.007101 0.000000 0.000000 0.000000
# 2 -0.004818 0.026056 -0.006444 0.000000 0.000000 0.000000
# 3 -0.007101 -0.006444 0.018266 0.000000 0.000000 0.000000
# 4 0.000000 0.000000 0.000000 0.032049 0.000000 0.000000
# 5 0.000000 0.000000 0.000000 0.000000 0.024653 0.000000
# 6 0.000000 0.000000 0.000000 0.000000 0.000000 0.037226
#
#
# Mechanical properties :
#
#
# Convention : Reuss Voigt Hill
#
# Bulk Modulus (GPa) = 38.12565 41.22593 39.67579
# Shear Modulus (GPa) = 24.70984 27.41760 26.06372
#
# Velocity S-wave (km/s) = 3.60050 3.79265 3.69782
# Velocity P-wave (km/s) = 6.10629 6.38807 6.24877
#
# Compressibility (1/GPa) = 0.02622906
#
# Stress axis : x y z
#
# Youngs Moduli (GPa) = 53.67296 38.37911 54.74587
#
# Poissons Ratio (x) = 0.18489 0.38876
# Poissons Ratio (y) = 0.25857 0.35276
# Poissons Ratio (z) = 0.38114 0.24730
#
# Static dielectric constant tensor:
#      x y z
#    x 3.688230 0.000000 0.000000 
#    y 0.000000 3.357680 0.000000 
#    z 0.000000 0.000000 3.534340 
# 
# 
# High freq. dielectric constant tensor:
#      x y z
#    x 1.751950 0.000000 0.000000 
#    y 0.000000 1.730540 0.000000 
#    z 0.000000 0.000000 1.738050 
# 
# From -- ./inp_files/9094.got.cif
#   From: 2010.03.12/outbox.cif.g09.slc.cpg/sg62_5_cif.got.tgz:9094.got - 2010.04.10 19:12:36.
