data_PCOD8252607
_publ_section_title
;
Structure prediction by ZEFSAII (Michael W. Deem and Ramdas Pophale) SiO2 
 PCOD8252607
Probable space group: P N M A
;
_chemical_formula_sum "Si O2"
_cell_formula_units_Z 48
_cell_length_a 27.865205
_cell_length_b 8.495988
_cell_length_c 10.246139
_cell_angle_alpha 90.000000
_cell_angle_beta 90.000000
_cell_angle_gamma 90.000000
_cell_volume 2425.696022
_symmetry_space_group_name_H-M "P N M A"
_symmetry_group_IT_number 62
_symmetry_cell_setting 'orthorhombic'
loop_
_space_group_symop_operation_xyz
x,y,z
1/2-x,-y,1/2+z
1/2+x,1/2-y,1/2-z
-x,1/2+y,-z
-x,-y,-z
1/2+x,y,1/2-z
1/2-x,1/2+y,1/2+z
x,1/2-y,z
loop_
_atom_site_type_symbol
_atom_site_label
_atom_site_fract_x
_atom_site_fract_y
_atom_site_fract_z
Si Si1 0.359563 0.566286 0.743828
Si Si2 0.555677 0.068463 0.854037
Si Si3 0.197924 0.068028 0.500913
Si Si4 0.052190 0.567580 0.367564
Si Si5 0.698431 0.067287 0.508774
Si Si6 0.852242 0.430529 0.252108
O O1 0.371271 0.750000 0.741273
O O2 0.409768 0.472761 0.754968
O O3 0.334631 0.511168 0.610837
O O4 0.324652 0.520404 0.862442
O O5 0.567033 0.250000 0.827585
O O6 0.501061 0.023785 0.816740
O O7 0.591125 0.966239 0.764710
O O8 0.565516 0.035143 0.006275
O O9 0.188407 0.250000 0.533839
O O10 0.254251 0.037562 0.492754
O O11 0.173953 0.961974 0.611363
O O12 0.054117 0.750000 0.407359
O O13 0.712438 0.250000 0.494702
O O14 0.670038 0.041401 0.642242
O O15 0.844765 0.250000 0.212252
#
# Coordination Sequence:
#
# PCOD8252607 Si02
#       6
#     8   8   8   8   8   8
#     4  10  22  39  60  86 119 155 195 241 297 352
#     4  10  20  36  58  87 119 151 192 243 294 348
#     4  11  22  39  63  90 118 153 197 249 296 349
#     4  10  20  34  59  90 117 149 192 241 296 353
#     4  11  24  41  60  86 121 160 198 245 298 352
#     4  12  24  39  60  89 120 158 202 243 293 352
#
# _framework density 19.788136000000002
#
# number of rings (size 3 to 8) (size 9 to 14) (size 15 to 20)
#    0.000    1.333    1.667    4.500    0.000    5.333 
#    0.000    0.833    0.000    0.000    0.000    0.000 
#    0.000    0.000    0.000    0.000    0.000    0.000 
#
# Total GULP energy -595522.468874 kJ/mol
# GULP energy per Si atom -12406.718102 kJ/mol
# Density = 1.974310 g / cm^3
# Si number density = 19.788136 Si / 1000 Ang^3
#
#
#
# Elastic Constant Matrix: (Units=GPa)
#
#
# Indices 1 2 3 4 5 6 
#
# 1 129.0178 23.0139 31.9632 0.0000 0.0000 0.0000
# 2 23.0139 50.0352 17.7352 0.0000 0.0000 0.0000
# 3 31.9632 17.7352 74.0414 0.0000 0.0000 0.0000
# 4 0.0000 0.0000 0.0000 25.1865 0.0000 0.0000
# 5 0.0000 0.0000 0.0000 0.0000 -8.2717 0.0000
# 6 0.0000 0.0000 0.0000 0.0000 0.0000 30.8097
#
#
#
# Elastic Compliance Matrix: (Units=1/GPa)
#
#
# Indices 1 2 3 4 5 6 
#
# 1 0.009085 -0.003047 -0.003192 0.000000 0.000000 0.000000
# 2 -0.003047 0.022862 -0.004161 0.000000 0.000000 0.000000
# 3 -0.003192 -0.004161 0.015881 0.000000 0.000000 0.000000
# 4 0.000000 0.000000 0.000000 0.039704 0.000000 0.000000
# 5 0.000000 0.000000 0.000000 0.000000 -0.120895 0.000000
# 6 0.000000 0.000000 0.000000 0.000000 0.000000 0.032457
#
#
# Mechanical properties :
#
#
# Convention : Reuss Voigt Hill
#
# Bulk Modulus (GPa) = 36.99891 44.27992 40.63941
# Shear Modulus (GPa) = 172.98589 21.57039 97.27814
#
# Velocity S-wave (km/s) = 9.35996 3.30520 7.01901
# Velocity P-wave (km/s) = 11.64259 6.08205 9.28820
#
# Compressibility (1/GPa) = 0.02702782
#
# Stress axis : x y z
#
# Youngs Moduli (GPa) = 110.06831 43.74006 62.96995
#
# Poissons Ratio (x) = 0.13329 0.20101
# Poissons Ratio (y) = 0.33542 0.26200
# Poissons Ratio (z) = 0.35135 0.18199
#
# Static dielectric constant tensor:
#      x y z
#    x 3.789220 0.000000 0.000000 
#    y 0.000000 3.518800 0.000000 
#    z 0.000000 0.000000 3.428820 
# 
# 
# High freq. dielectric constant tensor:
#      x y z
#    x 1.788100 0.000000 0.000000 
#    y 0.000000 1.776520 0.000000 
#    z 0.000000 0.000000 1.750720 
# 
# From -- ./inp_files/10265.got.cif
#   From: 2010.03.12/outbox.cif.g09.slc.cpg/sg62_6_cif.got.tgz:10265.got - 2010.04.10 19:12:36.
