data_PCOD8252504
_publ_section_title
;
Structure prediction by ZEFSAII (Michael W. Deem and Ramdas Pophale) SiO2 
 PCOD8252504
Probable space group: P N M A
;
_chemical_formula_sum "Si O2"
_cell_formula_units_Z 48
_cell_length_a 15.545562
_cell_length_b 19.154119
_cell_length_c 8.457391
_cell_angle_alpha 90.000000
_cell_angle_beta 90.000000
_cell_angle_gamma 90.000000
_cell_volume 2518.285806
_symmetry_space_group_name_H-M "P N M A"
_symmetry_group_IT_number 62
_symmetry_cell_setting 'orthorhombic'
loop_
_space_group_symop_operation_xyz
x,y,z
1/2-x,-y,1/2+z
1/2+x,1/2-y,1/2-z
-x,1/2+y,-z
-x,-y,-z
1/2+x,y,1/2-z
1/2-x,1/2+y,1/2+z
x,1/2-y,z
loop_
_atom_site_type_symbol
_atom_site_label
_atom_site_fract_x
_atom_site_fract_y
_atom_site_fract_z
Si Si1 0.414315 0.829329 0.406407
Si Si2 0.595359 0.928798 0.880825
Si Si3 0.161866 0.941150 0.119455
Si Si4 0.231800 0.435002 0.927609
Si Si5 0.005737 0.436973 0.688811
Si Si6 0.584140 0.829420 0.592190
O O1 0.390964 0.750000 0.363030
O O2 0.328343 0.868586 0.460609
O O3 0.454337 0.865471 0.251982
O O4 0.484008 0.833251 0.545870
O O5 0.591313 0.864965 0.761483
O O6 0.579129 0.003483 0.796389
O O7 0.687262 0.925622 0.960598
O O8 0.519603 0.920336 0.009163
O O9 0.240471 0.937780 0.243581
O O10 0.075589 0.964747 0.210471
O O11 0.145446 0.866260 0.037907
O O12 0.182098 0.994706 0.977866
O O13 0.616365 0.750000 0.604105
#
# Coordination Sequence:
#
# PCOD8252504 Si02
#       6
#     8   8   8   8   8   8
#     4  10  21  36  53  75 106 143 179 217 263 315
#     4  10  20  35  58  84 106 136 178 224 272 319
#     4  10  20  34  55  80 108 142 178 221 269 318
#     4  11  21  34  56  83 110 138 176 227 276 319
#     4   9  19  36  57  79 105 139 180 221 263 321
#     4  10  21  37  55  76 107 146 183 217 261 322
#
# _framework density 19.060585
#
# number of rings (size 3 to 8) (size 9 to 14) (size 15 to 20)
#    0.000    2.000    0.000    4.000    0.000    4.667 
#    0.000    5.000    0.000    0.000    0.000    0.000 
#    0.000    0.000    0.000    0.000    0.000    0.000 
#
# Total GULP energy -595315.766722 kJ/mol
# GULP energy per Si atom -12402.411807 kJ/mol
# Density = 1.901720 g / cm^3
# Si number density = 19.060585 Si / 1000 Ang^3
#
#
#
# Elastic Constant Matrix: (Units=GPa)
#
#
# Indices 1 2 3 4 5 6 
#
# 1 85.4221 58.6693 36.3272 0.0000 0.0000 0.0000
# 2 58.6693 164.1420 62.2510 0.0000 0.0000 0.0000
# 3 36.3272 62.2510 102.9512 0.0000 0.0000 0.0000
# 4 0.0000 0.0000 0.0000 27.9396 0.0000 0.0000
# 5 0.0000 0.0000 0.0000 0.0000 21.8739 0.0000
# 6 0.0000 0.0000 0.0000 0.0000 0.0000 25.6029
#
#
#
# Elastic Compliance Matrix: (Units=1/GPa)
#
#
# Indices 1 2 3 4 5 6 
#
# 1 0.016141 -0.004683 -0.002864 0.000000 0.000000 0.000000
# 2 -0.004683 0.009264 -0.003949 0.000000 0.000000 0.000000
# 3 -0.002864 -0.003949 0.013112 0.000000 0.000000 0.000000
# 4 0.000000 0.000000 0.000000 0.035792 0.000000 0.000000
# 5 0.000000 0.000000 0.000000 0.000000 0.045716 0.000000
# 6 0.000000 0.000000 0.000000 0.000000 0.000000 0.039058
#
#
# Mechanical properties :
#
#
# Convention : Reuss Voigt Hill
#
# Bulk Modulus (GPa) = 64.41392 74.11227 69.26309
# Shear Modulus (GPa) = 26.70237 28.10112 27.40174
#
# Velocity S-wave (km/s) = 3.74695 3.84383 3.79570
# Velocity P-wave (km/s) = 7.25170 7.65944 7.45836
#
# Compressibility (1/GPa) = 0.01552460
#
# Stress axis : x y z
#
# Youngs Moduli (GPa) = 61.95439 107.94615 76.26792
#
# Poissons Ratio (x) = 0.50553 0.21841
# Poissons Ratio (y) = 0.29014 0.30119
# Poissons Ratio (z) = 0.17742 0.42628
#
# Static dielectric constant tensor:
#      x y z
#    x 3.581470 0.000000 0.000000 
#    y 0.000000 3.452090 0.000000 
#    z 0.000000 0.000000 3.554420 
# 
# 
# High freq. dielectric constant tensor:
#      x y z
#    x 1.747620 0.000000 0.000000 
#    y 0.000000 1.732420 0.000000 
#    z 0.000000 0.000000 1.746660 
# 
# From -- ./inp_files/6417.got.cif
#   From: 2010.03.12/outbox.cif.g09.slc.cpg/sg62_4_cif.got.tgz:6417.got - 2010.04.10 19:12:36.
