data_PCOD8252998
_publ_section_title
;
Structure prediction by ZEFSAII (Michael W. Deem and Ramdas Pophale) SiO2 
 PCOD8252998
Probable space group: P N M A
;
_chemical_formula_sum "Si O2"
_cell_formula_units_Z 40
_cell_length_a 10.198759
_cell_length_b 21.174281
_cell_length_c 9.254960
_cell_angle_alpha 90.000000
_cell_angle_beta 90.000000
_cell_angle_gamma 90.000000
_cell_volume 1998.621466
_symmetry_space_group_name_H-M "P N M A"
_symmetry_group_IT_number 62
_symmetry_cell_setting 'orthorhombic'
loop_
_space_group_symop_operation_xyz
x,y,z
1/2-x,-y,1/2+z
1/2+x,1/2-y,1/2-z
-x,1/2+y,-z
-x,-y,-z
1/2+x,y,1/2-z
1/2-x,1/2+y,1/2+z
x,1/2-y,z
loop_
_atom_site_type_symbol
_atom_site_label
_atom_site_fract_x
_atom_site_fract_y
_atom_site_fract_z
Si Si1 0.979467 0.423076 0.137533
Si Si2 0.319430 0.023794 0.589650
Si Si3 0.328324 0.133881 0.790023
Si Si4 0.059639 0.320934 0.913909
Si Si5 0.918005 0.439451 0.451339
O O1 0.965773 0.404500 0.305176
O O2 0.043985 0.492646 0.137705
O O3 0.839158 0.435411 0.058183
O O4 0.057786 0.368963 0.049586
O O5 0.271518 0.070720 0.714809
O O6 0.226902 0.964521 0.572535
O O7 0.432092 0.169584 0.687722
O O8 0.198201 0.173457 0.828734
O O9 0.414265 0.115384 0.930034
O O10 0.051690 0.250000 0.975139
O O11 0.000000 0.500000 0.500000
#
# Coordination Sequence:
#
# PCOD8252998 Si02
#       5
#     8   8   8   8   8
#     4  10  22  36  59  87 125 164 192 252 314 372
#     4  10  20  36  57  91 125 151 194 250 322 370
#     4  11  22  39  66  93 122 161 210 262 315 369
#     4  11  24  45  63  86 123 174 219 255 301 376
#     4  12  21  33  60  96 126 152 192 255 323 384
#
# _framework density 20.013795999999999
#
# number of rings (size 3 to 8) (size 9 to 14) (size 15 to 20)
#    0.000    1.200    4.000    3.000    2.800    0.000 
#    0.000    2.000    0.000    0.000    0.000    0.000 
#    0.000    0.000    0.000    0.000    0.000    0.000 
#
# Total GULP energy -495744.277784 kJ/mol
# GULP energy per Si atom -12393.606945 kJ/mol
# Density = 1.996824 g / cm^3
# Si number density = 20.013796 Si / 1000 Ang^3
#
#
#
# Elastic Constant Matrix: (Units=GPa)
#
#
# Indices 1 2 3 4 5 6 
#
# 1 77.5038 18.1475 23.4364 0.0000 0.0000 0.0000
# 2 18.1475 95.5407 33.8487 0.0000 0.0000 0.0000
# 3 23.4364 33.8487 119.6006 0.0000 0.0000 0.0000
# 4 0.0000 0.0000 0.0000 20.9658 0.0000 0.0000
# 5 0.0000 0.0000 0.0000 0.0000 19.7169 0.0000
# 6 0.0000 0.0000 0.0000 0.0000 0.0000 23.9743
#
#
#
# Elastic Compliance Matrix: (Units=1/GPa)
#
#
# Indices 1 2 3 4 5 6 
#
# 1 0.014012 -0.001877 -0.002214 0.000000 0.000000 0.000000
# 2 -0.001877 0.011885 -0.002996 0.000000 0.000000 0.000000
# 3 -0.002214 -0.002996 0.009643 0.000000 0.000000 0.000000
# 4 0.000000 0.000000 0.000000 0.047697 0.000000 0.000000
# 5 0.000000 0.000000 0.000000 0.000000 0.050718 0.000000
# 6 0.000000 0.000000 0.000000 0.000000 0.000000 0.041711
#
#
# Mechanical properties :
#
#
# Convention : Reuss Voigt Hill
#
# Bulk Modulus (GPa) = 46.80547 49.27894 48.04220
# Shear Modulus (GPa) = 25.38570 27.41221 26.39896
#
# Velocity S-wave (km/s) = 3.56534 3.70491 3.63580
# Velocity P-wave (km/s) = 6.35502 6.55575 6.45616
#
# Compressibility (1/GPa) = 0.02136503
#
# Stress axis : x y z
#
# Youngs Moduli (GPa) = 71.36885 84.14257 103.70279
#
# Poissons Ratio (x) = 0.15793 0.22965
# Poissons Ratio (y) = 0.13395 0.31067
# Poissons Ratio (z) = 0.15805 0.25207
#
# Static dielectric constant tensor:
#      x y z
#    x 3.894760 0.000000 0.000000 
#    y 0.000000 3.362610 0.000000 
#    z 0.000000 0.000000 3.842620 
# 
# 
# High freq. dielectric constant tensor:
#      x y z
#    x 1.783020 0.000000 0.000000 
#    y 0.000000 1.752190 0.000000 
#    z 0.000000 0.000000 1.785730 
# 
# From -- ./inp_files/4283.got.cif
#   From: 2010.03.12/outbox.cif.g09.slc.cpg/sg62_3_cif.got.tgz:4283.got - 2010.04.10 19:12:36.
