data_PCOD8252575
_publ_section_title
;
Structure prediction by ZEFSAII (Michael W. Deem and Ramdas Pophale) SiO2 
 PCOD8252575
Probable space group: P N M A
;
_chemical_formula_sum "Si O2"
_cell_formula_units_Z 64
_cell_length_a 32.428439
_cell_length_b 10.661636
_cell_length_c 9.165968
_cell_angle_alpha 90.000000
_cell_angle_beta 90.000000
_cell_angle_gamma 90.000000
_cell_volume 3169.043726
_symmetry_space_group_name_H-M "P N M A"
_symmetry_group_IT_number 62
_symmetry_cell_setting 'orthorhombic'
loop_
_space_group_symop_operation_xyz
x,y,z
1/2-x,-y,1/2+z
1/2+x,1/2-y,1/2-z
-x,1/2+y,-z
-x,-y,-z
1/2+x,y,1/2-z
1/2-x,1/2+y,1/2+z
x,1/2-y,z
loop_
_atom_site_type_symbol
_atom_site_label
_atom_site_fract_x
_atom_site_fract_y
_atom_site_fract_z
Si Si1 0.171987 0.613594 0.759550
Si Si2 0.835341 0.890818 0.007649
Si Si3 0.261015 0.544518 0.686935
Si Si4 0.601138 0.394855 0.261134
Si Si5 0.488445 0.889317 0.804247
Si Si6 0.871787 0.533741 0.458310
Si Si7 0.541982 0.387411 0.865688
Si Si8 0.284432 0.613999 0.984667
O O1 0.162103 0.750000 0.830876
O O2 0.167507 0.497415 0.870289
O O3 0.218278 0.621078 0.696350
O O4 0.139955 0.595632 0.624317
O O5 0.841750 0.750000 0.073547
O O6 0.794329 0.883210 0.910182
O O7 0.874227 0.928568 0.906779
O O8 0.279651 0.518394 0.848162
O O9 0.249453 0.413268 0.609386
O O10 0.609254 0.250000 0.213141
O O11 0.552518 0.415699 0.291911
O O12 0.615790 0.484604 0.127911
O O13 0.506497 0.750000 0.767068
O O14 0.521686 0.999222 0.771612
O O15 0.475550 0.892607 0.972180
O O16 0.908691 0.598724 0.369036
O O17 0.830092 0.615763 0.448157
O O18 0.531795 0.250000 0.796645
O O19 0.274029 0.750000 0.919912
#
# Coordination Sequence:
#
# PCOD8252575 Si02
#       8
#     8   8   8   8   8   8   8   8
#     4  11  25  42  55  78 119 152 183 232 288 333
#     4  11  22  37  60  83 107 144 191 232 274 328
#     4  11  22  37  56  81 106 146 186 229 280 326
#     4   9  17  33  58  87 114 142 186 237 273 321
#     4   8  15  28  49  78 113 147 173 212 276 334
#     4  10  20  34  57  82 106 146 191 227 276 324
#     4   9  16  28  49  80 113 141 177 225 269 322
#     4  11  21  37  56  78 112 146 185 233 277 325
#
# _framework density 20.195366
#
# number of rings (size 3 to 8) (size 9 to 14) (size 15 to 20)
#    0.000    2.000    2.500    3.000    0.000    3.500 
#    0.000    3.750    0.000    0.750    0.000    0.000 
#    0.000    0.000    0.000    0.000    0.000    0.000 
#
# Total GULP energy -792896.580000 kJ/mol
# GULP energy per Si atom -12389.009062 kJ/mol
# Density = 2.014940 g / cm^3
# Si number density = 20.195366 Si / 1000 Ang^3
#
#
#
# Elastic Constant Matrix: (Units=GPa)
#
#
# Indices 1 2 3 4 5 6 
#
# 1 88.3649 46.3268 22.2805 0.0000 0.0000 0.0000
# 2 46.3268 126.6956 44.9493 0.0000 0.0000 0.0000
# 3 22.2805 44.9493 70.2857 0.0000 0.0000 0.0000
# 4 0.0000 0.0000 0.0000 20.3680 0.0000 0.0000
# 5 0.0000 0.0000 0.0000 0.0000 16.8041 0.0000
# 6 0.0000 0.0000 0.0000 0.0000 0.0000 10.1526
#
#
#
# Elastic Compliance Matrix: (Units=1/GPa)
#
#
# Indices 1 2 3 4 5 6 
#
# 1 0.014125 -0.004626 -0.001519 0.000000 0.000000 0.000000
# 2 -0.004626 0.011724 -0.006032 0.000000 0.000000 0.000000
# 3 -0.001519 -0.006032 0.018567 0.000000 0.000000 0.000000
# 4 0.000000 0.000000 0.000000 0.049097 0.000000 0.000000
# 5 0.000000 0.000000 0.000000 0.000000 0.059509 0.000000
# 6 0.000000 0.000000 0.000000 0.000000 0.000000 0.098497
#
#
# Mechanical properties :
#
#
# Convention : Reuss Voigt Hill
#
# Bulk Modulus (GPa) = 49.84429 56.93993 53.39211
# Shear Modulus (GPa) = 17.69536 20.91756 19.30646
#
# Velocity S-wave (km/s) = 2.96329 3.22181 3.09525
# Velocity P-wave (km/s) = 6.03679 6.48813 6.26652
#
# Compressibility (1/GPa) = 0.02006248
#
# Stress axis : x y z
#
# Youngs Moduli (GPa) = 70.79664 85.29300 53.86028
#
# Poissons Ratio (x) = 0.39455 0.08183
# Poissons Ratio (y) = 0.32750 0.32486
# Poissons Ratio (z) = 0.10756 0.51445
#
# Static dielectric constant tensor:
#      x y z
#    x 3.885010 0.000000 0.000000 
#    y 0.000000 3.683560 0.000000 
#    z 0.000000 0.000000 3.382750 
# 
# 
# High freq. dielectric constant tensor:
#      x y z
#    x 1.793350 0.000000 0.000000 
#    y 0.000000 1.768480 0.000000 
#    z 0.000000 0.000000 1.757470 
# 
# From -- ./inp_files/10461.got.cif
#   From: 2010.03.12/outbox.cif.g09.slc.cpg/sg62_6_cif.got.tgz:10461.got - 2010.04.10 19:12:36.
