data_PCOD8252102
_publ_section_title
;
Structure prediction by ZEFSAII (Michael W. Deem and Ramdas Pophale) SiO2 
 PCOD8252102
Probable space group: P N M A
;
_chemical_formula_sum "Si O2"
_cell_formula_units_Z 40
_cell_length_a 8.568571
_cell_length_b 13.040830
_cell_length_c 15.170617
_cell_angle_alpha 90.000000
_cell_angle_beta 90.000000
_cell_angle_gamma 90.000000
_cell_volume 1695.184128
_symmetry_space_group_name_H-M "P N M A"
_symmetry_group_IT_number 62
_symmetry_cell_setting 'orthorhombic'
loop_
_space_group_symop_operation_xyz
x,y,z
1/2-x,-y,1/2+z
1/2+x,1/2-y,1/2-z
-x,1/2+y,-z
-x,-y,-z
1/2+x,y,1/2-z
1/2-x,1/2+y,1/2+z
x,1/2-y,z
loop_
_atom_site_type_symbol
_atom_site_label
_atom_site_fract_x
_atom_site_fract_y
_atom_site_fract_z
Si Si1 0.593228 0.442116 0.365707
Si Si2 0.550385 0.637813 0.134867
Si Si3 0.437377 0.437051 0.198521
Si Si4 0.639665 0.133801 0.041139
Si Si5 0.347470 0.566209 0.444331
O O1 0.475680 0.387022 0.295052
O O2 0.754200 0.451923 0.313056
O O3 0.513602 0.551226 0.394879
O O4 0.624441 0.383538 0.458481
O O5 0.506040 0.750000 0.171520
O O6 0.512495 0.551372 0.206310
O O7 0.734226 0.638886 0.110936
O O8 0.454545 0.608316 0.047500
O O9 0.515632 0.372055 0.121080
O O10 0.707598 0.250000 0.039022
O O11 0.774861 0.049630 0.048753
#
# Coordination Sequence:
#
# PCOD8252102 Si02
#       5
#     8   8   8   8   8
#     4  11  22  37  63  83 119 159 192 244 293 344
#     4  10  19  37  64  87 115 153 190 236 292 348
#     4  11  20  39  57  88 119 152 196 244 292 338
#     4  10  19  37  64  87 115 153 190 236 292 348
#     4  10  20  41  60  87 118 154 197 237 292 348
#
# _framework density 23.596256
#
# number of rings (size 3 to 8) (size 9 to 14) (size 15 to 20)
#    0.000    1.600    4.000    3.600    0.000    0.000 
#    0.000   16.000    0.000    0.000    0.000    0.000 
#    0.000    0.000    0.000    0.000    0.000    0.000 
#
# Total GULP energy -495528.644856 kJ/mol
# GULP energy per Si atom -12388.216121 kJ/mol
# Density = 2.354255 g / cm^3
# Si number density = 23.596256 Si / 1000 Ang^3
#
#
#
# Elastic Constant Matrix: (Units=GPa)
#
#
# Indices 1 2 3 4 5 6 
#
# 1 109.4197 -8.8941 35.5820 0.0000 0.0000 0.0000
# 2 -8.8941 69.1494 -15.0757 0.0000 0.0000 0.0000
# 3 35.5820 -15.0757 89.6204 0.0000 0.0000 0.0000
# 4 0.0000 0.0000 0.0000 11.6455 0.0000 0.0000
# 5 0.0000 0.0000 0.0000 0.0000 48.2304 0.0000
# 6 0.0000 0.0000 0.0000 0.0000 0.0000 15.5865
#
#
#
# Elastic Compliance Matrix: (Units=1/GPa)
#
#
# Indices 1 2 3 4 5 6 
#
# 1 0.010508 0.000459 -0.004095 0.000000 0.000000 0.000000
# 2 0.000459 0.015032 0.002346 0.000000 0.000000 0.000000
# 3 -0.004095 0.002346 0.013179 0.000000 0.000000 0.000000
# 4 0.000000 0.000000 0.000000 0.085870 0.000000 0.000000
# 5 0.000000 0.000000 0.000000 0.000000 0.020734 0.000000
# 6 0.000000 0.000000 0.000000 0.000000 0.000000 0.064158
#
#
# Mechanical properties :
#
#
# Convention : Reuss Voigt Hill
#
# Bulk Modulus (GPa) = 27.67045 32.37934 30.02489
# Shear Modulus (GPa) = 22.31083 32.19763 27.25423
#
# Velocity S-wave (km/s) = 3.07827 3.69795 3.40225
# Velocity P-wave (km/s) = 4.93826 5.65554 5.30903
#
# Compressibility (1/GPa) = 0.03613964
#
# Stress axis : x y z
#
# Youngs Moduli (GPa) = 95.16558 66.52467 75.88028
#
# Poissons Ratio (x) = -0.03052 0.31072
# Poissons Ratio (y) = -0.04366 -0.17805
# Poissons Ratio (z) = 0.38969 -0.15610
#
# Static dielectric constant tensor:
#      x y z
#    x 4.347580 0.000000 0.000000 
#    y 0.000000 3.729940 0.000000 
#    z 0.000000 0.000000 4.389270 
# 
# 
# High freq. dielectric constant tensor:
#      x y z
#    x 1.944950 0.000000 0.000000 
#    y 0.000000 1.878420 0.000000 
#    z 0.000000 0.000000 1.944810 
# 
# From -- ./inp_files/6120.got.cif
#   From: 2010.03.12/outbox.cif.g09.slc.cpg/sg62_4_cif.got.tgz:6120.got - 2010.04.10 19:12:36.
