data_PCOD8252645
_publ_section_title
;
Structure prediction by ZEFSAII (Michael W. Deem and Ramdas Pophale) SiO2 
 PCOD8252645
Probable space group: P N M A
;
_chemical_formula_sum "Si O2"
_cell_formula_units_Z 48
_cell_length_a 30.305763
_cell_length_b 9.019995
_cell_length_c 9.490930
_cell_angle_alpha 90.000000
_cell_angle_beta 90.000000
_cell_angle_gamma 90.000000
_cell_volume 2594.420036
_symmetry_space_group_name_H-M "P N M A"
_symmetry_group_IT_number 62
_symmetry_cell_setting 'orthorhombic'
loop_
_space_group_symop_operation_xyz
x,y,z
1/2-x,-y,1/2+z
1/2+x,1/2-y,1/2-z
-x,1/2+y,-z
-x,-y,-z
1/2+x,y,1/2-z
1/2-x,1/2+y,1/2+z
x,1/2-y,z
loop_
_atom_site_type_symbol
_atom_site_label
_atom_site_fract_x
_atom_site_fract_y
_atom_site_fract_z
Si Si1 0.387562 0.076609 0.405310
Si Si2 0.539685 0.426802 0.414970
Si Si3 0.286694 0.421981 0.398705
Si Si4 0.962505 0.923082 0.590102
Si Si5 0.214658 0.423137 0.611735
Si Si6 0.615501 0.422519 0.887938
O O1 0.400024 0.250000 0.409553
O O2 0.336786 0.047645 0.446967
O O3 0.414920 0.986734 0.520846
O O4 0.398222 0.017760 0.248520
O O5 0.500000 0.500000 0.500000
O O6 0.537611 0.250000 0.429447
O O7 0.537243 0.477785 0.251804
O O8 0.278879 0.250000 0.371308
O O9 0.251672 0.487941 0.508495
O O10 0.274875 0.505776 0.258860
O O11 0.971926 0.750000 0.584365
O O12 0.915644 0.962949 0.519193
O O13 0.000000 0.000000 0.500000
O O14 0.220891 0.250000 0.627977
O O15 0.165014 0.462856 0.561704
O O16 0.611627 0.250000 0.845539
#
# Coordination Sequence:
#
# PCOD8252645 Si02
#       6
#     8   8   8   8   8   8
#     4  10  20  35  54  78 108 140 174 214 261 312
#     4  11  23  38  56  80 107 137 174 214 259 311
#     4   9  19  34  52  77 108 139 174 218 264 310
#     4  10  22  37  54  77 103 132 169 212 257 307
#     4   9  18  33  53  76 103 137 175 214 259 310
#     4   9  18  35  56  76 101 135 175 218 261 306
#
# _framework density 18.501244
#
# number of rings (size 3 to 8) (size 9 to 14) (size 15 to 20)
#    0.000    2.333    0.000    2.000    0.000    7.333 
#    0.000    1.667    0.000    0.000    0.000    0.000 
#    0.000    0.000    0.000    0.000    0.000    0.000 
#
# Total GULP energy -595199.890400 kJ/mol
# GULP energy per Si atom -12399.997717 kJ/mol
# Density = 1.845913 g / cm^3
# Si number density = 18.501244 Si / 1000 Ang^3
#
#
#
# Elastic Constant Matrix: (Units=GPa)
#
#
# Indices 1 2 3 4 5 6 
#
# 1 134.9074 47.8000 106.3109 0.0000 0.0000 0.0000
# 2 47.8000 52.9305 58.3382 0.0000 0.0000 0.0000
# 3 106.3109 58.3382 159.4375 0.0000 0.0000 0.0000
# 4 0.0000 0.0000 0.0000 31.5911 0.0000 0.0000
# 5 0.0000 0.0000 0.0000 0.0000 43.1935 0.0000
# 6 0.0000 0.0000 0.0000 0.0000 0.0000 31.7384
#
#
#
# Elastic Compliance Matrix: (Units=1/GPa)
#
#
# Indices 1 2 3 4 5 6 
#
# 1 0.016257 -0.004581 -0.009164 0.000000 0.000000 0.000000
# 2 -0.004581 0.032952 -0.009002 0.000000 0.000000 0.000000
# 3 -0.009164 -0.009002 0.015676 0.000000 0.000000 0.000000
# 4 0.000000 0.000000 0.000000 0.031654 0.000000 0.000000
# 5 0.000000 0.000000 0.000000 0.000000 0.023152 0.000000
# 6 0.000000 0.000000 0.000000 0.000000 0.000000 0.031508
#
#
# Mechanical properties :
#
#
# Convention : Reuss Voigt Hill
#
# Bulk Modulus (GPa) = 51.57148 85.79707 68.68428
# Shear Modulus (GPa) = 24.61149 30.29302 27.45226
#
# Velocity S-wave (km/s) = 3.65123 4.05081 3.85620
# Velocity P-wave (km/s) = 6.76095 8.26759 7.55194
#
# Compressibility (1/GPa) = 0.01939056
#
# Stress axis : x y z
#
# Youngs Moduli (GPa) = 61.51228 30.34705 63.79102
#
# Poissons Ratio (x) = 0.13903 0.58455
# Poissons Ratio (y) = 0.28181 0.57427
# Poissons Ratio (z) = 0.56367 0.27320
#
# Static dielectric constant tensor:
#      x y z
#    x 3.706530 0.000000 0.000000 
#    y 0.000000 3.410180 0.000000 
#    z 0.000000 0.000000 3.621020 
# 
# 
# High freq. dielectric constant tensor:
#      x y z
#    x 1.732180 0.000000 0.000000 
#    y 0.000000 1.717310 0.000000 
#    z 0.000000 0.000000 1.715780 
# 
# From -- ./inp_files/10132.got.cif
#   From: 2010.03.12/outbox.cif.g09.slc.cpg/sg62_6_cif.got.tgz:10132.got - 2010.04.10 19:12:36.
