data_PCOD8252745
_publ_section_title
;
Structure prediction by ZEFSAII (Michael W. Deem and Ramdas Pophale) SiO2 
 PCOD8252745
Probable space group: P N M A
;
_chemical_formula_sum "Si O2"
_cell_formula_units_Z 64
_cell_length_a 23.304797
_cell_length_b 15.165845
_cell_length_c 9.253904
_cell_angle_alpha 90.000000
_cell_angle_beta 90.000000
_cell_angle_gamma 90.000000
_cell_volume 3270.671504
_symmetry_space_group_name_H-M "P N M A"
_symmetry_group_IT_number 62
_symmetry_cell_setting 'orthorhombic'
loop_
_space_group_symop_operation_xyz
x,y,z
1/2-x,-y,1/2+z
1/2+x,1/2-y,1/2-z
-x,1/2+y,-z
-x,-y,-z
1/2+x,y,1/2-z
1/2-x,1/2+y,1/2+z
x,1/2-y,z
loop_
_atom_site_type_symbol
_atom_site_label
_atom_site_fract_x
_atom_site_fract_y
_atom_site_fract_z
Si Si1 0.670189 0.904975 0.669790
Si Si2 0.435586 0.516528 0.331291
Si Si3 0.154229 0.645937 0.151875
Si Si4 0.932609 0.509293 0.838352
Si Si5 0.237296 0.417025 0.824924
Si Si6 0.139279 0.147167 0.331192
Si Si7 0.865896 0.848211 0.339541
Si Si8 0.255922 0.846171 0.631197
O O1 0.604151 0.930929 0.700166
O O2 0.676842 0.862989 0.511713
O O3 0.693150 0.838497 0.792162
O O4 0.713600 0.985820 0.702014
O O5 0.501052 0.497259 0.296402
O O6 0.425439 0.543957 0.497898
O O7 0.416719 0.595061 0.228167
O O8 0.142632 0.750000 0.185556
O O9 0.097051 0.587144 0.177647
O O10 0.201064 0.603881 0.257782
O O11 0.909359 0.584525 0.733669
O O12 0.191657 0.349872 0.755974
O O13 0.241901 0.411816 0.997510
O O14 0.122030 0.250000 0.312622
O O15 0.148229 0.120676 0.497935
O O16 0.198115 0.124002 0.250899
O O17 0.890220 0.750000 0.341869
O O18 0.271074 0.750000 0.569436
#
# Coordination Sequence:
#
# PCOD8252745 Si02
#       8
#     8   8   8   8   8   8   8   8
#     4  10  20  36  56  79 109 146 184 228 282 336
#     4   9  21  38  58  80 106 144 194 237 280 335
#     4  11  22  36  56  84 118 151 186 232 289 347
#     4  10  21  40  59  81 111 147 193 240 283 337
#     4  11  21  35  55  82 112 146 184 227 276 334
#     4  10  21  36  57  85 114 149 189 233 288 344
#     4  10  20  35  56  83 113 144 184 232 284 341
#     4  11  21  34  54  81 111 140 176 222 274 333
#
# _framework density 19.567845999999999
#
# number of rings (size 3 to 8) (size 9 to 14) (size 15 to 20)
#    0.000    1.750    0.000    6.000    0.000    6.500 
#    0.000    5.625    0.000    1.500    0.000    0.000 
#    0.000    0.000    0.000    0.000    0.000    0.000 
#
# Total GULP energy -793451.377650 kJ/mol
# GULP energy per Si atom -12397.677776 kJ/mol
# Density = 1.952331 g / cm^3
# Si number density = 19.567846 Si / 1000 Ang^3
#
#
#
# Elastic Constant Matrix: (Units=GPa)
#
#
# Indices 1 2 3 4 5 6 
#
# 1 132.6274 43.2535 56.3105 0.0000 0.0000 0.0000
# 2 43.2535 76.6139 31.1599 0.0000 0.0000 0.0000
# 3 56.3105 31.1599 110.8908 0.0000 0.0000 0.0000
# 4 0.0000 0.0000 0.0000 32.0823 0.0000 0.0000
# 5 0.0000 0.0000 0.0000 0.0000 29.3287 0.0000
# 6 0.0000 0.0000 0.0000 0.0000 0.0000 18.4778
#
#
#
# Elastic Compliance Matrix: (Units=1/GPa)
#
#
# Indices 1 2 3 4 5 6 
#
# 1 0.010759 -0.004349 -0.004241 0.000000 0.000000 0.000000
# 2 -0.004349 0.016495 -0.002426 0.000000 0.000000 0.000000
# 3 -0.004241 -0.002426 0.011853 0.000000 0.000000 0.000000
# 4 0.000000 0.000000 0.000000 0.031170 0.000000 0.000000
# 5 0.000000 0.000000 0.000000 0.000000 0.034096 0.000000
# 6 0.000000 0.000000 0.000000 0.000000 0.000000 0.054119
#
#
# Mechanical properties :
#
#
# Convention : Reuss Voigt Hill
#
# Bulk Modulus (GPa) = 58.57097 64.61999 61.59548
# Shear Modulus (GPa) = 26.85033 28.60498 27.72765
#
# Velocity S-wave (km/s) = 3.70829 3.82754 3.76839
# Velocity P-wave (km/s) = 6.95216 7.25456 7.10497
#
# Compressibility (1/GPa) = 0.01707331
#
# Stress axis : x y z
#
# Youngs Moduli (GPa) = 92.94455 60.62544 84.36340
#
# Poissons Ratio (x) = 0.26367 0.35782
# Poissons Ratio (y) = 0.40423 0.20470
# Poissons Ratio (z) = 0.39421 0.14710
#
# Static dielectric constant tensor:
#      x y z
#    x 3.493150 0.000000 0.000000 
#    y 0.000000 3.561350 0.000000 
#    z 0.000000 0.000000 3.592720 
# 
# 
# High freq. dielectric constant tensor:
#      x y z
#    x 1.750570 0.000000 0.000000 
#    y 0.000000 1.764410 0.000000 
#    z 0.000000 0.000000 1.769110 
# 
# From -- ./inp_files/9463.got.cif
#   From: 2010.03.12/outbox.cif.g09.slc.cpg/sg62_5_cif.got.tgz:9463.got - 2010.04.10 19:12:36.
