data_PCOD8252880
_publ_section_title
;
Structure prediction by ZEFSAII (Michael W. Deem and Ramdas Pophale) SiO2 
 PCOD8252880
Probable space group: P N M A
;
_chemical_formula_sum "Si O2"
_cell_formula_units_Z 48
_cell_length_a 11.937683
_cell_length_b 8.573975
_cell_length_c 23.369063
_cell_angle_alpha 90.000000
_cell_angle_beta 90.000000
_cell_angle_gamma 90.000000
_cell_volume 2391.902950
_symmetry_space_group_name_H-M "P N M A"
_symmetry_group_IT_number 62
_symmetry_cell_setting 'orthorhombic'
loop_
_space_group_symop_operation_xyz
x,y,z
1/2-x,-y,1/2+z
1/2+x,1/2-y,1/2-z
-x,1/2+y,-z
-x,-y,-z
1/2+x,y,1/2-z
1/2-x,1/2+y,1/2+z
x,1/2-y,z
loop_
_atom_site_type_symbol
_atom_site_label
_atom_site_fract_x
_atom_site_fract_y
_atom_site_fract_z
Si Si1 0.829311 0.564745 0.153277
Si Si2 0.987836 0.435033 0.935947
Si Si3 0.624312 0.436017 0.781533
Si Si4 0.737716 0.433045 0.383002
Si Si5 0.585924 0.920768 0.156722
Si Si6 0.433812 0.578500 0.049925
O O1 0.828200 0.750000 0.147377
O O2 0.868492 0.512407 0.216103
O O3 0.704189 0.491097 0.147519
O O4 0.909860 0.499114 0.103352
O O5 0.990758 0.250000 0.939792
O O6 0.875189 0.485628 0.904049
O O7 0.000000 0.500000 0.000000
O O8 0.627768 0.250000 0.790904
O O9 0.724907 0.505494 0.820243
O O10 0.503270 0.505261 0.801317
O O11 0.717542 0.250000 0.379897
O O12 0.832279 0.470124 0.429920
O O13 0.614548 0.750000 0.183122
O O14 0.527571 0.900511 0.096864
O O15 0.386923 0.750000 0.032880
O O16 0.500000 0.500000 0.000000
#
# Coordination Sequence:
#
# PCOD8252880 Si02
#       6
#     8   8   8   8   8   8
#     4   9  19  34  60  90 117 153 194 245 305 372
#     4  11  24  41  62  90 123 164 210 255 309 374
#     4   9  18  35  62  91 116 147 195 249 303 366
#     4  11  23  40  60  84 121 163 201 249 303 360
#     4   8  16  31  52  84 117 144 184 236 291 356
#     4  10  20  35  59  87 117 153 195 244 297 356
#
# _framework density 20.067703999999999
#
# number of rings (size 3 to 8) (size 9 to 14) (size 15 to 20)
#    0.000    2.333    0.000    3.500    4.667    0.000 
#    0.000    1.667    0.000    2.000    0.000    0.000 
#    0.000    0.000    0.000    0.000    0.000    0.000 
#
# Total GULP energy -594784.519366 kJ/mol
# GULP energy per Si atom -12391.344153 kJ/mol
# Density = 2.002203 g / cm^3
# Si number density = 20.067704 Si / 1000 Ang^3
#
#
#
# Elastic Constant Matrix: (Units=GPa)
#
#
# Indices 1 2 3 4 5 6 
#
# 1 167.1952 21.4209 78.2773 0.0000 0.0000 0.0000
# 2 21.4209 62.9335 30.2231 0.0000 0.0000 0.0000
# 3 78.2773 30.2231 109.8857 0.0000 0.0000 0.0000
# 4 0.0000 0.0000 0.0000 25.3951 0.0000 0.0000
# 5 0.0000 0.0000 0.0000 0.0000 16.7719 0.0000
# 6 0.0000 0.0000 0.0000 0.0000 0.0000 21.1481
#
#
#
# Elastic Compliance Matrix: (Units=1/GPa)
#
#
# Indices 1 2 3 4 5 6 
#
# 1 0.008974 0.000018 -0.006398 0.000000 0.000000 0.000000
# 2 0.000018 0.018308 -0.005048 0.000000 0.000000 0.000000
# 3 -0.006398 -0.005048 0.015046 0.000000 0.000000 0.000000
# 4 0.000000 0.000000 0.000000 0.039378 0.000000 0.000000
# 5 0.000000 0.000000 0.000000 0.000000 0.059623 0.000000
# 6 0.000000 0.000000 0.000000 0.000000 0.000000 0.047286
#
#
# Mechanical properties :
#
#
# Convention : Reuss Voigt Hill
#
# Bulk Modulus (GPa) = 51.35479 66.65080 59.00280
# Shear Modulus (GPa) = 22.93984 26.66921 24.80453
#
# Velocity S-wave (km/s) = 3.38468 3.64945 3.51955
# Velocity P-wave (km/s) = 6.39696 7.14444 6.78101
#
# Compressibility (1/GPa) = 0.01947238
#
# Stress axis : x y z
#
# Youngs Moduli (GPa) = 111.43396 54.62079 66.46238
#
# Poissons Ratio (x) = -0.00097 0.42519
# Poissons Ratio (y) = -0.00199 0.33551
# Poissons Ratio (z) = 0.71290 0.27574
#
# Static dielectric constant tensor:
#      x y z
#    x 3.981300 0.000000 0.000000 
#    y 0.000000 3.296770 0.000000 
#    z 0.000000 0.000000 3.672380 
# 
# 
# High freq. dielectric constant tensor:
#      x y z
#    x 1.798460 0.000000 0.000000 
#    y 0.000000 1.748220 0.000000 
#    z 0.000000 0.000000 1.788560 
# 
# From -- ./inp_files/29271.got.cif
#   From: 2010.03.12/outbox.cif.g09.slc.cpg/sg62_15_cif.got.tgz:29271.got - 2010.04.10 19:12:36.
