data_PCOD8252132
_publ_section_title
;
Structure prediction by ZEFSAII (Michael W. Deem and Ramdas Pophale) SiO2 
 PCOD8252132
Probable space group: P N M A
;
_chemical_formula_sum "Si O2"
_cell_formula_units_Z 48
_cell_length_a 10.078297
_cell_length_b 8.703163
_cell_length_c 27.375466
_cell_angle_alpha 90.000000
_cell_angle_beta 90.000000
_cell_angle_gamma 90.000000
_cell_volume 2401.185934
_symmetry_space_group_name_H-M "P N M A"
_symmetry_group_IT_number 62
_symmetry_cell_setting 'orthorhombic'
loop_
_space_group_symop_operation_xyz
x,y,z
1/2-x,-y,1/2+z
1/2+x,1/2-y,1/2-z
-x,1/2+y,-z
-x,-y,-z
1/2+x,y,1/2-z
1/2-x,1/2+y,1/2+z
x,1/2-y,z
loop_
_atom_site_type_symbol
_atom_site_label
_atom_site_fract_x
_atom_site_fract_y
_atom_site_fract_z
Si Si1 0.889903 0.067332 0.965012
Si Si2 0.751609 0.432348 0.678237
Si Si3 0.107543 0.932210 0.536304
Si Si4 0.518189 0.568906 0.856393
Si Si5 0.030541 0.567876 0.141915
Si Si6 0.737020 0.432080 0.789769
O O1 0.886558 0.250000 0.968742
O O2 0.925855 0.008829 0.910944
O O3 0.748352 0.999770 0.980183
O O4 0.000000 0.000000 0.000000
O O5 0.766298 0.250000 0.674245
O O6 0.868432 0.510357 0.647957
O O7 0.615496 0.493658 0.654390
O O8 0.752922 0.487041 0.734295
O O9 0.109473 0.750000 0.531530
O O10 0.075450 0.985998 0.591475
O O11 0.000000 0.000000 0.500000
O O12 0.521030 0.750000 0.852180
O O13 0.602958 0.498948 0.812380
O O14 0.030274 0.750000 0.144480
O O15 0.135816 0.503436 0.181095
O O16 0.725397 0.250000 0.793017
#
# Coordination Sequence:
#
# PCOD8252132 Si02
#       6
#     8   8   8   8   8   8
#     4  11  23  41  64  91 124 161 202 251 305 366
#     4  10  21  37  62  92 121 159 206 249 290 352
#     4  11  25  44  65  91 122 162 206 254 311 372
#     4  11  24  40  59  90 128 161 197 247 310 366
#     4   9  19  36  59  89 119 154 198 246 298 347
#     4  10  19  38  65  89 118 159 207 251 294 353
#
# _framework density 19.990123000000001
#
# number of rings (size 3 to 8) (size 9 to 14) (size 15 to 20)
#    0.000    1.667    1.667    2.500    2.333    5.333 
#    0.000    1.667    0.000    0.000    0.000    0.000 
#    0.000    0.000    0.000    0.000    0.000    0.000 
#
# Total GULP energy -595433.010344 kJ/mol
# GULP energy per Si atom -12404.854382 kJ/mol
# Density = 1.994462 g / cm^3
# Si number density = 19.990123 Si / 1000 Ang^3
#
#
#
# Elastic Constant Matrix: (Units=GPa)
#
#
# Indices 1 2 3 4 5 6 
#
# 1 177.1435 32.3560 61.0919 0.0000 0.0000 0.0000
# 2 32.3560 51.1369 37.7562 0.0000 0.0000 0.0000
# 3 61.0919 37.7562 105.4653 0.0000 0.0000 0.0000
# 4 0.0000 0.0000 0.0000 25.4251 0.0000 0.0000
# 5 0.0000 0.0000 0.0000 0.0000 46.3214 0.0000
# 6 0.0000 0.0000 0.0000 0.0000 0.0000 30.8868
#
#
#
# Elastic Compliance Matrix: (Units=1/GPa)
#
#
# Indices 1 2 3 4 5 6 
#
# 1 0.007203 -0.002008 -0.003454 0.000000 0.000000 0.000000
# 2 -0.002008 0.027141 -0.008553 0.000000 0.000000 0.000000
# 3 -0.003454 -0.008553 0.014544 0.000000 0.000000 0.000000
# 4 0.000000 0.000000 0.000000 0.039331 0.000000 0.000000
# 5 0.000000 0.000000 0.000000 0.000000 0.021588 0.000000
# 6 0.000000 0.000000 0.000000 0.000000 0.000000 0.032376
#
#
# Mechanical properties :
#
#
# Convention : Reuss Voigt Hill
#
# Bulk Modulus (GPa) = 47.94106 66.23934 57.09020
# Shear Modulus (GPa) = 28.22208 34.02945 31.12577
#
# Velocity S-wave (km/s) = 3.76147 4.13039 3.95024
# Velocity P-wave (km/s) = 6.54976 7.48029 7.03044
#
# Compressibility (1/GPa) = 0.02085895
#
# Stress axis : x y z
#
# Youngs Moduli (GPa) = 138.83296 36.84478 68.75471
#
# Poissons Ratio (x) = 0.07397 0.23746
# Poissons Ratio (y) = 0.27871 0.58809
# Poissons Ratio (z) = 0.47948 0.31515
#
# Static dielectric constant tensor:
#      x y z
#    x 3.821860 0.000000 0.000000 
#    y 0.000000 3.408580 0.000000 
#    z 0.000000 0.000000 3.846960 
# 
# 
# High freq. dielectric constant tensor:
#      x y z
#    x 1.800120 0.000000 0.000000 
#    y 0.000000 1.760490 0.000000 
#    z 0.000000 0.000000 1.790390 
# 
# From -- ./inp_files/31982.got.cif
#   From: 2010.03.12/outbox.cif.g09.slc.cpg/sg62_16_cif.got.tgz:31982.got - 2010.04.10 19:12:36.
