data_PCOD8252301
_publ_section_title
;
Structure prediction by ZEFSAII (Michael W. Deem and Ramdas Pophale) SiO2 
 PCOD8252301
Probable space group: P N M A
;
_chemical_formula_sum "Si O2"
_cell_formula_units_Z 64
_cell_length_a 15.156061
_cell_length_b 9.312709
_cell_length_c 24.394588
_cell_angle_alpha 90.000000
_cell_angle_beta 90.000000
_cell_angle_gamma 90.000000
_cell_volume 3443.149379
_symmetry_space_group_name_H-M "P N M A"
_symmetry_group_IT_number 62
_symmetry_cell_setting 'orthorhombic'
loop_
_space_group_symop_operation_xyz
x,y,z
1/2-x,-y,1/2+z
1/2+x,1/2-y,1/2-z
-x,1/2+y,-z
-x,-y,-z
1/2+x,y,1/2-z
1/2-x,1/2+y,1/2+z
x,1/2-y,z
loop_
_atom_site_type_symbol
_atom_site_label
_atom_site_fract_x
_atom_site_fract_y
_atom_site_fract_z
Si Si1 0.004457 0.582856 0.340613
Si Si2 0.679093 0.417471 0.439133
Si Si3 0.834927 0.414122 0.356262
Si Si4 0.005195 0.918427 0.886018
Si Si5 0.790121 0.913148 0.761935
Si Si6 0.822242 0.915851 0.639043
Si Si7 0.459860 0.417150 0.715986
Si Si8 0.178936 0.918294 0.949680
O O1 0.008273 0.750000 0.354602
O O2 0.090190 0.510165 0.367080
O O3 0.999592 0.553304 0.275721
O O4 0.917887 0.515539 0.368262
O O5 0.676062 0.250000 0.452639
O O6 0.756599 0.456382 0.397215
O O7 0.586223 0.467312 0.413643
O O8 0.698559 0.500824 0.494533
O O9 0.864735 0.250000 0.365005
O O10 0.801297 0.438525 0.293937
O O11 0.007404 0.750000 0.872652
O O12 0.083467 0.963099 0.926763
O O13 0.019487 0.002958 0.829086
O O14 0.823738 0.750000 0.772594
O O15 0.775178 0.941965 0.697679
O O16 0.861545 0.020439 0.786922
O O17 0.849080 0.750000 0.632199
O O18 0.753349 0.966024 0.593443
O O19 0.455914 0.250000 0.702104
O O20 0.183053 0.750000 0.961090
#
# Coordination Sequence:
#
# PCOD8252301 Si02
#       8
#     8   8   8   8   8   8   8   8
#     4  10  22  37  54  82 117 150 184 229 285 337
#     4  10  21  38  57  82 115 148 187 229 277 334
#     4  10  20  35  58  85 110 147 191 229 276 333
#     4  10  20  36  57  82 114 150 189 230 269 331
#     4   9  17  33  56  80 109 145 182 226 278 327
#     4   9  19  37  58  82 110 144 189 234 277 332
#     4  10  20  33  51  81 117 149 181 221 277 335
#     4  10  22  37  58  85 110 145 192 235 279 330
#
# _framework density 18.587633
#
# number of rings (size 3 to 8) (size 9 to 14) (size 15 to 20)
#    0.000    2.250    1.250    1.125    1.750    4.000 
#    0.000    0.625    0.000    0.000    0.000    0.000 
#    0.000    0.000    0.000    0.000    0.000    0.000 
#
# Total GULP energy -793788.126937 kJ/mol
# GULP energy per Si atom -12402.939483 kJ/mol
# Density = 1.854533 g / cm^3
# Si number density = 18.587633 Si / 1000 Ang^3
#
#
#
# Elastic Constant Matrix: (Units=GPa)
#
#
# Indices 1 2 3 4 5 6 
#
# 1 136.6031 59.1802 64.0607 0.0000 0.0000 0.0000
# 2 59.1802 71.9670 48.1714 0.0000 0.0000 0.0000
# 3 64.0607 48.1714 94.7814 0.0000 0.0000 0.0000
# 4 0.0000 0.0000 0.0000 34.4720 0.0000 0.0000
# 5 0.0000 0.0000 0.0000 0.0000 20.8749 0.0000
# 6 0.0000 0.0000 0.0000 0.0000 0.0000 15.2332
#
#
#
# Elastic Compliance Matrix: (Units=1/GPa)
#
#
# Indices 1 2 3 4 5 6 
#
# 1 0.012758 -0.007153 -0.004988 0.000000 0.000000 0.000000
# 2 -0.007153 0.025070 -0.007907 0.000000 0.000000 0.000000
# 3 -0.004988 -0.007907 0.017940 0.000000 0.000000 0.000000
# 4 0.000000 0.000000 0.000000 0.029009 0.000000 0.000000
# 5 0.000000 0.000000 0.000000 0.000000 0.047904 0.000000
# 6 0.000000 0.000000 0.000000 0.000000 0.000000 0.065646
#
#
# Mechanical properties :
#
#
# Convention : Reuss Voigt Hill
#
# Bulk Modulus (GPa) = 63.80259 71.79732 67.79996
# Shear Modulus (GPa) = 20.52145 22.91196 21.71671
#
# Velocity S-wave (km/s) = 3.32631 3.51471 3.42181
# Velocity P-wave (km/s) = 7.01087 7.42840 7.22265
#
# Compressibility (1/GPa) = 0.01567334
#
# Stress axis : x y z
#
# Youngs Moduli (GPa) = 78.38018 39.88864 55.74072
#
# Poissons Ratio (x) = 0.28532 0.27802
# Poissons Ratio (y) = 0.56065 0.44073
# Poissons Ratio (z) = 0.39094 0.31539
#
# Static dielectric constant tensor:
#      x y z
#    x 3.308760 0.000000 0.000000 
#    y 0.000000 3.338900 0.000000 
#    z 0.000000 0.000000 3.361330 
# 
# 
# High freq. dielectric constant tensor:
#      x y z
#    x 1.717500 0.000000 0.000000 
#    y 0.000000 1.716670 0.000000 
#    z 0.000000 0.000000 1.715270 
# 
# From -- ./inp_files/29751.got.cif
#   From: 2010.03.12/outbox.cif.g09.slc.cpg/sg62_15_cif.got.tgz:29751.got - 2010.04.10 19:12:36.
