data_PCOD8252284
_publ_section_title
;
Structure prediction by ZEFSAII (Michael W. Deem and Ramdas Pophale) SiO2 
 PCOD8252284
Probable space group: P N M A
;
_chemical_formula_sum "Si O2"
_cell_formula_units_Z 48
_cell_length_a 15.484663
_cell_length_b 9.055281
_cell_length_c 18.903627
_cell_angle_alpha 90.000000
_cell_angle_beta 90.000000
_cell_angle_gamma 90.000000
_cell_volume 2650.628292
_symmetry_space_group_name_H-M "P N M A"
_symmetry_group_IT_number 62
_symmetry_cell_setting 'orthorhombic'
loop_
_space_group_symop_operation_xyz
x,y,z
1/2-x,-y,1/2+z
1/2+x,1/2-y,1/2-z
-x,1/2+y,-z
-x,-y,-z
1/2+x,y,1/2-z
1/2-x,1/2+y,1/2+z
x,1/2-y,z
loop_
_atom_site_type_symbol
_atom_site_label
_atom_site_fract_x
_atom_site_fract_y
_atom_site_fract_z
Si Si1 0.067276 0.080444 0.048850
Si Si2 0.576305 0.420234 0.960195
Si Si3 0.422630 0.575793 0.710475
Si Si4 0.432619 0.583769 0.207026
Si Si5 0.242347 0.578789 0.197868
Si Si6 0.757579 0.079348 0.448967
O O1 0.041421 0.250000 0.048460
O O2 0.061828 0.023080 0.129703
O O3 0.163266 0.056340 0.015711
O O4 0.000000 0.000000 0.000000
O O5 0.575047 0.250000 0.980861
O O6 0.567326 0.446147 0.876696
O O7 0.667343 0.487314 0.988071
O O8 0.500000 0.500000 0.000000
O O9 0.405564 0.750000 0.715995
O O10 0.506123 0.534313 0.755993
O O11 0.338982 0.486941 0.742016
O O12 0.465563 0.750000 0.222518
O O13 0.334786 0.565094 0.237698
O O14 0.226292 0.750000 0.177103
O O15 0.247866 0.474643 0.130497
O O16 0.784755 0.250000 0.449199
#
# Coordination Sequence:
#
# PCOD8252284 Si02
#       6
#     8   8   8   8   8   8
#     4   9  19  33  50  74 100 128 164 204 245 292
#     4  10  20  34  53  77 102 131 168 207 250 300
#     4  10  20  33  51  76 102 129 165 207 250 296
#     4   9  19  34  52  75 100 129 166 204 245 296
#     4   9  17  31  51  73  98 131 169 205 244 296
#     4   9  17  31  50  73 100 130 167 207 246 294
#
# _framework density 18.108915
#
# number of rings (size 3 to 8) (size 9 to 14) (size 15 to 20)
#    0.000    2.667    0.000    4.000    0.000    8.000 
#    0.000    1.667    0.000    2.000    0.000    0.000 
#    0.000    0.000    0.000    0.000    0.000    0.000 
#
# Total GULP energy -594876.735774 kJ/mol
# GULP energy per Si atom -12393.265329 kJ/mol
# Density = 1.806770 g / cm^3
# Si number density = 18.108915 Si / 1000 Ang^3
#
#
#
# Elastic Constant Matrix: (Units=GPa)
#
#
# Indices 1 2 3 4 5 6 
#
# 1 148.8064 75.6681 38.7310 0.0000 0.0000 0.0000
# 2 75.6681 108.5053 31.5689 0.0000 0.0000 0.0000
# 3 38.7310 31.5689 32.9887 0.0000 0.0000 0.0000
# 4 0.0000 0.0000 0.0000 26.8306 0.0000 0.0000
# 5 0.0000 0.0000 0.0000 0.0000 27.5874 0.0000
# 6 0.0000 0.0000 0.0000 0.0000 0.0000 41.1476
#
#
#
# Elastic Compliance Matrix: (Units=1/GPa)
#
#
# Indices 1 2 3 4 5 6 
#
# 1 0.011862 -0.005849 -0.008330 0.000000 0.000000 0.000000
# 2 -0.005849 0.015656 -0.008115 0.000000 0.000000 0.000000
# 3 -0.008330 -0.008115 0.047860 0.000000 0.000000 0.000000
# 4 0.000000 0.000000 0.000000 0.037271 0.000000 0.000000
# 5 0.000000 0.000000 0.000000 0.000000 0.036248 0.000000
# 6 0.000000 0.000000 0.000000 0.000000 0.000000 0.024303
#
#
# Mechanical properties :
#
#
# Convention : Reuss Voigt Hill
#
# Bulk Modulus (GPa) = 32.47858 64.69293 48.58576
# Shear Modulus (GPa) = 21.92482 28.73528 25.33005
#
# Velocity S-wave (km/s) = 3.48331 3.98779 3.74406
# Velocity P-wave (km/s) = 5.84398 7.55018 6.75119
#
# Compressibility (1/GPa) = 0.03078952
#
# Stress axis : x y z
#
# Youngs Moduli (GPa) = 84.29942 63.87309 20.89443
#
# Poissons Ratio (x) = 0.37359 0.17406
# Poissons Ratio (y) = 0.49306 0.16956
# Poissons Ratio (z) = 0.70223 0.51834
#
# Static dielectric constant tensor:
#      x y z
#    x 3.974780 0.000000 0.000000 
#    y 0.000000 3.551400 0.000000 
#    z 0.000000 0.000000 2.918260 
# 
# 
# High freq. dielectric constant tensor:
#      x y z
#    x 1.723790 0.000000 0.000000 
#    y 0.000000 1.715300 0.000000 
#    z 0.000000 0.000000 1.645870 
# 
# From -- ./inp_files/26883.got.cif
#   From: 2010.03.12/outbox.cif.g09.slc.cpg/sg62_14_cif.got.tgz:26883.got - 2010.04.10 19:12:36.
