data_PCOD8252267
_publ_section_title
;
Structure prediction by ZEFSAII (Michael W. Deem and Ramdas Pophale) SiO2 
 PCOD8252267
Probable space group: P N M A
;
_chemical_formula_sum "Si O2"
_cell_formula_units_Z 64
_cell_length_a 20.253516
_cell_length_b 8.919858
_cell_length_c 19.773118
_cell_angle_alpha 90.000000
_cell_angle_beta 90.000000
_cell_angle_gamma 90.000000
_cell_volume 3572.181576
_symmetry_space_group_name_H-M "P N M A"
_symmetry_group_IT_number 62
_symmetry_cell_setting 'orthorhombic'
loop_
_space_group_symop_operation_xyz
x,y,z
1/2-x,-y,1/2+z
1/2+x,1/2-y,1/2-z
-x,1/2+y,-z
-x,-y,-z
1/2+x,y,1/2-z
1/2-x,1/2+y,1/2+z
x,1/2-y,z
loop_
_atom_site_type_symbol
_atom_site_label
_atom_site_fract_x
_atom_site_fract_y
_atom_site_fract_z
Si Si1 0.182106 0.573579 0.924000
Si Si2 0.680868 0.573868 0.420542
Si Si3 0.565895 0.925681 0.825556
Si Si4 0.183672 0.925259 0.577746
Si Si5 0.316797 0.424158 0.923065
Si Si6 0.922788 0.928402 0.822202
Si Si7 0.429535 0.074497 0.326951
Si Si8 0.071511 0.927177 0.319206
O O1 0.186515 0.750000 0.914477
O O2 0.251208 0.507926 0.898355
O O3 0.123352 0.501940 0.878525
O O4 0.168503 0.530059 0.001562
O O5 0.675160 0.750000 0.407409
O O6 0.752869 0.518025 0.397607
O O7 0.626080 0.487684 0.378590
O O8 0.549721 0.750000 0.832144
O O9 0.622202 0.977645 0.877144
O O10 0.590454 0.964847 0.749938
O O11 0.499927 0.016167 0.842976
O O12 0.198827 0.750000 0.587832
O O13 0.166035 0.964595 0.500491
O O14 0.302501 0.250000 0.914533
O O15 0.377823 0.476237 0.877541
O O16 0.918918 0.750000 0.817160
O O17 0.996504 0.984359 0.841928
O O18 0.903866 0.995627 0.749563
O O19 0.428733 0.250000 0.339202
O O20 0.069607 0.750000 0.308505
#
# Coordination Sequence:
#
# PCOD8252267 Si02
#       8
#     8   8   8   8   8   8   8   8
#     4   9  18  33  52  73 100 133 167 206 249 296
#     4  10  20  33  50  75 104 131 164 208 254 298
#     4   9  18  33  53  75  99 130 169 209 246 295
#     4   9  18  34  53  73 101 137 173 205 243 296
#     4   9  19  34  50  72 103 135 167 206 250 296
#     4  10  20  35  54  73  97 132 170 208 251 304
#     4   8  16  32  51  72  97 125 163 206 244 287
#     4  10  20  34  51  73 103 134 165 209 259 301
#
# _framework density 17.916222999999999
#
# number of rings (size 3 to 8) (size 9 to 14) (size 15 to 20)
#    0.000    2.750    0.000    1.875    0.000    4.000 
#    0.000    4.375    0.000    0.000    0.000    0.000 
#    0.000    0.000    0.000    0.000    0.000    0.000 
#
# Total GULP energy -793620.767255 kJ/mol
# GULP energy per Si atom -12400.324488 kJ/mol
# Density = 1.787545 g / cm^3
# Si number density = 17.916223 Si / 1000 Ang^3
#
#
#
# Elastic Constant Matrix: (Units=GPa)
#
#
# Indices 1 2 3 4 5 6 
#
# 1 143.2613 48.4618 96.1173 0.0000 0.0000 0.0000
# 2 48.4618 52.2788 40.0498 0.0000 0.0000 0.0000
# 3 96.1173 40.0498 106.5660 0.0000 0.0000 0.0000
# 4 0.0000 0.0000 0.0000 21.9313 0.0000 0.0000
# 5 0.0000 0.0000 0.0000 0.0000 40.1956 0.0000
# 6 0.0000 0.0000 0.0000 0.0000 0.0000 30.8611
#
#
#
# Elastic Compliance Matrix: (Units=1/GPa)
#
#
# Indices 1 2 3 4 5 6 
#
# 1 0.019055 -0.006316 -0.014813 0.000000 0.000000 0.000000
# 2 -0.006316 0.028955 -0.005185 0.000000 0.000000 0.000000
# 3 -0.014813 -0.005185 0.024694 0.000000 0.000000 0.000000
# 4 0.000000 0.000000 0.000000 0.045597 0.000000 0.000000
# 5 0.000000 0.000000 0.000000 0.000000 0.024878 0.000000
# 6 0.000000 0.000000 0.000000 0.000000 0.000000 0.032403
#
#
# Mechanical properties :
#
#
# Convention : Reuss Voigt Hill
#
# Bulk Modulus (GPa) = 49.81322 74.59597 62.20459
# Shear Modulus (GPa) = 21.28527 26.42941 23.85734
#
# Velocity S-wave (km/s) = 3.45054 3.84496 3.65308
# Velocity P-wave (km/s) = 6.61353 7.83824 7.25178
#
# Compressibility (1/GPa) = 0.02007499
#
# Stress axis : x y z
#
# Youngs Moduli (GPa) = 52.47847 34.53584 40.49626
#
# Poissons Ratio (x) = 0.21812 0.59989
# Poissons Ratio (y) = 0.33145 0.20999
# Poissons Ratio (z) = 0.77739 0.17908
#
# Static dielectric constant tensor:
#      x y z
#    x 3.483160 0.000000 0.000000 
#    y 0.000000 3.189680 0.000000 
#    z 0.000000 0.000000 3.441310 
# 
# 
# High freq. dielectric constant tensor:
#      x y z
#    x 1.699170 0.000000 0.000000 
#    y 0.000000 1.683340 0.000000 
#    z 0.000000 0.000000 1.694420 
# 
# From -- ./inp_files/24694.got.cif
#   From: 2010.03.12/outbox.cif.g09.slc.cpg/sg62_13_cif.got.tgz:24694.got - 2010.04.10 19:12:36.
