data_PCOD8252667
_publ_section_title
;
Structure prediction by ZEFSAII (Michael W. Deem and Ramdas Pophale) SiO2 
 PCOD8252667
Probable space group: P N M A
;
_chemical_formula_sum "Si O2"
_cell_formula_units_Z 40
_cell_length_a 13.552238
_cell_length_b 8.763653
_cell_length_c 18.032614
_cell_angle_alpha 90.000000
_cell_angle_beta 90.000000
_cell_angle_gamma 90.000000
_cell_volume 2141.681472
_symmetry_space_group_name_H-M "P N M A"
_symmetry_group_IT_number 62
_symmetry_cell_setting 'orthorhombic'
loop_
_space_group_symop_operation_xyz
x,y,z
1/2-x,-y,1/2+z
1/2+x,1/2-y,1/2-z
-x,1/2+y,-z
-x,-y,-z
1/2+x,y,1/2-z
1/2-x,1/2+y,1/2+z
x,1/2-y,z
loop_
_atom_site_type_symbol
_atom_site_label
_atom_site_fract_x
_atom_site_fract_y
_atom_site_fract_z
Si Si1 0.624737 0.570781 0.134114
Si Si2 0.176999 0.572171 0.821322
Si Si3 0.902855 0.569027 0.035016
Si Si4 0.196709 0.929187 0.524039
Si Si5 0.919615 0.428860 0.335223
O O1 0.639421 0.750000 0.145584
O O2 0.710997 0.485524 0.178189
O O3 0.522103 0.517399 0.167668
O O4 0.630239 0.526932 0.047057
O O5 0.173433 0.750000 0.840252
O O6 0.136382 0.536340 0.740255
O O7 0.108721 0.484513 0.880290
O O8 0.909783 0.750000 0.033890
O O9 0.808143 0.509004 0.988040
O O10 0.000000 0.500000 0.000000
O O11 0.203637 0.750000 0.533837
O O12 0.146716 0.997953 0.597740
O O13 0.940610 0.250000 0.346624
#
# Coordination Sequence:
#
# PCOD8252667 Si02
#       5
#     8   8   8   8   8
#     4  10  20  35  55  78 107 139 172 221 277 323
#     4  10  21  36  54  78 108 143 181 220 265 320
#     4  10  20  36  57  80 109 144 182 224 269 318
#     4   8  17  34  54  77 104 136 176 219 263 316
#     4  10  20  35  56  79 104 138 179 220 264 319
#
# _framework density 18.676914
#
# number of rings (size 3 to 8) (size 9 to 14) (size 15 to 20)
#    0.000    2.400    0.000    3.600    0.000    3.200 
#    0.000    9.000    0.000    0.000    0.000    0.000 
#    0.000    0.000    0.000    0.000    0.000    0.000 
#
# Total GULP energy -496025.327634 kJ/mol
# GULP energy per Si atom -12400.633191 kJ/mol
# Density = 1.863440 g / cm^3
# Si number density = 18.676914 Si / 1000 Ang^3
#
#
#
# Elastic Constant Matrix: (Units=GPa)
#
#
# Indices 1 2 3 4 5 6 
#
# 1 123.1462 39.4807 68.9140 0.0000 0.0000 0.0000
# 2 39.4807 61.9297 42.5833 0.0000 0.0000 0.0000
# 3 68.9140 42.5833 111.7270 0.0000 0.0000 0.0000
# 4 0.0000 0.0000 0.0000 27.3526 0.0000 0.0000
# 5 0.0000 0.0000 0.0000 0.0000 28.3016 0.0000
# 6 0.0000 0.0000 0.0000 0.0000 0.0000 33.0365
#
#
#
# Elastic Compliance Matrix: (Units=1/GPa)
#
#
# Indices 1 2 3 4 5 6 
#
# 1 0.013018 -0.003764 -0.006595 0.000000 0.000000 0.000000
# 2 -0.003764 0.022971 -0.006433 0.000000 0.000000 0.000000
# 3 -0.006595 -0.006433 0.015470 0.000000 0.000000 0.000000
# 4 0.000000 0.000000 0.000000 0.036560 0.000000 0.000000
# 5 0.000000 0.000000 0.000000 0.000000 0.035334 0.000000
# 6 0.000000 0.000000 0.000000 0.000000 0.000000 0.030270
#
#
# Mechanical properties :
#
#
# Convention : Reuss Voigt Hill
#
# Bulk Modulus (GPa) = 55.94717 66.52876 61.23797
# Shear Modulus (GPa) = 25.88483 27.45980 26.67232
#
# Velocity S-wave (km/s) = 3.72684 3.83855 3.78311
# Velocity P-wave (km/s) = 6.96702 7.43936 7.20706
#
# Compressibility (1/GPa) = 0.01787401
#
# Stress axis : x y z
#
# Youngs Moduli (GPa) = 76.81817 43.53401 64.64150
#
# Poissons Ratio (x) = 0.16388 0.42629
# Poissons Ratio (y) = 0.28917 0.41584
# Poissons Ratio (z) = 0.50659 0.28006
#
# Static dielectric constant tensor:
#      x y z
#    x 3.585160 0.000000 0.000000 
#    y 0.000000 3.341590 0.000000 
#    z 0.000000 0.000000 3.537810 
# 
# 
# High freq. dielectric constant tensor:
#      x y z
#    x 1.733340 0.000000 0.000000 
#    y 0.000000 1.716180 0.000000 
#    z 0.000000 0.000000 1.725600 
# 
# From -- ./inp_files/18638.got.cif
#   From: 2010.03.12/outbox.cif.g09.slc.cpg/sg62_10_cif.got.tgz:18638.got - 2010.04.10 19:12:36.
