data_PCOD8252113
_publ_section_title
;
Structure prediction by ZEFSAII (Michael W. Deem and Ramdas Pophale) SiO2 
 PCOD8252113
Probable space group: P N M A
;
_chemical_formula_sum "Si O2"
_cell_formula_units_Z 56
_cell_length_a 14.418555
_cell_length_b 18.706665
_cell_length_c 9.642237
_cell_angle_alpha 90.000000
_cell_angle_beta 90.000000
_cell_angle_gamma 90.000000
_cell_volume 2600.733844
_symmetry_space_group_name_H-M "P N M A"
_symmetry_group_IT_number 62
_symmetry_cell_setting 'orthorhombic'
loop_
_space_group_symop_operation_xyz
x,y,z
1/2-x,-y,1/2+z
1/2+x,1/2-y,1/2-z
-x,1/2+y,-z
-x,-y,-z
1/2+x,y,1/2-z
1/2-x,1/2+y,1/2+z
x,1/2-y,z
loop_
_atom_site_type_symbol
_atom_site_label
_atom_site_fract_x
_atom_site_fract_y
_atom_site_fract_z
Si Si1 0.240011 0.831070 0.340481
Si Si2 0.039017 0.668411 0.751282
Si Si3 0.033977 0.831530 0.441494
Si Si4 0.203922 0.959892 0.152942
Si Si5 0.663401 0.954568 0.665704
Si Si6 0.000107 0.434967 0.791579
Si Si7 0.924079 0.830871 0.005318
O O1 0.254561 0.750000 0.286356
O O2 0.143842 0.838824 0.420257
O O3 0.244526 0.884165 0.209011
O O4 0.319826 0.853336 0.451349
O O5 0.073636 0.750000 0.750043
O O6 0.010897 0.644307 0.597289
O O7 0.127407 0.625505 0.810117
O O8 0.945017 0.659043 0.842205
O O9 0.001273 0.750000 0.410977
O O10 0.979244 0.887727 0.345519
O O11 0.099884 0.971717 0.208508
O O12 0.261522 0.025305 0.217635
O O13 0.208701 0.962735 0.986389
O O14 0.575191 0.004875 0.686979
O O15 0.000246 0.379915 0.919288
O O16 0.943810 0.750000 0.051715
#
# Coordination Sequence:
#
# PCOD8252113 Si02
#       7
#     8   8   8   8   8   8   8
#     4   9  19  38  67  95 125 170 223 268 317 392
#     4  10  23  42  65  94 131 172 214 268 331 389
#     4   9  20  40  64  96 135 174 218 266 319 382
#     4  11  25  42  65  96 131 172 219 273 333 396
#     4  12  26  44  65  97 135 171 220 274 330 399
#     4  11  22  41  68  95 129 175 218 266 331 394
#     4  10  19  37  67  97 129 173 219 267 326 394
#
# _framework density 21.532385000000001
#
# number of rings (size 3 to 8) (size 9 to 14) (size 15 to 20)
#    0.000    1.714    2.857    0.857    4.000    1.714 
#    0.000    0.000    0.000    0.857    0.000    0.000 
#    0.000    0.000    0.000    0.000    0.000    0.000 
#
# Total GULP energy -694401.788901 kJ/mol
# GULP energy per Si atom -12400.031945 kJ/mol
# Density = 2.148338 g / cm^3
# Si number density = 21.532385 Si / 1000 Ang^3
#
#
#
# Elastic Constant Matrix: (Units=GPa)
#
#
# Indices 1 2 3 4 5 6 
#
# 1 47.8628 36.3269 19.8845 0.0000 0.0000 0.0000
# 2 36.3269 86.8224 52.3836 0.0000 0.0000 0.0000
# 3 19.8845 52.3836 147.8509 0.0000 0.0000 0.0000
# 4 0.0000 0.0000 0.0000 27.8903 0.0000 0.0000
# 5 0.0000 0.0000 0.0000 0.0000 33.3970 0.0000
# 6 0.0000 0.0000 0.0000 0.0000 0.0000 19.6671
#
#
#
# Elastic Compliance Matrix: (Units=1/GPa)
#
#
# Indices 1 2 3 4 5 6 
#
# 1 0.030649 -0.013147 0.000536 0.000000 0.000000 0.000000
# 2 -0.013147 0.020289 -0.005420 0.000000 0.000000 0.000000
# 3 0.000536 -0.005420 0.008612 0.000000 0.000000 0.000000
# 4 0.000000 0.000000 0.000000 0.035855 0.000000 0.000000
# 5 0.000000 0.000000 0.000000 0.000000 0.029943 0.000000
# 6 0.000000 0.000000 0.000000 0.000000 0.000000 0.050846
#
#
# Mechanical properties :
#
#
# Convention : Reuss Voigt Hill
#
# Bulk Modulus (GPa) = 42.57669 55.52513 49.05091
# Shear Modulus (GPa) = 22.71857 27.78694 25.25275
#
# Velocity S-wave (km/s) = 3.25174 3.59621 3.42830
# Velocity P-wave (km/s) = 5.82363 6.56403 6.20488
#
# Compressibility (1/GPa) = 0.02348703
#
# Stress axis : x y z
#
# Youngs Moduli (GPa) = 32.62793 49.28854 116.11912
#
# Poissons Ratio (x) = 0.64799 -0.06224
# Poissons Ratio (y) = 0.42896 0.62938
# Poissons Ratio (z) = -0.01749 0.26715
#
# Static dielectric constant tensor:
#      x y z
#    x 3.791540 0.000000 0.000000 
#    y 0.000000 4.144660 0.000000 
#    z 0.000000 0.000000 3.968110 
# 
# 
# High freq. dielectric constant tensor:
#      x y z
#    x 1.832500 0.000000 0.000000 
#    y 0.000000 1.855810 0.000000 
#    z 0.000000 0.000000 1.843560 
# 
# From -- ./inp_files/6755.got.cif
#   From: 2010.03.12/outbox.cif.g09.slc.cpg/sg62_4_cif.got.tgz:6755.got - 2010.04.10 19:12:36.
