data_PCOD8252787
_publ_section_title
;
Structure prediction by ZEFSAII (Michael W. Deem and Ramdas Pophale) SiO2 
 PCOD8252787
Probable space group: P N M A
;
_chemical_formula_sum "Si O2"
_cell_formula_units_Z 48
_cell_length_a 36.864105
_cell_length_b 9.138975
_cell_length_c 7.519041
_cell_angle_alpha 90.000000
_cell_angle_beta 90.000000
_cell_angle_gamma 90.000000
_cell_volume 2533.165920
_symmetry_space_group_name_H-M "P N M A"
_symmetry_group_IT_number 62
_symmetry_cell_setting 'orthorhombic'
loop_
_space_group_symop_operation_xyz
x,y,z
1/2-x,-y,1/2+z
1/2+x,1/2-y,1/2-z
-x,1/2+y,-z
-x,-y,-z
1/2+x,y,1/2-z
1/2-x,1/2+y,1/2+z
x,1/2-y,z
loop_
_atom_site_type_symbol
_atom_site_label
_atom_site_fract_x
_atom_site_fract_y
_atom_site_fract_z
Si Si1 0.711908 0.581851 0.211386
Si Si2 0.084978 0.078190 0.028921
Si Si3 0.158700 0.579006 0.979771
Si Si4 0.784350 0.079515 0.311058
Si Si5 0.036230 0.081138 0.695672
Si Si6 0.953002 0.079004 0.656166
O O1 0.723355 0.750000 0.230353
O O2 0.676590 0.547596 0.328744
O O3 0.745599 0.491369 0.281572
O O4 0.701838 0.541972 0.009022
O O5 0.088121 0.250000 0.063560
O O6 0.122907 0.016516 0.960003
O O7 0.074475 0.999898 0.211485
O O8 0.055012 0.041194 0.880780
O O9 0.149331 0.750000 0.954951
O O10 0.185902 0.521031 0.827253
O O11 0.778716 0.250000 0.279792
O O12 0.042008 0.250000 0.643061
O O13 0.993860 0.044590 0.718171
O O14 0.053718 0.982529 0.541356
O O15 0.944114 0.250000 0.656219
#
# Coordination Sequence:
#
# PCOD8252787 Si02
#       6
#     8   8   8   8   8   8
#     4  10  20  35  57  82 108 138 178 227 277 331
#     4  11  23  38  57  83 119 155 191 239 288 341
#     4  10  22  38  53  79 115 149 188 233 281 338
#     4  10  20  35  57  81 106 138 179 227 276 329
#     4   9  20  38  59  86 118 152 194 239 285 338
#     4  10  20  36  61  88 115 152 194 238 287 341
#
# _framework density 18.948623000000001
#
# number of rings (size 3 to 8) (size 9 to 14) (size 15 to 20)
#    0.000    2.000    1.667    1.500    0.000    4.667 
#    0.000    1.667    0.000    0.000    0.000    0.000 
#    0.000    0.000    0.000    0.000    0.000    0.000 
#
# Total GULP energy -595415.358849 kJ/mol
# GULP energy per Si atom -12404.486643 kJ/mol
# Density = 1.890549 g / cm^3
# Si number density = 18.948623 Si / 1000 Ang^3
#
#
#
# Elastic Constant Matrix: (Units=GPa)
#
#
# Indices 1 2 3 4 5 6 
#
# 1 54.0609 24.2715 13.1614 0.0000 0.0000 0.0000
# 2 24.2715 63.5624 30.5140 0.0000 0.0000 0.0000
# 3 13.1614 30.5140 91.4557 0.0000 0.0000 0.0000
# 4 0.0000 0.0000 0.0000 29.1339 0.0000 0.0000
# 5 0.0000 0.0000 0.0000 0.0000 22.8146 0.0000
# 6 0.0000 0.0000 0.0000 0.0000 0.0000 34.9316
#
#
#
# Elastic Compliance Matrix: (Units=1/GPa)
#
#
# Indices 1 2 3 4 5 6 
#
# 1 0.022340 -0.008320 -0.000439 0.000000 0.000000 0.000000
# 2 -0.008320 0.021832 -0.006087 0.000000 0.000000 0.000000
# 3 -0.000439 -0.006087 0.013028 0.000000 0.000000 0.000000
# 4 0.000000 0.000000 0.000000 0.034324 0.000000 0.000000
# 5 0.000000 0.000000 0.000000 0.000000 0.043832 0.000000
# 6 0.000000 0.000000 0.000000 0.000000 0.000000 0.028627
#
#
# Mechanical properties :
#
#
# Convention : Reuss Voigt Hill
#
# Bulk Modulus (GPa) = 36.35237 38.33029 37.34133
# Shear Modulus (GPa) = 24.64954 26.78483 25.71718
#
# Velocity S-wave (km/s) = 3.61066 3.76380 3.68802
# Velocity P-wave (km/s) = 6.05052 6.25785 6.15506
#
# Compressibility (1/GPa) = 0.02750852
#
# Stress axis : x y z
#
# Youngs Moduli (GPa) = 44.76308 45.80534 76.75618
#
# Poissons Ratio (x) = 0.38109 0.03370
# Poissons Ratio (y) = 0.37242 0.46719
# Poissons Ratio (z) = 0.01965 0.27881
#
# Static dielectric constant tensor:
#      x y z
#    x 3.641740 0.000000 0.000000 
#    y 0.000000 3.465480 0.000000 
#    z 0.000000 0.000000 3.740640 
# 
# 
# High freq. dielectric constant tensor:
#      x y z
#    x 1.728350 0.000000 0.000000 
#    y 0.000000 1.735530 0.000000 
#    z 0.000000 0.000000 1.750360 
# 
# From -- ./inp_files/10274.got.cif
#   From: 2010.03.12/outbox.cif.g09.slc.cpg/sg62_6_cif.got.tgz:10274.got - 2010.04.10 19:12:36.
