data_PCOD8252364
_publ_section_title
;
Structure prediction by ZEFSAII (Michael W. Deem and Ramdas Pophale) SiO2 
 PCOD8252364
Probable space group: P N M A
;
_chemical_formula_sum "Si O2"
_cell_formula_units_Z 56
_cell_length_a 14.134903
_cell_length_b 9.000379
_cell_length_c 24.074453
_cell_angle_alpha 90.000000
_cell_angle_beta 90.000000
_cell_angle_gamma 90.000000
_cell_volume 3062.739491
_symmetry_space_group_name_H-M "P N M A"
_symmetry_group_IT_number 62
_symmetry_cell_setting 'orthorhombic'
loop_
_space_group_symop_operation_xyz
x,y,z
1/2-x,-y,1/2+z
1/2+x,1/2-y,1/2-z
-x,1/2+y,-z
-x,-y,-z
1/2+x,y,1/2-z
1/2-x,1/2+y,1/2+z
x,1/2-y,z
loop_
_atom_site_type_symbol
_atom_site_label
_atom_site_fract_x
_atom_site_fract_y
_atom_site_fract_z
Si Si1 0.700471 0.918912 0.559395
Si Si2 0.009487 0.078246 0.058232
Si Si3 0.398860 0.574852 0.252975
Si Si4 0.806889 0.073099 0.932878
Si Si5 0.741469 0.919087 0.161377
Si Si6 0.772545 0.073675 0.332781
Si Si7 0.885113 0.078248 0.761890
O O1 0.732298 0.750000 0.556448
O O2 0.594533 0.935964 0.585275
O O3 0.708778 0.982255 0.496465
O O4 0.770424 0.997494 0.602729
O O5 0.038825 0.250000 0.051521
O O6 0.092115 0.989918 0.090610
O O7 0.000000 0.000000 0.000000
O O8 0.388189 0.750000 0.240960
O O9 0.332608 0.524514 0.303936
O O10 0.365422 0.486156 0.198456
O O11 0.506041 0.530114 0.266974
O O12 0.807515 0.250000 0.928182
O O13 0.726621 0.000609 0.894107
O O14 0.756856 0.750000 0.145197
O O15 0.647340 0.943775 0.197954
O O16 0.776377 0.250000 0.337748
O O17 0.676896 0.025286 0.301339
O O18 0.869371 0.250000 0.779606
#
# Coordination Sequence:
#
# PCOD8252364 Si02
#       7
#     8   8   8   8   8   8   8
#     4   9  19  32  47  70 102 136 168 209 257 306
#     4   9  17  29  43  66  97 132 170 207 250 301
#     4   9  19  37  57  76 101 137 176 213 254 307
#     4  10  20  34  50  69  99 140 177 211 256 309
#     4   9  18  31  51  79 103 131 171 211 254 304
#     4  11  22  34  52  81 109 134 169 216 265 311
#     4   9  19  37  57  77 103 138 178 213 253 310
#
# _framework density 18.284284
#
# number of rings (size 3 to 8) (size 9 to 14) (size 15 to 20)
#    0.000    2.571    0.000    3.857    2.000    6.286 
#    0.000    0.000    0.000    0.857    0.000    0.000 
#    0.000    0.000    0.000    0.000    0.000    0.000 
#
# Total GULP energy -694102.363788 kJ/mol
# GULP energy per Si atom -12394.685068 kJ/mol
# Density = 1.824267 g / cm^3
# Si number density = 18.284284 Si / 1000 Ang^3
#
#
#
# Elastic Constant Matrix: (Units=GPa)
#
#
# Indices 1 2 3 4 5 6 
#
# 1 55.5437 9.9884 10.0805 0.0000 0.0000 0.0000
# 2 9.9884 73.8847 28.6799 0.0000 0.0000 0.0000
# 3 10.0805 28.6799 85.4177 0.0000 0.0000 0.0000
# 4 0.0000 0.0000 0.0000 32.1275 0.0000 0.0000
# 5 0.0000 0.0000 0.0000 0.0000 21.6776 0.0000
# 6 0.0000 0.0000 0.0000 0.0000 0.0000 23.7808
#
#
#
# Elastic Compliance Matrix: (Units=1/GPa)
#
#
# Indices 1 2 3 4 5 6 
#
# 1 0.018631 -0.001915 -0.001556 0.000000 0.000000 0.000000
# 2 -0.001915 0.015760 -0.005066 0.000000 0.000000 0.000000
# 3 -0.001556 -0.005066 0.013592 0.000000 0.000000 0.000000
# 4 0.000000 0.000000 0.000000 0.031126 0.000000 0.000000
# 5 0.000000 0.000000 0.000000 0.000000 0.046131 0.000000
# 6 0.000000 0.000000 0.000000 0.000000 0.000000 0.042051
#
#
# Mechanical properties :
#
#
# Convention : Reuss Voigt Hill
#
# Bulk Modulus (GPa) = 32.35225 34.70487 33.52856
# Shear Modulus (GPa) = 25.68522 26.59034 26.13778
#
# Velocity S-wave (km/s) = 3.75209 3.81763 3.78500
# Velocity P-wave (km/s) = 6.04180 6.20115 6.12200
#
# Compressibility (1/GPa) = 0.03090975
#
# Stress axis : x y z
#
# Youngs Moduli (GPa) = 53.67537 63.45283 73.57497
#
# Poissons Ratio (x) = 0.12150 0.11447
# Poissons Ratio (y) = 0.10277 0.37270
# Poissons Ratio (z) = 0.08351 0.32142
#
# Static dielectric constant tensor:
#      x y z
#    x 3.384000 0.000000 0.000000 
#    y 0.000000 3.352170 0.000000 
#    z 0.000000 0.000000 3.356860 
# 
# 
# High freq. dielectric constant tensor:
#      x y z
#    x 1.678090 0.000000 0.000000 
#    y 0.000000 1.707400 0.000000 
#    z 0.000000 0.000000 1.704830 
# 
# From -- ./inp_files/27134.got.cif
#   From: 2010.03.12/outbox.cif.g09.slc.cpg/sg62_14_cif.got.tgz:27134.got - 2010.04.10 19:12:36.
