data_PCOD8252103
_publ_section_title
;
Structure prediction by ZEFSAII (Michael W. Deem and Ramdas Pophale) SiO2 
 PCOD8252103
Probable space group: P N M A
;
_chemical_formula_sum "Si O2"
_cell_formula_units_Z 48
_cell_length_a 13.837642
_cell_length_b 17.897427
_cell_length_c 9.915900
_cell_angle_alpha 90.000000
_cell_angle_beta 90.000000
_cell_angle_gamma 90.000000
_cell_volume 2455.753822
_symmetry_space_group_name_H-M "P N M A"
_symmetry_group_IT_number 62
_symmetry_cell_setting 'orthorhombic'
loop_
_space_group_symop_operation_xyz
x,y,z
1/2-x,-y,1/2+z
1/2+x,1/2-y,1/2-z
-x,1/2+y,-z
-x,-y,-z
1/2+x,y,1/2-z
1/2-x,1/2+y,1/2+z
x,1/2-y,z
loop_
_atom_site_type_symbol
_atom_site_label
_atom_site_fract_x
_atom_site_fract_y
_atom_site_fract_z
Si Si1 0.027331 0.250000 0.228133
Si Si2 0.808987 0.099495 0.876518
Si Si3 0.493286 0.250000 0.955010
Si Si4 0.616731 0.626593 0.673143
Si Si5 0.626219 0.000821 0.882211
Si Si6 0.739370 0.250000 0.215364
Si Si7 0.293324 0.750000 0.101387
Si Si8 0.061585 0.907826 0.373866
O O1 0.013028 0.250000 0.387200
O O2 0.980815 0.324061 0.162381
O O3 0.141838 0.250000 0.196066
O O4 0.733176 0.032292 0.864537
O O5 0.757602 0.177186 0.836157
O O6 0.895851 0.081956 0.774960
O O7 0.852887 0.101536 0.025141
O O8 0.592419 0.250000 0.867735
O O9 0.430119 0.178069 0.917948
O O10 0.596985 0.553909 0.761266
O O11 0.699081 0.675793 0.748231
O O12 0.550563 0.068848 0.879658
O O13 0.623364 0.958737 0.024897
O O14 0.718463 0.250000 0.058031
#
# Coordination Sequence:
#
# PCOD8252103 Si02
#       8
#     4   8   4   8   8   4   4   8
#     4  10  19  37  64  89 114 151 207 247 287 357
#     4  11  22  40  60  88 124 154 197 253 304 348
#     4  11  18  39  65  85 114 155 209 246 279 352
#     4  10  21  38  62  87 120 151 198 250 295 355
#     4  11  23  40  60  91 119 161 205 235 298 370
#     4   8  19  34  63  87 106 156 193 241 299 342
#     4   9  18  36  62  85 110 154 199 244 293 345
#     4  11  24  38  65  87 118 164 200 246 297 356
#
# _framework density 19.545933000000002
#
# number of rings (size 3 to 8) (size 9 to 14) (size 15 to 20)
#    0.000    1.667    3.333    2.000    0.000    2.000 
#    0.000    1.667    3.667    0.000    0.000    0.000 
#    0.000    0.000    0.000    0.000    0.000    0.000 
#
# Total GULP energy -595374.780727 kJ/mol
# GULP energy per Si atom -12403.641265 kJ/mol
# Density = 1.950145 g / cm^3
# Si number density = 19.545933 Si / 1000 Ang^3
#
#
#
# Elastic Constant Matrix: (Units=GPa)
#
#
# Indices 1 2 3 4 5 6 
#
# 1 71.7274 13.1334 7.0791 0.0000 0.0000 0.0000
# 2 13.1334 99.4914 18.8960 0.0000 0.0000 0.0000
# 3 7.0791 18.8960 64.5246 0.0000 0.0000 0.0000
# 4 0.0000 0.0000 0.0000 16.9486 0.0000 0.0000
# 5 0.0000 0.0000 0.0000 0.0000 28.2003 0.0000
# 6 0.0000 0.0000 0.0000 0.0000 0.0000 8.8409
#
#
#
# Elastic Compliance Matrix: (Units=1/GPa)
#
#
# Indices 1 2 3 4 5 6 
#
# 1 0.014358 -0.001690 -0.001080 0.000000 0.000000 0.000000
# 2 -0.001690 0.010842 -0.002990 0.000000 0.000000 0.000000
# 3 -0.001080 -0.002990 0.016492 0.000000 0.000000 0.000000
# 4 0.000000 0.000000 0.000000 0.059002 0.000000 0.000000
# 5 0.000000 0.000000 0.000000 0.000000 0.035461 0.000000
# 6 0.000000 0.000000 0.000000 0.000000 0.000000 0.113111
#
#
# Mechanical properties :
#
#
# Convention : Reuss Voigt Hill
#
# Bulk Modulus (GPa) = 33.14363 34.88448 34.01405
# Shear Modulus (GPa) = 18.46091 23.90696 21.18394
#
# Velocity S-wave (km/s) = 3.07659 3.50110 3.29569
# Velocity P-wave (km/s) = 5.44189 5.85062 5.64995
#
# Compressibility (1/GPa) = 0.03017171
#
# Stress axis : x y z
#
# Youngs Moduli (GPa) = 69.64875 92.23358 60.63548
#
# Poissons Ratio (x) = 0.15589 0.06550
# Poissons Ratio (y) = 0.11772 0.18128
# Poissons Ratio (z) = 0.07524 0.27575
#
# Static dielectric constant tensor:
#      x y z
#    x 3.659670 0.000000 0.000000 
#    y 0.000000 3.656710 0.000000 
#    z 0.000000 0.000000 3.284380 
# 
# 
# High freq. dielectric constant tensor:
#      x y z
#    x 1.760090 0.000000 0.000000 
#    y 0.000000 1.773760 0.000000 
#    z 0.000000 0.000000 1.741660 
# 
# From -- ./inp_files/6536.got.cif
#   From: 2010.03.12/outbox.cif.g09.slc.cpg/sg62_4_cif.got.tgz:6536.got - 2010.04.10 19:12:36.
