data_PCOD8252766
_publ_section_title
;
Structure prediction by ZEFSAII (Michael W. Deem and Ramdas Pophale) SiO2 
 PCOD8252766
Probable space group: P N M A
;
_chemical_formula_sum "Si O2"
_cell_formula_units_Z 64
_cell_length_a 10.201671
_cell_length_b 13.361540
_cell_length_c 23.660976
_cell_angle_alpha 90.000000
_cell_angle_beta 90.000000
_cell_angle_gamma 90.000000
_cell_volume 3225.228470
_symmetry_space_group_name_H-M "P N M A"
_symmetry_group_IT_number 62
_symmetry_cell_setting 'orthorhombic'
loop_
_space_group_symop_operation_xyz
x,y,z
1/2-x,-y,1/2+z
1/2+x,1/2-y,1/2-z
-x,1/2+y,-z
-x,-y,-z
1/2+x,y,1/2-z
1/2-x,1/2+y,1/2+z
x,1/2-y,z
loop_
_atom_site_type_symbol
_atom_site_label
_atom_site_fract_x
_atom_site_fract_y
_atom_site_fract_z
Si Si1 0.858360 0.065516 0.295150
Si Si2 0.221617 0.364592 0.725268
Si Si3 0.855247 0.867945 0.706972
Si Si4 0.299069 0.496852 0.500986
Si Si5 0.489456 0.869898 0.438221
Si Si6 0.670249 0.640997 0.914838
Si Si7 0.866583 0.638074 0.577419
Si Si8 0.995708 0.635812 0.187248
O O1 0.760682 0.083827 0.243029
O O2 0.819242 0.135315 0.347023
O O3 0.005630 0.085433 0.273466
O O4 0.841631 0.948784 0.315749
O O5 0.192135 0.250000 0.705172
O O6 0.378671 0.385384 0.728527
O O7 0.144806 0.388258 0.784126
O O8 0.861381 0.750000 0.717429
O O9 0.829532 0.893141 0.641341
O O10 0.399211 0.411573 0.520397
O O11 0.354619 0.583041 0.460292
O O12 0.246879 0.550923 0.556778
O O13 0.187231 0.441259 0.466583
O O14 0.485757 0.750000 0.442535
O O15 0.510139 0.914398 0.374556
O O16 0.728181 0.750000 0.932013
O O17 0.520468 0.635007 0.932591
O O18 0.812622 0.750000 0.565384
O O19 0.997908 0.750000 0.170905
#
# Coordination Sequence:
#
# PCOD8252766 Si02
#       8
#     8   8   8   8   8   8   8   8
#     4  11  21  36  61  85 120 158 190 237 298 352
#     4  10  20  35  56  84 116 154 195 234 284 349
#     4  10  21  38  58  87 120 154 195 242 293 351
#     4  11  21  36  62  82 110 151 205 234 287 358
#     4  10  22  38  56  82 117 153 190 243 294 337
#     4  10  21  39  60  86 118 149 190 247 297 341
#     4   9  20  38  60  85 118 150 188 245 297 345
#     4   9  19  36  56  78 115 153 187 236 288 338
#
# _framework density 19.843556
#
# number of rings (size 3 to 8) (size 9 to 14) (size 15 to 20)
#    0.000    2.000    0.000    4.500    1.750    0.000 
#    2.250    0.625    0.000    3.000    0.000    0.000 
#    0.000    0.000    0.000    0.000    0.000    0.000 
#
# Total GULP energy -793052.417816 kJ/mol
# GULP energy per Si atom -12391.444028 kJ/mol
# Density = 1.979839 g / cm^3
# Si number density = 19.843556 Si / 1000 Ang^3
#
#
#
# Elastic Constant Matrix: (Units=GPa)
#
#
# Indices 1 2 3 4 5 6 
#
# 1 42.3965 18.6046 27.3807 0.0000 0.0000 0.0000
# 2 18.6046 98.8670 16.9654 0.0000 0.0000 0.0000
# 3 27.3807 16.9654 57.4840 0.0000 0.0000 0.0000
# 4 0.0000 0.0000 0.0000 28.2628 0.0000 0.0000
# 5 0.0000 0.0000 0.0000 0.0000 32.1258 0.0000
# 6 0.0000 0.0000 0.0000 0.0000 0.0000 25.9341
#
#
#
# Elastic Compliance Matrix: (Units=1/GPa)
#
#
# Indices 1 2 3 4 5 6 
#
# 1 0.035493 -0.003980 -0.015731 0.000000 0.000000 0.000000
# 2 -0.003980 0.011100 -0.001381 0.000000 0.000000 0.000000
# 3 -0.015731 -0.001381 0.025297 0.000000 0.000000 0.000000
# 4 0.000000 0.000000 0.000000 0.035382 0.000000 0.000000
# 5 0.000000 0.000000 0.000000 0.000000 0.031128 0.000000
# 6 0.000000 0.000000 0.000000 0.000000 0.000000 0.038559
#
#
# Mechanical properties :
#
#
# Convention : Reuss Voigt Hill
#
# Bulk Modulus (GPa) = 33.66208 36.07209 34.86708
# Shear Modulus (GPa) = 21.82983 26.31766 24.07374
#
# Velocity S-wave (km/s) = 3.32037 3.64573 3.48685
# Velocity P-wave (km/s) = 5.63031 5.99496 5.81549
#
# Compressibility (1/GPa) = 0.02970702
#
# Stress axis : x y z
#
# Youngs Moduli (GPa) = 28.17465 90.08723 39.53077
#
# Poissons Ratio (x) = 0.35850 0.62188
# Poissons Ratio (y) = 0.11212 0.05457
# Poissons Ratio (z) = 0.44323 0.12437
#
# Static dielectric constant tensor:
#      x y z
#    x 3.584300 0.000000 0.000000 
#    y 0.000000 3.854960 0.000000 
#    z 0.000000 0.000000 3.506550 
# 
# 
# High freq. dielectric constant tensor:
#      x y z
#    x 1.770710 0.000000 0.000000 
#    y 0.000000 1.790400 0.000000 
#    z 0.000000 0.000000 1.759720 
# 
# From -- ./inp_files/28973.got.cif
#   From: 2010.03.12/outbox.cif.g09.slc.cpg/sg62_15_cif.got.tgz:28973.got - 2010.04.10 19:12:36.
