data_PCOD8252874
_publ_section_title
;
Structure prediction by ZEFSAII (Michael W. Deem and Ramdas Pophale) SiO2 
 PCOD8252874
Probable space group: P N M A
;
_chemical_formula_sum "Si O2"
_cell_formula_units_Z 64
_cell_length_a 14.414635
_cell_length_b 9.057187
_cell_length_c 25.179330
_cell_angle_alpha 90.000000
_cell_angle_beta 90.000000
_cell_angle_gamma 90.000000
_cell_volume 3287.313734
_symmetry_space_group_name_H-M "P N M A"
_symmetry_group_IT_number 62
_symmetry_cell_setting 'orthorhombic'
loop_
_space_group_symop_operation_xyz
x,y,z
1/2-x,-y,1/2+z
1/2+x,1/2-y,1/2-z
-x,1/2+y,-z
-x,-y,-z
1/2+x,y,1/2-z
1/2-x,1/2+y,1/2+z
x,1/2-y,z
loop_
_atom_site_type_symbol
_atom_site_label
_atom_site_fract_x
_atom_site_fract_y
_atom_site_fract_z
Si Si1 0.944518 0.574923 0.453403
Si Si2 0.427728 0.080145 0.748084
Si Si3 0.289288 0.574620 0.391128
Si Si4 0.598565 0.076620 0.507256
Si Si5 0.861701 0.580463 0.221804
Si Si6 0.240751 0.578142 0.572810
Si Si7 0.736146 0.076518 0.305475
Si Si8 0.587318 0.924754 0.133042
O O1 0.944969 0.750000 0.460719
O O2 0.840066 0.516776 0.453931
O O3 0.000000 0.500000 0.500000
O O4 0.997057 0.524588 0.399543
O O5 0.395143 0.250000 0.747738
O O6 0.529167 0.062434 0.724693
O O7 0.421183 0.012677 0.807353
O O8 0.363220 0.986181 0.710028
O O9 0.292782 0.750000 0.393641
O O10 0.349618 0.512311 0.440214
O O11 0.330206 0.517470 0.335199
O O12 0.182494 0.518478 0.394762
O O13 0.580764 0.250000 0.513109
O O14 0.662634 0.041086 0.456384
O O15 0.500000 0.000000 0.500000
O O16 0.830328 0.750000 0.228261
O O17 0.816783 0.489977 0.269415
O O18 0.216078 0.750000 0.565743
O O19 0.247349 0.530927 0.633844
O O20 0.735709 0.250000 0.297925
O O21 0.589866 0.750000 0.136206
#
# Coordination Sequence:
#
# PCOD8252874 Si02
#       8
#     8   8   8   8   8   8   8   8
#     4  11  22  37  62  92 119 152 196 245 299 355
#     4  10  20  35  59  86 112 147 196 245 287 341
#     4   9  17  33  58  83 110 145 189 239 291 341
#     4  10  22  40  61  84 113 153 199 247 294 345
#     4  10  20  36  60  88 115 150 197 248 293 346
#     4  10  23  42  59  81 121 164 198 239 296 356
#     4  11  23  38  57  85 123 162 192 234 299 358
#     4   9  17  33  57  84 114 149 187 234 290 346
#
# _framework density 19.468783999999999
#
# number of rings (size 3 to 8) (size 9 to 14) (size 15 to 20)
#    0.000    2.000    1.250    2.250    1.750    5.000 
#    0.000    1.875    0.000    0.000    0.000    0.000 
#    0.000    0.000    0.000    0.000    0.000    0.000 
#
# Total GULP energy -793670.647655 kJ/mol
# GULP energy per Si atom -12401.103870 kJ/mol
# Density = 1.942447 g / cm^3
# Si number density = 19.468784 Si / 1000 Ang^3
#
#
#
# Elastic Constant Matrix: (Units=GPa)
#
#
# Indices 1 2 3 4 5 6 
#
# 1 113.7591 37.1556 38.5401 0.0000 0.0000 0.0000
# 2 37.1556 53.6767 41.2514 0.0000 0.0000 0.0000
# 3 38.5401 41.2514 114.2786 0.0000 0.0000 0.0000
# 4 0.0000 0.0000 0.0000 26.3611 0.0000 0.0000
# 5 0.0000 0.0000 0.0000 0.0000 38.2776 0.0000
# 6 0.0000 0.0000 0.0000 0.0000 0.0000 32.3082
#
#
#
# Elastic Compliance Matrix: (Units=1/GPa)
#
#
# Indices 1 2 3 4 5 6 
#
# 1 0.011516 -0.006902 -0.001393 0.000000 0.000000 0.000000
# 2 -0.006902 0.029918 -0.008472 0.000000 0.000000 0.000000
# 3 -0.001393 -0.008472 0.012278 0.000000 0.000000 0.000000
# 4 0.000000 0.000000 0.000000 0.037935 0.000000 0.000000
# 5 0.000000 0.000000 0.000000 0.000000 0.026125 0.000000
# 6 0.000000 0.000000 0.000000 0.000000 0.000000 0.030952
#
#
# Mechanical properties :
#
#
# Convention : Reuss Voigt Hill
#
# Bulk Modulus (GPa) = 49.55268 57.28986 53.42127
# Shear Modulus (GPa) = 26.45722 30.37389 28.41555
#
# Velocity S-wave (km/s) = 3.69040 3.95414 3.82454
# Velocity P-wave (km/s) = 6.60805 7.09488 6.85579
#
# Compressibility (1/GPa) = 0.02018054
#
# Stress axis : x y z
#
# Youngs Moduli (GPa) = 86.83211 33.42423 81.44369
#
# Poissons Ratio (x) = 0.23068 0.11342
# Poissons Ratio (y) = 0.59928 0.69001
# Poissons Ratio (z) = 0.12092 0.28318
#
# Static dielectric constant tensor:
#      x y z
#    x 4.021320 0.000000 0.000000 
#    y 0.000000 3.212930 0.000000 
#    z 0.000000 0.000000 4.151320 
# 
# 
# High freq. dielectric constant tensor:
#      x y z
#    x 1.773220 0.000000 0.000000 
#    y 0.000000 1.723880 0.000000 
#    z 0.000000 0.000000 1.772900 
# 
# From -- ./inp_files/29837.got.cif
#   From: 2010.03.12/outbox.cif.g09.slc.cpg/sg62_15_cif.got.tgz:29837.got - 2010.04.10 19:12:36.
