data_PCOD8252933
_publ_section_title
;
Structure prediction by ZEFSAII (Michael W. Deem and Ramdas Pophale) SiO2 
 PCOD8252933
Probable space group: P N M A
;
_chemical_formula_sum "Si O2"
_cell_formula_units_Z 64
_cell_length_a 13.949383
_cell_length_b 19.457867
_cell_length_c 12.352169
_cell_angle_alpha 90.000000
_cell_angle_beta 90.000000
_cell_angle_gamma 90.000000
_cell_volume 3352.690425
_symmetry_space_group_name_H-M "P N M A"
_symmetry_group_IT_number 62
_symmetry_cell_setting 'orthorhombic'
loop_
_space_group_symop_operation_xyz
x,y,z
1/2-x,-y,1/2+z
1/2+x,1/2-y,1/2-z
-x,1/2+y,-z
-x,-y,-z
1/2+x,y,1/2-z
1/2-x,1/2+y,1/2+z
x,1/2-y,z
loop_
_atom_site_type_symbol
_atom_site_label
_atom_site_fract_x
_atom_site_fract_y
_atom_site_fract_z
Si Si1 0.806838 0.828361 0.888005
Si Si2 0.664647 0.169480 0.145472
Si Si3 0.991291 0.437711 0.656871
Si Si4 0.522285 0.908555 0.818019
Si Si5 0.305495 0.927005 0.051701
Si Si6 0.664560 0.581331 0.991737
Si Si7 0.983299 0.591494 0.915272
Si Si8 0.597456 0.555528 0.384986
O O1 0.779206 0.750000 0.906229
O O2 0.786048 0.849612 0.761548
O O3 0.758386 0.871614 0.986143
O O4 0.919585 0.840021 0.909162
O O5 0.675256 0.250000 0.120759
O O6 0.552443 0.150942 0.153379
O O7 0.709333 0.127714 0.044863
O O8 0.980516 0.519216 0.635529
O O9 0.099376 0.412690 0.625284
O O10 0.912424 0.398599 0.583777
O O11 0.963992 0.421527 0.780602
O O12 0.622032 0.895951 0.875889
O O13 0.548512 0.913200 0.691853
O O14 0.210137 0.925212 0.127679
O O15 0.309594 0.001667 0.996905
O O16 0.912810 0.525085 0.913615
O O17 0.052911 0.598129 0.016423
#
# Coordination Sequence:
#
# PCOD8252933 Si02
#       8
#     8   8   8   8   8   8   8   8
#     4  10  22  37  57  89 124 156 193 244 304 359
#     4  10  20  36  57  84 121 155 192 244 301 357
#     4  10  20  36  55  88 120 147 197 247 288 345
#     4   9  17  33  55  81 117 148 186 238 298 342
#     4  11  20  36  59  85 117 157 197 250 293 346
#     4  11  19  33  58  88 117 156 192 244 294 344
#     4   9  19  37  53  86 119 146 193 241 290 347
#     4  10  21  35  59  87 112 156 197 238 295 345
#
# _framework density 19.089146
#
# number of rings (size 3 to 8) (size 9 to 14) (size 15 to 20)
#    0.000    2.000    3.750    0.750    1.750    1.500 
#    2.250    0.625    0.000    4.500    0.000    0.000 
#    0.000    0.000    0.000    0.000    0.000    0.000 
#
# Total GULP energy -793063.414993 kJ/mol
# GULP energy per Si atom -12391.615859 kJ/mol
# Density = 1.904570 g / cm^3
# Si number density = 19.089146 Si / 1000 Ang^3
#
#
#
# Elastic Constant Matrix: (Units=GPa)
#
#
# Indices 1 2 3 4 5 6 
#
# 1 84.8744 20.4388 49.0617 0.0000 0.0000 0.0000
# 2 20.4388 54.2866 30.6758 0.0000 0.0000 0.0000
# 3 49.0617 30.6758 99.6422 0.0000 0.0000 0.0000
# 4 0.0000 0.0000 0.0000 24.3915 0.0000 0.0000
# 5 0.0000 0.0000 0.0000 0.0000 31.9894 0.0000
# 6 0.0000 0.0000 0.0000 0.0000 0.0000 16.6244
#
#
#
# Elastic Compliance Matrix: (Units=1/GPa)
#
#
# Indices 1 2 3 4 5 6 
#
# 1 0.016644 -0.001980 -0.007585 0.000000 0.000000 0.000000
# 2 -0.001980 0.022536 -0.005963 0.000000 0.000000 0.000000
# 3 -0.007585 -0.005963 0.015607 0.000000 0.000000 0.000000
# 4 0.000000 0.000000 0.000000 0.040998 0.000000 0.000000
# 5 0.000000 0.000000 0.000000 0.000000 0.031260 0.000000
# 6 0.000000 0.000000 0.000000 0.000000 0.000000 0.060153
#
#
# Mechanical properties :
#
#
# Convention : Reuss Voigt Hill
#
# Bulk Modulus (GPa) = 42.14213 48.79508 45.46861
# Shear Modulus (GPa) = 22.10792 23.84285 22.97538
#
# Velocity S-wave (km/s) = 3.40684 3.53799 3.47303
# Velocity P-wave (km/s) = 6.13187 6.50438 6.32087
#
# Compressibility (1/GPa) = 0.02372922
#
# Stress axis : x y z
#
# Youngs Moduli (GPa) = 60.08289 44.37409 64.07573
#
# Poissons Ratio (x) = 0.08786 0.48604
# Poissons Ratio (y) = 0.11897 0.38208
# Poissons Ratio (z) = 0.45575 0.26460
#
# Static dielectric constant tensor:
#      x y z
#    x 3.419160 0.000000 0.000000 
#    y 0.000000 3.194720 0.000000 
#    z 0.000000 0.000000 3.521330 
# 
# 
# High freq. dielectric constant tensor:
#      x y z
#    x 1.740950 0.000000 0.000000 
#    y 0.000000 1.703060 0.000000 
#    z 0.000000 0.000000 1.739460 
# 
# From -- ./inp_files/13575.got.cif
#   From: 2010.03.12/outbox.cif.g09.slc.cpg/sg62_7_cif.got.tgz:13575.got - 2010.04.10 19:12:36.
