data_PCOD8252734
_publ_section_title
;
Structure prediction by ZEFSAII (Michael W. Deem and Ramdas Pophale) SiO2 
 PCOD8252734
Probable space group: P N M A
;
_chemical_formula_sum "Si O2"
_cell_formula_units_Z 56
_cell_length_a 21.966055
_cell_length_b 8.832082
_cell_length_c 14.560394
_cell_angle_alpha 90.000000
_cell_angle_beta 90.000000
_cell_angle_gamma 90.000000
_cell_volume 2824.803783
_symmetry_space_group_name_H-M "P N M A"
_symmetry_group_IT_number 62
_symmetry_cell_setting 'orthorhombic'
loop_
_space_group_symop_operation_xyz
x,y,z
1/2-x,-y,1/2+z
1/2+x,1/2-y,1/2-z
-x,1/2+y,-z
-x,-y,-z
1/2+x,y,1/2-z
1/2-x,1/2+y,1/2+z
x,1/2-y,z
loop_
_atom_site_type_symbol
_atom_site_label
_atom_site_fract_x
_atom_site_fract_y
_atom_site_fract_z
Si Si1 0.841271 0.429141 0.396827
Si Si2 0.443083 0.575548 0.601944
Si Si3 0.808629 0.070858 0.196104
Si Si4 0.027492 0.428498 0.590595
Si Si5 0.924741 0.925029 0.694780
Si Si6 0.079765 0.928494 0.920597
Si Si7 0.306128 0.570655 0.917930
O O1 0.848864 0.250000 0.406547
O O2 0.805957 0.474890 0.303323
O O3 0.906976 0.503559 0.390487
O O4 0.803204 0.492498 0.482689
O O5 0.443507 0.750000 0.572462
O O6 0.408459 0.550991 0.698231
O O7 0.512839 0.516200 0.610739
O O8 0.406775 0.484279 0.524158
O O9 0.809174 0.250000 0.187351
O O10 0.869519 0.003179 0.148310
O O11 0.749452 0.007417 0.143282
O O12 0.033274 0.250000 0.578585
O O13 0.000000 0.500000 0.500000
O O14 0.982886 0.471167 0.673764
O O15 0.941682 0.750000 0.675915
O O16 0.868182 0.976905 0.633003
O O17 0.084476 0.750000 0.918912
O O18 0.302633 0.750000 0.931042
#
# Coordination Sequence:
#
# PCOD8252734 Si02
#       7
#     8   8   8   8   8   8   8
#     4  11  22  39  62  87 117 152 195 242 293 350
#     4   9  18  32  53  80 109 142 182 232 286 339
#     4   9  20  38  59  81 111 155 197 235 288 350
#     4  12  23  36  58  87 119 152 189 237 295 350
#     4  10  20  35  56  82 115 152 189 232 288 347
#     4   9  17  33  54  76 105 143 186 232 282 337
#     4  10  21  38  58  81 112 149 192 235 281 340
#
# _framework density 19.824383999999998
#
# number of rings (size 3 to 8) (size 9 to 14) (size 15 to 20)
#    0.000    2.000    1.429    2.571    0.000    4.000 
#    0.000    7.857    0.000    0.000    0.000    0.000 
#    0.000    0.000    0.000    0.000    0.000    0.000 
#
# Total GULP energy -694430.307909 kJ/mol
# GULP energy per Si atom -12400.541213 kJ/mol
# Density = 1.977926 g / cm^3
# Si number density = 19.824384 Si / 1000 Ang^3
#
#
#
# Elastic Constant Matrix: (Units=GPa)
#
#
# Indices 1 2 3 4 5 6 
#
# 1 98.6415 32.8602 65.2694 0.0000 0.0000 0.0000
# 2 32.8602 52.5439 37.6480 0.0000 0.0000 0.0000
# 3 65.2694 37.6480 161.1516 0.0000 0.0000 0.0000
# 4 0.0000 0.0000 0.0000 34.6068 0.0000 0.0000
# 5 0.0000 0.0000 0.0000 0.0000 35.3900 0.0000
# 6 0.0000 0.0000 0.0000 0.0000 0.0000 19.7049
#
#
#
# Elastic Compliance Matrix: (Units=1/GPa)
#
#
# Indices 1 2 3 4 5 6 
#
# 1 0.015357 -0.006182 -0.004776 0.000000 0.000000 0.000000
# 2 -0.006182 0.025347 -0.003417 0.000000 0.000000 0.000000
# 3 -0.004776 -0.003417 0.008938 0.000000 0.000000 0.000000
# 4 0.000000 0.000000 0.000000 0.028896 0.000000 0.000000
# 5 0.000000 0.000000 0.000000 0.000000 0.028257 0.000000
# 6 0.000000 0.000000 0.000000 0.000000 0.000000 0.050749
#
#
# Mechanical properties :
#
#
# Convention : Reuss Voigt Hill
#
# Bulk Modulus (GPa) = 47.86786 64.87690 56.37238
# Shear Modulus (GPa) = 25.87215 29.71097 27.79156
#
# Velocity S-wave (km/s) = 3.61649 3.87552 3.74824
# Velocity P-wave (km/s) = 6.45268 7.26794 6.87241
#
# Compressibility (1/GPa) = 0.02089085
#
# Stress axis : x y z
#
# Youngs Moduli (GPa) = 65.11598 39.45283 111.88260
#
# Poissons Ratio (x) = 0.24391 0.53431
# Poissons Ratio (y) = 0.40257 0.38236
# Poissons Ratio (z) = 0.31097 0.13483
#
# Static dielectric constant tensor:
#      x y z
#    x 3.865910 0.000000 0.000000 
#    y 0.000000 3.480820 0.000000 
#    z 0.000000 0.000000 3.660240 
# 
# 
# High freq. dielectric constant tensor:
#      x y z
#    x 1.764090 0.000000 0.000000 
#    y 0.000000 1.749120 0.000000 
#    z 0.000000 0.000000 1.788920 
# 
# From -- ./inp_files/20355.got.cif
#   From: 2010.03.12/outbox.cif.g09.slc.cpg/sg62_11_cif.got.tgz:20355.got - 2010.04.10 19:12:36.
