data_PCOD8252048
_publ_section_title
;
Structure prediction by ZEFSAII (Michael W. Deem and Ramdas Pophale) SiO2 
 PCOD8252048
Probable space group: P N M A
;
_chemical_formula_sum "Si O2"
_cell_formula_units_Z 40
_cell_length_a 31.086300
_cell_length_b 12.984014
_cell_length_c 5.218961
_cell_angle_alpha 90.000000
_cell_angle_beta 90.000000
_cell_angle_gamma 90.000000
_cell_volume 2106.502896
_symmetry_space_group_name_H-M "P N M A"
_symmetry_group_IT_number 62
_symmetry_cell_setting 'orthorhombic'
loop_
_space_group_symop_operation_xyz
x,y,z
1/2-x,-y,1/2+z
1/2+x,1/2-y,1/2-z
-x,1/2+y,-z
-x,-y,-z
1/2+x,y,1/2-z
1/2-x,1/2+y,1/2+z
x,1/2-y,z
loop_
_atom_site_type_symbol
_atom_site_label
_atom_site_fract_x
_atom_site_fract_y
_atom_site_fract_z
Si Si1 0.904242 0.521117 0.789149
Si Si2 0.766776 0.630746 0.298614
Si Si3 0.536841 0.865563 0.072235
Si Si4 0.304373 0.962528 0.701378
Si Si5 0.051794 0.061498 0.703030
O O1 0.853673 0.504581 0.804344
O O2 0.917675 0.589244 0.540610
O O3 0.926761 0.408441 0.768097
O O4 0.921148 0.579687 0.040688
O O5 0.754304 0.750000 0.302983
O O6 0.795074 0.603569 0.545885
O O7 0.722425 0.567926 0.300372
O O8 0.794036 0.606193 0.045605
O O9 0.548671 0.750000 0.988162
O O10 0.490148 0.866375 0.208514
O O11 0.535940 0.941405 0.823572
#
# Coordination Sequence:
#
# PCOD8252048 Si02
#       5
#     8   8   8   8   8
#     4  10  19  37  55  78 109 142 182 228 275 310
#     4  10  21  39  59  85 113 150 186 222 287 348
#     4   9  20  35  56  79 108 149 184 222 276 324
#     4  10  21  37  63  81 115 150 179 241 280 324
#     4   9  20  36  54  75 114 145 172 235 265 326
#
# _framework density 18.988817000000001
#
# number of rings (size 3 to 8) (size 9 to 14) (size 15 to 20)
#    1.200    1.200    0.000    2.400    0.000    1.600 
#    0.000    6.000    0.000    0.000    0.000    0.000 
#    0.000    0.000    0.000    0.000    0.000    0.000 
#
# Total GULP energy -495776.360540 kJ/mol
# GULP energy per Si atom -12394.409013 kJ/mol
# Density = 1.894560 g / cm^3
# Si number density = 18.988817 Si / 1000 Ang^3
#
#
#
# Elastic Constant Matrix: (Units=GPa)
#
#
# Indices 1 2 3 4 5 6 
#
# 1 141.8822 22.1320 40.0282 0.0000 0.0000 0.0000
# 2 22.1320 87.8887 26.9811 0.0000 0.0000 0.0000
# 3 40.0282 26.9811 130.1863 0.0000 0.0000 0.0000
# 4 0.0000 0.0000 0.0000 6.0732 0.0000 0.0000
# 5 0.0000 0.0000 0.0000 0.0000 1.2198 0.0000
# 6 0.0000 0.0000 0.0000 0.0000 0.0000 6.2096
#
#
#
# Elastic Compliance Matrix: (Units=1/GPa)
#
#
# Indices 1 2 3 4 5 6 
#
# 1 0.007859 -0.001321 -0.002142 0.000000 0.000000 0.000000
# 2 -0.001321 0.012373 -0.002158 0.000000 0.000000 0.000000
# 3 -0.002142 -0.002158 0.008787 0.000000 0.000000 0.000000
# 4 0.000000 0.000000 0.000000 0.164657 0.000000 0.000000
# 5 0.000000 0.000000 0.000000 0.000000 0.819826 0.000000
# 6 0.000000 0.000000 0.000000 0.000000 0.000000 0.161041
#
#
# Mechanical properties :
#
#
# Convention : Reuss Voigt Hill
#
# Bulk Modulus (GPa) = 56.25693 59.80442 58.03068
# Shear Modulus (GPa) = 4.19564 20.75491 12.47528
#
# Velocity S-wave (km/s) = 1.48806 3.30965 2.56594
# Velocity P-wave (km/s) = 5.71341 6.79470 6.27738
#
# Compressibility (1/GPa) = 0.01777559
#
# Stress axis : x y z
#
# Youngs Moduli (GPa) = 127.24859 80.81937 113.80041
#
# Poissons Ratio (x) = 0.10678 0.24381
# Poissons Ratio (y) = 0.16812 0.24560
# Poissons Ratio (z) = 0.27263 0.17442
#
# Static dielectric constant tensor:
#      x y z
#    x 3.365210 0.000000 0.000000 
#    y 0.000000 3.092190 0.000000 
#    z 0.000000 0.000000 3.692920 
# 
# 
# High freq. dielectric constant tensor:
#      x y z
#    x 1.737480 0.000000 0.000000 
#    y 0.000000 1.708580 0.000000 
#    z 0.000000 0.000000 1.744160 
# 
# From -- ./inp_files/3112.got.cif
#   From: 2010.03.12/outbox.cif.g09.slc.cpg/sg62_2_cif.got.tgz:3112.got - 2010.04.10 19:12:36.
