data_PCOD8252846
_publ_section_title
;
Structure prediction by ZEFSAII (Michael W. Deem and Ramdas Pophale) SiO2 
 PCOD8252846
Probable space group: P N M A
;
_chemical_formula_sum "Si O2"
_cell_formula_units_Z 56
_cell_length_a 8.954919
_cell_length_b 20.107349
_cell_length_c 15.881250
_cell_angle_alpha 90.000000
_cell_angle_beta 90.000000
_cell_angle_gamma 90.000000
_cell_volume 2859.572818
_symmetry_space_group_name_H-M "P N M A"
_symmetry_group_IT_number 62
_symmetry_cell_setting 'orthorhombic'
loop_
_space_group_symop_operation_xyz
x,y,z
1/2-x,-y,1/2+z
1/2+x,1/2-y,1/2-z
-x,1/2+y,-z
-x,-y,-z
1/2+x,y,1/2-z
1/2-x,1/2+y,1/2+z
x,1/2-y,z
loop_
_atom_site_type_symbol
_atom_site_label
_atom_site_fract_x
_atom_site_fract_y
_atom_site_fract_z
Si Si1 0.300652 0.409398 0.253598
Si Si2 0.172116 0.325871 0.980687
Si Si3 0.481975 0.170764 0.675572
Si Si4 0.046901 0.468648 0.364234
Si Si5 0.848281 0.828040 0.337734
Si Si6 0.974342 0.100139 0.531731
Si Si7 0.946281 0.673729 0.838369
O O1 0.196266 0.457231 0.309797
O O2 0.398503 0.454479 0.190544
O O3 0.406996 0.366515 0.313463
O O4 0.201275 0.357440 0.202183
O O5 0.224116 0.250000 0.964275
O O6 0.314679 0.371639 0.993800
O O7 0.080783 0.354797 0.901959
O O8 0.065524 0.330206 0.061182
O O9 0.475020 0.250000 0.674678
O O10 0.552375 0.142813 0.761623
O O11 0.316574 0.140002 0.667115
O O12 0.040723 0.543408 0.397676
O O13 0.054139 0.421528 0.445971
O O14 0.834994 0.750000 0.326531
O O15 0.922925 0.843188 0.427284
O O16 0.959775 0.750000 0.807740
#
# Coordination Sequence:
#
# PCOD8252846 Si02
#       7
#     8   8   8   8   8   8   8
#     4  10  21  42  61  84 117 157 200 243 287 349
#     4  10  20  36  59  88 122 152 187 243 300 349
#     4   9  19  34  53  84 119 148 182 231 290 354
#     4  10  24  41  61  80 119 157 198 243 287 341
#     4  10  20  35  58  85 116 151 191 242 296 349
#     4  11  22  40  58  87 116 155 198 241 289 353
#     4  10  20  36  62  91 119 151 192 247 302 346
#
# _framework density 19.583344
#
# number of rings (size 3 to 8) (size 9 to 14) (size 15 to 20)
#    0.000    2.000    1.429    1.714    2.000    4.571 
#    0.000    3.571    0.000    0.000    0.000    0.000 
#    0.000    0.000    0.000    0.000    0.000    0.000 
#
# Total GULP energy -694495.320033 kJ/mol
# GULP energy per Si atom -12401.702143 kJ/mol
# Density = 1.953877 g / cm^3
# Si number density = 19.583344 Si / 1000 Ang^3
#
#
#
# Elastic Constant Matrix: (Units=GPa)
#
#
# Indices 1 2 3 4 5 6 
#
# 1 99.8581 22.3111 29.7995 0.0000 0.0000 0.0000
# 2 22.3111 38.6983 24.5856 0.0000 0.0000 0.0000
# 3 29.7995 24.5856 101.3926 0.0000 0.0000 0.0000
# 4 0.0000 0.0000 0.0000 33.3447 0.0000 0.0000
# 5 0.0000 0.0000 0.0000 0.0000 35.8658 0.0000
# 6 0.0000 0.0000 0.0000 0.0000 0.0000 13.9204
#
#
#
# Elastic Compliance Matrix: (Units=1/GPa)
#
#
# Indices 1 2 3 4 5 6 
#
# 1 0.011884 -0.005476 -0.002165 0.000000 0.000000 0.000000
# 2 -0.005476 0.033070 -0.006409 0.000000 0.000000 0.000000
# 3 -0.002165 -0.006409 0.012053 0.000000 0.000000 0.000000
# 4 0.000000 0.000000 0.000000 0.029990 0.000000 0.000000
# 5 0.000000 0.000000 0.000000 0.000000 0.027882 0.000000
# 6 0.000000 0.000000 0.000000 0.000000 0.000000 0.071837
#
#
# Mechanical properties :
#
#
# Convention : Reuss Voigt Hill
#
# Bulk Modulus (GPa) = 34.59456 43.70459 39.14957
# Shear Modulus (GPa) = 22.27653 27.50970 24.89312
#
# Velocity S-wave (km/s) = 3.37638 3.75207 3.56917
# Velocity P-wave (km/s) = 5.73616 6.41376 6.08440
#
# Compressibility (1/GPa) = 0.02890628
#
# Stress axis : x y z
#
# Youngs Moduli (GPa) = 84.14850 30.23885 82.96673
#
# Poissons Ratio (x) = 0.16559 0.17961
# Poissons Ratio (y) = 0.46081 0.53176
# Poissons Ratio (z) = 0.18217 0.19381
#
# Static dielectric constant tensor:
#      x y z
#    x 3.646980 0.000000 0.000000 
#    y 0.000000 3.329750 0.000000 
#    z 0.000000 0.000000 3.679220 
# 
# 
# High freq. dielectric constant tensor:
#      x y z
#    x 1.770670 0.000000 0.000000 
#    y 0.000000 1.743660 0.000000 
#    z 0.000000 0.000000 1.777110 
# 
# From -- ./inp_files/17206.got.cif
#   From: 2010.03.12/outbox.cif.g09.slc.cpg/sg62_9_cif.got.tgz:17206.got - 2010.04.10 19:12:36.
