data_PCOD8252809
_publ_section_title
;
Structure prediction by ZEFSAII (Michael W. Deem and Ramdas Pophale) SiO2 
 PCOD8252809
Probable space group: P N M A
;
_chemical_formula_sum "Si O2"
_cell_formula_units_Z 64
_cell_length_a 12.682969
_cell_length_b 8.941359
_cell_length_c 28.437156
_cell_angle_alpha 90.000000
_cell_angle_beta 90.000000
_cell_angle_gamma 90.000000
_cell_volume 3224.858205
_symmetry_space_group_name_H-M "P N M A"
_symmetry_group_IT_number 62
_symmetry_cell_setting 'orthorhombic'
loop_
_space_group_symop_operation_xyz
x,y,z
1/2-x,-y,1/2+z
1/2+x,1/2-y,1/2-z
-x,1/2+y,-z
-x,-y,-z
1/2+x,y,1/2-z
1/2-x,1/2+y,1/2+z
x,1/2-y,z
loop_
_atom_site_type_symbol
_atom_site_label
_atom_site_fract_x
_atom_site_fract_y
_atom_site_fract_z
Si Si1 0.074036 0.081326 0.427043
Si Si2 0.367990 0.576554 0.306766
Si Si3 0.328632 0.577209 0.565537
Si Si4 0.774068 0.923836 0.040609
Si Si5 0.553532 0.573552 0.605636
Si Si6 0.456936 0.922681 0.206834
Si Si7 0.372840 0.924670 0.105438
Si Si8 0.154477 0.417649 0.321593
O O1 0.062036 0.250000 0.446174
O O2 0.117792 0.079163 0.374825
O O3 0.156534 0.992868 0.459702
O O4 0.959280 0.004295 0.427902
O O5 0.384582 0.750000 0.317936
O O6 0.446206 0.483741 0.340606
O O7 0.388460 0.539250 0.252395
O O8 0.248999 0.531988 0.316724
O O9 0.308207 0.750000 0.577821
O O10 0.324200 0.547845 0.510157
O O11 0.443842 0.524757 0.582219
O O12 0.243171 0.480027 0.592859
O O13 0.765913 0.750000 0.053272
O O14 0.848238 0.001722 0.078663
O O15 0.570046 0.750000 0.604539
O O16 0.491994 0.750000 0.205424
O O17 0.390413 0.963310 0.160317
O O18 0.560356 0.024446 0.211129
O O19 0.381666 0.750000 0.095604
O O20 0.187111 0.250000 0.306255
#
# Coordination Sequence:
#
# PCOD8252809 Si02
#       8
#     8   8   8   8   8   8   8   8
#     4  10  20  36  60  87 118 152 192 245 295 347
#     4  11  22  37  60  87 117 154 196 245 294 352
#     4  10  24  42  59  84 122 161 197 243 301 360
#     4  11  22  38  62  89 116 155 201 245 298 357
#     4  11  23  40  60  86 121 156 198 250 299 354
#     4   9  21  39  58  84 116 152 195 241 293 351
#     4  10  21  39  62  86 116 156 201 246 297 357
#     4  10  20  35  57  84 114 149 189 240 295 347
#
# _framework density 19.845832000000001
#
# number of rings (size 3 to 8) (size 9 to 14) (size 15 to 20)
#    0.000    1.750    1.250    2.625    0.000    6.000 
#    0.000    3.750    0.000    0.000    0.000    0.000 
#    0.000    0.000    0.000    0.000    0.000    0.000 
#
# Total GULP energy -793871.208843 kJ/mol
# GULP energy per Si atom -12404.237638 kJ/mol
# Density = 1.980066 g / cm^3
# Si number density = 19.845832 Si / 1000 Ang^3
#
#
#
# Elastic Constant Matrix: (Units=GPa)
#
#
# Indices 1 2 3 4 5 6 
#
# 1 86.6791 40.4184 35.4035 0.0000 0.0000 0.0000
# 2 40.4184 95.1956 36.6277 0.0000 0.0000 0.0000
# 3 35.4035 36.6277 51.1797 0.0000 0.0000 0.0000
# 4 0.0000 0.0000 0.0000 29.8285 0.0000 0.0000
# 5 0.0000 0.0000 0.0000 0.0000 19.3268 0.0000
# 6 0.0000 0.0000 0.0000 0.0000 0.0000 38.3542
#
#
#
# Elastic Compliance Matrix: (Units=1/GPa)
#
#
# Indices 1 2 3 4 5 6 
#
# 1 0.016980 -0.003712 -0.009089 0.000000 0.000000 0.000000
# 2 -0.003712 0.015308 -0.008388 0.000000 0.000000 0.000000
# 3 -0.009089 -0.008388 0.031829 0.000000 0.000000 0.000000
# 4 0.000000 0.000000 0.000000 0.033525 0.000000 0.000000
# 5 0.000000 0.000000 0.000000 0.000000 0.051742 0.000000
# 6 0.000000 0.000000 0.000000 0.000000 0.000000 0.026073
#
#
# Mechanical properties :
#
#
# Convention : Reuss Voigt Hill
#
# Bulk Modulus (GPa) = 45.99969 50.88375 48.44172
# Shear Modulus (GPa) = 22.21415 25.54223 23.87819
#
# Velocity S-wave (km/s) = 3.34928 3.59142 3.47246
# Velocity P-wave (km/s) = 6.17946 6.54926 6.36705
#
# Compressibility (1/GPa) = 0.02173928
#
# Stress axis : x y z
#
# Youngs Moduli (GPa) = 58.89156 65.32501 31.41766
#
# Poissons Ratio (x) = 0.24251 0.28557
# Poissons Ratio (y) = 0.21862 0.26352
# Poissons Ratio (z) = 0.53529 0.54791
#
# Static dielectric constant tensor:
#      x y z
#    x 3.663150 0.000000 0.000000 
#    y 0.000000 3.754170 0.000000 
#    z 0.000000 0.000000 3.655350 
# 
# 
# High freq. dielectric constant tensor:
#      x y z
#    x 1.777100 0.000000 0.000000 
#    y 0.000000 1.784000 0.000000 
#    z 0.000000 0.000000 1.771390 
# 
# From -- ./inp_files/32434.got.cif
#   From: 2010.03.12/outbox.cif.g09.slc.cpg/sg62_17_cif.got.tgz:32434.got - 2010.04.10 19:12:36.
