data_PCOD8252721
_publ_section_title
;
Structure prediction by ZEFSAII (Michael W. Deem and Ramdas Pophale) SiO2 
 PCOD8252721
Probable space group: P N M A
;
_chemical_formula_sum "Si O2"
_cell_formula_units_Z 56
_cell_length_a 22.012691
_cell_length_b 8.439659
_cell_length_c 14.799543
_cell_angle_alpha 90.000000
_cell_angle_beta 90.000000
_cell_angle_gamma 90.000000
_cell_volume 2749.453263
_symmetry_space_group_name_H-M "P N M A"
_symmetry_group_IT_number 62
_symmetry_cell_setting 'orthorhombic'
loop_
_space_group_symop_operation_xyz
x,y,z
1/2-x,-y,1/2+z
1/2+x,1/2-y,1/2-z
-x,1/2+y,-z
-x,-y,-z
1/2+x,y,1/2-z
1/2-x,1/2+y,1/2+z
x,1/2-y,z
loop_
_atom_site_type_symbol
_atom_site_label
_atom_site_fract_x
_atom_site_fract_y
_atom_site_fract_z
Si Si1 0.280754 0.561928 0.827368
Si Si2 0.613004 0.061812 0.301059
Si Si3 0.431465 0.437952 0.509926
Si Si4 0.864117 0.933485 0.513264
Si Si5 0.354431 0.437680 0.339599
Si Si6 0.586716 0.566471 0.845248
Si Si7 0.959237 0.067258 0.640487
O O1 0.278730 0.750000 0.825068
O O2 0.321634 0.506646 0.740993
O O3 0.311216 0.503947 0.920671
O O4 0.213212 0.488571 0.828515
O O5 0.606910 0.250000 0.300905
O O6 0.603484 0.997652 0.401483
O O7 0.559389 0.990208 0.240247
O O8 0.500000 0.500000 0.500000
O O9 0.434318 0.250000 0.510344
O O10 0.390658 0.502321 0.426634
O O11 0.856024 0.750000 0.489880
O O12 0.861522 0.034006 0.420594
O O13 0.927562 0.960817 0.564541
O O14 0.348636 0.250000 0.345660
O O15 0.390661 0.491163 0.251633
O O16 0.568237 0.750000 0.843862
O O17 0.530582 0.456459 0.871408
O O18 0.941997 0.250000 0.626032
#
# Coordination Sequence:
#
# PCOD8252721 Si02
#       7
#     8   8   8   8   8   8   8
#     4   8  17  36  58  79 107 144 184 226 278 336
#     4  10  20  36  59  84 113 147 182 226 283 341
#     4  11  22  37  59  85 115 151 195 242 287 337
#     4  10  20  35  56  81 111 144 178 220 272 329
#     4   9  20  37  56  79 108 145 187 233 280 328
#     4  11  21  34  54  80 111 144 181 224 274 327
#     4  11  21  35  56  82 112 143 182 225 268 324
#
# _framework density 20.367687
#
# number of rings (size 3 to 8) (size 9 to 14) (size 15 to 20)
#    0.000    2.000    0.000    5.143    0.000    2.286 
#    0.000    2.143    0.000   18.857    0.000    0.000 
#    0.000    0.000    0.000    0.000    0.000    0.000 
#
# Total GULP energy -694345.098083 kJ/mol
# GULP energy per Si atom -12399.019609 kJ/mol
# Density = 2.032133 g / cm^3
# Si number density = 20.367687 Si / 1000 Ang^3
#
#
#
# Elastic Constant Matrix: (Units=GPa)
#
#
# Indices 1 2 3 4 5 6 
#
# 1 115.6580 12.8759 37.5207 0.0000 0.0000 0.0000
# 2 12.8759 50.7531 11.9569 0.0000 0.0000 0.0000
# 3 37.5207 11.9569 137.5405 0.0000 0.0000 0.0000
# 4 0.0000 0.0000 0.0000 33.3906 0.0000 0.0000
# 5 0.0000 0.0000 0.0000 0.0000 22.2730 0.0000
# 6 0.0000 0.0000 0.0000 0.0000 0.0000 18.1842
#
#
#
# Elastic Compliance Matrix: (Units=1/GPa)
#
#
# Indices 1 2 3 4 5 6 
#
# 1 0.009656 -0.001867 -0.002472 0.000000 0.000000 0.000000
# 2 -0.001867 0.020476 -0.001271 0.000000 0.000000 0.000000
# 3 -0.002472 -0.001271 0.008055 0.000000 0.000000 0.000000
# 4 0.000000 0.000000 0.000000 0.029949 0.000000 0.000000
# 5 0.000000 0.000000 0.000000 0.000000 0.044897 0.000000
# 6 0.000000 0.000000 0.000000 0.000000 0.000000 0.054993
#
#
# Mechanical properties :
#
#
# Convention : Reuss Voigt Hill
#
# Bulk Modulus (GPa) = 37.08098 47.62874 42.35486
# Shear Modulus (GPa) = 26.56250 30.87611 28.71930
#
# Velocity S-wave (km/s) = 3.61522 3.89773 3.75913
# Velocity P-wave (km/s) = 5.97258 6.60996 6.29934
#
# Compressibility (1/GPa) = 0.02696801
#
# Stress axis : x y z
#
# Youngs Moduli (GPa) = 103.56322 48.83682 124.14118
#
# Poissons Ratio (x) = 0.09120 0.30685
# Poissons Ratio (y) = 0.19339 0.15774
# Poissons Ratio (z) = 0.25599 0.06206
#
# Static dielectric constant tensor:
#      x y z
#    x 3.693900 0.000000 0.000000 
#    y 0.000000 3.415140 0.000000 
#    z 0.000000 0.000000 3.893600 
# 
# 
# High freq. dielectric constant tensor:
#      x y z
#    x 1.791980 0.000000 0.000000 
#    y 0.000000 1.775240 0.000000 
#    z 0.000000 0.000000 1.807980 
# 
# From -- ./inp_files/20362.got.cif
#   From: 2010.03.12/outbox.cif.g09.slc.cpg/sg62_11_cif.got.tgz:20362.got - 2010.04.10 19:12:36.
