data_PCOD8252731
_publ_section_title
;
Structure prediction by ZEFSAII (Michael W. Deem and Ramdas Pophale) SiO2 
 PCOD8252731
Probable space group: P N M A
;
_chemical_formula_sum "Si O2"
_cell_formula_units_Z 64
_cell_length_a 19.459882
_cell_length_b 13.270237
_cell_length_c 13.365018
_cell_angle_alpha 90.000000
_cell_angle_beta 90.000000
_cell_angle_gamma 90.000000
_cell_volume 3451.345443
_symmetry_space_group_name_H-M "P N M A"
_symmetry_group_IT_number 62
_symmetry_cell_setting 'orthorhombic'
loop_
_space_group_symop_operation_xyz
x,y,z
1/2-x,-y,1/2+z
1/2+x,1/2-y,1/2-z
-x,1/2+y,-z
-x,-y,-z
1/2+x,y,1/2-z
1/2-x,1/2+y,1/2+z
x,1/2-y,z
loop_
_atom_site_type_symbol
_atom_site_label
_atom_site_fract_x
_atom_site_fract_y
_atom_site_fract_z
Si Si1 0.190163 0.030597 0.428898
Si Si2 0.962521 0.138558 0.971395
Si Si3 0.556755 0.367105 0.986879
Si Si4 0.046470 0.553348 0.642567
Si Si5 0.533724 0.050542 0.346059
Si Si6 0.693227 0.864685 0.462200
Si Si7 0.689293 0.867249 0.903857
Si Si8 0.689005 0.028488 0.302722
O O1 0.123102 0.096709 0.451812
O O2 0.256915 0.097369 0.450806
O O3 0.191740 0.001311 0.313399
O O4 0.191931 0.927428 0.491619
O O5 0.972719 0.250000 0.926866
O O6 0.883664 0.119652 0.003100
O O7 0.983824 0.062210 0.883718
O O8 0.008748 0.128247 0.069892
O O9 0.563565 0.250000 0.956290
O O10 0.549021 0.434657 0.886655
O O11 0.489598 0.382666 0.054812
O O12 0.122482 0.597547 0.657975
O O13 0.005738 0.569613 0.744059
O O14 0.614199 0.070298 0.331342
O O15 0.709855 0.750000 0.436002
O O16 0.706250 0.925332 0.360115
O O17 0.686161 0.750000 0.930110
O O18 0.755524 0.887727 0.834477
#
# Coordination Sequence:
#
# PCOD8252731 Si02
#       8
#     8   8   8   8   8   8   8   8
#     4  10  20  37  57  80 113 144 180 229 270 316
#     4   9  20  36  57  82 107 143 184 223 271 321
#     4  10  20  35  56  82 112 146 180 218 270 325
#     4  10  21  37  55  82 114 142 178 225 270 321
#     4  10  20  38  57  79 114 141 176 230 271 317
#     4   9  19  36  57  81 108 142 184 224 267 322
#     4  10  23  39  56  81 112 145 182 223 272 327
#     4  10  21  38  58  80 109 144 181 225 271 321
#
# _framework density 18.543493000000002
#
# number of rings (size 3 to 8) (size 9 to 14) (size 15 to 20)
#    0.000    2.250    1.250    0.750    1.750    3.500 
#    0.000    0.000    0.000    0.000    0.000    0.000 
#    0.000    0.000    0.000    0.000    0.000    0.000 
#
# Total GULP energy -793736.854940 kJ/mol
# GULP energy per Si atom -12402.138358 kJ/mol
# Density = 1.850129 g / cm^3
# Si number density = 18.543493 Si / 1000 Ang^3
#
#
#
# Elastic Constant Matrix: (Units=GPa)
#
#
# Indices 1 2 3 4 5 6 
#
# 1 106.3730 32.3329 35.0945 0.0000 0.0000 0.0000
# 2 32.3329 108.8993 9.8287 0.0000 0.0000 0.0000
# 3 35.0945 9.8287 54.5716 0.0000 0.0000 0.0000
# 4 0.0000 0.0000 0.0000 11.2217 0.0000 0.0000
# 5 0.0000 0.0000 0.0000 0.0000 27.6226 0.0000
# 6 0.0000 0.0000 0.0000 0.0000 0.0000 22.1479
#
#
#
# Elastic Compliance Matrix: (Units=1/GPa)
#
#
# Indices 1 2 3 4 5 6 
#
# 1 0.012905 -0.003134 -0.007735 0.000000 0.000000 0.000000
# 2 -0.003134 0.010095 0.000197 0.000000 0.000000 0.000000
# 3 -0.007735 0.000197 0.023263 0.000000 0.000000 0.000000
# 4 0.000000 0.000000 0.000000 0.089113 0.000000 0.000000
# 5 0.000000 0.000000 0.000000 0.000000 0.036202 0.000000
# 6 0.000000 0.000000 0.000000 0.000000 0.000000 0.045151
#
#
# Mechanical properties :
#
#
# Convention : Reuss Voigt Hill
#
# Bulk Modulus (GPa) = 40.12690 47.15068 43.63879
# Shear Modulus (GPa) = 20.29380 25.03761 22.66570
#
# Velocity S-wave (km/s) = 3.31174 3.67851 3.49993
# Velocity P-wave (km/s) = 6.02577 6.59728 6.31799
#
# Compressibility (1/GPa) = 0.02492094
#
# Stress axis : x y z
#
# Youngs Moduli (GPa) = 77.48790 99.05507 42.98613
#
# Poissons Ratio (x) = 0.31039 0.33249
# Poissons Ratio (y) = 0.24281 -0.00846
# Poissons Ratio (z) = 0.59936 -0.01951
#
# Static dielectric constant tensor:
#      x y z
#    x 3.662370 0.000000 0.000000 
#    y 0.000000 3.373730 0.000000 
#    z 0.000000 0.000000 3.206980 
# 
# 
# High freq. dielectric constant tensor:
#      x y z
#    x 1.736340 0.000000 0.000000 
#    y 0.000000 1.717510 0.000000 
#    z 0.000000 0.000000 1.705500 
# 
# From -- ./inp_files/14319.got.cif
#   From: 2010.03.12/outbox.cif.g09.slc.cpg/sg62_8_cif.got.tgz:14319.got - 2010.04.10 19:12:36.
