data_PCOD8252580
_publ_section_title
;
Structure prediction by ZEFSAII (Michael W. Deem and Ramdas Pophale) SiO2 
 PCOD8252580
Probable space group: P N M A
;
_chemical_formula_sum "Si O2"
_cell_formula_units_Z 48
_cell_length_a 29.310046
_cell_length_b 8.757135
_cell_length_c 10.265288
_cell_angle_alpha 90.000000
_cell_angle_beta 90.000000
_cell_angle_gamma 90.000000
_cell_volume 2634.812306
_symmetry_space_group_name_H-M "P N M A"
_symmetry_group_IT_number 62
_symmetry_cell_setting 'orthorhombic'
loop_
_space_group_symop_operation_xyz
x,y,z
1/2-x,-y,1/2+z
1/2+x,1/2-y,1/2-z
-x,1/2+y,-z
-x,-y,-z
1/2+x,y,1/2-z
1/2-x,1/2+y,1/2+z
x,1/2-y,z
loop_
_atom_site_type_symbol
_atom_site_label
_atom_site_fract_x
_atom_site_fract_y
_atom_site_fract_z
Si Si1 0.472873 0.067728 0.880075
Si Si2 0.712385 0.070590 0.714156
Si Si3 0.617625 0.924589 0.718598
Si Si4 0.480548 0.069763 0.369923
Si Si5 0.119906 0.925493 0.483584
Si Si6 0.780437 0.068105 0.490646
O O1 0.475433 0.250000 0.887131
O O2 0.492563 0.008908 0.746079
O O3 0.420123 0.008340 0.891513
O O4 0.500000 0.000000 0.000000
O O5 0.717197 0.250000 0.730841
O O6 0.743146 0.011256 0.593976
O O7 0.660289 0.029227 0.679303
O O8 0.730573 0.994126 0.846657
O O9 0.632358 0.750000 0.694507
O O10 0.573326 0.969318 0.634575
O O11 0.603778 0.950330 0.868169
O O12 0.488520 0.250000 0.362955
O O13 0.500000 0.000000 0.500000
O O14 0.125342 0.750000 0.449083
O O15 0.170110 0.999205 0.463259
O O16 0.781879 0.250000 0.479187
#
# Coordination Sequence:
#
# PCOD8252580 Si02
#       6
#     8   8   8   8   8   8
#     4  11  20  34  58  85 112 144 184 227 268 324
#     4  10  20  34  57  85 109 139 182 229 270 318
#     4   9  18  36  58  77 107 149 183 217 273 337
#     4  11  23  40  57  80 113 150 187 229 281 335
#     4   8  15  32  56  78 103 141 181 216 264 326
#     4   9  19  37  56  77 111 145 177 221 272 328
#
# _framework density 18.217616
#
# number of rings (size 3 to 8) (size 9 to 14) (size 15 to 20)
#    0.000    2.333    1.667    2.500    0.000    2.667 
#    3.000    0.833    0.000    0.000    0.000    0.000 
#    0.000    0.000    0.000    0.000    0.000    0.000 
#
# Total GULP energy -594983.874977 kJ/mol
# GULP energy per Si atom -12395.497395 kJ/mol
# Density = 1.817615 g / cm^3
# Si number density = 18.217616 Si / 1000 Ang^3
#
#
#
# Elastic Constant Matrix: (Units=GPa)
#
#
# Indices 1 2 3 4 5 6 
#
# 1 129.5757 39.6383 78.4497 0.0000 0.0000 0.0000
# 2 39.6383 56.5040 37.0555 0.0000 0.0000 0.0000
# 3 78.4497 37.0555 123.8627 0.0000 0.0000 0.0000
# 4 0.0000 0.0000 0.0000 31.0663 0.0000 0.0000
# 5 0.0000 0.0000 0.0000 0.0000 38.7371 0.0000
# 6 0.0000 0.0000 0.0000 0.0000 0.0000 27.8877
#
#
#
# Elastic Compliance Matrix: (Units=1/GPa)
#
#
# Indices 1 2 3 4 5 6 
#
# 1 0.013489 -0.004802 -0.007107 0.000000 0.000000 0.000000
# 2 -0.004802 0.023727 -0.004057 0.000000 0.000000 0.000000
# 3 -0.007107 -0.004057 0.013788 0.000000 0.000000 0.000000
# 4 0.000000 0.000000 0.000000 0.032189 0.000000 0.000000
# 5 0.000000 0.000000 0.000000 0.000000 0.025815 0.000000
# 6 0.000000 0.000000 0.000000 0.000000 0.000000 0.035858
#
#
# Mechanical properties :
#
#
# Convention : Reuss Voigt Hill
#
# Bulk Modulus (GPa) = 52.43041 68.91438 60.67240
# Shear Modulus (GPa) = 27.29903 29.85816 28.57859
#
# Velocity S-wave (km/s) = 3.87524 4.05281 3.96502
# Velocity P-wave (km/s) = 6.99041 7.73375 7.37146
#
# Compressibility (1/GPa) = 0.01907290
#
# Stress axis : x y z
#
# Youngs Moduli (GPa) = 74.13273 42.14583 72.52491
#
# Poissons Ratio (x) = 0.20239 0.51543
# Poissons Ratio (y) = 0.35600 0.29422
# Poissons Ratio (z) = 0.52686 0.17098
#
# Static dielectric constant tensor:
#      x y z
#    x 3.906600 0.000000 0.000000 
#    y 0.000000 3.252560 0.000000 
#    z 0.000000 0.000000 3.114080 
# 
# 
# High freq. dielectric constant tensor:
#      x y z
#    x 1.721150 0.000000 0.000000 
#    y 0.000000 1.693790 0.000000 
#    z 0.000000 0.000000 1.692280 
# 
# From -- ./inp_files/10270.got.cif
#   From: 2010.03.12/outbox.cif.g09.slc.cpg/sg62_6_cif.got.tgz:10270.got - 2010.04.10 19:12:36.
