data_PCOD8252250
_publ_section_title
;
Structure prediction by ZEFSAII (Michael W. Deem and Ramdas Pophale) SiO2 
 PCOD8252250
Probable space group: P N M A
;
_chemical_formula_sum "Si O2"
_cell_formula_units_Z 64
_cell_length_a 18.996276
_cell_length_b 8.765718
_cell_length_c 23.009663
_cell_angle_alpha 90.000000
_cell_angle_beta 90.000000
_cell_angle_gamma 90.000000
_cell_volume 3831.477009
_symmetry_space_group_name_H-M "P N M A"
_symmetry_group_IT_number 62
_symmetry_cell_setting 'orthorhombic'
loop_
_space_group_symop_operation_xyz
x,y,z
1/2-x,-y,1/2+z
1/2+x,1/2-y,1/2-z
-x,1/2+y,-z
-x,-y,-z
1/2+x,y,1/2-z
1/2-x,1/2+y,1/2+z
x,1/2-y,z
loop_
_atom_site_type_symbol
_atom_site_label
_atom_site_fract_x
_atom_site_fract_y
_atom_site_fract_z
Si Si1 0.011195 0.072239 0.119675
Si Si2 0.845462 0.427492 0.737103
Si Si3 0.786292 0.574515 0.164052
Si Si4 0.352288 0.069869 0.566532
Si Si5 0.509998 0.427002 0.244261
Si Si6 0.133271 0.069382 0.721009
Si Si7 0.366354 0.070388 0.435516
Si Si8 0.260859 0.569938 0.660252
O O1 0.026281 0.250000 0.106606
O O2 0.001428 0.042557 0.187632
O O3 0.941298 0.010194 0.087863
O O4 0.074534 0.970508 0.096891
O O5 0.845385 0.250000 0.754837
O O6 0.794599 0.455279 0.682019
O O7 0.819265 0.522411 0.792531
O O8 0.922554 0.483999 0.719281
O O9 0.800712 0.750000 0.150910
O O10 0.836215 0.518393 0.216527
O O11 0.802910 0.482870 0.105737
O O12 0.340268 0.250000 0.570298
O O13 0.353543 0.009573 0.500377
O O14 0.287777 0.984040 0.597436
O O15 0.518140 0.250000 0.229528
O O16 0.442232 0.492910 0.211138
O O17 0.127305 0.250000 0.715901
O O18 0.185994 0.009315 0.671572
O O19 0.367798 0.250000 0.434590
O O20 0.251437 0.750000 0.661565
#
# Coordination Sequence:
#
# PCOD8252250 Si02
#       8
#     8   8   8   8   8   8   8   8
#     4  10  20  33  47  70 102 136 175 210 243 289
#     4  10  20  34  51  73 101 131 168 209 254 305
#     4   9  19  33  50  72  96 128 167 207 251 296
#     4  11  22  34  50  71  98 136 176 211 251 296
#     4  11  20  31  51  78 104 134 170 206 251 301
#     4  10  20  34  52  74 101 132 166 207 255 304
#     4  10  21  35  50  70  99 135 173 212 250 294
#     4  11  21  34  51  72  98 131 169 213 256 297
#
# _framework density 16.703741000000001
#
# number of rings (size 3 to 8) (size 9 to 14) (size 15 to 20)
#    0.000    1.750    2.500    3.750    0.000    4.500 
#    0.000    0.000    0.000    0.000    0.000    0.875 
#    0.000    0.000    0.000    0.000    0.000    0.000 
#
# Total GULP energy -793839.138407 kJ/mol
# GULP energy per Si atom -12403.736538 kJ/mol
# Density = 1.666572 g / cm^3
# Si number density = 16.703741 Si / 1000 Ang^3
#
#
#
# Elastic Constant Matrix: (Units=GPa)
#
#
# Indices 1 2 3 4 5 6 
#
# 1 97.5847 18.5421 23.5445 0.0000 0.0000 0.0000
# 2 18.5421 49.9665 18.5618 0.0000 0.0000 0.0000
# 3 23.5445 18.5618 49.3284 0.0000 0.0000 0.0000
# 4 0.0000 0.0000 0.0000 22.8661 0.0000 0.0000
# 5 0.0000 0.0000 0.0000 0.0000 19.3299 0.0000
# 6 0.0000 0.0000 0.0000 0.0000 0.0000 32.6835
#
#
#
# Elastic Compliance Matrix: (Units=1/GPa)
#
#
# Indices 1 2 3 4 5 6 
#
# 1 0.011881 -0.002677 -0.004664 0.000000 0.000000 0.000000
# 2 -0.002677 0.023869 -0.007704 0.000000 0.000000 0.000000
# 3 -0.004664 -0.007704 0.025397 0.000000 0.000000 0.000000
# 4 0.000000 0.000000 0.000000 0.043733 0.000000 0.000000
# 5 0.000000 0.000000 0.000000 0.000000 0.051733 0.000000
# 6 0.000000 0.000000 0.000000 0.000000 0.000000 0.030596
#
#
# Mechanical properties :
#
#
# Convention : Reuss Voigt Hill
#
# Bulk Modulus (GPa) = 32.19729 35.35291 33.77510
# Shear Modulus (GPa) = 21.96342 24.05799 23.01070
#
# Velocity S-wave (km/s) = 3.63006 3.79921 3.71560
# Velocity P-wave (km/s) = 6.07348 6.36050 6.21865
#
# Compressibility (1/GPa) = 0.03105851
#
# Stress axis : x y z
#
# Youngs Moduli (GPa) = 84.16567 41.89613 39.37430
#
# Poissons Ratio (x) = 0.11214 0.18363
# Poissons Ratio (y) = 0.22527 0.30334
# Poissons Ratio (z) = 0.39253 0.32277
#
# Static dielectric constant tensor:
#      x y z
#    x 3.198960 0.000000 0.000000 
#    y 0.000000 3.130850 0.000000 
#    z 0.000000 0.000000 3.064980 
# 
# 
# High freq. dielectric constant tensor:
#      x y z
#    x 1.642850 0.000000 0.000000 
#    y 0.000000 1.653640 0.000000 
#    z 0.000000 0.000000 1.612810 
# 
# From -- ./inp_files/27661.got.cif
#   From: 2010.03.12/outbox.cif.g09.slc.cpg/sg62_14_cif.got.tgz:27661.got - 2010.04.10 19:12:36.
