data_PCOD8252673
_publ_section_title
;
Structure prediction by ZEFSAII (Michael W. Deem and Ramdas Pophale) SiO2 
 PCOD8252673
Probable space group: P N M A
;
_chemical_formula_sum "Si O2"
_cell_formula_units_Z 48
_cell_length_a 30.727128
_cell_length_b 8.754166
_cell_length_c 9.415210
_cell_angle_alpha 90.000000
_cell_angle_beta 90.000000
_cell_angle_gamma 90.000000
_cell_volume 2532.600908
_symmetry_space_group_name_H-M "P N M A"
_symmetry_group_IT_number 62
_symmetry_cell_setting 'orthorhombic'
loop_
_space_group_symop_operation_xyz
x,y,z
1/2-x,-y,1/2+z
1/2+x,1/2-y,1/2-z
-x,1/2+y,-z
-x,-y,-z
1/2+x,y,1/2-z
1/2-x,1/2+y,1/2+z
x,1/2-y,z
loop_
_atom_site_type_symbol
_atom_site_label
_atom_site_fract_x
_atom_site_fract_y
_atom_site_fract_z
Si Si1 0.964472 0.429264 0.101250
Si Si2 0.289114 0.431117 0.591294
Si Si3 0.712258 0.928900 0.086402
Si Si4 0.962215 0.569725 0.407651
Si Si5 0.632962 0.571849 0.594774
Si Si6 0.872930 0.071034 0.412489
O O1 0.972549 0.250000 0.120504
O O2 0.969320 0.511610 0.249738
O O3 0.915984 0.461494 0.039656
O O4 0.000000 0.500000 0.000000
O O5 0.291816 0.250000 0.596155
O O6 0.246815 0.480567 0.506208
O O7 0.331842 0.501933 0.512941
O O8 0.286865 0.492387 0.752682
O O9 0.723124 0.750000 0.078162
O O10 0.665005 0.964660 0.022948
O O11 0.964933 0.750000 0.412589
O O12 0.915729 0.515005 0.468583
O O13 0.000000 0.500000 0.500000
O O14 0.642532 0.750000 0.599642
O O15 0.639587 0.508166 0.755148
O O16 0.883940 0.250000 0.403063
#
# Coordination Sequence:
#
# PCOD8252673 Si02
#       6
#     8   8   8   8   8   8
#     4  10  20  36  57  83 113 147 188 230 278 331
#     4  10  20  35  55  79 107 142 183 222 266 324
#     4  10  21  35  54  81 110 142 179 222 273 325
#     4  11  22  37  57  82 112 146 184 227 277 331
#     4   8  16  32  53  74 102 142 181 221 269 320
#     4   9  18  35  55  75 105 143 182 224 273 327
#
# _framework density 18.952847999999999
#
# number of rings (size 3 to 8) (size 9 to 14) (size 15 to 20)
#    0.000    2.333    0.000    4.000    0.000    4.000 
#    0.000    9.167    0.000    0.000    0.000    0.000 
#    0.000    0.000    0.000    0.000    0.000    0.000 
#
# Total GULP energy -595154.240079 kJ/mol
# GULP energy per Si atom -12399.046668 kJ/mol
# Density = 1.890971 g / cm^3
# Si number density = 18.952848 Si / 1000 Ang^3
#
#
#
# Elastic Constant Matrix: (Units=GPa)
#
#
# Indices 1 2 3 4 5 6 
#
# 1 131.5779 48.0365 80.6177 0.0000 0.0000 0.0000
# 2 48.0365 71.2617 34.3503 0.0000 0.0000 0.0000
# 3 80.6177 34.3503 123.4220 0.0000 0.0000 0.0000
# 4 0.0000 0.0000 0.0000 26.9714 0.0000 0.0000
# 5 0.0000 0.0000 0.0000 0.0000 43.4862 0.0000
# 6 0.0000 0.0000 0.0000 0.0000 0.0000 33.1547
#
#
#
# Elastic Compliance Matrix: (Units=1/GPa)
#
#
# Indices 1 2 3 4 5 6 
#
# 1 0.014642 -0.006075 -0.007873 0.000000 0.000000 0.000000
# 2 -0.006075 0.018727 -0.001244 0.000000 0.000000 0.000000
# 3 -0.007873 -0.001244 0.013591 0.000000 0.000000 0.000000
# 4 0.000000 0.000000 0.000000 0.037076 0.000000 0.000000
# 5 0.000000 0.000000 0.000000 0.000000 0.022996 0.000000
# 6 0.000000 0.000000 0.000000 0.000000 0.000000 0.030162
#
#
# Mechanical properties :
#
#
# Convention : Reuss Voigt Hill
#
# Bulk Modulus (GPa) = 60.32722 72.47451 66.40087
# Shear Modulus (GPa) = 28.88451 31.60627 30.24539
#
# Velocity S-wave (km/s) = 3.90810 4.08809 3.99911
# Velocity P-wave (km/s) = 7.22936 7.78497 7.51230
#
# Compressibility (1/GPa) = 0.01657627
#
# Stress axis : x y z
#
# Youngs Moduli (GPa) = 68.29855 53.39776 73.57730
#
# Poissons Ratio (x) = 0.32437 0.57928
# Poissons Ratio (y) = 0.41489 0.09155
# Poissons Ratio (z) = 0.53772 0.06644
#
# Static dielectric constant tensor:
#      x y z
#    x 3.724440 0.000000 0.000000 
#    y 0.000000 3.323210 0.000000 
#    z 0.000000 0.000000 3.071130 
# 
# 
# High freq. dielectric constant tensor:
#      x y z
#    x 1.751410 0.000000 0.000000 
#    y 0.000000 1.717090 0.000000 
#    z 0.000000 0.000000 1.738660 
# 
# From -- ./inp_files/10166.got.cif
#   From: 2010.03.12/outbox.cif.g09.slc.cpg/sg62_6_cif.got.tgz:10166.got - 2010.04.10 19:12:36.
