data_PCOD8252944
_publ_section_title
;
Structure prediction by ZEFSAII (Michael W. Deem and Ramdas Pophale) SiO2 
 PCOD8252944
Probable space group: P N M A
;
_chemical_formula_sum "Si O2"
_cell_formula_units_Z 64
_cell_length_a 25.920044
_cell_length_b 8.793035
_cell_length_c 14.729674
_cell_angle_alpha 90.000000
_cell_angle_beta 90.000000
_cell_angle_gamma 90.000000
_cell_volume 3357.126230
_symmetry_space_group_name_H-M "P N M A"
_symmetry_group_IT_number 62
_symmetry_cell_setting 'orthorhombic'
loop_
_space_group_symop_operation_xyz
x,y,z
1/2-x,-y,1/2+z
1/2+x,1/2-y,1/2-z
-x,1/2+y,-z
-x,-y,-z
1/2+x,y,1/2-z
1/2-x,1/2+y,1/2+z
x,1/2-y,z
loop_
_atom_site_type_symbol
_atom_site_label
_atom_site_fract_x
_atom_site_fract_y
_atom_site_fract_z
Si Si1 0.668455 0.926821 0.987338
Si Si2 0.445426 0.575390 0.511647
Si Si3 0.999568 0.429378 0.400468
Si Si4 0.396362 0.569652 0.168850
Si Si5 0.863312 0.576192 0.138607
Si Si6 0.864486 0.427489 0.861087
Si Si7 0.713194 0.430128 0.490480
Si Si8 0.101869 0.925289 0.337735
O O1 0.663427 0.750000 0.960553
O O2 0.727595 0.978344 0.995505
O O3 0.642210 0.029846 0.911777
O O4 0.641710 0.961862 0.082510
O O5 0.500000 0.500000 0.500000
O O6 0.451816 0.750000 0.539559
O O7 0.416175 0.557848 0.416498
O O8 0.415314 0.492551 0.591866
O O9 0.994571 0.250000 0.410839
O O10 0.051426 0.471016 0.346885
O O11 0.000000 0.500000 0.500000
O O12 0.951361 0.491018 0.344107
O O13 0.405023 0.750000 0.173355
O O14 0.371474 0.502804 0.262062
O O15 0.848709 0.750000 0.154981
O O16 0.816420 0.502963 0.079794
O O17 0.861545 0.250000 0.880464
O O18 0.812380 0.503001 0.899475
O O19 0.868234 0.464572 0.754600
O O20 0.705397 0.250000 0.486687
O O21 0.083987 0.750000 0.339992
#
# Coordination Sequence:
#
# PCOD8252944 Si02
#       8
#     8   8   8   8   8   8   8   8
#     4  10  21  38  60  84 113 152 195 239 290 344
#     4  10  20  36  56  81 112 150 191 236 290 345
#     4  12  24  39  59  84 117 154 192 237 292 343
#     4  11  22  37  59  87 116 150 193 238 286 344
#     4   8  18  36  57  80 111 149 189 230 279 343
#     4  10  21  37  58  85 115 151 193 239 288 343
#     4   9  19  39  62  83 113 153 192 238 294 344
#     4  10  22  39  59  84 117 156 197 235 284 348
#
# _framework density 19.063924
#
# number of rings (size 3 to 8) (size 9 to 14) (size 15 to 20)
#    0.000    2.000    1.250    3.000    1.750    2.500 
#    0.000    8.125    0.000    0.000    0.000    0.000 
#    0.000    0.000    0.000    0.000    0.000    0.000 
#
# Total GULP energy -793684.267726 kJ/mol
# GULP energy per Si atom -12401.316683 kJ/mol
# Density = 1.902053 g / cm^3
# Si number density = 19.063924 Si / 1000 Ang^3
#
#
#
# Elastic Constant Matrix: (Units=GPa)
#
#
# Indices 1 2 3 4 5 6 
#
# 1 154.4970 50.7194 59.5296 0.0000 0.0000 0.0000
# 2 50.7194 77.1027 47.0904 0.0000 0.0000 0.0000
# 3 59.5296 47.0904 145.2074 0.0000 0.0000 0.0000
# 4 0.0000 0.0000 0.0000 25.8121 0.0000 0.0000
# 5 0.0000 0.0000 0.0000 0.0000 -13.2620 0.0000
# 6 0.0000 0.0000 0.0000 0.0000 0.0000 31.2141
#
#
#
# Elastic Compliance Matrix: (Units=1/GPa)
#
#
# Indices 1 2 3 4 5 6 
#
# 1 0.008762 -0.004452 -0.002148 0.000000 0.000000 0.000000
# 2 -0.004452 0.018435 -0.004153 0.000000 0.000000 0.000000
# 3 -0.002148 -0.004153 0.009114 0.000000 0.000000 0.000000
# 4 0.000000 0.000000 0.000000 0.038742 0.000000 0.000000
# 5 0.000000 0.000000 0.000000 0.000000 -0.075404 0.000000
# 6 0.000000 0.000000 0.000000 0.000000 0.000000 0.032037
#
#
# Mechanical properties :
#
#
# Convention : Reuss Voigt Hill
#
# Bulk Modulus (GPa) = 67.54795 76.83177 72.18986
# Shear Modulus (GPa) = 86.01861 23.38402 54.70131
#
# Velocity S-wave (km/s) = 6.72451 3.50610 5.36245
# Velocity P-wave (km/s) = 9.78782 7.53525 8.73445
#
# Compressibility (1/GPa) = 0.01480430
#
# Stress axis : x y z
#
# Youngs Moduli (GPa) = 114.13177 54.24564 109.71667
#
# Poissons Ratio (x) = 0.24148 0.23571
# Poissons Ratio (y) = 0.50806 0.45569
# Poissons Ratio (z) = 0.24520 0.22530
#
# Static dielectric constant tensor:
#      x y z
#    x 3.691840 0.000000 0.000000 
#    y 0.000000 3.465970 0.000000 
#    z 0.000000 0.000000 3.859320 
# 
# 
# High freq. dielectric constant tensor:
#      x y z
#    x 1.746770 0.000000 0.000000 
#    y 0.000000 1.732010 0.000000 
#    z 0.000000 0.000000 1.749260 
# 
# From -- ./inp_files/20932.got.cif
#   From: 2010.03.12/outbox.cif.g09.slc.cpg/sg62_11_cif.got.tgz:20932.got - 2010.04.10 19:12:36.
