data_PCOD8252184
_publ_section_title
;
Structure prediction by ZEFSAII (Michael W. Deem and Ramdas Pophale) SiO2 
 PCOD8252184
Probable space group: P N M A
;
_chemical_formula_sum "Si O2"
_cell_formula_units_Z 40
_cell_length_a 13.628414
_cell_length_b 9.013265
_cell_length_c 18.618761
_cell_angle_alpha 90.000000
_cell_angle_beta 90.000000
_cell_angle_gamma 90.000000
_cell_volume 2287.063564
_symmetry_space_group_name_H-M "P N M A"
_symmetry_group_IT_number 62
_symmetry_cell_setting 'orthorhombic'
loop_
_space_group_symop_operation_xyz
x,y,z
1/2-x,-y,1/2+z
1/2+x,1/2-y,1/2-z
-x,1/2+y,-z
-x,-y,-z
1/2+x,y,1/2-z
1/2-x,1/2+y,1/2+z
x,1/2-y,z
loop_
_atom_site_type_symbol
_atom_site_label
_atom_site_fract_x
_atom_site_fract_y
_atom_site_fract_z
Si Si1 0.617266 0.923677 0.209951
Si Si2 0.701164 0.924403 0.649305
Si Si3 0.792029 0.423948 0.858716
Si Si4 0.395064 0.425282 0.500507
Si Si5 0.602975 0.424985 0.780757
O O1 0.637114 0.750000 0.198500
O O2 0.638492 0.969428 0.292311
O O3 0.505389 0.967856 0.192130
O O4 0.688681 0.012858 0.157145
O O5 0.703288 0.750000 0.661935
O O6 0.664467 0.967774 0.570517
O O7 0.626399 0.995670 0.705926
O O8 0.791246 0.250000 0.869433
O O9 0.680725 0.477497 0.841529
O O10 0.833714 0.493436 0.932200
O O11 0.500000 0.500000 0.500000
O O12 0.410323 0.250000 0.507420
O O13 0.611666 0.250000 0.765935
#
# Coordination Sequence:
#
# PCOD8252184 Si02
#       5
#     8   8   8   8   8
#     4   9  17  31  52  72  90 121 163 201 233 273
#     4  10  20  31  46  72 103 129 153 191 246 295
#     4   8  15  29  48  69  92 119 155 195 231 272
#     4  10  20  33  49  70  97 127 157 194 240 285
#     4   9  17  32  54  73  90 122 167 205 234 273
#
# _framework density 17.489674999999998
#
# number of rings (size 3 to 8) (size 9 to 14) (size 15 to 20)
#    0.000    2.800    0.000    3.000    0.000    4.000 
#    0.000    7.000    0.000    0.000    0.000    0.000 
#    0.000    0.000    0.000    0.000    0.000    0.000 
#
# Total GULP energy -495887.453213 kJ/mol
# GULP energy per Si atom -12397.186330 kJ/mol
# Density = 1.744987 g / cm^3
# Si number density = 17.489675 Si / 1000 Ang^3
#
#
#
# Elastic Constant Matrix: (Units=GPa)
#
#
# Indices 1 2 3 4 5 6 
#
# 1 164.0705 46.7693 78.7672 0.0000 0.0000 0.0000
# 2 46.7693 40.2502 42.0551 0.0000 0.0000 0.0000
# 3 78.7672 42.0551 132.7079 0.0000 0.0000 0.0000
# 4 0.0000 0.0000 0.0000 22.0916 0.0000 0.0000
# 5 0.0000 0.0000 0.0000 0.0000 21.9626 0.0000
# 6 0.0000 0.0000 0.0000 0.0000 0.0000 26.3900
#
#
#
# Elastic Compliance Matrix: (Units=1/GPa)
#
#
# Indices 1 2 3 4 5 6 
#
# 1 0.010035 -0.008128 -0.003380 0.000000 0.000000 0.000000
# 2 -0.008128 0.043727 -0.009033 0.000000 0.000000 0.000000
# 3 -0.003380 -0.009033 0.012404 0.000000 0.000000 0.000000
# 4 0.000000 0.000000 0.000000 0.045266 0.000000 0.000000
# 5 0.000000 0.000000 0.000000 0.000000 0.045532 0.000000
# 6 0.000000 0.000000 0.000000 0.000000 0.000000 0.037893
#
#
# Mechanical properties :
#
#
# Convention : Reuss Voigt Hill
#
# Bulk Modulus (GPa) = 39.86652 74.69018 57.27835
# Shear Modulus (GPa) = 20.46662 25.38466 22.92564
#
# Velocity S-wave (km/s) = 3.42455 3.81387 3.62444
# Velocity P-wave (km/s) = 6.20327 7.88620 7.09481
#
# Compressibility (1/GPa) = 0.02508370
#
# Stress axis : x y z
#
# Youngs Moduli (GPa) = 99.65443 22.86912 80.61900
#
# Poissons Ratio (x) = 0.18589 0.27250
# Poissons Ratio (y) = 0.81002 0.72820
# Poissons Ratio (z) = 0.33684 0.20657
#
# Static dielectric constant tensor:
#      x y z
#    x 3.521260 0.000000 0.000000 
#    y 0.000000 3.039520 0.000000 
#    z 0.000000 0.000000 3.385860 
# 
# 
# High freq. dielectric constant tensor:
#      x y z
#    x 1.688030 0.000000 0.000000 
#    y 0.000000 1.653730 0.000000 
#    z 0.000000 0.000000 1.665160 
# 
# From -- ./inp_files/18630.got.cif
#   From: 2010.03.12/outbox.cif.g09.slc.cpg/sg62_10_cif.got.tgz:18630.got - 2010.04.10 19:12:36.
