data_PCOD8252781
_publ_section_title
;
Structure prediction by ZEFSAII (Michael W. Deem and Ramdas Pophale) SiO2 
 PCOD8252781
Probable space group: P N M A
;
_chemical_formula_sum "Si O2"
_cell_formula_units_Z 64
_cell_length_a 24.716767
_cell_length_b 8.930728
_cell_length_c 15.119720
_cell_angle_alpha 90.000000
_cell_angle_beta 90.000000
_cell_angle_gamma 90.000000
_cell_volume 3337.507687
_symmetry_space_group_name_H-M "P N M A"
_symmetry_group_IT_number 62
_symmetry_cell_setting 'orthorhombic'
loop_
_space_group_symop_operation_xyz
x,y,z
1/2-x,-y,1/2+z
1/2+x,1/2-y,1/2-z
-x,1/2+y,-z
-x,-y,-z
1/2+x,y,1/2-z
1/2-x,1/2+y,1/2+z
x,1/2-y,z
loop_
_atom_site_type_symbol
_atom_site_label
_atom_site_fract_x
_atom_site_fract_y
_atom_site_fract_z
Si Si1 0.854339 0.073944 0.330453
Si Si2 0.833099 0.572740 0.504994
Si Si3 0.438313 0.073194 0.317905
Si Si4 0.356120 0.425416 0.815444
Si Si5 0.551629 0.574903 0.320703
Si Si6 0.888861 0.426572 0.997959
Si Si7 0.720267 0.077489 0.528283
Si Si8 0.263209 0.920171 0.268889
O O1 0.857090 0.250000 0.346409
O O2 0.898287 0.018549 0.259176
O O3 0.867209 0.989254 0.421897
O O4 0.794599 0.031042 0.296147
O O5 0.832679 0.750000 0.504626
O O6 0.862123 0.515890 0.593749
O O7 0.772265 0.512536 0.495480
O O8 0.442312 0.250000 0.320142
O O9 0.416545 0.014281 0.412186
O O10 0.496930 0.009022 0.297351
O O11 0.356756 0.250000 0.838927
O O12 0.404137 0.474536 0.751186
O O13 0.299835 0.465262 0.767012
O O14 0.540609 0.750000 0.315420
O O15 0.571632 0.529063 0.418084
O O16 0.877233 0.250000 0.000938
O O17 0.832252 0.509344 0.981415
O O18 0.727755 0.250000 0.501060
O O19 0.713193 0.059554 0.633086
O O20 0.271356 0.750000 0.235818
#
# Coordination Sequence:
#
# PCOD8252781 Si02
#       8
#     8   8   8   8   8   8   8   8
#     4  11  22  37  58  86 118 154 196 243 294 342
#     4  11  23  38  59  85 116 155 195 242 296 354
#     4  10  22  39  58  84 121 156 196 245 288 343
#     4   9  20  40  59  84 119 152 193 245 297 345
#     4  10  22  38  61  86 115 156 198 243 294 349
#     4  10  20  36  57  87 121 157 196 238 289 343
#     4  10  20  35  56  86 120 155 191 234 286 345
#     4   9  18  33  55  83 116 151 188 233 290 348
#
# _framework density 19.175985000000001
#
# number of rings (size 3 to 8) (size 9 to 14) (size 15 to 20)
#    0.000    2.000    1.250    3.000    1.750    4.500 
#    0.000    0.625    0.000    0.000    0.000    0.000 
#    0.000    0.000    0.000    0.000    0.000    0.000 
#
# Total GULP energy -793874.549505 kJ/mol
# GULP energy per Si atom -12404.289836 kJ/mol
# Density = 1.913234 g / cm^3
# Si number density = 19.175985 Si / 1000 Ang^3
#
#
#
# Elastic Constant Matrix: (Units=GPa)
#
#
# Indices 1 2 3 4 5 6 
#
# 1 114.9545 39.7391 71.5451 0.0000 0.0000 0.0000
# 2 39.7391 74.7987 50.1805 0.0000 0.0000 0.0000
# 3 71.5451 50.1805 120.2551 0.0000 0.0000 0.0000
# 4 0.0000 0.0000 0.0000 28.7972 0.0000 0.0000
# 5 0.0000 0.0000 0.0000 0.0000 23.7974 0.0000
# 6 0.0000 0.0000 0.0000 0.0000 0.0000 34.2511
#
#
#
# Elastic Compliance Matrix: (Units=1/GPa)
#
#
# Indices 1 2 3 4 5 6 
#
# 1 0.014169 -0.002600 -0.007345 0.000000 0.000000 0.000000
# 2 -0.002600 0.019044 -0.006400 0.000000 0.000000 0.000000
# 3 -0.007345 -0.006400 0.015356 0.000000 0.000000 0.000000
# 4 0.000000 0.000000 0.000000 0.034726 0.000000 0.000000
# 5 0.000000 0.000000 0.000000 0.000000 0.042021 0.000000
# 6 0.000000 0.000000 0.000000 0.000000 0.000000 0.029196
#
#
# Mechanical properties :
#
#
# Convention : Reuss Voigt Hill
#
# Bulk Modulus (GPa) = 62.97445 70.32641 66.65043
# Shear Modulus (GPa) = 25.97461 27.27205 26.62333
#
# Velocity S-wave (km/s) = 3.68440 3.77530 3.73012
# Velocity P-wave (km/s) = 7.14222 7.46710 7.30647
#
# Compressibility (1/GPa) = 0.01587946
#
# Stress axis : x y z
#
# Youngs Moduli (GPa) = 70.57507 52.50952 65.12145
#
# Poissons Ratio (x) = 0.13655 0.47831
# Poissons Ratio (y) = 0.18352 0.41676
# Poissons Ratio (z) = 0.51836 0.33605
#
# Static dielectric constant tensor:
#      x y z
#    x 3.394530 0.000000 0.000000 
#    y 0.000000 3.391880 0.000000 
#    z 0.000000 0.000000 3.628370 
# 
# 
# High freq. dielectric constant tensor:
#      x y z
#    x 1.736260 0.000000 0.000000 
#    y 0.000000 1.741370 0.000000 
#    z 0.000000 0.000000 1.751500 
# 
# From -- ./inp_files/20768.got.cif
#   From: 2010.03.12/outbox.cif.g09.slc.cpg/sg62_11_cif.got.tgz:20768.got - 2010.04.10 19:12:36.
