data_PCOD8252668
_publ_section_title
;
Structure prediction by ZEFSAII (Michael W. Deem and Ramdas Pophale) SiO2 
 PCOD8252668
Probable space group: P N M A
;
_chemical_formula_sum "Si O2"
_cell_formula_units_Z 40
_cell_length_a 13.727039
_cell_length_b 17.243575
_cell_length_c 8.832334
_cell_angle_alpha 90.000000
_cell_angle_beta 90.000000
_cell_angle_gamma 90.000000
_cell_volume 2090.641956
_symmetry_space_group_name_H-M "P N M A"
_symmetry_group_IT_number 62
_symmetry_cell_setting 'orthorhombic'
loop_
_space_group_symop_operation_xyz
x,y,z
1/2-x,-y,1/2+z
1/2+x,1/2-y,1/2-z
-x,1/2+y,-z
-x,-y,-z
1/2+x,y,1/2-z
1/2-x,1/2+y,1/2+z
x,1/2-y,z
loop_
_atom_site_type_symbol
_atom_site_label
_atom_site_fract_x
_atom_site_fract_y
_atom_site_fract_z
Si Si1 0.661536 0.026382 0.721246
Si Si2 0.144413 0.337645 0.996237
Si Si3 0.863931 0.164533 0.460950
Si Si4 0.494105 0.091240 0.271196
Si Si5 0.860018 0.002369 0.572135
O O1 0.647072 0.113023 0.658232
O O2 0.576457 0.972182 0.651175
O O3 0.763754 0.989718 0.670586
O O4 0.659183 0.026541 0.902120
O O5 0.118726 0.250000 0.950033
O O6 0.248951 0.342751 0.080000
O O7 0.062146 0.369392 0.106803
O O8 0.884655 0.250000 0.532846
O O9 0.926709 0.156556 0.307679
O O10 0.890147 0.094074 0.575059
O O11 0.553695 0.047759 0.140114
#
# Coordination Sequence:
#
# PCOD8252668 Si02
#       5
#     8   8   8   8   8
#     4  10  20  35  55  78 107 139 179 220 260 314
#     4  10  21  36  54  77 108 142 175 219 270 313
#     4   9  18  32  50  74 105 137 169 209 259 311
#     4  11  19  34  57  81 103 137 179 220 262 315
#     4  10  20  35  56  80 106 141 179 216 261 315
#
# _framework density 19.132881000000001
#
# number of rings (size 3 to 8) (size 9 to 14) (size 15 to 20)
#    0.000    2.000    0.000    7.200    0.000    0.000 
#    0.000    5.000    0.000   13.200    0.000    0.000 
#    0.000    0.000    0.000    0.000    0.000    0.000 
#
# Total GULP energy -495817.829638 kJ/mol
# GULP energy per Si atom -12395.445741 kJ/mol
# Density = 1.908933 g / cm^3
# Si number density = 19.132881 Si / 1000 Ang^3
#
#
#
# Elastic Constant Matrix: (Units=GPa)
#
#
# Indices 1 2 3 4 5 6 
#
# 1 96.3805 49.6365 26.6764 0.0000 0.0000 0.0000
# 2 49.6365 144.9424 49.8379 0.0000 0.0000 0.0000
# 3 26.6764 49.8379 60.2227 0.0000 0.0000 0.0000
# 4 0.0000 0.0000 0.0000 21.0473 0.0000 0.0000
# 5 0.0000 0.0000 0.0000 0.0000 29.1286 0.0000
# 6 0.0000 0.0000 0.0000 0.0000 0.0000 22.9508
#
#
#
# Elastic Compliance Matrix: (Units=1/GPa)
#
#
# Indices 1 2 3 4 5 6 
#
# 1 0.012947 -0.003441 -0.002887 0.000000 0.000000 0.000000
# 2 -0.003441 0.010558 -0.007213 0.000000 0.000000 0.000000
# 3 -0.002887 -0.007213 0.023853 0.000000 0.000000 0.000000
# 4 0.000000 0.000000 0.000000 0.047512 0.000000 0.000000
# 5 0.000000 0.000000 0.000000 0.000000 0.034331 0.000000
# 6 0.000000 0.000000 0.000000 0.000000 0.000000 0.043571
#
#
# Mechanical properties :
#
#
# Convention : Reuss Voigt Hill
#
# Bulk Modulus (GPa) = 49.32130 61.53857 55.42993
# Shear Modulus (GPa) = 24.19985 26.31834 25.25910
#
# Velocity S-wave (km/s) = 3.56030 3.71287 3.63739
# Velocity P-wave (km/s) = 6.53722 7.11436 6.83189
#
# Compressibility (1/GPa) = 0.02027522
#
# Stress axis : x y z
#
# Youngs Moduli (GPa) = 77.23918 94.71636 41.92300
#
# Poissons Ratio (x) = 0.32591 0.12105
# Poissons Ratio (y) = 0.26577 0.30239
# Poissons Ratio (z) = 0.22302 0.68319
#
# Static dielectric constant tensor:
#      x y z
#    x 3.826310 0.000000 0.000000 
#    y 0.000000 3.759010 0.000000 
#    z 0.000000 0.000000 3.118150 
# 
# 
# High freq. dielectric constant tensor:
#      x y z
#    x 1.766880 0.000000 0.000000 
#    y 0.000000 1.749080 0.000000 
#    z 0.000000 0.000000 1.712590 
# 
# From -- ./inp_files/5040.got.cif
#   From: 2010.03.12/outbox.cif.g09.slc.cpg/sg62_3_cif.got.tgz:5040.got - 2010.04.10 19:12:36.
