data_PCOD8252876
_publ_section_title
;
Structure prediction by ZEFSAII (Michael W. Deem and Ramdas Pophale) SiO2 
 PCOD8252876
Probable space group: P N M A
;
_chemical_formula_sum "Si O2"
_cell_formula_units_Z 64
_cell_length_a 29.131296
_cell_length_b 8.879121
_cell_length_c 12.567992
_cell_angle_alpha 90.000000
_cell_angle_beta 90.000000
_cell_angle_gamma 90.000000
_cell_volume 3250.840607
_symmetry_space_group_name_H-M "P N M A"
_symmetry_group_IT_number 62
_symmetry_cell_setting 'orthorhombic'
loop_
_space_group_symop_operation_xyz
x,y,z
1/2-x,-y,1/2+z
1/2+x,1/2-y,1/2-z
-x,1/2+y,-z
-x,-y,-z
1/2+x,y,1/2-z
1/2-x,1/2+y,1/2+z
x,1/2-y,z
loop_
_atom_site_type_symbol
_atom_site_label
_atom_site_fract_x
_atom_site_fract_y
_atom_site_fract_z
Si Si1 0.466597 0.075292 0.259632
Si Si2 0.114053 0.571736 0.366847
Si Si3 0.195614 0.925391 0.870300
Si Si4 0.931498 0.926472 0.831552
Si Si5 0.575316 0.076777 0.932975
Si Si6 0.293030 0.923104 0.937261
Si Si7 0.900997 0.071045 0.048643
Si Si8 0.174121 0.416399 0.664037
O O1 0.460519 0.250000 0.234327
O O2 0.515771 0.036538 0.308076
O O3 0.428537 0.022307 0.345146
O O4 0.462779 0.989969 0.146452
O O5 0.111782 0.750000 0.370764
O O6 0.100674 0.514390 0.250437
O O7 0.077945 0.507001 0.453515
O O8 0.165998 0.519959 0.387995
O O9 0.199543 0.750000 0.889135
O O10 0.151826 0.983820 0.937489
O O11 0.188099 0.956894 0.746634
O O12 0.244287 0.997079 0.904230
O O13 0.920984 0.750000 0.823272
O O14 0.921791 0.983564 0.949699
O O15 0.564075 0.250000 0.957164
O O16 0.623019 0.053189 0.874046
O O17 0.299334 0.750000 0.898771
O O18 0.292172 0.930488 0.064442
O O19 0.905133 0.250000 0.030672
O O20 0.178162 0.250000 0.715765
#
# Coordination Sequence:
#
# PCOD8252876 Si02
#       8
#     8   8   8   8   8   8   8   8
#     4  10  21  38  61  89 120 155 198 245 292 346
#     4  11  23  40  61  84 115 156 197 245 300 354
#     4  10  20  35  59  86 116 150 189 239 293 346
#     4  11  24  40  59  85 121 162 199 242 294 350
#     4  10  20  36  61  88 116 150 192 243 292 347
#     4   9  20  38  57  83 116 151 190 238 295 351
#     4  10  21  38  59  87 122 156 195 243 291 347
#     4   9  18  33  53  79 113 148 187 235 284 339
#
# _framework density 19.687215999999999
#
# number of rings (size 3 to 8) (size 9 to 14) (size 15 to 20)
#    0.000    2.000    1.250    3.000    0.000    6.000 
#    0.000    1.250    0.000    0.000    0.000    0.000 
#    0.000    0.000    0.000    0.000    0.000    0.000 
#
# Total GULP energy -793642.546747 kJ/mol
# GULP energy per Si atom -12400.664793 kJ/mol
# Density = 1.964241 g / cm^3
# Si number density = 19.687216 Si / 1000 Ang^3
#
#
#
# Elastic Constant Matrix: (Units=GPa)
#
#
# Indices 1 2 3 4 5 6 
#
# 1 80.5427 31.5661 15.7336 0.0000 0.0000 0.0000
# 2 31.5661 68.0346 13.6895 0.0000 0.0000 0.0000
# 3 15.7336 13.6895 37.2945 0.0000 0.0000 0.0000
# 4 0.0000 0.0000 0.0000 38.1274 0.0000 0.0000
# 5 0.0000 0.0000 0.0000 0.0000 15.5646 0.0000
# 6 0.0000 0.0000 0.0000 0.0000 0.0000 18.5530
#
#
#
# Elastic Compliance Matrix: (Units=1/GPa)
#
#
# Indices 1 2 3 4 5 6 
#
# 1 0.015786 -0.006461 -0.004288 0.000000 0.000000 0.000000
# 2 -0.006461 0.018515 -0.004070 0.000000 0.000000 0.000000
# 3 -0.004288 -0.004070 0.030117 0.000000 0.000000 0.000000
# 4 0.000000 0.000000 0.000000 0.026228 0.000000 0.000000
# 5 0.000000 0.000000 0.000000 0.000000 0.064248 0.000000
# 6 0.000000 0.000000 0.000000 0.000000 0.000000 0.053900
#
#
# Mechanical properties :
#
#
# Convention : Reuss Voigt Hill
#
# Bulk Modulus (GPa) = 28.75348 34.20557 31.47952
# Shear Modulus (GPa) = 19.99793 22.77449 21.38621
#
# Velocity S-wave (km/s) = 3.19059 3.40489 3.29948
# Velocity P-wave (km/s) = 5.31131 5.73323 5.52630
#
# Compressibility (1/GPa) = 0.03477840
#
# Stress axis : x y z
#
# Youngs Moduli (GPa) = 63.34848 54.00936 33.20418
#
# Poissons Ratio (x) = 0.34897 0.14237
# Poissons Ratio (y) = 0.40932 0.13516
# Poissons Ratio (z) = 0.27163 0.21984
#
# Static dielectric constant tensor:
#      x y z
#    x 3.775340 0.000000 0.000000 
#    y 0.000000 3.504310 0.000000 
#    z 0.000000 0.000000 3.600490 
# 
# 
# High freq. dielectric constant tensor:
#      x y z
#    x 1.771630 0.000000 0.000000 
#    y 0.000000 1.759970 0.000000 
#    z 0.000000 0.000000 1.769190 
# 
# From -- ./inp_files/15842.got.cif
#   From: 2010.03.12/outbox.cif.g09.slc.cpg/sg62_8_cif.got.tgz:15842.got - 2010.04.10 19:12:36.
