data_PCOD8252717
_publ_section_title
;
Structure prediction by ZEFSAII (Michael W. Deem and Ramdas Pophale) SiO2 
 PCOD8252717
Probable space group: P N M A
;
_chemical_formula_sum "Si O2"
_cell_formula_units_Z 40
_cell_length_a 25.027373
_cell_length_b 9.177044
_cell_length_c 9.375844
_cell_angle_alpha 90.000000
_cell_angle_beta 90.000000
_cell_angle_gamma 90.000000
_cell_volume 2153.418565
_symmetry_space_group_name_H-M "P N M A"
_symmetry_group_IT_number 62
_symmetry_cell_setting 'orthorhombic'
loop_
_space_group_symop_operation_xyz
x,y,z
1/2-x,-y,1/2+z
1/2+x,1/2-y,1/2-z
-x,1/2+y,-z
-x,-y,-z
1/2+x,y,1/2-z
1/2-x,1/2+y,1/2+z
x,1/2-y,z
loop_
_atom_site_type_symbol
_atom_site_label
_atom_site_fract_x
_atom_site_fract_y
_atom_site_fract_z
Si Si1 0.897131 0.919702 0.844960
Si Si2 0.415894 0.079995 0.368032
Si Si3 0.495330 0.581458 0.852035
Si Si4 0.290037 0.082762 0.649880
Si Si5 0.795697 0.085869 0.180884
O O1 0.888212 0.750000 0.876067
O O2 0.937075 0.945490 0.713847
O O3 0.841170 0.991050 0.799349
O O4 0.922109 0.991557 0.985865
O O5 0.423526 0.250000 0.405903
O O6 0.460114 0.022403 0.257934
O O7 0.358206 0.052443 0.297287
O O8 0.506125 0.750000 0.881997
O O9 0.500000 0.500000 0.000000
O O10 0.300696 0.250000 0.690430
O O11 0.280119 0.063868 0.482940
O O12 0.236935 0.028314 0.726624
O O13 0.782170 0.250000 0.230652
#
# Coordination Sequence:
#
# PCOD8252717 Si02
#       5
#     8   8   8   8   8
#     4  10  20  35  56  81 107 138 178 219 259 311
#     4   9  19  37  57  78 106 140 178 218 262 314
#     4  10  22  37  54  80 111 140 174 218 265 313
#     4  10  21  36  55  79 107 141 178 216 263 315
#     4   9  19  35  54  78 107 137 175 221 262 309
#
# _framework density 18.575115
#
# number of rings (size 3 to 8) (size 9 to 14) (size 15 to 20)
#    0.000    2.400    0.000    3.000    0.000    8.000 
#    0.000    4.000    0.000    0.000    0.000    0.000 
#    0.000    0.000    0.000    0.000    0.000    0.000 
#
# Total GULP energy -496133.229823 kJ/mol
# GULP energy per Si atom -12403.330746 kJ/mol
# Density = 1.853284 g / cm^3
# Si number density = 18.575115 Si / 1000 Ang^3
#
#
#
# Elastic Constant Matrix: (Units=GPa)
#
#
# Indices 1 2 3 4 5 6 
#
# 1 59.2066 29.9808 17.2548 0.0000 0.0000 0.0000
# 2 29.9808 83.3435 30.5916 0.0000 0.0000 0.0000
# 3 17.2548 30.5916 44.9696 0.0000 0.0000 0.0000
# 4 0.0000 0.0000 0.0000 37.6711 0.0000 0.0000
# 5 0.0000 0.0000 0.0000 0.0000 30.5377 0.0000
# 6 0.0000 0.0000 0.0000 0.0000 0.0000 31.8792
#
#
#
# Elastic Compliance Matrix: (Units=1/GPa)
#
#
# Indices 1 2 3 4 5 6 
#
# 1 0.021158 -0.006172 -0.003919 0.000000 0.000000 0.000000
# 2 -0.006172 0.017792 -0.009735 0.000000 0.000000 0.000000
# 3 -0.003919 -0.009735 0.030364 0.000000 0.000000 0.000000
# 4 0.000000 0.000000 0.000000 0.026546 0.000000 0.000000
# 5 0.000000 0.000000 0.000000 0.000000 0.032746 0.000000
# 6 0.000000 0.000000 0.000000 0.000000 0.000000 0.031368
#
#
# Mechanical properties :
#
#
# Convention : Reuss Voigt Hill
#
# Bulk Modulus (GPa) = 33.71561 38.13046 35.92303
# Shear Modulus (GPa) = 23.86467 27.33045 25.59756
#
# Velocity S-wave (km/s) = 3.58825 3.83998 3.71625
# Velocity P-wave (km/s) = 5.94624 6.34294 6.14779
#
# Compressibility (1/GPa) = 0.02965985
#
# Stress axis : x y z
#
# Youngs Moduli (GPa) = 47.26392 56.20406 32.93400
#
# Poissons Ratio (x) = 0.34691 0.12908
# Poissons Ratio (y) = 0.29173 0.32062
# Poissons Ratio (z) = 0.18524 0.54716
#
# Static dielectric constant tensor:
#      x y z
#    x 3.502730 0.000000 0.000000 
#    y 0.000000 3.442480 0.000000 
#    z 0.000000 0.000000 3.236960 
# 
# 
# High freq. dielectric constant tensor:
#      x y z
#    x 1.731860 0.000000 0.000000 
#    y 0.000000 1.724880 0.000000 
#    z 0.000000 0.000000 1.710650 
# 
# From -- ./inp_files/9098.got.cif
#   From: 2010.03.12/outbox.cif.g09.slc.cpg/sg62_5_cif.got.tgz:9098.got - 2010.04.10 19:12:36.
