data_PCOD8252349
_publ_section_title
;
Structure prediction by ZEFSAII (Michael W. Deem and Ramdas Pophale) SiO2 
 PCOD8252349
Probable space group: P N M A
;
_chemical_formula_sum "Si O2"
_cell_formula_units_Z 56
_cell_length_a 20.897843
_cell_length_b 9.318997
_cell_length_c 14.749840
_cell_angle_alpha 90.000000
_cell_angle_beta 90.000000
_cell_angle_gamma 90.000000
_cell_volume 2872.486150
_symmetry_space_group_name_H-M "P N M A"
_symmetry_group_IT_number 62
_symmetry_cell_setting 'orthorhombic'
loop_
_space_group_symop_operation_xyz
x,y,z
1/2-x,-y,1/2+z
1/2+x,1/2-y,1/2-z
-x,1/2+y,-z
-x,-y,-z
1/2+x,y,1/2-z
1/2-x,1/2+y,1/2+z
x,1/2-y,z
loop_
_atom_site_type_symbol
_atom_site_label
_atom_site_fract_x
_atom_site_fract_y
_atom_site_fract_z
Si Si1 0.236226 0.418341 0.725812
Si Si2 0.276951 0.914144 0.893172
Si Si3 0.317333 0.416377 0.551904
Si Si4 0.566468 0.418442 0.513379
Si Si5 0.091239 0.086117 0.479841
Si Si6 0.971793 0.085137 0.363559
Si Si7 0.404762 0.584421 0.278771
O O1 0.239619 0.250000 0.741109
O O2 0.277637 0.489781 0.804330
O O3 0.267066 0.463413 0.629852
O O4 0.162588 0.469124 0.735727
O O5 0.280961 0.750000 0.861746
O O6 0.338161 0.957202 0.951581
O O7 0.215118 0.942182 0.954736
O O8 0.336649 0.250000 0.564760
O O9 0.381218 0.513467 0.555363
O O10 0.500000 0.500000 0.500000
O O11 0.557862 0.250000 0.491554
O O12 0.592422 0.444039 0.614500
O O13 0.087577 0.250000 0.515390
O O14 0.045169 0.064685 0.393314
O O15 0.074053 0.981831 0.561055
O O16 0.953165 0.250000 0.351763
O O17 0.961396 0.005849 0.268062
O O18 0.416464 0.750000 0.256334
#
# Coordination Sequence:
#
# PCOD8252349 Si02
#       7
#     8   8   8   8   8   8   8
#     4  10  21  38  60  86 116 152 196 245 299 359
#     4  10  20  36  59  84 114 152 192 241 293 347
#     4  10  21  38  61  88 120 156 197 249 306 360
#     4  11  24  42  64  87 118 158 201 248 299 359
#     4   9  19  36  54  79 118 155 187 232 294 347
#     4  10  20  33  55  85 114 149 194 239 281 340
#     4  10  21  39  60  82 115 158 196 238 299 357
#
# _framework density 19.495305999999999
#
# number of rings (size 3 to 8) (size 9 to 14) (size 15 to 20)
#    0.000    2.000    1.429    1.714    0.000    6.857 
#    0.000    4.286    0.000    0.000    0.000    0.000 
#    0.000    0.000    0.000    0.000    0.000    0.000 
#
# Total GULP energy -694515.860686 kJ/mol
# GULP energy per Si atom -12402.068941 kJ/mol
# Density = 1.945093 g / cm^3
# Si number density = 19.495306 Si / 1000 Ang^3
#
#
#
# Elastic Constant Matrix: (Units=GPa)
#
#
# Indices 1 2 3 4 5 6 
#
# 1 102.5487 49.4084 21.2744 0.0000 0.0000 0.0000
# 2 49.4084 76.0170 38.5594 0.0000 0.0000 0.0000
# 3 21.2744 38.5594 71.4609 0.0000 0.0000 0.0000
# 4 0.0000 0.0000 0.0000 37.1481 0.0000 0.0000
# 5 0.0000 0.0000 0.0000 0.0000 22.6735 0.0000
# 6 0.0000 0.0000 0.0000 0.0000 0.0000 32.3695
#
#
#
# Elastic Compliance Matrix: (Units=1/GPa)
#
#
# Indices 1 2 3 4 5 6 
#
# 1 0.014253 -0.009792 0.001040 0.000000 0.000000 0.000000
# 2 -0.009792 0.024839 -0.010488 0.000000 0.000000 0.000000
# 3 0.001040 -0.010488 0.019343 0.000000 0.000000 0.000000
# 4 0.000000 0.000000 0.000000 0.026919 0.000000 0.000000
# 5 0.000000 0.000000 0.000000 0.000000 0.044104 0.000000
# 6 0.000000 0.000000 0.000000 0.000000 0.000000 0.030893
#
#
# Mechanical properties :
#
#
# Convention : Reuss Voigt Hill
#
# Bulk Modulus (GPa) = 50.10827 52.05679 51.08253
# Shear Modulus (GPa) = 24.33279 27.82384 26.07832
#
# Velocity S-wave (km/s) = 3.53673 3.78194 3.66139
# Velocity P-wave (km/s) = 6.51433 6.76985 6.64332
#
# Compressibility (1/GPa) = 0.01995679
#
# Stress axis : x y z
#
# Youngs Moduli (GPa) = 70.15842 40.25880 51.69809
#
# Poissons Ratio (x) = 0.39421 -0.05378
# Poissons Ratio (y) = 0.68699 0.54220
# Poissons Ratio (z) = -0.07298 0.42223
#
# Static dielectric constant tensor:
#      x y z
#    x 3.601080 0.000000 0.000000 
#    y 0.000000 3.534730 0.000000 
#    z 0.000000 0.000000 3.513340 
# 
# 
# High freq. dielectric constant tensor:
#      x y z
#    x 1.762950 0.000000 0.000000 
#    y 0.000000 1.756550 0.000000 
#    z 0.000000 0.000000 1.756470 
# 
# From -- ./inp_files/20349.got.cif
#   From: 2010.03.12/outbox.cif.g09.slc.cpg/sg62_11_cif.got.tgz:20349.got - 2010.04.10 19:12:36.
