data_PCOD8252085
_publ_section_title
;
Structure prediction by ZEFSAII (Michael W. Deem and Ramdas Pophale) SiO2 
 PCOD8252085
Probable space group: P N M A
;
_chemical_formula_sum "Si O2"
_cell_formula_units_Z 64
_cell_length_a 19.497414
_cell_length_b 8.505788
_cell_length_c 19.890607
_cell_angle_alpha 90.000000
_cell_angle_beta 90.000000
_cell_angle_gamma 90.000000
_cell_volume 3298.675570
_symmetry_space_group_name_H-M "P N M A"
_symmetry_group_IT_number 62
_symmetry_cell_setting 'orthorhombic'
loop_
_space_group_symop_operation_xyz
x,y,z
1/2-x,-y,1/2+z
1/2+x,1/2-y,1/2-z
-x,1/2+y,-z
-x,-y,-z
1/2+x,y,1/2-z
1/2-x,1/2+y,1/2+z
x,1/2-y,z
loop_
_atom_site_type_symbol
_atom_site_label
_atom_site_fract_x
_atom_site_fract_y
_atom_site_fract_z
Si Si1 0.790967 0.934517 0.518462
Si Si2 0.225760 0.434669 0.849046
Si Si3 0.238785 0.931657 0.709772
Si Si4 0.469240 0.064280 0.567499
Si Si5 0.596070 0.433715 0.824218
Si Si6 0.316707 0.435055 0.594906
Si Si7 0.932646 0.065404 0.464779
Si Si8 0.426702 0.563798 0.323671
O O1 0.787347 0.750000 0.531611
O O2 0.738401 0.986743 0.460681
O O3 0.769222 0.022650 0.585881
O O4 0.867235 0.981506 0.497552
O O5 0.229509 0.250000 0.836242
O O6 0.259389 0.521621 0.785321
O O7 0.146505 0.492453 0.854073
O O8 0.218018 0.750000 0.705755
O O9 0.177231 0.037420 0.680535
O O10 0.303676 0.969954 0.663285
O O11 0.475258 0.250000 0.567647
O O12 0.391123 0.008515 0.570882
O O13 0.512457 0.994251 0.630457
O O14 0.500000 0.000000 0.500000
O O15 0.583366 0.250000 0.837575
O O16 0.562729 0.529990 0.885248
O O17 0.563098 0.492829 0.753575
O O18 0.314470 0.250000 0.609162
O O19 0.926704 0.250000 0.476858
O O20 0.000000 0.000000 0.500000
O O21 0.428036 0.750000 0.323649
#
# Coordination Sequence:
#
# PCOD8252085 Si02
#       8
#     8   8   8   8   8   8   8   8
#     4  11  22  38  60  88 120 154 195 247 297 356
#     4  10  20  36  59  86 118 156 197 246 300 354
#     4  11  21  35  58  85 114 150 197 245 294 356
#     4  10  20  36  56  84 118 157 196 239 290 348
#     4  10  19  37  62  86 115 152 196 247 296 354
#     4  10  21  36  58  84 119 158 195 242 297 351
#     4  12  25  42  63  88 116 155 197 245 304 362
#     4   8  17  34  58  85 117 157 200 241 288 347
#
# _framework density 19.401724999999999
#
# number of rings (size 3 to 8) (size 9 to 14) (size 15 to 20)
#    0.000    1.750    1.250    4.875    0.000    1.000 
#    2.250    3.125    0.000    0.000    0.000    0.000 
#    0.000    0.000    0.000    0.000    0.000    0.000 
#
# Total GULP energy -793719.122994 kJ/mol
# GULP energy per Si atom -12401.861297 kJ/mol
# Density = 1.935757 g / cm^3
# Si number density = 19.401725 Si / 1000 Ang^3
#
#
#
# Elastic Constant Matrix: (Units=GPa)
#
#
# Indices 1 2 3 4 5 6 
#
# 1 128.4902 17.7749 71.0406 0.0000 0.0000 0.0000
# 2 17.7749 47.3827 18.0335 0.0000 0.0000 0.0000
# 3 71.0406 18.0335 141.4587 0.0000 0.0000 0.0000
# 4 0.0000 0.0000 0.0000 33.7158 0.0000 0.0000
# 5 0.0000 0.0000 0.0000 0.0000 35.6238 0.0000
# 6 0.0000 0.0000 0.0000 0.0000 0.0000 22.8437
#
#
#
# Elastic Compliance Matrix: (Units=1/GPa)
#
#
# Indices 1 2 3 4 5 6 
#
# 1 0.010974 -0.002122 -0.005240 0.000000 0.000000 0.000000
# 2 -0.002122 0.022591 -0.001814 0.000000 0.000000 0.000000
# 3 -0.005240 -0.001814 0.009932 0.000000 0.000000 0.000000
# 4 0.000000 0.000000 0.000000 0.029660 0.000000 0.000000
# 5 0.000000 0.000000 0.000000 0.000000 0.028071 0.000000
# 6 0.000000 0.000000 0.000000 0.000000 0.000000 0.043776
#
#
# Mechanical properties :
#
#
# Convention : Reuss Voigt Hill
#
# Bulk Modulus (GPa) = 39.77162 59.00328 49.38745
# Shear Modulus (GPa) = 29.11405 32.46886 30.79146
#
# Velocity S-wave (km/s) = 3.87795 4.09529 3.98810
# Velocity P-wave (km/s) = 6.37141 7.26906 6.83498
#
# Compressibility (1/GPa) = 0.02514356
#
# Stress axis : x y z
#
# Youngs Moduli (GPa) = 91.12765 44.26477 100.68236
#
# Poissons Ratio (x) = 0.09394 0.52762
# Poissons Ratio (y) = 0.19338 0.18266
# Poissons Ratio (z) = 0.47755 0.08031
#
# Static dielectric constant tensor:
#      x y z
#    x 3.538000 0.000000 0.000000 
#    y 0.000000 3.413550 0.000000 
#    z 0.000000 0.000000 3.474920 
# 
# 
# High freq. dielectric constant tensor:
#      x y z
#    x 1.743690 0.000000 0.000000 
#    y 0.000000 1.748380 0.000000 
#    z 0.000000 0.000000 1.770190 
# 
# From -- ./inp_files/24808.got.cif
#   From: 2010.03.12/outbox.cif.g09.slc.cpg/sg62_13_cif.got.tgz:24808.got - 2010.04.10 19:12:36.
