data_PCOD8252125
_publ_section_title
;
Structure prediction by ZEFSAII (Michael W. Deem and Ramdas Pophale) SiO2 
 PCOD8252125
Probable space group: P N M A
;
_chemical_formula_sum "Si O2"
_cell_formula_units_Z 56
_cell_length_a 15.064372
_cell_length_b 20.456436
_cell_length_c 8.891341
_cell_angle_alpha 90.000000
_cell_angle_beta 90.000000
_cell_angle_gamma 90.000000
_cell_volume 2739.985533
_symmetry_space_group_name_H-M "P N M A"
_symmetry_group_IT_number 62
_symmetry_cell_setting 'orthorhombic'
loop_
_space_group_symop_operation_xyz
x,y,z
1/2-x,-y,1/2+z
1/2+x,1/2-y,1/2-z
-x,1/2+y,-z
-x,-y,-z
1/2+x,y,1/2-z
1/2-x,1/2+y,1/2+z
x,1/2-y,z
loop_
_atom_site_type_symbol
_atom_site_label
_atom_site_fract_x
_atom_site_fract_y
_atom_site_fract_z
Si Si1 0.142493 0.606293 0.284972
Si Si2 0.843739 0.585986 0.502024
Si Si3 0.692946 0.825749 0.508346
Si Si4 0.503506 0.174211 0.972337
Si Si5 0.931139 0.113977 0.233170
Si Si6 0.777939 0.047256 0.424264
Si Si7 0.091314 0.470922 0.204307
O O1 0.193718 0.650835 0.165032
O O2 0.209263 0.572781 0.405202
O O3 0.088692 0.549764 0.194308
O O4 0.079276 0.656442 0.370073
O O5 0.773090 0.633585 0.584542
O O6 0.913074 0.631629 0.411596
O O7 0.793424 0.531086 0.402821
O O8 0.901122 0.545226 0.619989
O O9 0.715104 0.750000 0.516783
O O10 0.601996 0.840383 0.596789
O O11 0.526447 0.250000 0.954576
O O12 0.483534 0.158777 0.147582
O O13 0.846103 0.080803 0.310280
O O14 0.996921 0.060391 0.155652
O O15 0.674839 0.060195 0.384882
#
# Coordination Sequence:
#
# PCOD8252125 Si02
#       7
#     8   8   8   8   8   8   8
#     4  10  22  37  58  87 119 155 187 242 302 347
#     4  10  20  36  62  87 114 151 196 243 293 344
#     4  12  23  38  55  83 121 156 192 237 292 354
#     4  10  20  39  60  83 117 160 201 234 285 364
#     4  10  22  37  63  89 112 152 201 249 299 338
#     4  10  19  39  63  88 120 148 197 252 294 351
#     4  10  19  38  63  92 115 146 199 253 295 341
#
# _framework density 20.438064000000001
#
# number of rings (size 3 to 8) (size 9 to 14) (size 15 to 20)
#    0.000    1.714    2.857    2.143    0.000    4.000 
#    2.571    0.000    0.000    0.000    0.000    0.000 
#    0.000    0.000    0.000    0.000    0.000    0.000 
#
# Total GULP energy -694189.822788 kJ/mol
# GULP energy per Si atom -12396.246836 kJ/mol
# Density = 2.039155 g / cm^3
# Si number density = 20.438064 Si / 1000 Ang^3
#
#
#
# Elastic Constant Matrix: (Units=GPa)
#
#
# Indices 1 2 3 4 5 6 
#
# 1 68.1497 13.8139 15.8083 0.0000 0.0000 0.0000
# 2 13.8139 102.0756 14.1489 0.0000 0.0000 0.0000
# 3 15.8083 14.1489 52.8754 0.0000 0.0000 0.0000
# 4 0.0000 0.0000 0.0000 21.6815 0.0000 0.0000
# 5 0.0000 0.0000 0.0000 0.0000 20.2427 0.0000
# 6 0.0000 0.0000 0.0000 0.0000 0.0000 28.7950
#
#
#
# Elastic Compliance Matrix: (Units=1/GPa)
#
#
# Indices 1 2 3 4 5 6 
#
# 1 0.016003 -0.001560 -0.004367 0.000000 0.000000 0.000000
# 2 -0.001560 0.010326 -0.002297 0.000000 0.000000 0.000000
# 3 -0.004367 -0.002297 0.020833 0.000000 0.000000 0.000000
# 4 0.000000 0.000000 0.000000 0.046122 0.000000 0.000000
# 5 0.000000 0.000000 0.000000 0.000000 0.049400 0.000000
# 6 0.000000 0.000000 0.000000 0.000000 0.000000 0.034728
#
#
# Mechanical properties :
#
#
# Convention : Reuss Voigt Hill
#
# Bulk Modulus (GPa) = 32.55874 34.51586 33.53730
# Shear Modulus (GPa) = 24.49801 26.09915 25.29858
#
# Velocity S-wave (km/s) = 3.46590 3.57737 3.52208
# Velocity P-wave (km/s) = 5.65523 5.82994 5.74325
#
# Compressibility (1/GPa) = 0.03071372
#
# Stress axis : x y z
#
# Youngs Moduli (GPa) = 62.48896 96.84131 48.00191
#
# Poissons Ratio (x) = 0.15111 0.20962
# Poissons Ratio (y) = 0.09751 0.11024
# Poissons Ratio (z) = 0.27288 0.22241
#
# Static dielectric constant tensor:
#      x y z
#    x 3.747960 0.000000 0.000000 
#    y 0.000000 3.731900 0.000000 
#    z 0.000000 0.000000 3.493750 
# 
# 
# High freq. dielectric constant tensor:
#      x y z
#    x 1.800150 0.000000 0.000000 
#    y 0.000000 1.798900 0.000000 
#    z 0.000000 0.000000 1.778320 
# 
# From -- ./inp_files/6770.got.cif
#   From: 2010.03.12/outbox.cif.g09.slc.cpg/sg62_4_cif.got.tgz:6770.got - 2010.04.10 19:12:36.
