data_PCOD8252616
_publ_section_title
;
Structure prediction by ZEFSAII (Michael W. Deem and Ramdas Pophale) SiO2 
 PCOD8252616
Probable space group: P N M A
;
_chemical_formula_sum "Si O2"
_cell_formula_units_Z 48
_cell_length_a 14.834642
_cell_length_b 29.150937
_cell_length_c 4.869111
_cell_angle_alpha 90.000000
_cell_angle_beta 90.000000
_cell_angle_gamma 90.000000
_cell_volume 2105.616446
_symmetry_space_group_name_H-M "P N M A"
_symmetry_group_IT_number 62
_symmetry_cell_setting 'orthorhombic'
loop_
_space_group_symop_operation_xyz
x,y,z
1/2-x,-y,1/2+z
1/2+x,1/2-y,1/2-z
-x,1/2+y,-z
-x,-y,-z
1/2+x,y,1/2-z
1/2-x,1/2+y,1/2+z
x,1/2-y,z
loop_
_atom_site_type_symbol
_atom_site_label
_atom_site_fract_x
_atom_site_fract_y
_atom_site_fract_z
Si Si1 0.904341 0.098729 0.405939
Si Si2 0.399003 0.599825 0.758741
Si Si3 0.684869 0.750000 0.588247
Si Si4 0.148274 0.845867 0.108691
Si Si5 0.746505 0.529998 0.842581
Si Si6 0.187711 0.250000 0.894345
Si Si7 0.649261 0.154919 0.740866
O O1 0.919897 0.134696 0.658929
O O2 0.838233 0.056754 0.479371
O O3 0.002059 0.079601 0.319172
O O4 0.853061 0.121931 0.153165
O O5 0.323716 0.561142 0.799060
O O6 0.395931 0.616082 0.444797
O O7 0.382132 0.644876 0.948785
O O8 0.625632 0.705219 0.506713
O O9 0.775602 0.750000 0.415061
O O10 0.725453 0.750000 0.898781
O O11 0.242855 0.848232 0.266609
O O12 0.710307 0.498212 0.595007
O O13 0.124783 0.295511 0.896047
#
# Coordination Sequence:
#
# PCOD8252616 Si02
#       7
#     8   8   4   8   8   4   8
#     4  12  25  43  68 100 133 173 220 277 340 406
#     4  12  25  43  68 100 133 173 220 277 340 406
#     4  10  20  34  63 102 131 179 232 265 309 378
#     4  11  20  41  66  95 137 181 223 270 324 394
#     4  12  26  46  72  95 128 171 220 284 352 416
#     4  10  20  34  63 102 131 179 232 265 309 378
#     4  11  20  41  66  95 137 181 223 270 324 394
#
# _framework density 22.796175000000002
#
# number of rings (size 3 to 8) (size 9 to 14) (size 15 to 20)
#    0.000    0.667    3.333    7.000    0.000    1.333 
#    0.000    5.000    0.000    0.000    0.000    0.000 
#    0.000    0.000    0.000    0.000    0.000    0.000 
#
# Total GULP energy -594971.021288 kJ/mol
# GULP energy per Si atom -12395.229610 kJ/mol
# Density = 2.274429 g / cm^3
# Si number density = 22.796175 Si / 1000 Ang^3
#
#
#
# Elastic Constant Matrix: (Units=GPa)
#
#
# Indices 1 2 3 4 5 6 
#
# 1 76.9143 42.0403 3.5646 0.0000 0.0000 0.0000
# 2 42.0403 110.2187 36.5038 0.0000 0.0000 0.0000
# 3 3.5646 36.5038 110.2730 0.0000 0.0000 0.0000
# 4 0.0000 0.0000 0.0000 42.9504 0.0000 0.0000
# 5 0.0000 0.0000 0.0000 0.0000 29.1192 0.0000
# 6 0.0000 0.0000 0.0000 0.0000 0.0000 9.0035
#
#
#
# Elastic Compliance Matrix: (Units=1/GPa)
#
#
# Indices 1 2 3 4 5 6 
#
# 1 0.016726 -0.006964 0.001765 0.000000 0.000000 0.000000
# 2 -0.006964 0.013090 -0.004108 0.000000 0.000000 0.000000
# 3 0.001765 -0.004108 0.010371 0.000000 0.000000 0.000000
# 4 0.000000 0.000000 0.000000 0.023283 0.000000 0.000000
# 5 0.000000 0.000000 0.000000 0.000000 0.034342 0.000000
# 6 0.000000 0.000000 0.000000 0.000000 0.000000 0.111068
#
#
# Mechanical properties :
#
#
# Convention : Reuss Voigt Hill
#
# Bulk Modulus (GPa) = 46.35610 51.29148 48.82379
# Shear Modulus (GPa) = 21.30515 30.56779 25.93647
#
# Velocity S-wave (km/s) = 3.06043 3.66583 3.37672
# Velocity P-wave (km/s) = 5.73302 6.36134 6.05533
#
# Compressibility (1/GPa) = 0.02157213
#
# Stress axis : x y z
#
# Youngs Moduli (GPa) = 59.78612 76.39546 96.42057
#
# Poissons Ratio (x) = 0.53204 -0.17016
# Poissons Ratio (y) = 0.41637 0.39610
# Poissons Ratio (z) = -0.10551 0.31383
#
# Static dielectric constant tensor:
#      x y z
#    x 3.723430 0.000000 0.000000 
#    y 0.000000 4.560030 0.000000 
#    z 0.000000 0.000000 4.074870 
# 
# 
# High freq. dielectric constant tensor:
#      x y z
#    x 1.866640 0.000000 0.000000 
#    y 0.000000 1.897340 0.000000 
#    z 0.000000 0.000000 1.917600 
# 
# From -- ./inp_files/1187.got.cif
#   From: 2010.03.12/outbox.cif.g09.slc.cpg/sg62_1_cif.got.tgz:1187.got - 2010.04.10 19:12:36.
