data_PCOD8252989
_publ_section_title
;
Structure prediction by ZEFSAII (Michael W. Deem and Ramdas Pophale) SiO2 
 PCOD8252989
Probable space group: P N M A
;
_chemical_formula_sum "Si O2"
_cell_formula_units_Z 48
_cell_length_a 8.812537
_cell_length_b 8.585046
_cell_length_c 30.417233
_cell_angle_alpha 90.000000
_cell_angle_beta 90.000000
_cell_angle_gamma 90.000000
_cell_volume 2301.247260
_symmetry_space_group_name_H-M "P N M A"
_symmetry_group_IT_number 62
_symmetry_cell_setting 'orthorhombic'
loop_
_space_group_symop_operation_xyz
x,y,z
1/2-x,-y,1/2+z
1/2+x,1/2-y,1/2-z
-x,1/2+y,-z
-x,-y,-z
1/2+x,y,1/2-z
1/2-x,1/2+y,1/2+z
x,1/2-y,z
loop_
_atom_site_type_symbol
_atom_site_label
_atom_site_fract_x
_atom_site_fract_y
_atom_site_fract_z
Si Si1 0.234806 0.068160 0.278233
Si Si2 0.746729 0.067684 0.377237
Si Si3 0.848152 0.577088 0.050775
Si Si4 0.575363 0.434197 0.644999
Si Si5 0.415506 0.566606 0.199221
Si Si6 0.295213 0.077928 0.534531
O O1 0.193343 0.250000 0.278387
O O2 0.361082 0.032159 0.314659
O O3 0.298720 0.020752 0.231074
O O4 0.087162 0.966271 0.287314
O O5 0.723206 0.250000 0.370038
O O6 0.600429 0.974153 0.360482
O O7 0.888655 0.002818 0.349447
O O8 0.778735 0.034290 0.428806
O O9 0.781422 0.750000 0.047209
O O10 0.831174 0.516156 0.100922
O O11 0.025026 0.577254 0.039649
O O12 0.755560 0.475158 0.015304
O O13 0.590944 0.250000 0.653834
O O14 0.385401 0.750000 0.200643
O O15 0.228272 0.250000 0.541450
#
# Coordination Sequence:
#
# PCOD8252989 Si02
#       6
#     8   8   8   8   8   8
#     4  12  25  42  62  87 115 145 184 230 280 333
#     4  11  21  35  56  84 116 150 189 235 283 330
#     4   8  15  27  46  74 109 146 186 230 273 321
#     4  10  20  36  57  84 116 152 191 231 279 333
#     4  12  25  43  63  84 112 148 187 228 278 335
#     4   9  16  27  46  75 110 147 187 230 277 328
#
# _framework density 20.858255
#
# number of rings (size 3 to 8) (size 9 to 14) (size 15 to 20)
#    0.000    1.667    0.000    7.500    0.000    4.667 
#    0.000    0.000    0.000    1.000    0.000    0.000 
#    0.000    0.000    0.000    0.000    0.000    0.000 
#
# Total GULP energy -595217.288914 kJ/mol
# GULP energy per Si atom -12400.360186 kJ/mol
# Density = 2.081078 g / cm^3
# Si number density = 20.858255 Si / 1000 Ang^3
#
#
#
# Elastic Constant Matrix: (Units=GPa)
#
#
# Indices 1 2 3 4 5 6 
#
# 1 26.1525 -1.0529 -15.9636 0.0000 0.0000 0.0000
# 2 -1.0529 109.2085 31.3004 0.0000 0.0000 0.0000
# 3 -15.9636 31.3004 55.1699 0.0000 0.0000 0.0000
# 4 0.0000 0.0000 0.0000 37.5426 0.0000 0.0000
# 5 0.0000 0.0000 0.0000 0.0000 17.3573 0.0000
# 6 0.0000 0.0000 0.0000 0.0000 0.0000 25.7894
#
#
#
# Elastic Compliance Matrix: (Units=1/GPa)
#
#
# Indices 1 2 3 4 5 6 
#
# 1 0.048001 -0.004201 0.016273 0.000000 0.000000 0.000000
# 2 -0.004201 0.011303 -0.007628 0.000000 0.000000 0.000000
# 3 0.016273 -0.007628 0.027162 0.000000 0.000000 0.000000
# 4 0.000000 0.000000 0.000000 0.026636 0.000000 0.000000
# 5 0.000000 0.000000 0.000000 0.000000 0.057613 0.000000
# 6 0.000000 0.000000 0.000000 0.000000 0.000000 0.038776
#
#
# Mechanical properties :
#
#
# Convention : Reuss Voigt Hill
#
# Bulk Modulus (GPa) = 10.48737 24.34430 17.41584
# Shear Modulus (GPa) = 21.51576 27.88766 24.70171
#
# Velocity S-wave (km/s) = 3.21522 3.66048 3.44505
# Velocity P-wave (km/s) = 4.33847 5.43711 4.91856
#
# Compressibility (1/GPa) = 0.09535279
#
# Stress axis : x y z
#
# Youngs Moduli (GPa) = 20.83290 88.47530 36.81588
#
# Poissons Ratio (x) = 0.37170 -0.59910
# Poissons Ratio (y) = 0.08752 0.28084
# Poissons Ratio (z) = -0.33901 0.67490
#
# Static dielectric constant tensor:
#      x y z
#    x 3.298070 0.000000 0.000000 
#    y 0.000000 3.849330 0.000000 
#    z 0.000000 0.000000 4.256290 
# 
# 
# High freq. dielectric constant tensor:
#      x y z
#    x 1.768650 0.000000 0.000000 
#    y 0.000000 1.825350 0.000000 
#    z 0.000000 0.000000 1.837120 
# 
# From -- ./inp_files/31948.got.cif
#   From: 2010.03.12/outbox.cif.g09.slc.cpg/sg62_16_cif.got.tgz:31948.got - 2010.04.10 19:12:36.
