data_PCOD8252615
_publ_section_title
;
Structure prediction by ZEFSAII (Michael W. Deem and Ramdas Pophale) SiO2 
 PCOD8252615
Probable space group: P N M A
;
_chemical_formula_sum "Si O2"
_cell_formula_units_Z 64
_cell_length_a 9.081101
_cell_length_b 27.618586
_cell_length_c 11.368739
_cell_angle_alpha 90.000000
_cell_angle_beta 90.000000
_cell_angle_gamma 90.000000
_cell_volume 2851.361243
_symmetry_space_group_name_H-M "P N M A"
_symmetry_group_IT_number 62
_symmetry_cell_setting 'orthorhombic'
loop_
_space_group_symop_operation_xyz
x,y,z
1/2-x,-y,1/2+z
1/2+x,1/2-y,1/2-z
-x,1/2+y,-z
-x,-y,-z
1/2+x,y,1/2-z
1/2-x,1/2+y,1/2+z
x,1/2-y,z
loop_
_atom_site_type_symbol
_atom_site_label
_atom_site_fract_x
_atom_site_fract_y
_atom_site_fract_z
Si Si1 0.001058 0.873652 0.404357
Si Si2 0.503119 0.677910 0.405032
Si Si3 0.499664 0.062784 0.586459
Si Si4 0.892010 0.304407 0.155243
Si Si5 0.434480 0.808335 0.879870
Si Si6 0.251415 0.999754 0.499933
Si Si7 0.499481 0.522086 0.153071
Si Si8 0.748464 0.332546 0.747430
O O1 0.997951 0.930350 0.433725
O O2 0.149316 0.866951 0.329826
O O3 0.008452 0.836548 0.512674
O O4 0.855750 0.865077 0.327659
O O5 0.502659 0.619848 0.394506
O O6 0.505593 0.694166 0.539490
O O7 0.646272 0.699000 0.334526
O O8 0.356268 0.698904 0.340637
O O9 0.645173 0.047711 0.513775
O O10 0.500193 0.034287 0.710110
O O11 0.355331 0.047117 0.513063
O O12 0.859603 0.250000 0.192870
O O13 0.733070 0.328132 0.131820
O O14 0.980555 0.327249 0.263803
O O15 0.442503 0.750000 0.900359
O O16 0.147813 0.006622 0.384159
O O17 0.148341 0.992997 0.616109
#
# Coordination Sequence:
#
# PCOD8252615 Si02
#       8
#     8   8   8   8   8   8   8   8
#     4  11  21  39  67  97 120 167 207 255 312 380
#     4  11  21  39  67  97 120 167 207 255 312 380
#     4  11  21  39  64  84 123 159 203 252 314 368
#     4  10  23  44  66  92 129 170 209 251 301 363
#     4  10  23  44  66  92 129 170 209 251 301 363
#     4  10  24  36  56  94 112 164 200 250 302 370
#     4  11  21  39  64  84 123 159 203 252 314 368
#     4  10  20  34  61 102 120 152 210 248 318 372
#
# _framework density 22.445419999999999
#
# number of rings (size 3 to 8) (size 9 to 14) (size 15 to 20)
#    0.000    1.500    3.750    2.250    1.750    0.000 
#    0.000   11.250    0.000    0.000    0.000    0.000 
#    0.000    0.000    0.000    0.000    0.000    0.000 
#
# Total GULP energy -793098.831986 kJ/mol
# GULP energy per Si atom -12392.169250 kJ/mol
# Density = 2.239433 g / cm^3
# Si number density = 22.445420 Si / 1000 Ang^3
#
#
#
# Elastic Constant Matrix: (Units=GPa)
#
#
# Indices 1 2 3 4 5 6 
#
# 1 141.8665 20.6639 51.8219 0.0000 0.0000 0.0000
# 2 20.6639 50.5774 37.9937 0.0000 0.0000 0.0000
# 3 51.8219 37.9937 142.5638 0.0000 0.0000 0.0000
# 4 0.0000 0.0000 0.0000 28.9612 0.0000 0.0000
# 5 0.0000 0.0000 0.0000 0.0000 36.6191 0.0000
# 6 0.0000 0.0000 0.0000 0.0000 0.0000 6.1236
#
#
#
# Elastic Compliance Matrix: (Units=1/GPa)
#
#
# Indices 1 2 3 4 5 6 
#
# 1 0.008206 -0.001390 -0.002612 0.000000 0.000000 0.000000
# 2 -0.001390 0.024956 -0.006146 0.000000 0.000000 0.000000
# 3 -0.002612 -0.006146 0.009602 0.000000 0.000000 0.000000
# 4 0.000000 0.000000 0.000000 0.034529 0.000000 0.000000
# 5 0.000000 0.000000 0.000000 0.000000 0.027308 0.000000
# 6 0.000000 0.000000 0.000000 0.000000 0.000000 0.163303
#
#
# Mechanical properties :
#
#
# Convention : Reuss Voigt Hill
#
# Bulk Modulus (GPa) = 44.50857 61.77406 53.14131
# Shear Modulus (GPa) = 16.90968 29.30931 23.10950
#
# Velocity S-wave (km/s) = 2.74773 3.61751 3.21220
# Velocity P-wave (km/s) = 5.47170 6.71045 6.12248
#
# Compressibility (1/GPa) = 0.02246759
#
# Stress axis : x y z
#
# Youngs Moduli (GPa) = 121.86818 40.07020 104.14742
#
# Poissons Ratio (x) = 0.05570 0.27206
# Poissons Ratio (y) = 0.16942 0.64005
# Poissons Ratio (z) = 0.31835 0.24625
#
# Static dielectric constant tensor:
#      x y z
#    x 4.576960 0.000000 0.000000 
#    y 0.000000 3.612670 0.000000 
#    z 0.000000 0.000000 4.136650 
# 
# 
# High freq. dielectric constant tensor:
#      x y z
#    x 1.910930 0.000000 0.000000 
#    y 0.000000 1.842120 0.000000 
#    z 0.000000 0.000000 1.884340 
# 
# From -- ./inp_files/11572.got.cif
#   From: 2010.03.12/outbox.cif.g09.slc.cpg/sg62_6_cif.got.tgz:11572.got - 2010.04.10 19:12:36.
