data_PCOD8252051
_publ_section_title
;
Structure prediction by ZEFSAII (Michael W. Deem and Ramdas Pophale) SiO2 
 PCOD8252051
Probable space group: P N M A
;
_chemical_formula_sum "Si O2"
_cell_formula_units_Z 56
_cell_length_a 15.499646
_cell_length_b 14.865727
_cell_length_c 11.529086
_cell_angle_alpha 90.000000
_cell_angle_beta 90.000000
_cell_angle_gamma 90.000000
_cell_volume 2656.457127
_symmetry_space_group_name_H-M "P N M A"
_symmetry_group_IT_number 62
_symmetry_cell_setting 'orthorhombic'
loop_
_space_group_symop_operation_xyz
x,y,z
1/2-x,-y,1/2+z
1/2+x,1/2-y,1/2-z
-x,1/2+y,-z
-x,-y,-z
1/2+x,y,1/2-z
1/2-x,1/2+y,1/2+z
x,1/2-y,z
loop_
_atom_site_type_symbol
_atom_site_label
_atom_site_fract_x
_atom_site_fract_y
_atom_site_fract_z
Si Si1 0.484913 0.650383 0.302084
Si Si2 0.265237 0.032328 0.164659
Si Si3 0.680377 0.651619 0.367589
Si Si4 0.462074 0.009465 0.125498
Si Si5 0.166478 0.894442 0.888013
Si Si6 0.492968 0.849847 0.699893
Si Si7 0.881267 0.576848 0.999228
O O1 0.480379 0.750000 0.247755
O O2 0.577627 0.634687 0.362734
O O3 0.474022 0.581245 0.198035
O O4 0.407990 0.645751 0.398539
O O5 0.361148 0.029462 0.115699
O O6 0.262080 0.081742 0.289964
O O7 0.229531 0.931429 0.192073
O O8 0.211522 0.086822 0.066104
O O9 0.704549 0.750000 0.313116
O O10 0.710147 0.654930 0.503018
O O11 0.512847 0.093594 0.181665
O O12 0.500000 0.000000 0.000000
O O13 0.093145 0.833446 0.830558
O O14 0.116236 0.981516 0.937450
O O15 0.450323 0.750000 0.711909
O O16 0.449749 0.912278 0.603091
#
# Coordination Sequence:
#
# PCOD8252051 Si02
#       7
#     8   8   8   8   8   8   8
#     4  11  22  41  71 100 127 170 219 273 331 390
#     4  10  23  36  60  91 129 173 209 257 328 376
#     4  10  21  37  64  97 125 158 216 273 322 381
#     4  11  25  46  64  90 133 185 218 264 325 401
#     4  10  19  37  58  88 125 169 200 257 321 385
#     4  11  21  37  65  96 121 161 215 270 327 386
#     4  11  20  38  65  96 126 161 214 269 323 388
#
# _framework density 21.08071
#
# number of rings (size 3 to 8) (size 9 to 14) (size 15 to 20)
#    0.000    1.429    4.286    3.000    0.000    5.714 
#    0.000    8.571    0.000    0.000    0.000    0.000 
#    0.000    0.000    0.000    0.000    0.000    0.000 
#
# Total GULP energy -693785.562248 kJ/mol
# GULP energy per Si atom -12389.027897 kJ/mol
# Density = 2.103273 g / cm^3
# Si number density = 21.080710 Si / 1000 Ang^3
#
#
#
# Elastic Constant Matrix: (Units=GPa)
#
#
# Indices 1 2 3 4 5 6 
#
# 1 73.0651 32.7387 46.7042 0.0000 0.0000 0.0000
# 2 32.7387 87.4034 39.0472 0.0000 0.0000 0.0000
# 3 46.7042 39.0472 128.5664 0.0000 0.0000 0.0000
# 4 0.0000 0.0000 0.0000 19.5403 0.0000 0.0000
# 5 0.0000 0.0000 0.0000 0.0000 36.1646 0.0000
# 6 0.0000 0.0000 0.0000 0.0000 0.0000 23.2295
#
#
#
# Elastic Compliance Matrix: (Units=1/GPa)
#
#
# Indices 1 2 3 4 5 6 
#
# 1 0.019402 -0.004765 -0.005601 0.000000 0.000000 0.000000
# 2 -0.004765 0.014408 -0.002645 0.000000 0.000000 0.000000
# 3 -0.005601 -0.002645 0.010616 0.000000 0.000000 0.000000
# 4 0.000000 0.000000 0.000000 0.051176 0.000000 0.000000
# 5 0.000000 0.000000 0.000000 0.000000 0.027651 0.000000
# 6 0.000000 0.000000 0.000000 0.000000 0.000000 0.043049
#
#
# Mechanical properties :
#
#
# Convention : Reuss Voigt Hill
#
# Bulk Modulus (GPa) = 54.33650 58.44613 56.39132
# Shear Modulus (GPa) = 25.19431 27.15653 26.17542
#
# Velocity S-wave (km/s) = 3.46082 3.59307 3.52757
# Velocity P-wave (km/s) = 6.46538 6.70810 6.58786
#
# Compressibility (1/GPa) = 0.01840383
#
# Stress axis : x y z
#
# Youngs Moduli (GPa) = 51.54194 69.40769 94.19814
#
# Poissons Ratio (x) = 0.33074 0.52758
# Poissons Ratio (y) = 0.24561 0.24913
# Poissons Ratio (z) = 0.28868 0.18357
#
# Static dielectric constant tensor:
#      x y z
#    x 3.709780 0.000000 0.000000 
#    y 0.000000 3.950770 0.000000 
#    z 0.000000 0.000000 3.835300 
# 
# 
# High freq. dielectric constant tensor:
#      x y z
#    x 1.809290 0.000000 0.000000 
#    y 0.000000 1.827270 0.000000 
#    z 0.000000 0.000000 1.818420 
# 
# From -- ./inp_files/13363.got.cif
#   From: 2010.03.12/outbox.cif.g09.slc.cpg/sg62_7_cif.got.tgz:13363.got - 2010.04.10 19:12:36.
