data_PCOD8252680
_publ_section_title
;
Structure prediction by ZEFSAII (Michael W. Deem and Ramdas Pophale) SiO2 
 PCOD8252680
Probable space group: P N M A
;
_chemical_formula_sum "Si O2"
_cell_formula_units_Z 48
_cell_length_a 30.504222
_cell_length_b 9.145020
_cell_length_c 9.283837
_cell_angle_alpha 90.000000
_cell_angle_beta 90.000000
_cell_angle_gamma 90.000000
_cell_volume 2589.835140
_symmetry_space_group_name_H-M "P N M A"
_symmetry_group_IT_number 62
_symmetry_cell_setting 'orthorhombic'
loop_
_space_group_symop_operation_xyz
x,y,z
1/2-x,-y,1/2+z
1/2+x,1/2-y,1/2-z
-x,1/2+y,-z
-x,-y,-z
1/2+x,y,1/2-z
1/2-x,1/2+y,1/2+z
x,1/2-y,z
loop_
_atom_site_type_symbol
_atom_site_label
_atom_site_fract_x
_atom_site_fract_y
_atom_site_fract_z
Si Si1 0.288248 0.921398 0.601965
Si Si2 0.536293 0.413541 0.584226
Si Si3 0.866475 0.577612 0.107369
Si Si4 0.872621 0.420709 0.397941
Si Si5 0.290702 0.419063 0.903973
Si Si6 0.538118 0.417323 0.918961
O O1 0.284210 0.750000 0.629152
O O2 0.332569 0.961785 0.517392
O O3 0.247146 0.979327 0.509533
O O4 0.288898 0.997236 0.754932
O O5 0.500000 0.500000 0.500000
O O6 0.533363 0.250000 0.525732
O O7 0.585352 0.474071 0.554588
O O8 0.525958 0.423020 0.752144
O O9 0.867029 0.750000 0.145715
O O10 0.853553 0.490481 0.251469
O O11 0.882272 0.250000 0.371713
O O12 0.837493 0.444975 0.523225
O O13 0.916336 0.501538 0.450384
O O14 0.281934 0.250000 0.870808
O O15 0.541896 0.250000 0.972875
O O16 0.500000 0.500000 0.000000
#
# Coordination Sequence:
#
# PCOD8252680 Si02
#       6
#     8   8   8   8   8   8
#     4  10  21  37  57  80 107 142 182 223 271 326
#     4   9  19  34  52  76 105 136 173 217 262 312
#     4   9  19  36  55  77 105 138 180 224 265 317
#     4  10  20  35  55  80 109 141 178 220 269 323
#     4  10  22  37  54  81 112 139 176 225 270 319
#     4  10  21  37  56  80 109 142 181 223 267 317
#
# _framework density 18.533998
#
# number of rings (size 3 to 8) (size 9 to 14) (size 15 to 20)
#    0.000    2.333    0.000    3.000    0.000    7.333 
#    0.000    3.333    0.000    0.000    0.000    0.000 
#    0.000    0.000    0.000    0.000    0.000    0.000 
#
# Total GULP energy -595281.952056 kJ/mol
# GULP energy per Si atom -12401.707335 kJ/mol
# Density = 1.849181 g / cm^3
# Si number density = 18.533998 Si / 1000 Ang^3
#
#
#
# Elastic Constant Matrix: (Units=GPa)
#
#
# Indices 1 2 3 4 5 6 
#
# 1 122.4646 61.3560 77.2787 0.0000 0.0000 0.0000
# 2 61.3560 93.3617 65.1947 0.0000 0.0000 0.0000
# 3 77.2787 65.1947 120.7821 0.0000 0.0000 0.0000
# 4 0.0000 0.0000 0.0000 39.0565 0.0000 0.0000
# 5 0.0000 0.0000 0.0000 0.0000 35.2253 0.0000
# 6 0.0000 0.0000 0.0000 0.0000 0.0000 31.3218
#
#
#
# Elastic Compliance Matrix: (Units=1/GPa)
#
#
# Indices 1 2 3 4 5 6 
#
# 1 0.015063 -0.005086 -0.006892 0.000000 0.000000 0.000000
# 2 -0.005086 0.018908 -0.006952 0.000000 0.000000 0.000000
# 3 -0.006892 -0.006952 0.016441 0.000000 0.000000 0.000000
# 4 0.000000 0.000000 0.000000 0.025604 0.000000 0.000000
# 5 0.000000 0.000000 0.000000 0.000000 0.028389 0.000000
# 6 0.000000 0.000000 0.000000 0.000000 0.000000 0.031927
#
#
# Mechanical properties :
#
#
# Convention : Reuss Voigt Hill
#
# Bulk Modulus (GPa) = 79.66774 82.69637 81.18206
# Shear Modulus (GPa) = 28.03058 29.97265 29.00162
#
# Velocity S-wave (km/s) = 3.89316 4.02577 3.96002
# Velocity P-wave (km/s) = 7.95531 8.14400 8.05021
#
# Compressibility (1/GPa) = 0.01255213
#
# Stress axis : x y z
#
# Youngs Moduli (GPa) = 66.38718 52.88727 60.82204
#
# Poissons Ratio (x) = 0.26901 0.41920
# Poissons Ratio (y) = 0.33768 0.42281
# Poissons Ratio (z) = 0.45755 0.36765
#
# Static dielectric constant tensor:
#      x y z
#    x 3.589260 0.000000 0.000000 
#    y 0.000000 3.482140 0.000000 
#    z 0.000000 0.000000 3.362610 
# 
# 
# High freq. dielectric constant tensor:
#      x y z
#    x 1.734990 0.000000 0.000000 
#    y 0.000000 1.720180 0.000000 
#    z 0.000000 0.000000 1.714420 
# 
# From -- ./inp_files/10258.got.cif
#   From: 2010.03.12/outbox.cif.g09.slc.cpg/sg62_6_cif.got.tgz:10258.got - 2010.04.10 19:12:36.
