data_PCOD8252569
_publ_section_title
;
Structure prediction by ZEFSAII (Michael W. Deem and Ramdas Pophale) SiO2 
 PCOD8252569
Probable space group: P N M A
;
_chemical_formula_sum "Si O2"
_cell_formula_units_Z 56
_cell_length_a 15.204147
_cell_length_b 8.478632
_cell_length_c 21.386018
_cell_angle_alpha 90.000000
_cell_angle_beta 90.000000
_cell_angle_gamma 90.000000
_cell_volume 2756.879435
_symmetry_space_group_name_H-M "P N M A"
_symmetry_group_IT_number 62
_symmetry_cell_setting 'orthorhombic'
loop_
_space_group_symop_operation_xyz
x,y,z
1/2-x,-y,1/2+z
1/2+x,1/2-y,1/2-z
-x,1/2+y,-z
-x,-y,-z
1/2+x,y,1/2-z
1/2-x,1/2+y,1/2+z
x,1/2-y,z
loop_
_atom_site_type_symbol
_atom_site_label
_atom_site_fract_x
_atom_site_fract_y
_atom_site_fract_z
Si Si1 0.192949 0.064442 0.664071
Si Si2 0.443351 0.068446 0.944821
Si Si3 0.622262 0.435438 0.295137
Si Si4 0.368053 0.924347 0.482547
Si Si5 0.299077 0.571627 0.019427
Si Si6 0.970646 0.429826 0.912066
Si Si7 0.504463 0.932852 0.816720
O O1 0.206590 0.250000 0.668190
O O2 0.194050 0.009831 0.591043
O O3 0.274862 0.986727 0.701605
O O4 0.098569 0.019448 0.694378
O O5 0.464287 0.250000 0.930825
O O6 0.464483 0.969508 0.883861
O O7 0.500000 0.000000 0.000000
O O8 0.345345 0.043212 0.969567
O O9 0.617872 0.250000 0.307330
O O10 0.562964 0.528985 0.343944
O O11 0.573997 0.482313 0.230415
O O12 0.324503 0.750000 0.485947
O O13 0.422509 0.942676 0.417589
O O14 0.299479 0.064366 0.493737
O O15 0.434834 0.940035 0.540247
O O16 0.335240 0.750000 0.015445
O O17 0.941422 0.250000 0.928019
O O18 0.526265 0.750000 0.810679
#
# Coordination Sequence:
#
# PCOD8252569 Si02
#       7
#     8   8   8   8   8   8   8
#     4  11  23  40  67  96 122 163 210 255 310 373
#     4  12  24  40  65  94 124 159 200 255 317 374
#     4  11  24  42  66  93 125 168 213 259 315 377
#     4  10  20  34  56  87 122 161 204 254 308 363
#     4  11  22  37  61  93 124 159 202 252 307 370
#     4  10  20  35  57  87 122 160 204 254 307 365
#     4  11  25  45  67  93 126 165 209 263 318 377
#
# _framework density 20.312819999999999
#
# number of rings (size 3 to 8) (size 9 to 14) (size 15 to 20)
#    0.000    1.143    2.857    3.857    0.000    5.143 
#    2.571    0.000    0.000    0.000    0.000    0.000 
#    0.000    0.000    0.000    0.000    0.000    0.000 
#
# Total GULP energy -694000.960191 kJ/mol
# GULP energy per Si atom -12392.874289 kJ/mol
# Density = 2.026659 g / cm^3
# Si number density = 20.312820 Si / 1000 Ang^3
#
#
#
# Elastic Constant Matrix: (Units=GPa)
#
#
# Indices 1 2 3 4 5 6 
#
# 1 128.7455 30.0709 57.2606 0.0000 0.0000 0.0000
# 2 30.0709 64.0221 17.0543 0.0000 0.0000 0.0000
# 3 57.2606 17.0543 93.3668 0.0000 0.0000 0.0000
# 4 0.0000 0.0000 0.0000 27.2482 0.0000 0.0000
# 5 0.0000 0.0000 0.0000 0.0000 36.9713 0.0000
# 6 0.0000 0.0000 0.0000 0.0000 0.0000 33.7308
#
#
#
# Elastic Compliance Matrix: (Units=1/GPa)
#
#
# Indices 1 2 3 4 5 6 
#
# 1 0.011453 -0.003688 -0.006350 0.000000 0.000000 0.000000
# 2 -0.003688 0.017606 -0.000954 0.000000 0.000000 0.000000
# 3 -0.006350 -0.000954 0.014779 0.000000 0.000000 0.000000
# 4 0.000000 0.000000 0.000000 0.036700 0.000000 0.000000
# 5 0.000000 0.000000 0.000000 0.000000 0.027048 0.000000
# 6 0.000000 0.000000 0.000000 0.000000 0.000000 0.029647
#
#
# Mechanical properties :
#
#
# Convention : Reuss Voigt Hill
#
# Bulk Modulus (GPa) = 45.75920 54.98955 50.37438
# Shear Modulus (GPa) = 30.02974 31.70664 30.86819
#
# Velocity S-wave (km/s) = 3.84912 3.95513 3.90249
# Velocity P-wave (km/s) = 6.50619 6.92730 6.72004
#
# Compressibility (1/GPa) = 0.02185353
#
# Stress axis : x y z
#
# Youngs Moduli (GPa) = 87.31357 56.79902 67.66208
#
# Poissons Ratio (x) = 0.20946 0.42968
# Poissons Ratio (y) = 0.32199 0.06456
# Poissons Ratio (z) = 0.55447 0.05420
#
# Static dielectric constant tensor:
#      x y z
#    x 3.723010 0.000000 0.000000 
#    y 0.000000 3.591370 0.000000 
#    z 0.000000 0.000000 3.541980 
# 
# 
# High freq. dielectric constant tensor:
#      x y z
#    x 1.806030 0.000000 0.000000 
#    y 0.000000 1.804360 0.000000 
#    z 0.000000 0.000000 1.770270 
# 
# From -- ./inp_files/27077.got.cif
#   From: 2010.03.12/outbox.cif.g09.slc.cpg/sg62_14_cif.got.tgz:27077.got - 2010.04.10 19:12:36.
