data_PCOD8252160
_publ_section_title
;
Structure prediction by ZEFSAII (Michael W. Deem and Ramdas Pophale) SiO2 
 PCOD8252160
Probable space group: P N M A
;
_chemical_formula_sum "Si O2"
_cell_formula_units_Z 48
_cell_length_a 13.614787
_cell_length_b 19.652706
_cell_length_c 8.614093
_cell_angle_alpha 90.000000
_cell_angle_beta 90.000000
_cell_angle_gamma 90.000000
_cell_volume 2304.850520
_symmetry_space_group_name_H-M "P N M A"
_symmetry_group_IT_number 62
_symmetry_cell_setting 'orthorhombic'
loop_
_space_group_symop_operation_xyz
x,y,z
1/2-x,-y,1/2+z
1/2+x,1/2-y,1/2-z
-x,1/2+y,-z
-x,-y,-z
1/2+x,y,1/2-z
1/2-x,1/2+y,1/2+z
x,1/2-y,z
loop_
_atom_site_type_symbol
_atom_site_label
_atom_site_fract_x
_atom_site_fract_y
_atom_site_fract_z
Si Si1 0.756564 0.399994 0.569078
Si Si2 0.984307 0.554305 0.635219
Si Si3 0.964235 0.171262 0.571675
Si Si4 0.568009 0.560073 0.555506
Si Si5 0.202387 0.001356 0.177516
Si Si6 0.445722 0.672571 0.404974
O O1 0.856138 0.359332 0.600060
O O2 0.765338 0.438858 0.403588
O O3 0.735134 0.455393 0.704631
O O4 0.666237 0.348696 0.567709
O O5 0.978352 0.629608 0.561233
O O6 0.075931 0.554182 0.757163
O O7 0.000000 0.500000 0.500000
O O8 0.886016 0.536830 0.728421
O O9 0.956579 0.250000 0.522167
O O10 0.026441 0.161222 0.726682
O O11 0.500000 0.500000 0.500000
O O12 0.669410 0.549466 0.463356
O O13 0.519659 0.632105 0.514911
O O14 0.457443 0.750000 0.455484
#
# Coordination Sequence:
#
# PCOD8252160 Si02
#       6
#     8   8   8   8   8   8
#     4  12  24  42  65 102 135 170 225 284 337 397
#     4  11  21  40  65  92 127 171 219 283 325 394
#     4  11  25  43  65  95 137 185 222 273 342 403
#     4  10  19  41  62  91 125 165 222 270 327 383
#     4  11  25  36  69  97 127 173 221 281 336 396
#     4  11  23  42  67  93 133 184 226 270 335 404
#
# _framework density 20.825645999999999
#
# number of rings (size 3 to 8) (size 9 to 14) (size 15 to 20)
#    0.000    1.000    6.667    1.500    4.667    0.667 
#    0.000    0.000    0.000    2.000    0.000    0.000 
#    0.000    0.000    0.000    0.000    0.000    0.000 
#
# Total GULP energy -595052.686509 kJ/mol
# GULP energy per Si atom -12396.930969 kJ/mol
# Density = 2.077825 g / cm^3
# Si number density = 20.825646 Si / 1000 Ang^3
#
#
#
# Elastic Constant Matrix: (Units=GPa)
#
#
# Indices 1 2 3 4 5 6 
#
# 1 36.9408 21.1997 6.6498 0.0000 0.0000 0.0000
# 2 21.1997 144.4392 60.3237 0.0000 0.0000 0.0000
# 3 6.6498 60.3237 124.4493 0.0000 0.0000 0.0000
# 4 0.0000 0.0000 0.0000 39.2448 0.0000 0.0000
# 5 0.0000 0.0000 0.0000 0.0000 39.1927 0.0000
# 6 0.0000 0.0000 0.0000 0.0000 0.0000 30.9803
#
#
#
# Elastic Compliance Matrix: (Units=1/GPa)
#
#
# Indices 1 2 3 4 5 6 
#
# 1 0.029603 -0.004619 0.000657 0.000000 0.000000 0.000000
# 2 -0.004619 0.009401 -0.004310 0.000000 0.000000 0.000000
# 3 0.000657 -0.004310 0.010090 0.000000 0.000000 0.000000
# 4 0.000000 0.000000 0.000000 0.025481 0.000000 0.000000
# 5 0.000000 0.000000 0.000000 0.000000 0.025515 0.000000
# 6 0.000000 0.000000 0.000000 0.000000 0.000000 0.032279
#
#
# Mechanical properties :
#
#
# Convention : Reuss Voigt Hill
#
# Bulk Modulus (GPa) = 30.72257 53.57505 42.14881
# Shear Modulus (GPa) = 31.29629 36.39396 33.84513
#
# Velocity S-wave (km/s) = 3.88077 4.18491 4.03571
# Velocity P-wave (km/s) = 5.90464 7.00947 6.48064
#
# Compressibility (1/GPa) = 0.03254936
#
# Stress axis : x y z
#
# Youngs Moduli (GPa) = 33.78030 106.36605 99.11207
#
# Poissons Ratio (x) = 0.49135 -0.06515
# Poissons Ratio (y) = 0.15605 0.42720
# Poissons Ratio (z) = -0.02221 0.45847
#
# Static dielectric constant tensor:
#      x y z
#    x 3.684890 0.000000 0.000000 
#    y 0.000000 3.877610 0.000000 
#    z 0.000000 0.000000 4.314490 
# 
# 
# High freq. dielectric constant tensor:
#      x y z
#    x 1.807790 0.000000 0.000000 
#    y 0.000000 1.811320 0.000000 
#    z 0.000000 0.000000 1.831620 
# 
# From -- ./inp_files/6496.got.cif
#   From: 2010.03.12/outbox.cif.g09.slc.cpg/sg62_4_cif.got.tgz:6496.got - 2010.04.10 19:12:36.
