data_PCOD8252400
_publ_section_title
;
Structure prediction by ZEFSAII (Michael W. Deem and Ramdas Pophale) SiO2 
 PCOD8252400
Probable space group: P N M A
;
_chemical_formula_sum "Si O2"
_cell_formula_units_Z 56
_cell_length_a 14.323856
_cell_length_b 9.081241
_cell_length_c 20.502211
_cell_angle_alpha 90.000000
_cell_angle_beta 90.000000
_cell_angle_gamma 90.000000
_cell_volume 2666.894565
_symmetry_space_group_name_H-M "P N M A"
_symmetry_group_IT_number 62
_symmetry_cell_setting 'orthorhombic'
loop_
_space_group_symop_operation_xyz
x,y,z
1/2-x,-y,1/2+z
1/2+x,1/2-y,1/2-z
-x,1/2+y,-z
-x,-y,-z
1/2+x,y,1/2-z
1/2-x,1/2+y,1/2+z
x,1/2-y,z
loop_
_atom_site_type_symbol
_atom_site_label
_atom_site_fract_x
_atom_site_fract_y
_atom_site_fract_z
Si Si1 0.596201 0.422015 0.280918
Si Si2 0.378371 0.424384 0.270970
Si Si3 0.551897 0.411155 0.053469
Si Si4 0.187564 0.411173 0.898774
Si Si5 0.749062 0.088943 0.989313
Si Si6 0.244850 0.075278 0.657780
Si Si7 0.118000 0.910263 0.340130
O O1 0.613676 0.250000 0.290301
O O2 0.488524 0.461309 0.269297
O O3 0.649028 0.510411 0.338198
O O4 0.651752 0.484717 0.218245
O O5 0.359290 0.250000 0.267940
O O6 0.349648 0.484822 0.341564
O O7 0.326390 0.500358 0.209585
O O8 0.506470 0.250000 0.063026
O O9 0.538163 0.502013 0.120365
O O10 0.500000 0.500000 0.000000
O O11 0.659091 0.394384 0.034443
O O12 0.137195 0.250000 0.898938
O O13 0.296307 0.382444 0.887708
O O14 0.177802 0.484888 0.971092
O O15 0.796463 0.250000 0.981407
O O16 0.718058 0.034038 0.916992
O O17 0.243629 0.250000 0.671530
O O18 0.079880 0.750000 0.316204
#
# Coordination Sequence:
#
# PCOD8252400 Si02
#       7
#     8   8   8   8   8   8   8
#     4  11  24  40  60  90 122 160 203 250 308 363
#     4  11  24  40  62  90 123 162 204 250 305 365
#     4  10  20  34  52  80 116 155 196 242 297 361
#     4  10  20  37  62  90 116 154 202 245 299 360
#     4   9  21  39  59  83 117 158 199 249 308 361
#     4  11  23  41  64  92 123 161 204 253 309 361
#     4  10  20  35  56  82 114 154 194 242 294 352
#
# _framework density 20.998204999999999
#
# number of rings (size 3 to 8) (size 9 to 14) (size 15 to 20)
#    0.000    1.714    1.429    2.571    2.000    5.143 
#    0.000    0.714    0.000    0.000    0.000    0.000 
#    0.000    0.000    0.000    0.000    0.000    0.000 
#
# Total GULP energy -693777.740849 kJ/mol
# GULP energy per Si atom -12388.888229 kJ/mol
# Density = 2.095041 g / cm^3
# Si number density = 20.998205 Si / 1000 Ang^3
#
#
#
# Elastic Constant Matrix: (Units=GPa)
#
#
# Indices 1 2 3 4 5 6 
#
# 1 49.1303 34.3130 16.3749 0.0000 0.0000 0.0000
# 2 34.3130 140.3991 43.1189 0.0000 0.0000 0.0000
# 3 16.3749 43.1189 90.7861 0.0000 0.0000 0.0000
# 4 0.0000 0.0000 0.0000 32.2616 0.0000 0.0000
# 5 0.0000 0.0000 0.0000 0.0000 24.6351 0.0000
# 6 0.0000 0.0000 0.0000 0.0000 0.0000 27.4116
#
#
#
# Elastic Compliance Matrix: (Units=1/GPa)
#
#
# Indices 1 2 3 4 5 6 
#
# 1 0.024811 -0.005490 -0.001868 0.000000 0.000000 0.000000
# 2 -0.005490 0.009554 -0.003547 0.000000 0.000000 0.000000
# 3 -0.001868 -0.003547 0.013037 0.000000 0.000000 0.000000
# 4 0.000000 0.000000 0.000000 0.030997 0.000000 0.000000
# 5 0.000000 0.000000 0.000000 0.000000 0.040592 0.000000
# 6 0.000000 0.000000 0.000000 0.000000 0.000000 0.036481
#
#
# Mechanical properties :
#
#
# Convention : Reuss Voigt Hill
#
# Bulk Modulus (GPa) = 39.07598 51.99211 45.53405
# Shear Modulus (GPa) = 26.90899 29.29557 28.10228
#
# Velocity S-wave (km/s) = 3.58367 3.73922 3.66227
# Velocity P-wave (km/s) = 5.98107 6.59214 6.29403
#
# Compressibility (1/GPa) = 0.02559117
#
# Stress axis : x y z
#
# Youngs Moduli (GPa) = 40.30501 104.67087 76.70744
#
# Poissons Ratio (x) = 0.57466 0.14325
# Poissons Ratio (y) = 0.22128 0.27211
# Poissons Ratio (z) = 0.07527 0.37130
#
# Static dielectric constant tensor:
#      x y z
#    x 3.437990 0.000000 0.000000 
#    y 0.000000 4.365200 0.000000 
#    z 0.000000 0.000000 3.684330 
# 
# 
# High freq. dielectric constant tensor:
#      x y z
#    x 1.786170 0.000000 0.000000 
#    y 0.000000 1.844010 0.000000 
#    z 0.000000 0.000000 1.825010 
# 
# From -- ./inp_files/27065.got.cif
#   From: 2010.03.12/outbox.cif.g09.slc.cpg/sg62_14_cif.got.tgz:27065.got - 2010.04.10 19:12:36.
