data_PCOD8252235
_publ_section_title
;
Structure prediction by ZEFSAII (Michael W. Deem and Ramdas Pophale) SiO2 
 PCOD8252235
Probable space group: P N M A
;
_chemical_formula_sum "Si O2"
_cell_formula_units_Z 48
_cell_length_a 12.101596
_cell_length_b 8.771315
_cell_length_c 23.698280
_cell_angle_alpha 90.000000
_cell_angle_beta 90.000000
_cell_angle_gamma 90.000000
_cell_volume 2515.499207
_symmetry_space_group_name_H-M "P N M A"
_symmetry_group_IT_number 62
_symmetry_cell_setting 'orthorhombic'
loop_
_space_group_symop_operation_xyz
x,y,z
1/2-x,-y,1/2+z
1/2+x,1/2-y,1/2-z
-x,1/2+y,-z
-x,-y,-z
1/2+x,y,1/2-z
1/2-x,1/2+y,1/2+z
x,1/2-y,z
loop_
_atom_site_type_symbol
_atom_site_label
_atom_site_fract_x
_atom_site_fract_y
_atom_site_fract_z
Si Si1 0.280104 0.930422 0.582020
Si Si2 0.848474 0.431655 0.641973
Si Si3 0.096299 0.431892 0.656623
Si Si4 0.501933 0.929524 0.377349
Si Si5 0.158273 0.069547 0.779067
Si Si6 0.805857 0.930684 0.044184
O O1 0.269941 0.750000 0.582085
O O2 0.294364 0.997114 0.518687
O O3 0.168740 0.001368 0.606414
O O4 0.383702 0.980661 0.619577
O O5 0.848137 0.250000 0.642904
O O6 0.772933 0.492054 0.694072
O O7 0.795027 0.490788 0.583221
O O8 0.972078 0.494645 0.648124
O O9 0.099961 0.250000 0.654645
O O10 0.141129 0.496478 0.716381
O O11 0.526437 0.750000 0.379382
O O12 0.444838 0.976983 0.318522
O O13 0.422783 0.981399 0.428935
O O14 0.163497 0.250000 0.776039
O O15 0.801796 0.750000 0.042922
#
# Coordination Sequence:
#
# PCOD8252235 Si02
#       6
#     8   8   8   8   8   8
#     4  11  22  33  47  73 109 142 168 201 249 302
#     4   8  15  30  51  75 100 127 164 210 257 298
#     4  10  20  32  52  78 100 129 170 212 251 296
#     4   9  17  33  57  80  99 127 171 218 256 294
#     4   8  16  30  53  80 100 121 160 217 265 294
#     4   8  16  32  52  74 103 136 167 206 256 301
#
# _framework density 19.081699
#
# number of rings (size 3 to 8) (size 9 to 14) (size 15 to 20)
#    0.000    3.000    0.000    3.000    2.333    0.667 
#    0.000    1.667    0.000    5.000    0.000    0.000 
#    0.000    0.000    0.000    0.000    0.000    0.000 
#
# Total GULP energy -595027.280544 kJ/mol
# GULP energy per Si atom -12396.401678 kJ/mol
# Density = 1.903827 g / cm^3
# Si number density = 19.081699 Si / 1000 Ang^3
#
#
#
# Elastic Constant Matrix: (Units=GPa)
#
#
# Indices 1 2 3 4 5 6 
#
# 1 139.1130 18.8681 31.6807 0.0000 0.0000 0.0000
# 2 18.8681 20.3282 12.6888 0.0000 0.0000 0.0000
# 3 31.6807 12.6888 73.7232 0.0000 0.0000 0.0000
# 4 0.0000 0.0000 0.0000 18.9996 0.0000 0.0000
# 5 0.0000 0.0000 0.0000 0.0000 25.6276 0.0000
# 6 0.0000 0.0000 0.0000 0.0000 0.0000 17.8203
#
#
#
# Elastic Compliance Matrix: (Units=1/GPa)
#
#
# Indices 1 2 3 4 5 6 
#
# 1 0.008652 -0.006397 -0.002617 0.000000 0.000000 0.000000
# 2 -0.006397 0.059843 -0.007551 0.000000 0.000000 0.000000
# 3 -0.002617 -0.007551 0.015988 0.000000 0.000000 0.000000
# 4 0.000000 0.000000 0.000000 0.052633 0.000000 0.000000
# 5 0.000000 0.000000 0.000000 0.000000 0.039020 0.000000
# 6 0.000000 0.000000 0.000000 0.000000 0.000000 0.056116
#
#
# Mechanical properties :
#
#
# Convention : Reuss Voigt Hill
#
# Bulk Modulus (GPa) = 19.47268 39.95997 29.71633
# Shear Modulus (GPa) = 17.69906 23.81793 20.75849
#
# Velocity S-wave (km/s) = 3.04886 3.53683 3.30187
# Velocity P-wave (km/s) = 4.75617 6.13725 5.49031
#
# Compressibility (1/GPa) = 0.05135400
#
# Stress axis : x y z
#
# Youngs Moduli (GPa) = 115.58003 16.71026 62.54513
#
# Poissons Ratio (x) = 0.10690 0.16368
# Poissons Ratio (y) = 0.73937 0.47228
# Poissons Ratio (z) = 0.30247 0.12618
#
# Static dielectric constant tensor:
#      x y z
#    x 3.657180 0.000000 0.000000 
#    y 0.000000 2.877250 0.000000 
#    z 0.000000 0.000000 3.924890 
# 
# 
# High freq. dielectric constant tensor:
#      x y z
#    x 1.749920 0.000000 0.000000 
#    y 0.000000 1.682090 0.000000 
#    z 0.000000 0.000000 1.751230 
# 
# From -- ./inp_files/29221.got.cif
#   From: 2010.03.12/outbox.cif.g09.slc.cpg/sg62_15_cif.got.tgz:29221.got - 2010.04.10 19:12:36.
