data_PCOD8252130
_publ_section_title
;
Structure prediction by ZEFSAII (Michael W. Deem and Ramdas Pophale) SiO2 
 PCOD8252130
Probable space group: P N M A
;
_chemical_formula_sum "Si O2"
_cell_formula_units_Z 48
_cell_length_a 16.309322
_cell_length_b 16.078505
_cell_length_c 8.220187
_cell_angle_alpha 90.000000
_cell_angle_beta 90.000000
_cell_angle_gamma 90.000000
_cell_volume 2155.575653
_symmetry_space_group_name_H-M "P N M A"
_symmetry_group_IT_number 62
_symmetry_cell_setting 'orthorhombic'
loop_
_space_group_symop_operation_xyz
x,y,z
1/2-x,-y,1/2+z
1/2+x,1/2-y,1/2-z
-x,1/2+y,-z
-x,-y,-z
1/2+x,y,1/2-z
1/2-x,1/2+y,1/2+z
x,1/2-y,z
loop_
_atom_site_type_symbol
_atom_site_label
_atom_site_fract_x
_atom_site_fract_y
_atom_site_fract_z
Si Si1 0.832100 0.250000 0.142945
Si Si2 0.167027 0.081786 0.711132
Si Si3 0.084958 0.750000 0.199638
Si Si4 0.345717 0.082630 0.821033
Si Si5 0.575907 0.417680 0.133560
Si Si6 0.098536 0.250000 0.745332
Si Si7 0.614291 0.912957 0.827193
Si Si8 0.362954 0.750000 0.865873
O O1 0.868605 0.169454 0.228620
O O2 0.734748 0.250000 0.138703
O O3 0.862510 0.250000 0.961375
O O4 0.265277 0.081413 0.709652
O O5 0.128148 0.085455 0.532124
O O6 0.141926 0.165266 0.809627
O O7 0.134248 0.994022 0.786534
O O8 0.104042 0.832992 0.298807
O O9 0.988898 0.750000 0.169328
O O10 0.398844 0.001132 0.769059
O O11 0.326371 0.081169 0.014762
O O12 0.478581 0.417551 0.105695
O O13 0.602755 0.332475 0.226529
O O14 0.099414 0.250000 0.548749
#
# Coordination Sequence:
#
# PCOD8252130 Si02
#       8
#     4   8   4   8   8   4   8   4
#     4  12  26  42  62  96 131 164 211 272 325 372
#     4  10  20  36  62  96 124 160 212 261 305 371
#     4  12  23  40  63  92 123 163 215 266 314 376
#     4  11  21  38  66  94 123 168 217 260 310 382
#     4  10  20  39  65  93 125 167 209 254 315 382
#     4  10  20  38  61  86 119 162 205 252 309 374
#     4  11  23  42  64  94 131 172 211 259 324 386
#     4  10  19  38  64  90 123 163 203 252 310 374
#
# _framework density 22.267833
#
# number of rings (size 3 to 8) (size 9 to 14) (size 15 to 20)
#    0.000    1.333    0.000    9.500    0.000    1.333 
#    0.000   10.000    0.000    0.000    0.000    0.000 
#    0.000    0.000    0.000    0.000    0.000    0.000 
#
# Total GULP energy -594815.664353 kJ/mol
# GULP energy per Si atom -12391.993007 kJ/mol
# Density = 2.221715 g / cm^3
# Si number density = 22.267833 Si / 1000 Ang^3
#
#
#
# Elastic Constant Matrix: (Units=GPa)
#
#
# Indices 1 2 3 4 5 6 
#
# 1 121.3666 39.8403 10.3392 0.0000 0.0000 0.0000
# 2 39.8403 254.0392 12.2694 0.0000 0.0000 0.0000
# 3 10.3392 12.2694 17.8362 0.0000 0.0000 0.0000
# 4 0.0000 0.0000 0.0000 2.4688 0.0000 0.0000
# 5 0.0000 0.0000 0.0000 0.0000 14.8523 0.0000
# 6 0.0000 0.0000 0.0000 0.0000 0.0000 41.2094
#
#
#
# Elastic Compliance Matrix: (Units=1/GPa)
#
#
# Indices 1 2 3 4 5 6 
#
# 1 0.009008 -0.001200 -0.004396 0.000000 0.000000 0.000000
# 2 -0.001200 0.004232 -0.002215 0.000000 0.000000 0.000000
# 3 -0.004396 -0.002215 0.060138 0.000000 0.000000 0.000000
# 4 0.000000 0.000000 0.000000 0.405061 0.000000 0.000000
# 5 0.000000 0.000000 0.000000 0.000000 0.067330 0.000000
# 6 0.000000 0.000000 0.000000 0.000000 0.000000 0.024266
#
#
# Mechanical properties :
#
#
# Convention : Reuss Voigt Hill
#
# Bulk Modulus (GPa) = 17.31470 57.57109 37.44290
# Shear Modulus (GPa) = 8.26571 33.75896 21.01234
#
# Velocity S-wave (km/s) = 1.92873 3.89786 3.07517
# Velocity P-wave (km/s) = 3.57107 6.79469 5.42772
#
# Compressibility (1/GPa) = 0.05775440
#
# Stress axis : x y z
#
# Youngs Moduli (GPa) = 111.01192 236.31524 16.62853
#
# Poissons Ratio (x) = 0.28367 0.07310
# Poissons Ratio (y) = 0.13326 0.03683
# Poissons Ratio (z) = 0.48801 0.52345
#
# Static dielectric constant tensor:
#      x y z
#    x 3.948210 0.000000 0.000000 
#    y 0.000000 5.810440 0.000000 
#    z 0.000000 0.000000 3.368050 
# 
# 
# High freq. dielectric constant tensor:
#      x y z
#    x 1.881620 0.000000 0.000000 
#    y 0.000000 1.930250 0.000000 
#    z 0.000000 0.000000 1.812090 
# 
# From -- ./inp_files/6559.got.cif
#   From: 2010.03.12/outbox.cif.g09.slc.cpg/sg62_4_cif.got.tgz:6559.got - 2010.04.10 19:12:36.
