data_PCOD8252671
_publ_section_title
;
Structure prediction by ZEFSAII (Michael W. Deem and Ramdas Pophale) SiO2 
 PCOD8252671
Probable space group: P N M A
;
_chemical_formula_sum "Si O2"
_cell_formula_units_Z 64
_cell_length_a 20.462528
_cell_length_b 8.459130
_cell_length_c 17.975733
_cell_angle_alpha 90.000000
_cell_angle_beta 90.000000
_cell_angle_gamma 90.000000
_cell_volume 3111.512820
_symmetry_space_group_name_H-M "P N M A"
_symmetry_group_IT_number 62
_symmetry_cell_setting 'orthorhombic'
loop_
_space_group_symop_operation_xyz
x,y,z
1/2-x,-y,1/2+z
1/2+x,1/2-y,1/2-z
-x,1/2+y,-z
-x,-y,-z
1/2+x,y,1/2-z
1/2-x,1/2+y,1/2+z
x,1/2-y,z
loop_
_atom_site_type_symbol
_atom_site_label
_atom_site_fract_x
_atom_site_fract_y
_atom_site_fract_z
Si Si1 0.480785 0.063657 0.771084
Si Si2 0.844706 0.563180 0.676858
Si Si3 0.501884 0.930126 0.614844
Si Si4 0.655560 0.431678 0.011311
Si Si5 0.776733 0.928849 0.943316
Si Si6 0.255311 0.562829 0.207600
Si Si7 0.899740 0.074483 0.992934
Si Si8 0.106790 0.437935 0.642504
O O1 0.470089 0.250000 0.777302
O O2 0.536453 0.002769 0.828613
O O3 0.411293 0.979078 0.780758
O O4 0.510564 0.014808 0.692884
O O5 0.834947 0.750000 0.674398
O O6 0.853231 0.490431 0.593064
O O7 0.779197 0.493199 0.715749
O O8 0.475487 0.750000 0.622410
O O9 0.572843 0.931147 0.576530
O O10 0.455297 0.038957 0.566482
O O11 0.637066 0.250000 0.019383
O O12 0.729954 0.451847 0.986684
O O13 0.613307 0.505599 0.942505
O O14 0.750566 0.750000 0.946969
O O15 0.786799 0.984142 0.858357
O O16 0.845165 0.940918 0.985484
O O17 0.249889 0.750000 0.203279
O O18 0.331489 0.507514 0.195017
O O19 0.872155 0.250000 0.975725
O O20 0.109087 0.250000 0.640511
#
# Coordination Sequence:
#
# PCOD8252671 Si02
#       8
#     8   8   8   8   8   8   8   8
#     4  11  22  37  58  83 113 149 189 233 284 341
#     4  11  23  38  58  86 117 148 188 236 282 332
#     4  10  21  36  53  77 109 143 184 229 274 330
#     4   9  20  40  60  79 109 147 187 233 283 332
#     4  11  21  34  56  84 112 142 182 229 276 334
#     4  10  20  38  61  83 113 151 189 231 283 339
#     4  10  20  35  55  78 108 147 184 223 277 336
#     4   8  18  38  61  82 107 146 191 231 277 334
#
# _framework density 20.568773
#
# number of rings (size 3 to 8) (size 9 to 14) (size 15 to 20)
#    0.000    2.000    0.000    4.500    0.000    4.000 
#    0.000    8.750    0.000    0.000    0.000    0.000 
#    0.000    0.000    0.000    0.000    0.000    0.000 
#
# Total GULP energy -793181.845815 kJ/mol
# GULP energy per Si atom -12393.466341 kJ/mol
# Density = 2.052196 g / cm^3
# Si number density = 20.568773 Si / 1000 Ang^3
#
#
#
# Elastic Constant Matrix: (Units=GPa)
#
#
# Indices 1 2 3 4 5 6 
#
# 1 51.5507 6.5671 17.3253 0.0000 0.0000 0.0000
# 2 6.5671 45.8666 11.0235 0.0000 0.0000 0.0000
# 3 17.3253 11.0235 111.1894 0.0000 0.0000 0.0000
# 4 0.0000 0.0000 0.0000 23.6903 0.0000 0.0000
# 5 0.0000 0.0000 0.0000 0.0000 24.1288 0.0000
# 6 0.0000 0.0000 0.0000 0.0000 0.0000 20.6351
#
#
#
# Elastic Compliance Matrix: (Units=1/GPa)
#
#
# Indices 1 2 3 4 5 6 
#
# 1 0.020693 -0.002241 -0.003002 0.000000 0.000000 0.000000
# 2 -0.002241 0.022577 -0.001889 0.000000 0.000000 0.000000
# 3 -0.003002 -0.001889 0.009649 0.000000 0.000000 0.000000
# 4 0.000000 0.000000 0.000000 0.042211 0.000000 0.000000
# 5 0.000000 0.000000 0.000000 0.000000 0.041444 0.000000
# 6 0.000000 0.000000 0.000000 0.000000 0.000000 0.048461
#
#
# Mechanical properties :
#
#
# Convention : Reuss Voigt Hill
#
# Bulk Modulus (GPa) = 25.87061 30.93762 28.40412
# Shear Modulus (GPa) = 23.56429 25.27020 24.41725
#
# Velocity S-wave (km/s) = 3.38839 3.50890 3.44917
# Velocity P-wave (km/s) = 5.28330 5.61162 5.44993
#
# Compressibility (1/GPa) = 0.03865390
#
# Stress axis : x y z
#
# Youngs Moduli (GPa) = 48.32582 44.29227 103.64050
#
# Poissons Ratio (x) = 0.09927 0.31114
# Poissons Ratio (y) = 0.10831 0.19579
# Poissons Ratio (z) = 0.14508 0.08367
#
# Static dielectric constant tensor:
#      x y z
#    x 3.697920 0.000000 0.000000 
#    y 0.000000 3.572310 0.000000 
#    z 0.000000 0.000000 4.044400 
# 
# 
# High freq. dielectric constant tensor:
#      x y z
#    x 1.795830 0.000000 0.000000 
#    y 0.000000 1.794390 0.000000 
#    z 0.000000 0.000000 1.808020 
# 
# From -- ./inp_files/24727.got.cif
#   From: 2010.03.12/outbox.cif.g09.slc.cpg/sg62_13_cif.got.tgz:24727.got - 2010.04.10 19:12:36.
