data_PCOD8252072
_publ_section_title
;
Structure prediction by ZEFSAII (Michael W. Deem and Ramdas Pophale) SiO2 
 PCOD8252072
Probable space group: P N M A
;
_chemical_formula_sum "Si O2"
_cell_formula_units_Z 56
_cell_length_a 14.715092
_cell_length_b 8.817967
_cell_length_c 21.818989
_cell_angle_alpha 90.000000
_cell_angle_beta 90.000000
_cell_angle_gamma 90.000000
_cell_volume 2831.170825
_symmetry_space_group_name_H-M "P N M A"
_symmetry_group_IT_number 62
_symmetry_cell_setting 'orthorhombic'
loop_
_space_group_symop_operation_xyz
x,y,z
1/2-x,-y,1/2+z
1/2+x,1/2-y,1/2-z
-x,1/2+y,-z
-x,-y,-z
1/2+x,y,1/2-z
1/2-x,1/2+y,1/2+z
x,1/2-y,z
loop_
_atom_site_type_symbol
_atom_site_label
_atom_site_fract_x
_atom_site_fract_y
_atom_site_fract_z
Si Si1 0.072805 0.571068 0.454900
Si Si2 0.224972 0.070274 0.978431
Si Si3 0.885189 0.930405 0.904469
Si Si4 0.182401 0.070041 0.225854
Si Si5 0.427637 0.570888 0.386072
Si Si6 0.879638 0.075326 0.239049
Si Si7 0.958828 0.575727 0.672706
O O1 0.070515 0.750000 0.463462
O O2 0.173251 0.505114 0.470167
O O3 0.046667 0.529946 0.385976
O O4 0.000000 0.500000 0.500000
O O5 0.229015 0.250000 0.977409
O O6 0.161269 0.012777 0.922774
O O7 0.183657 0.013563 0.042825
O O8 0.894066 0.750000 0.903870
O O9 0.847594 0.994953 0.839993
O O10 0.984122 0.998658 0.917771
O O11 0.182888 0.250000 0.221524
O O12 0.281640 0.008434 0.243234
O O13 0.113197 0.014318 0.277752
O O14 0.436800 0.750000 0.389973
O O15 0.421714 0.520477 0.315862
O O16 0.874566 0.250000 0.217614
O O17 0.941105 0.059620 0.299223
O O18 0.938565 0.750000 0.654629
#
# Coordination Sequence:
#
# PCOD8252072 Si02
#       7
#     8   8   8   8   8   8   8
#     4  11  24  42  62  86 116 155 197 239 289 343
#     4   9  21  38  60  84 114 155 195 235 289 350
#     4  10  19  37  61  84 111 152 198 240 286 344
#     4   9  18  33  58  87 110 144 197 244 281 333
#     4  11  21  36  56  88 123 152 186 236 297 350
#     4  10  20  35  59  85 111 151 197 236 280 341
#     4  10  20  37  59  86 115 146 191 239 284 338
#
# _framework density 19.779803000000001
#
# number of rings (size 3 to 8) (size 9 to 14) (size 15 to 20)
#    0.000    2.000    1.429    2.143    2.000    0.571 
#    0.000    5.000    0.000    0.000    0.000    0.000 
#    0.000    0.000    0.000    0.000    0.000    0.000 
#
# Total GULP energy -694549.368612 kJ/mol
# GULP energy per Si atom -12402.667297 kJ/mol
# Density = 1.973478 g / cm^3
# Si number density = 19.779803 Si / 1000 Ang^3
#
#
#
# Elastic Constant Matrix: (Units=GPa)
#
#
# Indices 1 2 3 4 5 6 
#
# 1 143.6333 27.8675 53.9488 0.0000 0.0000 0.0000
# 2 27.8675 41.7646 28.6316 0.0000 0.0000 0.0000
# 3 53.9488 28.6316 128.2226 0.0000 0.0000 0.0000
# 4 0.0000 0.0000 0.0000 26.8874 0.0000 0.0000
# 5 0.0000 0.0000 0.0000 0.0000 34.6311 0.0000
# 6 0.0000 0.0000 0.0000 0.0000 0.0000 23.8845
#
#
#
# Elastic Compliance Matrix: (Units=1/GPa)
#
#
# Indices 1 2 3 4 5 6 
#
# 1 0.008783 -0.003928 -0.002818 0.000000 0.000000 0.000000
# 2 -0.003928 0.030029 -0.005052 0.000000 0.000000 0.000000
# 3 -0.002818 -0.005052 0.010113 0.000000 0.000000 0.000000
# 4 0.000000 0.000000 0.000000 0.037192 0.000000 0.000000
# 5 0.000000 0.000000 0.000000 0.000000 0.028876 0.000000
# 6 0.000000 0.000000 0.000000 0.000000 0.000000 0.041868
#
#
# Mechanical properties :
#
#
# Convention : Reuss Voigt Hill
#
# Bulk Modulus (GPa) = 39.48449 59.39072 49.43760
# Shear Modulus (GPa) = 26.46895 30.62543 28.54719
#
# Velocity S-wave (km/s) = 3.66208 3.93914 3.80313
# Velocity P-wave (km/s) = 6.15520 7.12602 6.65833
#
# Compressibility (1/GPa) = 0.02532640
#
# Stress axis : x y z
#
# Youngs Moduli (GPa) = 113.85830 33.30150 98.88422
#
# Poissons Ratio (x) = 0.13082 0.27867
# Poissons Ratio (y) = 0.44728 0.49961
# Poissons Ratio (z) = 0.32087 0.16825
#
# Static dielectric constant tensor:
#      x y z
#    x 3.984730 0.000000 0.000000 
#    y 0.000000 3.237210 0.000000 
#    z 0.000000 0.000000 3.715550 
# 
# 
# High freq. dielectric constant tensor:
#      x y z
#    x 1.789020 0.000000 0.000000 
#    y 0.000000 1.733930 0.000000 
#    z 0.000000 0.000000 1.780640 
# 
# From -- ./inp_files/27090.got.cif
#   From: 2010.03.12/outbox.cif.g09.slc.cpg/sg62_14_cif.got.tgz:27090.got - 2010.04.10 19:12:36.
