data_PCOD8252585
_publ_section_title
;
Structure prediction by ZEFSAII (Michael W. Deem and Ramdas Pophale) SiO2 
 PCOD8252585
Probable space group: P N M A
;
_chemical_formula_sum "Si O2"
_cell_formula_units_Z 48
_cell_length_a 10.208571
_cell_length_b 8.954386
_cell_length_c 27.805151
_cell_angle_alpha 90.000000
_cell_angle_beta 90.000000
_cell_angle_gamma 90.000000
_cell_volume 2541.710150
_symmetry_space_group_name_H-M "P N M A"
_symmetry_group_IT_number 62
_symmetry_cell_setting 'orthorhombic'
loop_
_space_group_symop_operation_xyz
x,y,z
1/2-x,-y,1/2+z
1/2+x,1/2-y,1/2-z
-x,1/2+y,-z
-x,-y,-z
1/2+x,y,1/2-z
1/2-x,1/2+y,1/2+z
x,1/2-y,z
loop_
_atom_site_type_symbol
_atom_site_label
_atom_site_fract_x
_atom_site_fract_y
_atom_site_fract_z
Si Si1 0.477221 0.575791 0.806760
Si Si2 0.641446 0.576500 0.554816
Si Si3 0.739628 0.922228 0.861563
Si Si4 0.499187 0.577725 0.696212
Si Si5 0.633596 0.923524 0.445869
Si Si6 0.264866 0.925834 0.356220
O O1 0.443268 0.750000 0.811659
O O2 0.604448 0.530552 0.836996
O O3 0.503014 0.532533 0.751788
O O4 0.355995 0.481288 0.825150
O O5 0.641939 0.750000 0.567581
O O6 0.495877 0.517600 0.564984
O O7 0.684251 0.545844 0.499949
O O8 0.743179 0.493614 0.589886
O O9 0.737893 0.750000 0.877299
O O10 0.854305 0.953787 0.823500
O O11 0.754720 0.022714 0.909237
O O12 0.540208 0.750000 0.689106
O O13 0.599916 0.474555 0.668072
O O14 0.600839 0.750000 0.438412
O O15 0.259921 0.750000 0.360178
#
# Coordination Sequence:
#
# PCOD8252585 Si02
#       6
#     8   8   8   8   8   8
#     4  10  22  40  60  83 115 157 199 234 277 341
#     4  10  20  36  58  83 112 149 192 234 281 344
#     4  10  20  35  59  87 114 150 193 237 284 339
#     4  10  20  38  63  86 110 150 199 239 278 338
#     4  10  20  34  57  87 115 144 184 240 294 338
#     4  12  24  37  57  88 120 152 189 238 294 336
#
# _framework density 18.884923000000001
#
# number of rings (size 3 to 8) (size 9 to 14) (size 15 to 20)
#    0.000    1.667    1.667    3.500    0.000    6.000 
#    0.000    2.500    0.000    0.000    0.000    0.000 
#    0.000    0.000    0.000    0.000    0.000    0.000 
#
# Total GULP energy -595438.352761 kJ/mol
# GULP energy per Si atom -12404.965683 kJ/mol
# Density = 1.884194 g / cm^3
# Si number density = 18.884923 Si / 1000 Ang^3
#
#
#
# Elastic Constant Matrix: (Units=GPa)
#
#
# Indices 1 2 3 4 5 6 
#
# 1 53.4184 28.7076 18.4719 0.0000 0.0000 0.0000
# 2 28.7076 96.8430 50.6857 0.0000 0.0000 0.0000
# 3 18.4719 50.6857 117.5033 0.0000 0.0000 0.0000
# 4 0.0000 0.0000 0.0000 28.8202 0.0000 0.0000
# 5 0.0000 0.0000 0.0000 0.0000 9.6019 0.0000
# 6 0.0000 0.0000 0.0000 0.0000 0.0000 23.8101
#
#
#
# Elastic Compliance Matrix: (Units=1/GPa)
#
#
# Indices 1 2 3 4 5 6 
#
# 1 0.022332 -0.006177 -0.000846 0.000000 0.000000 0.000000
# 2 -0.006177 0.015046 -0.005519 0.000000 0.000000 0.000000
# 3 -0.000846 -0.005519 0.011024 0.000000 0.000000 0.000000
# 4 0.000000 0.000000 0.000000 0.034698 0.000000 0.000000
# 5 0.000000 0.000000 0.000000 0.000000 0.104146 0.000000
# 6 0.000000 0.000000 0.000000 0.000000 0.000000 0.041999
#
#
# Mechanical properties :
#
#
# Convention : Reuss Voigt Hill
#
# Bulk Modulus (GPa) = 42.88632 51.49946 47.19289
# Shear Modulus (GPa) = 19.07652 23.77308 21.42480
#
# Velocity S-wave (km/s) = 3.18173 3.55186 3.37188
# Velocity P-wave (km/s) = 6.02133 6.64457 6.34061
#
# Compressibility (1/GPa) = 0.02331746
#
# Stress axis : x y z
#
# Youngs Moduli (GPa) = 44.77794 66.46447 90.71080
#
# Poissons Ratio (x) = 0.41057 0.07676
# Poissons Ratio (y) = 0.27660 0.50063
# Poissons Ratio (z) = 0.03789 0.36681
#
# Static dielectric constant tensor:
#      x y z
#    x 3.298790 0.000000 0.000000 
#    y 0.000000 3.446620 0.000000 
#    z 0.000000 0.000000 3.748610 
# 
# 
# High freq. dielectric constant tensor:
#      x y z
#    x 1.714870 0.000000 0.000000 
#    y 0.000000 1.732680 0.000000 
#    z 0.000000 0.000000 1.752490 
# 
# From -- ./inp_files/32034.got.cif
#   From: 2010.03.12/outbox.cif.g09.slc.cpg/sg62_17_cif.got.tgz:32034.got - 2010.04.10 19:12:36.
