data_PCOD8252382
_publ_section_title
;
Structure prediction by ZEFSAII (Michael W. Deem and Ramdas Pophale) SiO2 
 PCOD8252382
Probable space group: P N M A
;
_chemical_formula_sum "Si O2"
_cell_formula_units_Z 56
_cell_length_a 24.049789
_cell_length_b 9.374906
_cell_length_c 13.805397
_cell_angle_alpha 90.000000
_cell_angle_beta 90.000000
_cell_angle_gamma 90.000000
_cell_volume 3112.627086
_symmetry_space_group_name_H-M "P N M A"
_symmetry_group_IT_number 62
_symmetry_cell_setting 'orthorhombic'
loop_
_space_group_symop_operation_xyz
x,y,z
1/2-x,-y,1/2+z
1/2+x,1/2-y,1/2-z
-x,1/2+y,-z
-x,-y,-z
1/2+x,y,1/2-z
1/2-x,1/2+y,1/2+z
x,1/2-y,z
loop_
_atom_site_type_symbol
_atom_site_label
_atom_site_fract_x
_atom_site_fract_y
_atom_site_fract_z
Si Si1 0.444120 0.418251 0.521449
Si Si2 0.879223 0.082038 0.791948
Si Si3 0.448880 0.417119 0.884498
Si Si4 0.229237 0.580520 0.105169
Si Si5 0.942465 0.415047 0.395236
Si Si6 0.334818 0.418593 0.417068
Si Si7 0.326715 0.082262 0.200532
O O1 0.500000 0.500000 0.500000
O O2 0.454687 0.250000 0.512505
O O3 0.424758 0.463244 0.628778
O O4 0.396392 0.471166 0.446903
O O5 0.873237 0.250000 0.794585
O O6 0.818006 0.023741 0.819605
O O7 0.899863 0.027770 0.686951
O O8 0.459189 0.250000 0.869712
O O9 0.505995 0.494467 0.855762
O O10 0.429942 0.454987 0.992969
O O11 0.238105 0.750000 0.111875
O O12 0.286059 0.501496 0.129370
O O13 0.210896 0.533993 0.996500
O O14 0.958573 0.250000 0.385800
O O15 0.889171 0.453747 0.331752
O O16 0.337340 0.250000 0.414849
O O17 0.318825 0.475439 0.310379
O O18 0.314468 0.250000 0.191372
#
# Coordination Sequence:
#
# PCOD8252382 Si02
#       7
#     8   8   8   8   8   8   8
#     4   9  17  30  48  71  96 126 160 195 240 295
#     4   8  16  31  50  69  94 128 161 197 246 295
#     4   9  17  32  51  70  97 130 163 203 246 292
#     4   9  18  35  54  72  96 130 173 208 242 297
#     4   9  19  32  47  71 100 129 162 201 248 297
#     4   8  17  34  51  68 100 138 162 192 252 314
#     4  10  20  34  52  74 102 135 167 206 257 301
#
# _framework density 17.991233000000001
#
# number of rings (size 3 to 8) (size 9 to 14) (size 15 to 20)
#    0.000    3.143    0.000    1.714    2.000    1.714 
#    0.000    6.429    0.000    0.000    0.000    0.000 
#    0.000    0.000    0.000    0.000    0.000    0.000 
#
# Total GULP energy -694147.690596 kJ/mol
# GULP energy per Si atom -12395.494475 kJ/mol
# Density = 1.795028 g / cm^3
# Si number density = 17.991233 Si / 1000 Ang^3
#
#
#
# Elastic Constant Matrix: (Units=GPa)
#
#
# Indices 1 2 3 4 5 6 
#
# 1 74.9561 30.2151 44.5722 0.0000 0.0000 0.0000
# 2 30.2151 32.4779 23.8729 0.0000 0.0000 0.0000
# 3 44.5722 23.8729 101.4985 0.0000 0.0000 0.0000
# 4 0.0000 0.0000 0.0000 19.3713 0.0000 0.0000
# 5 0.0000 0.0000 0.0000 0.0000 28.3358 0.0000
# 6 0.0000 0.0000 0.0000 0.0000 0.0000 32.6799
#
#
#
# Elastic Compliance Matrix: (Units=1/GPa)
#
#
# Indices 1 2 3 4 5 6 
#
# 1 0.024456 -0.017964 -0.006515 0.000000 0.000000 0.000000
# 2 -0.017964 0.050421 -0.003971 0.000000 0.000000 0.000000
# 3 -0.006515 -0.003971 0.013647 0.000000 0.000000 0.000000
# 4 0.000000 0.000000 0.000000 0.051623 0.000000 0.000000
# 5 0.000000 0.000000 0.000000 0.000000 0.035291 0.000000
# 6 0.000000 0.000000 0.000000 0.000000 0.000000 0.030600
#
#
# Mechanical properties :
#
#
# Convention : Reuss Voigt Hill
#
# Bulk Modulus (GPa) = 31.61922 45.13922 38.37922
# Shear Modulus (GPa) = 18.28301 23.42889 20.85595
#
# Velocity S-wave (km/s) = 3.19128 3.61257 3.40844
# Velocity P-wave (km/s) = 5.58497 6.52265 6.07194
#
# Compressibility (1/GPa) = 0.03162634
#
# Stress axis : x y z
#
# Youngs Moduli (GPa) = 40.88930 19.83306 73.27570
#
# Poissons Ratio (x) = 0.35628 0.47736
# Poissons Ratio (y) = 0.73453 0.29095
# Poissons Ratio (z) = 0.26638 0.07875
#
# Static dielectric constant tensor:
#      x y z
#    x 3.303650 0.000000 0.000000 
#    y 0.000000 3.032630 0.000000 
#    z 0.000000 0.000000 3.890700 
# 
# 
# High freq. dielectric constant tensor:
#      x y z
#    x 1.695000 0.000000 0.000000 
#    y 0.000000 1.660570 0.000000 
#    z 0.000000 0.000000 1.705890 
# 
# From -- ./inp_files/15267.got.cif
#   From: 2010.03.12/outbox.cif.g09.slc.cpg/sg62_8_cif.got.tgz:15267.got - 2010.04.10 19:12:36.
