data_PCOD8252722
_publ_section_title
;
Structure prediction by ZEFSAII (Michael W. Deem and Ramdas Pophale) SiO2 
 PCOD8252722
Probable space group: P N M A
;
_chemical_formula_sum "Si O2"
_cell_formula_units_Z 48
_cell_length_a 14.911502
_cell_length_b 13.187808
_cell_length_c 13.576919
_cell_angle_alpha 90.000000
_cell_angle_beta 90.000000
_cell_angle_gamma 90.000000
_cell_volume 2669.901466
_symmetry_space_group_name_H-M "P N M A"
_symmetry_group_IT_number 62
_symmetry_cell_setting 'orthorhombic'
loop_
_space_group_symop_operation_xyz
x,y,z
1/2-x,-y,1/2+z
1/2+x,1/2-y,1/2-z
-x,1/2+y,-z
-x,-y,-z
1/2+x,y,1/2-z
1/2-x,1/2+y,1/2+z
x,1/2-y,z
loop_
_atom_site_type_symbol
_atom_site_label
_atom_site_fract_x
_atom_site_fract_y
_atom_site_fract_z
Si Si1 0.332259 0.962868 0.312366
Si Si2 0.372134 0.131193 0.158409
Si Si3 0.791822 0.367260 0.842781
Si Si4 0.961579 0.979317 0.604755
Si Si5 0.482338 0.129902 0.727767
Si Si6 0.284951 0.000879 0.990702
O O1 0.264561 0.889040 0.255364
O O2 0.429582 0.912645 0.324789
O O3 0.300161 0.969290 0.425056
O O4 0.334977 0.070339 0.253724
O O5 0.353045 0.250000 0.173017
O O6 0.480090 0.111696 0.153149
O O7 0.323539 0.093576 0.057344
O O8 0.793529 0.250000 0.862218
O O9 0.894245 0.406473 0.832304
O O10 0.743878 0.412851 0.936900
O O11 0.975523 0.083256 0.663802
O O12 0.856679 0.955471 0.588622
O O13 0.000000 0.000000 0.500000
O O14 0.486976 0.250000 0.739248
#
# Coordination Sequence:
#
# PCOD8252722 Si02
#       6
#     8   8   8   8   8   8
#     4  10  20  36  57  79 114 147 184 227 281 326
#     4   9  20  35  53  80 112 144 186 232 273 328
#     4  10  21  36  55  83 112 143 188 233 274 328
#     4   9  18  33  53  80 108 140 180 232 280 318
#     4  10  20  35  56  81 112 145 183 230 277 326
#     4  10  20  35  57  81 110 147 184 227 279 330
#
# _framework density 17.978193000000001
#
# number of rings (size 3 to 8) (size 9 to 14) (size 15 to 20)
#    0.000    2.333    1.667    1.500    0.000    6.000 
#    0.000    0.000    0.000    0.000    0.000    0.000 
#    0.000    0.000    0.000    0.000    0.000    0.000 
#
# Total GULP energy -594888.810888 kJ/mol
# GULP energy per Si atom -12393.516893 kJ/mol
# Density = 1.793727 g / cm^3
# Si number density = 17.978193 Si / 1000 Ang^3
#
#
#
# Elastic Constant Matrix: (Units=GPa)
#
#
# Indices 1 2 3 4 5 6 
#
# 1 92.5463 41.0602 -9.0172 0.0000 0.0000 0.0000
# 2 41.0602 68.3294 18.2227 0.0000 0.0000 0.0000
# 3 -9.0172 18.2227 21.3365 0.0000 0.0000 0.0000
# 4 0.0000 0.0000 0.0000 12.6432 0.0000 0.0000
# 5 0.0000 0.0000 0.0000 0.0000 37.0303 0.0000
# 6 0.0000 0.0000 0.0000 0.0000 0.0000 23.1748
#
#
#
# Elastic Compliance Matrix: (Units=1/GPa)
#
#
# Indices 1 2 3 4 5 6 
#
# 1 0.022897 -0.021159 0.027747 0.000000 0.000000 0.000000
# 2 -0.021159 0.038505 -0.041827 0.000000 0.000000 0.000000
# 3 0.027747 -0.041827 0.094318 0.000000 0.000000 0.000000
# 4 0.000000 0.000000 0.000000 0.079094 0.000000 0.000000
# 5 0.000000 0.000000 0.000000 0.000000 0.027005 0.000000
# 6 0.000000 0.000000 0.000000 0.000000 0.000000 0.043150
#
#
# Mechanical properties :
#
#
# Convention : Reuss Voigt Hill
#
# Bulk Modulus (GPa) = 11.73142 31.41598 21.57370
# Shear Modulus (GPa) = 12.38055 23.36609 17.87332
#
# Velocity S-wave (km/s) = 2.62705 3.60903 3.15646
# Velocity P-wave (km/s) = 3.96754 5.90587 5.03094
#
# Compressibility (1/GPa) = 0.08524121
#
# Stress axis : x y z
#
# Youngs Moduli (GPa) = 43.67476 25.97096 10.60246
#
# Poissons Ratio (x) = 0.54951 -0.29419
# Poissons Ratio (y) = 0.92411 0.44347
# Poissons Ratio (z) = -1.21186 1.08630
#
# Static dielectric constant tensor:
#      x y z
#    x 4.085700 0.000000 0.000000 
#    y 0.000000 3.108910 0.000000 
#    z 0.000000 0.000000 3.254550 
# 
# 
# High freq. dielectric constant tensor:
#      x y z
#    x 1.714200 0.000000 0.000000 
#    y 0.000000 1.676540 0.000000 
#    z 0.000000 0.000000 1.687730 
# 
# From -- ./inp_files/13290.got.cif
#   From: 2010.03.12/outbox.cif.g09.slc.cpg/sg62_7_cif.got.tgz:13290.got - 2010.04.10 19:12:36.
