data_PCOD8252560
_publ_section_title
;
Structure prediction by ZEFSAII (Michael W. Deem and Ramdas Pophale) SiO2 
 PCOD8252560
Probable space group: P N M A
;
_chemical_formula_sum "Si O2"
_cell_formula_units_Z 56
_cell_length_a 21.003232
_cell_length_b 8.751751
_cell_length_c 14.791176
_cell_angle_alpha 90.000000
_cell_angle_beta 90.000000
_cell_angle_gamma 90.000000
_cell_volume 2718.840854
_symmetry_space_group_name_H-M "P N M A"
_symmetry_group_IT_number 62
_symmetry_cell_setting 'orthorhombic'
loop_
_space_group_symop_operation_xyz
x,y,z
1/2-x,-y,1/2+z
1/2+x,1/2-y,1/2-z
-x,1/2+y,-z
-x,-y,-z
1/2+x,y,1/2-z
1/2-x,1/2+y,1/2+z
x,1/2-y,z
loop_
_atom_site_type_symbol
_atom_site_label
_atom_site_fract_x
_atom_site_fract_y
_atom_site_fract_z
Si Si1 0.765576 0.931664 0.693193
Si Si2 0.532054 0.429012 0.765814
Si Si3 0.232677 0.429229 0.512066
Si Si4 0.158903 0.930490 0.665760
Si Si5 0.541370 0.923017 0.576452
Si Si6 0.867930 0.080168 0.926218
Si Si7 0.903367 0.927880 0.755107
O O1 0.765185 0.750000 0.699235
O O2 0.757395 0.989366 0.590182
O O3 0.708760 0.994977 0.758010
O O4 0.835029 0.993973 0.724011
O O5 0.533813 0.250000 0.781670
O O6 0.588230 0.505047 0.822458
O O7 0.544142 0.468659 0.661867
O O8 0.462554 0.492220 0.796257
O O9 0.216575 0.250000 0.510603
O O10 0.177452 0.519597 0.564208
O O11 0.294498 0.466885 0.572102
O O12 0.155930 0.750000 0.673161
O O13 0.519508 0.750000 0.602737
O O14 0.611169 0.918941 0.531220
O O15 0.500000 0.000000 0.500000
O O16 0.877680 0.250000 0.885041
O O17 0.908367 0.963981 0.863054
O O18 0.908960 0.750000 0.736084
#
# Coordination Sequence:
#
# PCOD8252560 Si02
#       7
#     8   8   8   8   8   8   8
#     4   9  20  39  64  91 122 159 201 250 308 363
#     4  12  25  40  57  85 122 163 205 253 309 367
#     4  10  20  38  62  89 120 157 198 248 305 364
#     4  11  22  41  64  91 123 160 203 254 307 364
#     4  11  21  34  54  84 119 158 196 241 298 364
#     4  10  20  34  56  84 120 157 191 238 301 364
#     4  11  21  37  61  87 117 158 204 250 299 359
#
# _framework density 20.597011999999999
#
# number of rings (size 3 to 8) (size 9 to 14) (size 15 to 20)
#    0.000    1.429    2.857    3.429    0.000    2.857 
#    0.000    5.000    0.000    0.000    0.000    0.000 
#    0.000    0.000    0.000    0.000    0.000    0.000 
#
# Total GULP energy -694244.828722 kJ/mol
# GULP energy per Si atom -12397.229084 kJ/mol
# Density = 2.055013 g / cm^3
# Si number density = 20.597012 Si / 1000 Ang^3
#
#
#
# Elastic Constant Matrix: (Units=GPa)
#
#
# Indices 1 2 3 4 5 6 
#
# 1 110.6719 33.1093 9.7040 0.0000 0.0000 0.0000
# 2 33.1093 72.8265 17.6560 0.0000 0.0000 0.0000
# 3 9.7040 17.6560 56.0767 0.0000 0.0000 0.0000
# 4 0.0000 0.0000 0.0000 27.4918 0.0000 0.0000
# 5 0.0000 0.0000 0.0000 0.0000 28.7328 0.0000
# 6 0.0000 0.0000 0.0000 0.0000 0.0000 29.0707
#
#
#
# Elastic Compliance Matrix: (Units=1/GPa)
#
#
# Indices 1 2 3 4 5 6 
#
# 1 0.010464 -0.004675 -0.000339 0.000000 0.000000 0.000000
# 2 -0.004675 0.016955 -0.004529 0.000000 0.000000 0.000000
# 3 -0.000339 -0.004529 0.019317 0.000000 0.000000 0.000000
# 4 0.000000 0.000000 0.000000 0.036374 0.000000 0.000000
# 5 0.000000 0.000000 0.000000 0.000000 0.034803 0.000000
# 6 0.000000 0.000000 0.000000 0.000000 0.000000 0.034399
#
#
# Mechanical properties :
#
#
# Convention : Reuss Voigt Hill
#
# Bulk Modulus (GPa) = 36.16659 40.05708 38.11183
# Shear Modulus (GPa) = 27.68300 28.99944 28.34122
#
# Velocity S-wave (km/s) = 3.67008 3.75633 3.71345
# Velocity P-wave (km/s) = 5.96293 6.18899 6.07701
#
# Compressibility (1/GPa) = 0.02764983
#
# Stress axis : x y z
#
# Youngs Moduli (GPa) = 95.56505 58.98025 51.76675
#
# Poissons Ratio (x) = 0.27574 0.01754
# Poissons Ratio (y) = 0.44678 0.23447
# Poissons Ratio (z) = 0.03238 0.26714
#
# Static dielectric constant tensor:
#      x y z
#    x 4.089540 0.000000 0.000000 
#    y 0.000000 3.515240 0.000000 
#    z 0.000000 0.000000 3.512270 
# 
# 
# High freq. dielectric constant tensor:
#      x y z
#    x 1.821210 0.000000 0.000000 
#    y 0.000000 1.789920 0.000000 
#    z 0.000000 0.000000 1.785800 
# 
# From -- ./inp_files/20430.got.cif
#   From: 2010.03.12/outbox.cif.g09.slc.cpg/sg62_11_cif.got.tgz:20430.got - 2010.04.10 19:12:36.
