data_PCOD8252954
_publ_section_title
;
Structure prediction by ZEFSAII (Michael W. Deem and Ramdas Pophale) SiO2 
 PCOD8252954
Probable space group: P N M A
;
_chemical_formula_sum "Si O2"
_cell_formula_units_Z 64
_cell_length_a 26.812881
_cell_length_b 17.427930
_cell_length_c 6.530918
_cell_angle_alpha 90.000000
_cell_angle_beta 90.000000
_cell_angle_gamma 90.000000
_cell_volume 3051.852351
_symmetry_space_group_name_H-M "P N M A"
_symmetry_group_IT_number 62
_symmetry_cell_setting 'orthorhombic'
loop_
_space_group_symop_operation_xyz
x,y,z
1/2-x,-y,1/2+z
1/2+x,1/2-y,1/2-z
-x,1/2+y,-z
-x,-y,-z
1/2+x,y,1/2-z
1/2-x,1/2+y,1/2+z
x,1/2-y,z
loop_
_atom_site_type_symbol
_atom_site_label
_atom_site_fract_x
_atom_site_fract_y
_atom_site_fract_z
Si Si1 0.850977 0.661014 0.696010
Si Si2 0.184656 0.454737 0.003553
Si Si3 0.396780 0.432511 0.639681
Si Si4 0.324899 0.164218 0.844534
Si Si5 0.559656 0.446771 0.072195
Si Si6 0.252029 0.163792 0.492969
Si Si7 0.292355 0.448355 0.167116
Si Si8 0.530797 0.968607 0.689519
O O1 0.864037 0.750000 0.723744
O O2 0.832210 0.630176 0.920943
O O3 0.899782 0.618389 0.613340
O O4 0.807026 0.646357 0.529979
O O5 0.150465 0.511413 0.131566
O O6 0.241765 0.473504 0.058958
O O7 0.180645 0.474353 0.758706
O O8 0.374017 0.349977 0.704137
O O9 0.431203 0.471365 0.814054
O O10 0.424032 0.421709 0.419043
O O11 0.328656 0.250000 0.936215
O O12 0.271639 0.156281 0.726184
O O13 0.328096 0.098008 0.015286
O O14 0.506162 0.417826 0.166518
O O15 0.554663 0.463020 0.829023
O O16 0.261954 0.250000 0.412203
O O17 0.284523 0.107122 0.358593
O O18 0.500000 0.000000 0.500000
#
# Coordination Sequence:
#
# PCOD8252954 Si02
#       8
#     8   8   8   8   8   8   8   8
#     4   9  19  38  63  93 126 161 205 258 317 378
#     4  10  21  34  56  86 118 160 212 256 302 361
#     4  10  20  36  56  90 114 152 203 252 298 364
#     4  11  23  37  55  83 122 168 209 250 308 365
#     4   9  19  36  64  91 117 155 196 249 310 369
#     4   9  19  36  55  79 119 163 202 248 307 367
#     4  11  21  36  52  81 119 163 212 259 299 352
#     4   9  19  37  61  89 117 146 194 250 308 364
#
# _framework density 20.970870999999999
#
# number of rings (size 3 to 8) (size 9 to 14) (size 15 to 20)
#    0.000    2.250    1.250    1.125    1.750    1.500 
#    0.000    0.625    0.000   16.500    0.000    0.000 
#    0.000    0.000    0.000    0.000    0.000    0.000 
#
# Total GULP energy -792854.048248 kJ/mol
# GULP energy per Si atom -12388.344504 kJ/mol
# Density = 2.092314 g / cm^3
# Si number density = 20.970871 Si / 1000 Ang^3
#
#
#
# Elastic Constant Matrix: (Units=GPa)
#
#
# Indices 1 2 3 4 5 6 
#
# 1 89.5699 51.8080 45.8041 0.0000 0.0000 0.0000
# 2 51.8080 87.1065 58.6442 0.0000 0.0000 0.0000
# 3 45.8041 58.6442 120.2507 0.0000 0.0000 0.0000
# 4 0.0000 0.0000 0.0000 27.4767 0.0000 0.0000
# 5 0.0000 0.0000 0.0000 0.0000 18.7270 0.0000
# 6 0.0000 0.0000 0.0000 0.0000 0.0000 23.8067
#
#
#
# Elastic Compliance Matrix: (Units=1/GPa)
#
#
# Indices 1 2 3 4 5 6 
#
# 1 0.017459 -0.008794 -0.002361 0.000000 0.000000 0.000000
# 2 -0.008794 0.021522 -0.007146 0.000000 0.000000 0.000000
# 3 -0.002361 -0.007146 0.012700 0.000000 0.000000 0.000000
# 4 0.000000 0.000000 0.000000 0.036394 0.000000 0.000000
# 5 0.000000 0.000000 0.000000 0.000000 0.053399 0.000000
# 6 0.000000 0.000000 0.000000 0.000000 0.000000 0.042005
#
#
# Mechanical properties :
#
#
# Convention : Reuss Voigt Hill
#
# Bulk Modulus (GPa) = 66.32276 67.71554 67.01915
# Shear Modulus (GPa) = 22.21160 23.38013 22.79586
#
# Velocity S-wave (km/s) = 3.25801 3.34261 3.30058
# Velocity P-wave (km/s) = 6.77109 6.87443 6.82296
#
# Compressibility (1/GPa) = 0.01507778
#
# Stress axis : x y z
#
# Youngs Moduli (GPa) = 57.27863 46.46494 78.73748
#
# Poissons Ratio (x) = 0.40861 0.18593
# Poissons Ratio (y) = 0.50371 0.56266
# Poissons Ratio (z) = 0.13526 0.33204
#
# Static dielectric constant tensor:
#      x y z
#    x 4.068740 0.000000 0.000000 
#    y 0.000000 3.698340 0.000000 
#    z 0.000000 0.000000 3.975670 
# 
# 
# High freq. dielectric constant tensor:
#      x y z
#    x 1.821780 0.000000 0.000000 
#    y 0.000000 1.788690 0.000000 
#    z 0.000000 0.000000 1.824060 
# 
# From -- ./inp_files/3702.got.cif
#   From: 2010.03.12/outbox.cif.g09.slc.cpg/sg62_2_cif.got.tgz:3702.got - 2010.04.10 19:12:36.
