data_PCOD8252360
_publ_section_title
;
Structure prediction by ZEFSAII (Michael W. Deem and Ramdas Pophale) SiO2 
 PCOD8252360
Probable space group: P N M A
;
_chemical_formula_sum "Si O2"
_cell_formula_units_Z 32
_cell_length_a 5.412169
_cell_length_b 19.299204
_cell_length_c 12.900433
_cell_angle_alpha 90.000000
_cell_angle_beta 90.000000
_cell_angle_gamma 90.000000
_cell_volume 1347.457369
_symmetry_space_group_name_H-M "P N M A"
_symmetry_group_IT_number 62
_symmetry_cell_setting 'orthorhombic'
loop_
_space_group_symop_operation_xyz
x,y,z
1/2-x,-y,1/2+z
1/2+x,1/2-y,1/2-z
-x,1/2+y,-z
-x,-y,-z
1/2+x,y,1/2-z
1/2-x,1/2+y,1/2+z
x,1/2-y,z
loop_
_atom_site_type_symbol
_atom_site_label
_atom_site_fract_x
_atom_site_fract_y
_atom_site_fract_z
Si Si1 0.328516 0.122742 0.283041
Si Si2 0.064275 0.669517 0.188162
Si Si3 0.612277 0.027126 0.802315
Si Si4 0.848502 0.070476 0.988232
O O1 0.589142 0.163889 0.263889
O O2 0.279172 0.102519 0.401471
O O3 0.380164 0.054990 0.212533
O O4 0.846058 0.651831 0.271074
O O5 0.047551 0.750000 0.160434
O O6 0.013770 0.629436 0.079211
O O7 0.376839 0.058118 0.741216
O O8 0.601269 0.046808 0.923928
O O9 0.000000 0.000000 0.000000
#
# Coordination Sequence:
#
# PCOD8252360 Si02
#       4
#     8   8   8   8
#     4  10  22  35  48  79 121 153 191 245 306 368
#     4  10  24  46  68  94 130 171 218 267 320 389
#     4  10  20  34  48  78 119 149 191 243 309 365
#     4  12  22  36  64  92 124 168 209 267 324 378
#
# _framework density 23.748431
#
# number of rings (size 3 to 8) (size 9 to 14) (size 15 to 20)
#    0.000    1.500    5.000    1.500    0.000    8.000 
#    0.000    0.000    0.000    1.500    0.000    0.000 
#    0.000    0.000    0.000    0.000    0.000    0.000 
#
# Total GULP energy -396470.721717 kJ/mol
# GULP energy per Si atom -12389.710054 kJ/mol
# Density = 2.369438 g / cm^3
# Si number density = 23.748431 Si / 1000 Ang^3
#
#
#
# Elastic Constant Matrix: (Units=GPa)
#
#
# Indices 1 2 3 4 5 6 
#
# 1 151.5476 31.8179 35.4631 0.0000 0.0000 0.0000
# 2 31.8179 87.3478 18.1561 0.0000 0.0000 0.0000
# 3 35.4631 18.1561 151.6044 0.0000 0.0000 0.0000
# 4 0.0000 0.0000 0.0000 32.4751 0.0000 0.0000
# 5 0.0000 0.0000 0.0000 0.0000 37.3837 0.0000
# 6 0.0000 0.0000 0.0000 0.0000 0.0000 20.4248
#
#
#
# Elastic Compliance Matrix: (Units=1/GPa)
#
#
# Indices 1 2 3 4 5 6 
#
# 1 0.007445 -0.002410 -0.001453 0.000000 0.000000 0.000000
# 2 -0.002410 0.012521 -0.000936 0.000000 0.000000 0.000000
# 3 -0.001453 -0.000936 0.007048 0.000000 0.000000 0.000000
# 4 0.000000 0.000000 0.000000 0.030793 0.000000 0.000000
# 5 0.000000 0.000000 0.000000 0.000000 0.026750 0.000000
# 6 0.000000 0.000000 0.000000 0.000000 0.000000 0.048960
#
#
# Mechanical properties :
#
#
# Convention : Reuss Voigt Hill
#
# Bulk Modulus (GPa) = 57.41673 62.37488 59.89581
# Shear Modulus (GPa) = 33.57549 38.39423 35.98486
#
# Velocity S-wave (km/s) = 3.76413 4.02519 3.89685
# Velocity P-wave (km/s) = 6.56667 6.92277 6.74707
#
# Compressibility (1/GPa) = 0.01741653
#
# Stress axis : x y z
#
# Youngs Moduli (GPa) = 134.32732 79.86709 141.88373
#
# Poissons Ratio (x) = 0.19246 0.20613
# Poissons Ratio (y) = 0.32370 0.13277
# Poissons Ratio (z) = 0.19515 0.07474
#
# Static dielectric constant tensor:
#      x y z
#    x 5.339710 0.000000 0.000000 
#    y 0.000000 4.187220 0.000000 
#    z 0.000000 0.000000 4.387340 
# 
# 
# High freq. dielectric constant tensor:
#      x y z
#    x 1.962220 0.000000 0.000000 
#    y 0.000000 1.933170 0.000000 
#    z 0.000000 0.000000 1.936060 
# 
# From -- ./inp_files/10668.got.cif
#   From: 2010.03.12/outbox.cif.g09.slc.cpg/sg62_6_cif.got.tgz:10668.got - 2010.04.10 19:12:36.
