data_PCOD8252886
_publ_section_title
;
Structure prediction by ZEFSAII (Michael W. Deem and Ramdas Pophale) SiO2 
 PCOD8252886
Probable space group: P N M A
;
_chemical_formula_sum "Si O2"
_cell_formula_units_Z 56
_cell_length_a 21.593537
_cell_length_b 8.803593
_cell_length_c 14.557350
_cell_angle_alpha 90.000000
_cell_angle_beta 90.000000
_cell_angle_gamma 90.000000
_cell_volume 2767.362588
_symmetry_space_group_name_H-M "P N M A"
_symmetry_group_IT_number 62
_symmetry_cell_setting 'orthorhombic'
loop_
_space_group_symop_operation_xyz
x,y,z
1/2-x,-y,1/2+z
1/2+x,1/2-y,1/2-z
-x,1/2+y,-z
-x,-y,-z
1/2+x,y,1/2-z
1/2-x,1/2+y,1/2+z
x,1/2-y,z
loop_
_atom_site_type_symbol
_atom_site_label
_atom_site_fract_x
_atom_site_fract_y
_atom_site_fract_z
Si Si1 0.808061 0.069963 0.199058
Si Si2 0.938604 0.572469 0.888164
Si Si3 0.167185 0.926161 0.599375
Si Si4 0.977861 0.426174 0.406755
Si Si5 0.079333 0.928579 0.923252
Si Si6 0.079981 0.929493 0.296900
Si Si7 0.811325 0.929548 0.588518
O O1 0.811024 0.250000 0.199004
O O2 0.804227 0.013643 0.304471
O O3 0.870491 0.010331 0.149795
O O4 0.748295 0.010887 0.144249
O O5 0.926713 0.750000 0.877217
O O6 0.903880 0.487482 0.804987
O O7 0.011342 0.531109 0.885768
O O8 0.907679 0.515300 0.981821
O O9 0.182859 0.750000 0.581778
O O10 0.094266 0.952315 0.606422
O O11 0.196805 0.024512 0.517765
O O12 0.995626 0.250000 0.407019
O O13 0.000000 0.500000 0.500000
O O14 0.012395 0.506546 0.322300
O O15 0.085747 0.750000 0.942146
O O16 0.079960 0.750000 0.300588
O O17 0.128553 0.989485 0.371282
O O18 0.819190 0.750000 0.597022
#
# Coordination Sequence:
#
# PCOD8252886 Si02
#       7
#     8   8   8   8   8   8   8
#     4   9  20  39  62  85 113 155 200 242 291 349
#     4  10  20  35  59  89 120 153 190 239 293 349
#     4  10  21  40  63  86 117 155 194 238 297 360
#     4  11  21  35  60  90 120 153 190 240 302 361
#     4   9  18  37  61  86 117 152 191 238 294 352
#     4  12  24  38  57  84 119 158 198 243 296 353
#     4  11  23  39  59  84 116 151 196 246 289 344
#
# _framework density 20.235873999999999
#
# number of rings (size 3 to 8) (size 9 to 14) (size 15 to 20)
#    0.000    1.714    1.429    3.429    0.000    4.571 
#    0.000    6.429    0.000    0.000    0.000    0.000 
#    0.000    0.000    0.000    0.000    0.000    0.000 
#
# Total GULP energy -694612.520745 kJ/mol
# GULP energy per Si atom -12403.795013 kJ/mol
# Density = 2.018982 g / cm^3
# Si number density = 20.235874 Si / 1000 Ang^3
#
#
#
# Elastic Constant Matrix: (Units=GPa)
#
#
# Indices 1 2 3 4 5 6 
#
# 1 64.3408 30.9413 48.4170 0.0000 0.0000 0.0000
# 2 30.9413 87.0663 47.9662 0.0000 0.0000 0.0000
# 3 48.4170 47.9662 163.5346 0.0000 0.0000 0.0000
# 4 0.0000 0.0000 0.0000 38.2321 0.0000 0.0000
# 5 0.0000 0.0000 0.0000 0.0000 34.3062 0.0000
# 6 0.0000 0.0000 0.0000 0.0000 0.0000 18.1559
#
#
#
# Elastic Compliance Matrix: (Units=1/GPa)
#
#
# Indices 1 2 3 4 5 6 
#
# 1 0.021660 -0.004967 -0.004956 0.000000 0.000000 0.000000
# 2 -0.004967 0.014838 -0.002882 0.000000 0.000000 0.000000
# 3 -0.004956 -0.002882 0.008427 0.000000 0.000000 0.000000
# 4 0.000000 0.000000 0.000000 0.026156 0.000000 0.000000
# 5 0.000000 0.000000 0.000000 0.000000 0.029149 0.000000
# 6 0.000000 0.000000 0.000000 0.000000 0.000000 0.055079
#
#
# Mechanical properties :
#
#
# Convention : Reuss Voigt Hill
#
# Bulk Modulus (GPa) = 51.76930 63.28784 57.52857
# Shear Modulus (GPa) = 26.68685 30.64666 28.66676
#
# Velocity S-wave (km/s) = 3.63545 3.89584 3.76790
# Velocity P-wave (km/s) = 6.57727 7.18190 6.88623
#
# Compressibility (1/GPa) = 0.01931647
#
# Stress axis : x y z
#
# Youngs Moduli (GPa) = 46.16721 67.39346 118.66076
#
# Poissons Ratio (x) = 0.33476 0.58808
# Poissons Ratio (y) = 0.22933 0.34193
# Poissons Ratio (z) = 0.22880 0.19420
#
# Static dielectric constant tensor:
#      x y z
#    x 3.521150 0.000000 0.000000 
#    y 0.000000 3.548520 0.000000 
#    z 0.000000 0.000000 3.939590 
# 
# 
# High freq. dielectric constant tensor:
#      x y z
#    x 1.780420 0.000000 0.000000 
#    y 0.000000 1.777130 0.000000 
#    z 0.000000 0.000000 1.808920 
# 
# From -- ./inp_files/20277.got.cif
#   From: 2010.03.12/outbox.cif.g09.slc.cpg/sg62_11_cif.got.tgz:20277.got - 2010.04.10 19:12:36.
