data_PCOD8252239
_publ_section_title
;
Structure prediction by ZEFSAII (Michael W. Deem and Ramdas Pophale) SiO2 
 PCOD8252239
Probable space group: P N M A
;
_chemical_formula_sum "Si O2"
_cell_formula_units_Z 56
_cell_length_a 20.799096
_cell_length_b 8.767365
_cell_length_c 14.686802
_cell_angle_alpha 90.000000
_cell_angle_beta 90.000000
_cell_angle_gamma 90.000000
_cell_volume 2678.186316
_symmetry_space_group_name_H-M "P N M A"
_symmetry_group_IT_number 62
_symmetry_cell_setting 'orthorhombic'
loop_
_space_group_symop_operation_xyz
x,y,z
1/2-x,-y,1/2+z
1/2+x,1/2-y,1/2-z
-x,1/2+y,-z
-x,-y,-z
1/2+x,y,1/2-z
1/2-x,1/2+y,1/2+z
x,1/2-y,z
loop_
_atom_site_type_symbol
_atom_site_label
_atom_site_fract_x
_atom_site_fract_y
_atom_site_fract_z
Si Si1 0.161510 0.430197 0.843163
Si Si2 0.353881 0.079711 0.929493
Si Si3 0.757833 0.930730 0.807455
Si Si4 0.544222 0.918887 0.928908
Si Si5 0.736002 0.928250 0.503331
Si Si6 0.102562 0.426747 0.261105
Si Si7 0.462692 0.071424 0.272516
O O1 0.169841 0.250000 0.841369
O O2 0.207233 0.500184 0.764421
O O3 0.176512 0.494234 0.944312
O O4 0.086585 0.474374 0.832358
O O5 0.329419 0.250000 0.904038
O O6 0.295479 0.959993 0.928436
O O7 0.405114 0.022098 0.854546
O O8 0.384424 0.082908 0.029711
O O9 0.748276 0.750000 0.807106
O O10 0.831666 0.979042 0.787141
O O11 0.746110 0.994483 0.908042
O O12 0.515915 0.750000 0.915969
O O13 0.547159 0.993661 0.829801
O O14 0.500000 0.000000 0.000000
O O15 0.723617 0.750000 0.490538
O O16 0.105546 0.250000 0.286573
O O17 0.038029 0.458285 0.200624
O O18 0.444853 0.250000 0.280902
#
# Coordination Sequence:
#
# PCOD8252239 Si02
#       7
#     8   8   8   8   8   8   8
#     4  12  25  42  65  96 129 168 212 263 320 380
#     4  11  21  34  57  89 124 161 202 255 313 374
#     4  11  23  42  67  96 128 165 212 266 319 380
#     4  10  20  32  52  83 120 159 199 245 301 368
#     4  12  25  42  65  92 123 165 213 265 319 377
#     4  10  21  38  63  90 122 166 209 253 312 376
#     4  10  21  39  60  87 126 170 211 258 315 377
#
# _framework density 20.909673000000002
#
# number of rings (size 3 to 8) (size 9 to 14) (size 15 to 20)
#    0.000    1.143    2.857    4.286    0.000    3.429 
#    0.000    0.714    0.000    0.000    0.000    0.000 
#    0.000    0.000    0.000    0.000    0.000    0.000 
#
# Total GULP energy -694179.163479 kJ/mol
# GULP energy per Si atom -12396.056491 kJ/mol
# Density = 2.086208 g / cm^3
# Si number density = 20.909673 Si / 1000 Ang^3
#
#
#
# Elastic Constant Matrix: (Units=GPa)
#
#
# Indices 1 2 3 4 5 6 
#
# 1 105.8286 30.0506 5.2842 0.0000 0.0000 0.0000
# 2 30.0506 102.2249 19.7319 0.0000 0.0000 0.0000
# 3 5.2842 19.7319 48.5529 0.0000 0.0000 0.0000
# 4 0.0000 0.0000 0.0000 28.7886 0.0000 0.0000
# 5 0.0000 0.0000 0.0000 0.0000 31.2280 0.0000
# 6 0.0000 0.0000 0.0000 0.0000 0.0000 30.2522
#
#
#
# Elastic Compliance Matrix: (Units=1/GPa)
#
#
# Indices 1 2 3 4 5 6 
#
# 1 0.010310 -0.003054 0.000119 0.000000 0.000000 0.000000
# 2 -0.003054 0.011520 -0.004349 0.000000 0.000000 0.000000
# 3 0.000119 -0.004349 0.022351 0.000000 0.000000 0.000000
# 4 0.000000 0.000000 0.000000 0.034736 0.000000 0.000000
# 5 0.000000 0.000000 0.000000 0.000000 0.032022 0.000000
# 6 0.000000 0.000000 0.000000 0.000000 0.000000 0.033055
#
#
# Mechanical properties :
#
#
# Convention : Reuss Voigt Hill
#
# Bulk Modulus (GPa) = 33.76951 40.74886 37.25918
# Shear Modulus (GPa) = 29.68527 31.48975 30.58751
#
# Velocity S-wave (km/s) = 3.77197 3.88492 3.82886
# Velocity P-wave (km/s) = 5.92921 6.29713 6.11594
#
# Compressibility (1/GPa) = 0.02961251
#
# Stress axis : x y z
#
# Youngs Moduli (GPa) = 96.98881 86.80857 44.74138
#
# Poissons Ratio (x) = 0.26510 -0.00532
# Poissons Ratio (y) = 0.29619 0.19459
# Poissons Ratio (z) = -0.01154 0.37755
#
# Static dielectric constant tensor:
#      x y z
#    x 4.060850 0.000000 0.000000 
#    y 0.000000 3.666570 0.000000 
#    z 0.000000 0.000000 3.846750 
# 
# 
# High freq. dielectric constant tensor:
#      x y z
#    x 1.828960 0.000000 0.000000 
#    y 0.000000 1.815090 0.000000 
#    z 0.000000 0.000000 1.802130 
# 
# From -- ./inp_files/20257.got.cif
#   From: 2010.03.12/outbox.cif.g09.slc.cpg/sg62_11_cif.got.tgz:20257.got - 2010.04.10 19:12:36.
