data_PCOD8252064
_publ_section_title
;
Structure prediction by ZEFSAII (Michael W. Deem and Ramdas Pophale) SiO2 
 PCOD8252064
Probable space group: P N M A
;
_chemical_formula_sum "Si O2"
_cell_formula_units_Z 48
_cell_length_a 18.589660
_cell_length_b 9.194432
_cell_length_c 13.992535
_cell_angle_alpha 90.000000
_cell_angle_beta 90.000000
_cell_angle_gamma 90.000000
_cell_volume 2391.623179
_symmetry_space_group_name_H-M "P N M A"
_symmetry_group_IT_number 62
_symmetry_cell_setting 'orthorhombic'
loop_
_space_group_symop_operation_xyz
x,y,z
1/2-x,-y,1/2+z
1/2+x,1/2-y,1/2-z
-x,1/2+y,-z
-x,-y,-z
1/2+x,y,1/2-z
1/2-x,1/2+y,1/2+z
x,1/2-y,z
loop_
_atom_site_type_symbol
_atom_site_label
_atom_site_fract_x
_atom_site_fract_y
_atom_site_fract_z
Si Si1 0.503795 0.081844 0.669152
Si Si2 0.894391 0.419265 0.537013
Si Si3 0.358614 0.921855 0.434864
Si Si4 0.855048 0.923255 0.849903
Si Si5 0.225544 0.923044 0.315478
Si Si6 0.954493 0.585250 0.377655
O O1 0.478994 0.250000 0.656314
O O2 0.559200 0.028157 0.586886
O O3 0.551631 0.065325 0.764627
O O4 0.434493 0.980519 0.674987
O O5 0.888784 0.250000 0.518758
O O6 0.829050 0.472518 0.601790
O O7 0.893258 0.493325 0.432358
O O8 0.966218 0.467296 0.592052
O O9 0.355915 0.750000 0.429657
O O10 0.337034 0.972133 0.541461
O O11 0.302731 0.978707 0.354527
O O12 0.853937 0.750000 0.837229
O O13 0.794775 0.995226 0.782447
O O14 0.222149 0.750000 0.296853
O O15 0.942084 0.750000 0.409041
#
# Coordination Sequence:
#
# PCOD8252064 Si02
#       6
#     8   8   8   8   8   8
#     4  10  19  37  60  83 111 151 193 229 275 340
#     4   9  17  30  49  75 106 141 179 219 270 325
#     4   9  21  38  59  84 113 147 189 234 279 333
#     4  11  22  37  58  87 115 145 186 237 284 329
#     4  10  20  39  60  80 111 155 191 225 282 348
#     4   9  17  29  49  78 106 135 180 227 266 317
#
# _framework density 20.070050999999999
#
# number of rings (size 3 to 8) (size 9 to 14) (size 15 to 20)
#    0.000    2.333    1.667    1.000    0.000    2.667 
#    0.000    3.333    0.000    0.000    0.000    0.000 
#    0.000    0.000    0.000    0.000    0.000    0.000 
#
# Total GULP energy -595012.312828 kJ/mol
# GULP energy per Si atom -12396.089851 kJ/mol
# Density = 2.002437 g / cm^3
# Si number density = 20.070051 Si / 1000 Ang^3
#
#
#
# Elastic Constant Matrix: (Units=GPa)
#
#
# Indices 1 2 3 4 5 6 
#
# 1 66.8132 23.0170 43.4780 0.0000 0.0000 0.0000
# 2 23.0170 46.6833 34.9576 0.0000 0.0000 0.0000
# 3 43.4780 34.9576 104.5815 0.0000 0.0000 0.0000
# 4 0.0000 0.0000 0.0000 29.0173 0.0000 0.0000
# 5 0.0000 0.0000 0.0000 0.0000 32.5201 0.0000
# 6 0.0000 0.0000 0.0000 0.0000 0.0000 16.8090
#
#
#
# Elastic Compliance Matrix: (Units=1/GPa)
#
#
# Indices 1 2 3 4 5 6 
#
# 1 0.021422 -0.005193 -0.007170 0.000000 0.000000 0.000000
# 2 -0.005193 0.029832 -0.007813 0.000000 0.000000 0.000000
# 3 -0.007170 -0.007813 0.015154 0.000000 0.000000 0.000000
# 4 0.000000 0.000000 0.000000 0.034462 0.000000 0.000000
# 5 0.000000 0.000000 0.000000 0.000000 0.030750 0.000000
# 6 0.000000 0.000000 0.000000 0.000000 0.000000 0.059492
#
#
# Mechanical properties :
#
#
# Convention : Reuss Voigt Hill
#
# Bulk Modulus (GPa) = 38.37813 46.77591 42.57702
# Shear Modulus (GPa) = 20.82041 23.44430 22.13235
#
# Velocity S-wave (km/s) = 3.22434 3.42149 3.32438
# Velocity P-wave (km/s) = 5.74678 6.24225 5.99963
#
# Compressibility (1/GPa) = 0.02605651
#
# Stress axis : x y z
#
# Youngs Moduli (GPa) = 46.68129 33.52141 65.98818
#
# Poissons Ratio (x) = 0.17407 0.47313
# Poissons Ratio (y) = 0.24241 0.51555
# Poissons Ratio (z) = 0.33470 0.26189
#
# Static dielectric constant tensor:
#      x y z
#    x 3.678150 0.000000 0.000000 
#    y 0.000000 3.431760 0.000000 
#    z 0.000000 0.000000 3.985120 
# 
# 
# High freq. dielectric constant tensor:
#      x y z
#    x 1.775320 0.000000 0.000000 
#    y 0.000000 1.753780 0.000000 
#    z 0.000000 0.000000 1.795290 
# 
# From -- ./inp_files/20034.got.cif
#   From: 2010.03.12/outbox.cif.g09.slc.cpg/sg62_11_cif.got.tgz:20034.got - 2010.04.10 19:12:36.
