data_PCOD8252861
_publ_section_title
;
Structure prediction by ZEFSAII (Michael W. Deem and Ramdas Pophale) SiO2 
 PCOD8252861
Probable space group: P N M A
;
_chemical_formula_sum "Si O2"
_cell_formula_units_Z 48
_cell_length_a 28.066603
_cell_length_b 8.444738
_cell_length_c 10.275956
_cell_angle_alpha 90.000000
_cell_angle_beta 90.000000
_cell_angle_gamma 90.000000
_cell_volume 2435.556830
_symmetry_space_group_name_H-M "P N M A"
_symmetry_group_IT_number 62
_symmetry_cell_setting 'orthorhombic'
loop_
_space_group_symop_operation_xyz
x,y,z
1/2-x,-y,1/2+z
1/2+x,1/2-y,1/2-z
-x,1/2+y,-z
-x,-y,-z
1/2+x,y,1/2-z
1/2-x,1/2+y,1/2+z
x,1/2-y,z
loop_
_atom_site_type_symbol
_atom_site_label
_atom_site_fract_x
_atom_site_fract_y
_atom_site_fract_z
Si Si1 0.353510 0.934499 0.753209
Si Si2 0.640737 0.064894 0.743349
Si Si3 0.190672 0.565232 0.508215
Si Si4 0.701547 0.437534 0.502313
Si Si5 0.453980 0.434303 0.350853
Si Si6 0.053469 0.566235 0.148337
O O1 0.344134 0.750000 0.780129
O O2 0.324638 0.997049 0.627624
O O3 0.336194 0.037770 0.873651
O O4 0.409446 0.963975 0.731758
O O5 0.631760 0.250000 0.723379
O O6 0.674156 0.994634 0.628583
O O7 0.590015 0.977130 0.741614
O O8 0.664989 0.034391 0.880724
O O9 0.189661 0.750000 0.544425
O O10 0.244466 0.499429 0.496559
O O11 0.701266 0.250000 0.509206
O O12 0.465817 0.250000 0.343636
O O13 0.441557 0.486455 0.497977
O O14 0.500387 0.528411 0.301017
O O15 0.064923 0.750000 0.167752
#
# Coordination Sequence:
#
# PCOD8252861 Si02
#       6
#     8   8   8   8   8   8
#     4  11  21  38  60  86 117 154 194 239 290 342
#     4  11  21  38  60  86 117 154 194 239 290 342
#     4  11  23  39  56  83 120 157 195 240 288 343
#     4   9  20  37  60  85 114 151 198 244 285 335
#     4  10  20  35  58  88 117 149 189 236 286 340
#     4  10  20  35  58  88 117 149 189 236 286 340
#
# _framework density 19.708020000000001
#
# number of rings (size 3 to 8) (size 9 to 14) (size 15 to 20)
#    0.000    1.667    1.667    3.500    0.000    1.333 
#    0.000    5.833    0.000    0.000    0.000    0.000 
#    0.000    0.000    0.000    0.000    0.000    0.000 
#
# Total GULP energy -595502.468658 kJ/mol
# GULP energy per Si atom -12406.301430 kJ/mol
# Density = 1.966316 g / cm^3
# Si number density = 19.708020 Si / 1000 Ang^3
#
#
#
# Elastic Constant Matrix: (Units=GPa)
#
#
# Indices 1 2 3 4 5 6 
#
# 1 144.7921 11.7614 50.0999 0.0000 0.0000 0.0000
# 2 11.7614 43.8490 5.3892 0.0000 0.0000 0.0000
# 3 50.0999 5.3892 103.6768 0.0000 0.0000 0.0000
# 4 0.0000 0.0000 0.0000 21.7846 0.0000 0.0000
# 5 0.0000 0.0000 0.0000 0.0000 -26.6114 0.0000
# 6 0.0000 0.0000 0.0000 0.0000 0.0000 27.4153
#
#
#
# Elastic Compliance Matrix: (Units=1/GPa)
#
#
# Indices 1 2 3 4 5 6 
#
# 1 0.008428 -0.001771 -0.003980 0.000000 0.000000 0.000000
# 2 -0.001771 0.023324 -0.000356 0.000000 0.000000 0.000000
# 3 -0.003980 -0.000356 0.011587 0.000000 0.000000 0.000000
# 4 0.000000 0.000000 0.000000 0.045904 0.000000 0.000000
# 5 0.000000 0.000000 0.000000 0.000000 -0.037578 0.000000
# 6 0.000000 0.000000 0.000000 0.000000 0.000000 0.036476
#
#
# Mechanical properties :
#
#
# Convention : Reuss Voigt Hill
#
# Bulk Modulus (GPa) = 32.13052 47.42432 39.77742
# Shear Modulus (GPa) = 45.15395 19.52218 32.33807
#
# Velocity S-wave (km/s) = 4.79178 3.15075 4.05515
# Velocity P-wave (km/s) = 6.85227 6.11163 6.49252
#
# Compressibility (1/GPa) = 0.03112306
#
# Stress axis : x y z
#
# Youngs Moduli (GPa) = 118.65763 42.87341 86.30098
#
# Poissons Ratio (x) = 0.07594 0.34351
# Poissons Ratio (y) = 0.21018 0.03077
# Poissons Ratio (z) = 0.47231 0.01528
#
# Static dielectric constant tensor:
#      x y z
#    x 3.718440 0.000000 0.000000 
#    y 0.000000 3.362150 0.000000 
#    z 0.000000 0.000000 3.402270 
# 
# 
# High freq. dielectric constant tensor:
#      x y z
#    x 1.782960 0.000000 0.000000 
#    y 0.000000 1.761710 0.000000 
#    z 0.000000 0.000000 1.750270 
# 
# From -- ./inp_files/10284.got.cif
#   From: 2010.03.12/outbox.cif.g09.slc.cpg/sg62_6_cif.got.tgz:10284.got - 2010.04.10 19:12:36.
