data_PCOD8252398
_publ_section_title
;
Structure prediction by ZEFSAII (Michael W. Deem and Ramdas Pophale) SiO2 
 PCOD8252398
Probable space group: P N M A
;
_chemical_formula_sum "Si O2"
_cell_formula_units_Z 40
_cell_length_a 18.383943
_cell_length_b 8.945678
_cell_length_c 13.574270
_cell_angle_alpha 90.000000
_cell_angle_beta 90.000000
_cell_angle_gamma 90.000000
_cell_volume 2232.381474
_symmetry_space_group_name_H-M "P N M A"
_symmetry_group_IT_number 62
_symmetry_cell_setting 'orthorhombic'
loop_
_space_group_symop_operation_xyz
x,y,z
1/2-x,-y,1/2+z
1/2+x,1/2-y,1/2-z
-x,1/2+y,-z
-x,-y,-z
1/2+x,y,1/2-z
1/2-x,1/2+y,1/2+z
x,1/2-y,z
loop_
_atom_site_type_symbol
_atom_site_label
_atom_site_fract_x
_atom_site_fract_y
_atom_site_fract_z
Si Si1 0.639035 0.926176 0.793339
Si Si2 0.788965 0.574919 0.892580
Si Si3 0.791439 0.925114 0.116225
Si Si4 0.858464 0.423746 0.717309
Si Si5 0.002192 0.072322 0.606431
O O1 0.623439 0.750000 0.797058
O O2 0.708096 0.972680 0.859587
O O3 0.652961 0.978246 0.681365
O O4 0.571333 0.016527 0.834051
O O5 0.797914 0.750000 0.882057
O O6 0.849553 0.501085 0.823283
O O7 0.802239 0.522465 0.004082
O O8 0.808216 0.750000 0.130349
O O9 0.708781 0.962359 0.146100
O O10 0.864110 0.250000 0.738560
O O11 0.931037 0.482881 0.665115
O O12 0.003797 0.250000 0.595194
O O13 0.000000 0.000000 0.500000
#
# Coordination Sequence:
#
# PCOD8252398 Si02
#       5
#     8   8   8   8   8
#     4  10  20  34  52  78 107 134 169 212 253 303
#     4   9  18  33  54  77 103 134 171 213 256 301
#     4   9  17  33  54  75 101 134 168 208 255 300
#     4   9  19  34  52  75 104 133 167 209 253 301
#     4  11  22  36  54  77 105 137 169 208 257 307
#
# _framework density 17.918084
#
# number of rings (size 3 to 8) (size 9 to 14) (size 15 to 20)
#    0.000    2.400    0.000    2.400    0.000    6.400 
#    0.000    5.000    0.000    0.000    0.000    0.000 
#    0.000    0.000    0.000    0.000    0.000    0.000 
#
# Total GULP energy -496094.444374 kJ/mol
# GULP energy per Si atom -12402.361109 kJ/mol
# Density = 1.787730 g / cm^3
# Si number density = 17.918084 Si / 1000 Ang^3
#
#
#
# Elastic Constant Matrix: (Units=GPa)
#
#
# Indices 1 2 3 4 5 6 
#
# 1 116.8883 42.7189 74.8565 0.0000 0.0000 0.0000
# 2 42.7189 49.8247 46.7957 0.0000 0.0000 0.0000
# 3 74.8565 46.7957 164.3825 0.0000 0.0000 0.0000
# 4 0.0000 0.0000 0.0000 36.3119 0.0000 0.0000
# 5 0.0000 0.0000 0.0000 0.0000 24.2391 0.0000
# 6 0.0000 0.0000 0.0000 0.0000 0.0000 28.4197
#
#
#
# Elastic Compliance Matrix: (Units=1/GPa)
#
#
# Indices 1 2 3 4 5 6 
#
# 1 0.014236 -0.008350 -0.004106 0.000000 0.000000 0.000000
# 2 -0.008350 0.032292 -0.005391 0.000000 0.000000 0.000000
# 3 -0.004106 -0.005391 0.009488 0.000000 0.000000 0.000000
# 4 0.000000 0.000000 0.000000 0.027539 0.000000 0.000000
# 5 0.000000 0.000000 0.000000 0.000000 0.041256 0.000000
# 6 0.000000 0.000000 0.000000 0.000000 0.000000 0.035187
#
#
# Mechanical properties :
#
#
# Convention : Reuss Voigt Hill
#
# Bulk Modulus (GPa) = 49.20345 73.31531 61.25938
# Shear Modulus (GPa) = 24.69575 28.90910 26.80243
#
# Velocity S-wave (km/s) = 3.71652 4.02108 3.87179
# Velocity P-wave (km/s) = 6.77765 7.90977 7.36549
#
# Compressibility (1/GPa) = 0.02032378
#
# Stress axis : x y z
#
# Youngs Moduli (GPa) = 70.24373 30.96753 105.39981
#
# Poissons Ratio (x) = 0.25856 0.43277
# Poissons Ratio (y) = 0.58650 0.56816
# Poissons Ratio (z) = 0.28842 0.16693
#
# Static dielectric constant tensor:
#      x y z
#    x 3.401190 0.000000 0.000000 
#    y 0.000000 3.287180 0.000000 
#    z 0.000000 0.000000 10.800380 
# 
# 
# High freq. dielectric constant tensor:
#      x y z
#    x 1.683860 0.000000 0.000000 
#    y 0.000000 1.693750 0.000000 
#    z 0.000000 0.000000 1.702810 
# 
# From -- ./inp_files/13824.got.cif
#   From: 2010.03.12/outbox.cif.g09.slc.cpg/sg62_7_cif.got.tgz:13824.got - 2010.04.10 19:12:36.
