data_PCOD8252300
_publ_section_title
;
Structure prediction by ZEFSAII (Michael W. Deem and Ramdas Pophale) SiO2 
 PCOD8252300
Probable space group: P N M A
;
_chemical_formula_sum "Si O2"
_cell_formula_units_Z 64
_cell_length_a 15.044283
_cell_length_b 9.281190
_cell_length_c 24.822070
_cell_angle_alpha 90.000000
_cell_angle_beta 90.000000
_cell_angle_gamma 90.000000
_cell_volume 3465.877062
_symmetry_space_group_name_H-M "P N M A"
_symmetry_group_IT_number 62
_symmetry_cell_setting 'orthorhombic'
loop_
_space_group_symop_operation_xyz
x,y,z
1/2-x,-y,1/2+z
1/2+x,1/2-y,1/2-z
-x,1/2+y,-z
-x,-y,-z
1/2+x,y,1/2-z
1/2-x,1/2+y,1/2+z
x,1/2-y,z
loop_
_atom_site_type_symbol
_atom_site_label
_atom_site_fract_x
_atom_site_fract_y
_atom_site_fract_z
Si Si1 0.678276 0.414471 0.645296
Si Si2 0.823125 0.582756 0.445291
Si Si3 0.505952 0.917863 0.110561
Si Si4 0.293371 0.081754 0.655177
Si Si5 0.812655 0.080886 0.554332
Si Si6 0.030268 0.416207 0.283305
Si Si7 0.234385 0.416390 0.261416
Si Si8 0.490120 0.413338 0.678783
O O1 0.706035 0.250000 0.658728
O O2 0.729988 0.465250 0.592010
O O3 0.700520 0.513966 0.695621
O O4 0.571691 0.428272 0.636505
O O5 0.809631 0.750000 0.457784
O O6 0.756126 0.531040 0.398652
O O7 0.797571 0.496064 0.498087
O O8 0.924478 0.549600 0.429144
O O9 0.511813 0.750000 0.125757
O O10 0.595718 0.971533 0.081638
O O11 0.489296 0.005578 0.165028
O O12 0.276238 0.250000 0.666005
O O13 0.398252 0.045046 0.648977
O O14 0.251554 0.994559 0.704596
O O15 0.815452 0.250000 0.543582
O O16 0.002467 0.250000 0.285029
O O17 0.135613 0.438369 0.283666
O O18 0.989866 0.484821 0.229473
O O19 0.258768 0.250000 0.253701
O O20 0.483295 0.250000 0.700684
#
# Coordination Sequence:
#
# PCOD8252300 Si02
#       8
#     8   8   8   8   8   8   8   8
#     4  10  20  35  56  80 106 143 185 221 265 323
#     4  10  22  37  56  79 105 141 185 228 271 321
#     4  10  20  35  54  78 108 145 182 217 264 325
#     4   9  19  37  56  77 107 143 183 225 268 319
#     4  10  21  37  56  78 107 141 182 228 272 320
#     4  10  20  33  51  80 114 144 174 215 270 324
#     4  10  20  33  52  80 112 143 174 219 273 322
#     4   9  19  35  56  77 106 146 183 221 264 320
#
# _framework density 18.465744999999998
#
# number of rings (size 3 to 8) (size 9 to 14) (size 15 to 20)
#    0.000    2.250    1.250    1.125    1.750    3.500 
#    0.000    0.625    0.000    0.000    0.000    0.000 
#    0.000    0.000    0.000    0.000    0.000    0.000 
#
# Total GULP energy -793754.325450 kJ/mol
# GULP energy per Si atom -12402.411335 kJ/mol
# Density = 1.842372 g / cm^3
# Si number density = 18.465745 Si / 1000 Ang^3
#
#
#
# Elastic Constant Matrix: (Units=GPa)
#
#
# Indices 1 2 3 4 5 6 
#
# 1 69.0194 33.8599 60.4916 0.0000 0.0000 0.0000
# 2 33.8599 68.6979 55.8688 0.0000 0.0000 0.0000
# 3 60.4916 55.8688 132.1223 0.0000 0.0000 0.0000
# 4 0.0000 0.0000 0.0000 36.6509 0.0000 0.0000
# 5 0.0000 0.0000 0.0000 0.0000 25.2048 0.0000
# 6 0.0000 0.0000 0.0000 0.0000 0.0000 14.4190
#
#
#
# Elastic Compliance Matrix: (Units=1/GPa)
#
#
# Indices 1 2 3 4 5 6 
#
# 1 0.025124 -0.004616 -0.009551 0.000000 0.000000 0.000000
# 2 -0.004616 0.023034 -0.007627 0.000000 0.000000 0.000000
# 3 -0.009551 -0.007627 0.015167 0.000000 0.000000 0.000000
# 4 0.000000 0.000000 0.000000 0.027284 0.000000 0.000000
# 5 0.000000 0.000000 0.000000 0.000000 0.039675 0.000000
# 6 0.000000 0.000000 0.000000 0.000000 0.000000 0.069353
#
#
# Mechanical properties :
#
#
# Convention : Reuss Voigt Hill
#
# Bulk Modulus (GPa) = 50.66491 63.36445 57.01468
# Shear Modulus (GPa) = 20.01572 23.22956 21.62264
#
# Velocity S-wave (km/s) = 3.29589 3.55065 3.42564
# Velocity P-wave (km/s) = 6.47925 7.15532 6.82566
#
# Compressibility (1/GPa) = 0.01973753
#
# Stress axis : x y z
#
# Youngs Moduli (GPa) = 39.80240 43.41409 65.93363
#
# Poissons Ratio (x) = 0.20038 0.62974
# Poissons Ratio (y) = 0.18371 0.50286
# Poissons Ratio (z) = 0.38016 0.33111
#
# Static dielectric constant tensor:
#      x y z
#    x 3.523720 0.000000 0.000000 
#    y 0.000000 3.348750 0.000000 
#    z 0.000000 0.000000 3.202870 
# 
# 
# High freq. dielectric constant tensor:
#      x y z
#    x 1.723370 0.000000 0.000000 
#    y 0.000000 1.712820 0.000000 
#    z 0.000000 0.000000 1.700450 
# 
# From -- ./inp_files/29748.got.cif
#   From: 2010.03.12/outbox.cif.g09.slc.cpg/sg62_15_cif.got.tgz:29748.got - 2010.04.10 19:12:36.
