data_PCOD8252006
_publ_section_title
;
Structure prediction by ZEFSAII (Michael W. Deem and Ramdas Pophale) SiO2 
 PCOD8252006
Probable space group: P N M A
;
_chemical_formula_sum "Si O2"
_cell_formula_units_Z 36
_cell_length_a 12.105948
_cell_length_b 10.223507
_cell_length_c 13.266191
_cell_angle_alpha 90.000000
_cell_angle_beta 90.000000
_cell_angle_gamma 90.000000
_cell_volume 1641.893368
_symmetry_space_group_name_H-M "P N M A"
_symmetry_group_IT_number 62
_symmetry_cell_setting 'orthorhombic'
loop_
_space_group_symop_operation_xyz
x,y,z
1/2-x,-y,1/2+z
1/2+x,1/2-y,1/2-z
-x,1/2+y,-z
-x,-y,-z
1/2+x,y,1/2-z
1/2-x,1/2+y,1/2+z
x,1/2-y,z
loop_
_atom_site_type_symbol
_atom_site_label
_atom_site_fract_x
_atom_site_fract_y
_atom_site_fract_z
Si Si1 0.641684 0.750000 0.389339
Si Si2 0.353914 0.750000 0.020126
Si Si3 0.114669 0.750000 0.481378
Si Si4 0.903283 0.989587 0.582441
Si Si5 0.773899 0.250000 0.309570
Si Si6 0.072863 0.750000 0.881122
Si Si7 0.910990 0.536486 0.809335
O O1 0.776535 0.750000 0.380045
O O2 0.622162 0.750000 0.508325
O O3 0.594671 0.616089 0.341846
O O4 0.483615 0.750000 0.045110
O O5 0.322053 0.626024 0.950453
O O6 0.167023 0.624213 0.425487
O O7 0.135533 0.750000 0.600905
O O8 0.950508 0.964054 0.693201
O O9 0.000000 0.000000 0.500000
O O10 0.703797 0.384213 0.319850
O O11 0.832949 0.250000 0.202786
O O12 0.001523 0.616820 0.871650
#
# Coordination Sequence:
#
# PCOD8252006 Si02
#       7
#     4   4   4   8   4   4   8
#     4  12  24  40  60  91 134 171 204 264 325 383
#     4  10  20  36  60  87 116 156 205 250 308 373
#     4  10  20  36  61  91 119 155 200 267 323 365
#     4  10  19  36  61  87 116 152 201 260 309 361
#     4  11  23  41  67  91 122 166 216 269 324 389
#     4  11  23  43  64  84 123 182 219 244 312 406
#     4  11  24  41  62  95 127 163 216 268 322 386
#
# _framework density 21.925906999999999
#
# number of rings (size 3 to 8) (size 9 to 14) (size 15 to 20)
#    0.000    1.333    0.000    8.000    0.000    1.778 
#    0.000    1.111    0.000    0.000    0.000    0.000 
#    0.000    0.000    0.000    0.000    0.000    0.000 
#
# Total GULP energy -446012.087085 kJ/mol
# GULP energy per Si atom -12389.224641 kJ/mol
# Density = 2.187600 g / cm^3
# Si number density = 21.925907 Si / 1000 Ang^3
#
#
#
# Elastic Constant Matrix: (Units=GPa)
#
#
# Indices 1 2 3 4 5 6 
#
# 1 68.6007 15.8695 8.4963 0.0000 0.0000 0.0000
# 2 15.8695 205.8900 0.5806 0.0000 0.0000 0.0000
# 3 8.4963 0.5806 64.1552 0.0000 0.0000 0.0000
# 4 0.0000 0.0000 0.0000 35.6611 0.0000 0.0000
# 5 0.0000 0.0000 0.0000 0.0000 30.1034 0.0000
# 6 0.0000 0.0000 0.0000 0.0000 0.0000 12.7315
#
#
#
# Elastic Compliance Matrix: (Units=1/GPa)
#
#
# Indices 1 2 3 4 5 6 
#
# 1 0.015091 -0.001158 -0.001988 0.000000 0.000000 0.000000
# 2 -0.001158 0.004946 0.000109 0.000000 0.000000 0.000000
# 3 -0.001988 0.000109 0.015850 0.000000 0.000000 0.000000
# 4 0.000000 0.000000 0.000000 0.028042 0.000000 0.000000
# 5 0.000000 0.000000 0.000000 0.000000 0.033219 0.000000
# 6 0.000000 0.000000 0.000000 0.000000 0.000000 0.078545
#
#
# Mechanical properties :
#
#
# Convention : Reuss Voigt Hill
#
# Bulk Modulus (GPa) = 33.54323 43.17094 38.35708
# Shear Modulus (GPa) = 26.08189 36.61251 31.34720
#
# Velocity S-wave (km/s) = 3.45272 4.09079 3.78522
# Velocity P-wave (km/s) = 5.58809 6.48421 6.05275
#
# Compressibility (1/GPa) = 0.02981228
#
# Stress axis : x y z
#
# Youngs Moduli (GPa) = 66.26409 202.18850 63.09340
#
# Poissons Ratio (x) = 0.23405 0.12544
# Poissons Ratio (y) = 0.07671 -0.00685
# Poissons Ratio (z) = 0.13174 -0.02195
#
# Static dielectric constant tensor:
#      x y z
#    x 3.681700 0.000000 0.000000 
#    y 0.000000 -3.708040 0.000000 
#    z 0.000000 0.000000 3.824990 
# 
# 
# High freq. dielectric constant tensor:
#      x y z
#    x 1.833420 0.000000 0.000000 
#    y 0.000000 1.901280 0.000000 
#    z 0.000000 0.000000 1.855430 
# 
# From -- ./inp_files/11921.got.cif
#   From: 2010.03.12/outbox.cif.g09.slc.cpg/sg62_6_cif.got.tgz:11921.got - 2010.04.10 19:12:36.
