data_PCOD8252236
_publ_section_title
;
Structure prediction by ZEFSAII (Michael W. Deem and Ramdas Pophale) SiO2 
 PCOD8252236
Probable space group: P N M A
;
_chemical_formula_sum "Si O2"
_cell_formula_units_Z 48
_cell_length_a 17.094829
_cell_length_b 8.719636
_cell_length_c 16.977872
_cell_angle_alpha 90.000000
_cell_angle_beta 90.000000
_cell_angle_gamma 90.000000
_cell_volume 2530.733253
_symmetry_space_group_name_H-M "P N M A"
_symmetry_group_IT_number 62
_symmetry_cell_setting 'orthorhombic'
loop_
_space_group_symop_operation_xyz
x,y,z
1/2-x,-y,1/2+z
1/2+x,1/2-y,1/2-z
-x,1/2+y,-z
-x,-y,-z
1/2+x,y,1/2-z
1/2-x,1/2+y,1/2+z
x,1/2-y,z
loop_
_atom_site_type_symbol
_atom_site_label
_atom_site_fract_x
_atom_site_fract_y
_atom_site_fract_z
Si Si1 0.682837 0.067052 0.647343
Si Si2 0.001966 0.066907 0.586264
Si Si3 0.176177 0.569792 0.143338
Si Si4 0.853224 0.068606 0.680422
Si Si5 0.585476 0.069230 0.499815
Si Si6 0.150535 0.068695 0.680529
O O1 0.682751 0.250000 0.646413
O O2 0.772505 0.006726 0.641836
O O3 0.633150 0.001174 0.574513
O O4 0.646001 0.006531 0.729653
O O5 0.002152 0.250000 0.582955
O O6 0.079032 0.001445 0.629918
O O7 0.926950 0.001380 0.633236
O O8 0.000000 0.000000 0.500000
O O9 0.164666 0.750000 0.127329
O O10 0.141177 0.521817 0.228008
O O11 0.130452 0.473040 0.079197
O O12 0.267528 0.522561 0.139964
O O13 0.853555 0.250000 0.674830
O O14 0.578168 0.250000 0.506877
O O15 0.500000 0.000000 0.500000
O O16 0.144366 0.250000 0.684143
#
# Coordination Sequence:
#
# PCOD8252236 Si02
#       6
#     8   8   8   8   8   8
#     4   8  16  32  53  76 100 133 177 217 251 304
#     4  10  20  32  52  79 106 137 173 214 256 307
#     4   9  18  35  57  78 103 136 175 219 265 314
#     4   8  16  32  55  78 100 136 181 216 253 309
#     4  11  23  35  54  81 109 138 175 220 266 314
#     4   8  16  32  54  78 102 134 176 216 258 307
#
# _framework density 18.966835
#
# number of rings (size 3 to 8) (size 9 to 14) (size 15 to 20)
#    0.000    3.000    0.000    2.500    4.667    0.000 
#    0.000    0.833    0.000    8.000    0.000    0.000 
#    0.000    0.000    0.000    0.000    0.000    0.000 
#
# Total GULP energy -595006.078364 kJ/mol
# GULP energy per Si atom -12395.959966 kJ/mol
# Density = 1.892367 g / cm^3
# Si number density = 18.966835 Si / 1000 Ang^3
#
#
#
# Elastic Constant Matrix: (Units=GPa)
#
#
# Indices 1 2 3 4 5 6 
#
# 1 182.8630 23.5707 117.0004 0.0000 0.0000 0.0000
# 2 23.5707 22.7304 22.3660 0.0000 0.0000 0.0000
# 3 117.0004 22.3660 160.9499 0.0000 0.0000 0.0000
# 4 0.0000 0.0000 0.0000 29.1953 0.0000 0.0000
# 5 0.0000 0.0000 0.0000 0.0000 38.6831 0.0000
# 6 0.0000 0.0000 0.0000 0.0000 0.0000 18.8664
#
#
#
# Elastic Compliance Matrix: (Units=1/GPa)
#
#
# Indices 1 2 3 4 5 6 
#
# 1 0.010517 -0.003919 -0.007100 0.000000 0.000000 0.000000
# 2 -0.003919 0.052423 -0.004436 0.000000 0.000000 0.000000
# 3 -0.007100 -0.004436 0.011991 0.000000 0.000000 0.000000
# 4 0.000000 0.000000 0.000000 0.034252 0.000000 0.000000
# 5 0.000000 0.000000 0.000000 0.000000 0.025851 0.000000
# 6 0.000000 0.000000 0.000000 0.000000 0.000000 0.053004
#
#
# Mechanical properties :
#
#
# Convention : Reuss Voigt Hill
#
# Bulk Modulus (GPa) = 22.71701 76.93526 49.82613
# Shear Modulus (GPa) = 21.40209 30.92270 26.16240
#
# Velocity S-wave (km/s) = 3.36280 4.04215 3.71802
# Velocity P-wave (km/s) = 5.20396 7.90167 6.69020
#
# Compressibility (1/GPa) = 0.04401989
#
# Stress axis : x y z
#
# Youngs Moduli (GPa) = 95.08637 19.07571 83.39513
#
# Poissons Ratio (x) = 0.07476 0.59214
# Poissons Ratio (y) = 0.37264 0.36994
# Poissons Ratio (z) = 0.67515 0.08462
#
# Static dielectric constant tensor:
#      x y z
#    x 4.154220 0.000000 0.000000 
#    y 0.000000 2.916510 0.000000 
#    z 0.000000 0.000000 3.712360 
# 
# 
# High freq. dielectric constant tensor:
#      x y z
#    x 1.752290 0.000000 0.000000 
#    y 0.000000 1.681070 0.000000 
#    z 0.000000 0.000000 1.747680 
# 
# From -- ./inp_files/19745.got.cif
#   From: 2010.03.12/outbox.cif.g09.slc.cpg/sg62_10_cif.got.tgz:19745.got - 2010.04.10 19:12:36.
