data_PCOD8252122
_publ_section_title
;
Structure prediction by ZEFSAII (Michael W. Deem and Ramdas Pophale) SiO2 
 PCOD8252122
Probable space group: P N M A
;
_chemical_formula_sum "Si O2"
_cell_formula_units_Z 44
_cell_length_a 16.507527
_cell_length_b 14.383267
_cell_length_c 8.934499
_cell_angle_alpha 90.000000
_cell_angle_beta 90.000000
_cell_angle_gamma 90.000000
_cell_volume 2121.337471
_symmetry_space_group_name_H-M "P N M A"
_symmetry_group_IT_number 62
_symmetry_cell_setting 'orthorhombic'
loop_
_space_group_symop_operation_xyz
x,y,z
1/2-x,-y,1/2+z
1/2+x,1/2-y,1/2-z
-x,1/2+y,-z
-x,-y,-z
1/2+x,y,1/2-z
1/2-x,1/2+y,1/2+z
x,1/2-y,z
loop_
_atom_site_type_symbol
_atom_site_label
_atom_site_fract_x
_atom_site_fract_y
_atom_site_fract_z
Si Si1 0.057969 0.412175 0.024640
Si Si2 0.786416 0.603792 0.373825
Si Si3 0.239259 0.750000 0.663616
Si Si4 0.922594 0.750000 0.424411
Si Si5 0.239453 0.073084 0.974623
Si Si6 0.073208 0.250000 0.239388
Si Si7 0.003042 0.750000 0.145846
Si Si8 0.173208 0.750000 0.984430
O O1 0.149014 0.449821 0.032491
O O2 0.037690 0.345448 0.167337
O O3 0.050185 0.341898 0.886036
O O4 0.000000 0.500000 0.000000
O O5 0.869877 0.659122 0.385977
O O6 0.797187 0.510056 0.470195
O O7 0.714212 0.658296 0.453128
O O8 0.759637 0.583650 0.203871
O O9 0.224840 0.836700 0.555343
O O10 0.329451 0.750000 0.731539
O O11 0.176135 0.750000 0.802707
O O12 0.955217 0.750000 0.591189
O O13 0.006047 0.750000 0.326614
O O14 0.082998 0.750000 0.047980
#
# Coordination Sequence:
#
# PCOD8252122 Si02
#       8
#     8   8   4   4   8   4   4   4
#     4  10  21  39  62  90 126 168 212 251 323 392
#     4  11  22  37  62  94 128 159 221 265 319 369
#     4  10  19  38  62  88 120 158 221 261 327 361
#     4  11  21  43  62  91 128 174 208 268 321 384
#     4  11  22  37  63  94 123 168 210 273 310 385
#     4   9  20  37  66  86 122 169 213 263 306 378
#     4  11  22  42  61  88 131 173 207 251 335 391
#     4  11  22  38  63  91 123 164 211 279 307 378
#
# _framework density 20.741630000000001
#
# number of rings (size 3 to 8) (size 9 to 14) (size 15 to 20)
#    0.000    1.455    3.636    3.818    2.545    0.000 
#    0.000    6.364    0.000    0.000    0.000    0.000 
#    0.000    0.000    0.000    0.000    0.000    0.000 
#
# Total GULP energy -545325.313708 kJ/mol
# GULP energy per Si atom -12393.757130 kJ/mol
# Density = 2.069442 g / cm^3
# Si number density = 20.741630 Si / 1000 Ang^3
#
#
#
# Elastic Constant Matrix: (Units=GPa)
#
#
# Indices 1 2 3 4 5 6 
#
# 1 48.4700 25.9774 14.4033 0.0000 0.0000 0.0000
# 2 25.9774 159.2924 56.2223 0.0000 0.0000 0.0000
# 3 14.4033 56.2223 184.6982 0.0000 0.0000 0.0000
# 4 0.0000 0.0000 0.0000 35.5210 0.0000 0.0000
# 5 0.0000 0.0000 0.0000 0.0000 31.6395 0.0000
# 6 0.0000 0.0000 0.0000 0.0000 0.0000 -29.9057
#
#
#
# Elastic Compliance Matrix: (Units=1/GPa)
#
#
# Indices 1 2 3 4 5 6 
#
# 1 0.022693 -0.003446 -0.000721 0.000000 0.000000 0.000000
# 2 -0.003446 0.007557 -0.002032 0.000000 0.000000 0.000000
# 3 -0.000721 -0.002032 0.006089 0.000000 0.000000 0.000000
# 4 0.000000 0.000000 0.000000 0.028152 0.000000 0.000000
# 5 0.000000 0.000000 0.000000 0.000000 0.031606 0.000000
# 6 0.000000 0.000000 0.000000 0.000000 0.000000 -0.033438
#
#
# Mechanical properties :
#
#
# Convention : Reuss Voigt Hill
#
# Bulk Modulus (GPa) = 41.76894 65.07406 53.42150
# Shear Modulus (GPa) = 60.21519 27.17480 43.69500
#
# Velocity S-wave (km/s) = 5.39390 3.62354 4.59479
# Velocity P-wave (km/s) = 7.67943 6.99632 7.34582
#
# Compressibility (1/GPa) = 0.02394124
#
# Stress axis : x y z
#
# Youngs Moduli (GPa) = 44.06738 132.33051 164.23512
#
# Poissons Ratio (x) = 0.45606 0.11834
# Poissons Ratio (y) = 0.15187 0.33365
# Poissons Ratio (z) = 0.03175 0.26884
#
# Static dielectric constant tensor:
#      x y z
#    x 3.390980 0.000000 0.000000 
#    y 0.000000 4.013660 0.000000 
#    z 0.000000 0.000000 3.867240 
# 
# 
# High freq. dielectric constant tensor:
#      x y z
#    x 1.778880 0.000000 0.000000 
#    y 0.000000 1.825140 0.000000 
#    z 0.000000 0.000000 1.823480 
# 
# From -- ./inp_files/7591.got.cif
#   From: 2010.03.12/outbox.cif.g09.slc.cpg/sg62_4_cif.got.tgz:7591.got - 2010.04.10 19:12:36.
