data_PCOD8252902
_publ_section_title
;
Structure prediction by ZEFSAII (Michael W. Deem and Ramdas Pophale) SiO2 
 PCOD8252902
Probable space group: P N M A
;
_chemical_formula_sum "Si O2"
_cell_formula_units_Z 48
_cell_length_a 11.816215
_cell_length_b 9.010107
_cell_length_c 22.407353
_cell_angle_alpha 90.000000
_cell_angle_beta 90.000000
_cell_angle_gamma 90.000000
_cell_volume 2385.606937
_symmetry_space_group_name_H-M "P N M A"
_symmetry_group_IT_number 62
_symmetry_cell_setting 'orthorhombic'
loop_
_space_group_symop_operation_xyz
x,y,z
1/2-x,-y,1/2+z
1/2+x,1/2-y,1/2-z
-x,1/2+y,-z
-x,-y,-z
1/2+x,y,1/2-z
1/2-x,1/2+y,1/2+z
x,1/2-y,z
loop_
_atom_site_type_symbol
_atom_site_label
_atom_site_fract_x
_atom_site_fract_y
_atom_site_fract_z
Si Si1 0.081879 0.414967 0.956409
Si Si2 0.061781 0.912694 0.160909
Si Si3 0.493725 0.426723 0.935203
Si Si4 0.376333 0.422544 0.277255
Si Si5 0.313815 0.576830 0.155416
Si Si6 0.271342 0.925375 0.892421
O O1 0.112360 0.250000 0.981042
O O2 0.195058 0.511117 0.946528
O O3 0.017860 0.398236 0.895102
O O4 0.000000 0.500000 0.000000
O O5 0.072933 0.750000 0.191499
O O6 0.184992 0.969102 0.139950
O O7 0.003526 0.025992 0.206592
O O8 0.480126 0.250000 0.941658
O O9 0.607513 0.472084 0.899713
O O10 0.391364 0.493118 0.896201
O O11 0.500000 0.500000 0.000000
O O12 0.381610 0.250000 0.266351
O O13 0.343375 0.497918 0.216389
O O14 0.284988 0.462936 0.328525
O O15 0.328666 0.750000 0.166509
O O16 0.285818 0.750000 0.901959
#
# Coordination Sequence:
#
# PCOD8252902 Si02
#       6
#     8   8   8   8   8   8
#     4  10  20  35  60  90 119 155 199 248 303 360
#     4   9  20  39  60  85 118 156 198 245 298 365
#     4  11  25  43  64  92 125 167 212 255 309 375
#     4  10  22  39  62  93 123 155 199 255 310 360
#     4  10  23  41  63  89 121 162 202 248 306 372
#     4  10  22  41  62  87 124 163 202 254 306 364
#
# _framework density 20.120666
#
# number of rings (size 3 to 8) (size 9 to 14) (size 15 to 20)
#    0.000    2.000    0.000    2.000    4.667    4.667 
#    0.000    0.000    0.000    0.000    0.000    0.000 
#    0.000    0.000    0.000    0.000    0.000    0.000 
#
# Total GULP energy -595150.677122 kJ/mol
# GULP energy per Si atom -12398.972440 kJ/mol
# Density = 2.007487 g / cm^3
# Si number density = 20.120666 Si / 1000 Ang^3
#
#
#
# Elastic Constant Matrix: (Units=GPa)
#
#
# Indices 1 2 3 4 5 6 
#
# 1 138.7646 43.3441 25.4426 0.0000 0.0000 0.0000
# 2 43.3441 74.2216 33.0357 0.0000 0.0000 0.0000
# 3 25.4426 33.0357 57.7120 0.0000 0.0000 0.0000
# 4 0.0000 0.0000 0.0000 32.4771 0.0000 0.0000
# 5 0.0000 0.0000 0.0000 0.0000 14.4266 0.0000
# 6 0.0000 0.0000 0.0000 0.0000 0.0000 32.9266
#
#
#
# Elastic Compliance Matrix: (Units=1/GPa)
#
#
# Indices 1 2 3 4 5 6 
#
# 1 0.008883 -0.004622 -0.001270 0.000000 0.000000 0.000000
# 2 -0.004622 0.020485 -0.009688 0.000000 0.000000 0.000000
# 3 -0.001270 -0.009688 0.023433 0.000000 0.000000 0.000000
# 4 0.000000 0.000000 0.000000 0.030791 0.000000 0.000000
# 5 0.000000 0.000000 0.000000 0.000000 0.069316 0.000000
# 6 0.000000 0.000000 0.000000 0.000000 0.000000 0.030371
#
#
# Mechanical properties :
#
#
# Convention : Reuss Voigt Hill
#
# Bulk Modulus (GPa) = 46.21160 52.70476 49.45818
# Shear Modulus (GPa) = 22.55777 27.22445 24.89111
#
# Velocity S-wave (km/s) = 3.35195 3.68239 3.52105
# Velocity P-wave (km/s) = 6.16424 6.65817 6.41596
#
# Compressibility (1/GPa) = 0.02163959
#
# Stress axis : x y z
#
# Youngs Moduli (GPa) = 112.57294 48.81724 42.67455
#
# Poissons Ratio (x) = 0.22564 0.05421
# Poissons Ratio (y) = 0.52033 0.41344
# Poissons Ratio (z) = 0.14300 0.47295
#
# Static dielectric constant tensor:
#      x y z
#    x 3.926290 0.000000 0.000000 
#    y 0.000000 4.002110 0.000000 
#    z 0.000000 0.000000 9.628160 
# 
# 
# High freq. dielectric constant tensor:
#      x y z
#    x 1.796900 0.000000 0.000000 
#    y 0.000000 1.794120 0.000000 
#    z 0.000000 0.000000 1.777470 
# 
# From -- ./inp_files/29241.got.cif
#   From: 2010.03.12/outbox.cif.g09.slc.cpg/sg62_15_cif.got.tgz:29241.got - 2010.04.10 19:12:36.
