data_PCOD8252960
_publ_section_title
;
Structure prediction by ZEFSAII (Michael W. Deem and Ramdas Pophale) SiO2 
 PCOD8252960
Probable space group: P N M A
;
_chemical_formula_sum "Si O2"
_cell_formula_units_Z 64
_cell_length_a 21.740526
_cell_length_b 9.174339
_cell_length_c 17.154202
_cell_angle_alpha 90.000000
_cell_angle_beta 90.000000
_cell_angle_gamma 90.000000
_cell_volume 3421.490598
_symmetry_space_group_name_H-M "P N M A"
_symmetry_group_IT_number 62
_symmetry_cell_setting 'orthorhombic'
loop_
_space_group_symop_operation_xyz
x,y,z
1/2-x,-y,1/2+z
1/2+x,1/2-y,1/2-z
-x,1/2+y,-z
-x,-y,-z
1/2+x,y,1/2-z
1/2-x,1/2+y,1/2+z
x,1/2-y,z
loop_
_atom_site_type_symbol
_atom_site_label
_atom_site_fract_x
_atom_site_fract_y
_atom_site_fract_z
Si Si1 0.283397 0.081410 0.654138
Si Si2 0.392853 0.418428 0.765708
Si Si3 0.969296 0.580166 0.855102
Si Si4 0.073631 0.580952 0.432243
Si Si5 0.639855 0.422185 0.468825
Si Si6 0.932427 0.580840 0.418132
Si Si7 0.109559 0.576756 0.875229
Si Si8 0.348514 0.579101 0.222361
O O1 0.288424 0.250000 0.628651
O O2 0.327686 0.047351 0.726949
O O3 0.215638 0.039857 0.681479
O O4 0.302722 0.980903 0.581540
O O5 0.411435 0.250000 0.760574
O O6 0.448255 0.502001 0.723733
O O7 0.387412 0.465493 0.856170
O O8 0.966190 0.750000 0.837982
O O9 0.924202 0.536958 0.926096
O O10 0.038037 0.529632 0.875553
O O11 0.079869 0.750000 0.451286
O O12 0.099088 0.496645 0.507496
O O13 0.003481 0.537111 0.413542
O O14 0.647070 0.250000 0.480982
O O15 0.641917 0.502840 0.551117
O O16 0.921181 0.750000 0.431033
O O17 0.901298 0.530524 0.337897
O O18 0.117359 0.750000 0.879708
O O19 0.143727 0.516819 0.799188
O O20 0.352181 0.750000 0.243993
#
# Coordination Sequence:
#
# PCOD8252960 Si02
#       8
#     8   8   8   8   8   8   8   8
#     4   9  19  37  57  75 104 140 177 220 265 312
#     4   9  17  31  53  78 103 137 175 215 262 312
#     4   9  19  33  52  81 113 142 173 216 267 320
#     4   9  17  30  49  75 103 129 168 215 259 312
#     4  10  20  36  57  80 108 142 180 219 266 320
#     4   9  18  32  50  72 100 135 169 209 263 314
#     4  11  22  35  54  82 112 140 176 220 268 320
#     4  10  21  38  56  75 106 144 181 221 267 319
#
# _framework density 18.705297999999999
#
# number of rings (size 3 to 8) (size 9 to 14) (size 15 to 20)
#    0.000    2.500    0.000    1.875    0.000    4.000 
#    2.250    2.500    0.000    0.000    0.000    0.000 
#    0.000    0.000    0.000    0.000    0.000    0.000 
#
# Total GULP energy -793724.145871 kJ/mol
# GULP energy per Si atom -12401.939779 kJ/mol
# Density = 1.866272 g / cm^3
# Si number density = 18.705298 Si / 1000 Ang^3
#
#
#
# Elastic Constant Matrix: (Units=GPa)
#
#
# Indices 1 2 3 4 5 6 
#
# 1 68.2982 32.4514 34.5370 0.0000 0.0000 0.0000
# 2 32.4514 59.5490 51.8195 0.0000 0.0000 0.0000
# 3 34.5370 51.8195 131.3016 0.0000 0.0000 0.0000
# 4 0.0000 0.0000 0.0000 38.6601 0.0000 0.0000
# 5 0.0000 0.0000 0.0000 0.0000 15.5068 0.0000
# 6 0.0000 0.0000 0.0000 0.0000 0.0000 23.5870
#
#
#
# Elastic Compliance Matrix: (Units=1/GPa)
#
#
# Indices 1 2 3 4 5 6 
#
# 1 0.019939 -0.009598 -0.001457 0.000000 0.000000 0.000000
# 2 -0.009598 0.030197 -0.009393 0.000000 0.000000 0.000000
# 3 -0.001457 -0.009393 0.011706 0.000000 0.000000 0.000000
# 4 0.000000 0.000000 0.000000 0.025866 0.000000 0.000000
# 5 0.000000 0.000000 0.000000 0.000000 0.064488 0.000000
# 6 0.000000 0.000000 0.000000 0.000000 0.000000 0.042396
#
#
# Mechanical properties :
#
#
# Convention : Reuss Voigt Hill
#
# Bulk Modulus (GPa) = 47.74018 55.19608 51.46813
# Shear Modulus (GPa) = 20.62108 24.90684 22.76396
#
# Velocity S-wave (km/s) = 3.32387 3.65299 3.49231
# Velocity P-wave (km/s) = 6.34890 6.88220 6.62092
#
# Compressibility (1/GPa) = 0.02094672
#
# Stress axis : x y z
#
# Youngs Moduli (GPa) = 50.15361 33.11562 85.42464
#
# Poissons Ratio (x) = 0.31785 0.12443
# Poissons Ratio (y) = 0.48138 0.80239
# Poissons Ratio (z) = 0.07305 0.31105
#
# Static dielectric constant tensor:
#      x y z
#    x 3.368100 0.000000 0.000000 
#    y 0.000000 3.360890 0.000000 
#    z 0.000000 0.000000 3.546990 
# 
# 
# High freq. dielectric constant tensor:
#      x y z
#    x 1.711210 0.000000 0.000000 
#    y 0.000000 1.721580 0.000000 
#    z 0.000000 0.000000 1.734780 
# 
# From -- ./inp_files/24686.got.cif
#   From: 2010.03.12/outbox.cif.g09.slc.cpg/sg62_13_cif.got.tgz:24686.got - 2010.04.10 19:12:36.
