data_PCOD8252460
_publ_section_title
;
Structure prediction by ZEFSAII (Michael W. Deem and Ramdas Pophale) SiO2 
 PCOD8252460
Probable space group: P N M A
;
_chemical_formula_sum "Si O2"
_cell_formula_units_Z 64
_cell_length_a 21.625247
_cell_length_b 9.310037
_cell_length_c 16.987313
_cell_angle_alpha 90.000000
_cell_angle_beta 90.000000
_cell_angle_gamma 90.000000
_cell_volume 3420.087148
_symmetry_space_group_name_H-M "P N M A"
_symmetry_group_IT_number 62
_symmetry_cell_setting 'orthorhombic'
loop_
_space_group_symop_operation_xyz
x,y,z
1/2-x,-y,1/2+z
1/2+x,1/2-y,1/2-z
-x,1/2+y,-z
-x,-y,-z
1/2+x,y,1/2-z
1/2-x,1/2+y,1/2+z
x,1/2-y,z
loop_
_atom_site_type_symbol
_atom_site_label
_atom_site_fract_x
_atom_site_fract_y
_atom_site_fract_z
Si Si1 0.282423 0.915675 0.667850
Si Si2 0.373217 0.417545 0.768752
Si Si3 0.967071 0.082476 0.865274
Si Si4 0.076141 0.586332 0.434233
Si Si5 0.625488 0.416162 0.465746
Si Si6 0.931154 0.585379 0.414856
Si Si7 0.109107 0.417485 0.857446
Si Si8 0.354857 0.418716 0.208774
O O1 0.294574 0.750000 0.685880
O O2 0.313847 0.960889 0.584780
O O3 0.209845 0.949585 0.664822
O O4 0.312290 0.001970 0.739771
O O5 0.359702 0.250000 0.763028
O O6 0.432421 0.458643 0.715655
O O7 0.385791 0.464269 0.858192
O O8 0.962908 0.250000 0.884151
O O9 0.037692 0.033447 0.857294
O O10 0.934856 0.002080 0.937885
O O11 0.092122 0.750000 0.457777
O O12 0.096092 0.483912 0.505561
O O13 0.004463 0.572552 0.413701
O O14 0.609284 0.250000 0.453871
O O15 0.638845 0.448732 0.557120
O O16 0.909131 0.750000 0.409431
O O17 0.908035 0.498011 0.339742
O O18 0.115062 0.250000 0.834287
O O19 0.146821 0.514375 0.796021
O O20 0.369247 0.250000 0.213842
#
# Coordination Sequence:
#
# PCOD8252460 Si02
#       8
#     8   8   8   8   8   8   8   8
#     4   9  20  38  54  71 103 140 178 222 264 308
#     4   9  17  31  53  78 104 138 175 212 259 313
#     4   9  17  30  51  81 114 140 164 209 263 312
#     4   9  18  34  55  82 112 139 173 217 267 320
#     4   9  18  34  55  78 104 139 176 214 262 317
#     4  10  20  35  56  80 109 141 175 219 267 321
#     4  10  20  34  54  80 108 136 174 218 262 321
#     4  11  23  38  54  73 105 144 181 225 271 312
#
# _framework density 18.712973999999999
#
# number of rings (size 3 to 8) (size 9 to 14) (size 15 to 20)
#    0.000    2.500    0.000    1.875    0.000    5.000 
#    2.250    2.500    0.000    0.000    0.000    0.000 
#    0.000    0.000    0.000    0.000    0.000    0.000 
#
# Total GULP energy -793731.613288 kJ/mol
# GULP energy per Si atom -12402.056458 kJ/mol
# Density = 1.867038 g / cm^3
# Si number density = 18.712974 Si / 1000 Ang^3
#
#
#
# Elastic Constant Matrix: (Units=GPa)
#
#
# Indices 1 2 3 4 5 6 
#
# 1 48.3783 29.4886 29.3648 0.0000 0.0000 0.0000
# 2 29.4886 75.5100 54.3538 0.0000 0.0000 0.0000
# 3 29.3648 54.3538 114.2709 0.0000 0.0000 0.0000
# 4 0.0000 0.0000 0.0000 36.1711 0.0000 0.0000
# 5 0.0000 0.0000 0.0000 0.0000 19.8359 0.0000
# 6 0.0000 0.0000 0.0000 0.0000 0.0000 25.2141
#
#
#
# Elastic Compliance Matrix: (Units=1/GPa)
#
#
# Indices 1 2 3 4 5 6 
#
# 1 0.027793 -0.008687 -0.003010 0.000000 0.000000 0.000000
# 2 -0.008687 0.022854 -0.008638 0.000000 0.000000 0.000000
# 3 -0.003010 -0.008638 0.013633 0.000000 0.000000 0.000000
# 4 0.000000 0.000000 0.000000 0.027646 0.000000 0.000000
# 5 0.000000 0.000000 0.000000 0.000000 0.050414 0.000000
# 6 0.000000 0.000000 0.000000 0.000000 0.000000 0.039660
#
#
# Mechanical properties :
#
#
# Convention : Reuss Voigt Hill
#
# Bulk Modulus (GPa) = 42.35613 51.61929 46.98771
# Shear Modulus (GPa) = 21.68818 24.57435 23.13126
#
# Velocity S-wave (km/s) = 3.40809 3.62778 3.51965
# Velocity P-wave (km/s) = 6.17823 6.72252 6.45612
#
# Compressibility (1/GPa) = 0.02360933
#
# Stress axis : x y z
#
# Youngs Moduli (GPa) = 35.98087 43.75647 73.34919
#
# Poissons Ratio (x) = 0.38012 0.22077
# Poissons Ratio (y) = 0.31257 0.63360
# Poissons Ratio (z) = 0.10830 0.37798
#
# Static dielectric constant tensor:
#      x y z
#    x 3.279100 0.000000 0.000000 
#    y 0.000000 3.457750 0.000000 
#    z 0.000000 0.000000 3.559270 
# 
# 
# High freq. dielectric constant tensor:
#      x y z
#    x 1.709610 0.000000 0.000000 
#    y 0.000000 1.724410 0.000000 
#    z 0.000000 0.000000 1.733230 
# 
# From -- ./inp_files/24689.got.cif
#   From: 2010.03.12/outbox.cif.g09.slc.cpg/sg62_13_cif.got.tgz:24689.got - 2010.04.10 19:12:36.
