data_PCOD8252872
_publ_section_title
;
Structure prediction by ZEFSAII (Michael W. Deem and Ramdas Pophale) SiO2 
 PCOD8252872
Probable space group: P N M A
;
_chemical_formula_sum "Si O2"
_cell_formula_units_Z 48
_cell_length_a 16.314892
_cell_length_b 8.778429
_cell_length_c 18.044783
_cell_angle_alpha 90.000000
_cell_angle_beta 90.000000
_cell_angle_gamma 90.000000
_cell_volume 2584.357961
_symmetry_space_group_name_H-M "P N M A"
_symmetry_group_IT_number 62
_symmetry_cell_setting 'orthorhombic'
loop_
_space_group_symop_operation_xyz
x,y,z
1/2-x,-y,1/2+z
1/2+x,1/2-y,1/2-z
-x,1/2+y,-z
-x,-y,-z
1/2+x,y,1/2-z
1/2-x,1/2+y,1/2+z
x,1/2-y,z
loop_
_atom_site_type_symbol
_atom_site_label
_atom_site_fract_x
_atom_site_fract_y
_atom_site_fract_z
Si Si1 0.852058 0.929509 0.171203
Si Si2 0.503784 0.574283 0.579927
Si Si3 0.321693 0.922684 0.582214
Si Si4 0.583031 0.430241 0.970146
Si Si5 0.336645 0.071807 0.169399
Si Si6 0.753932 0.927112 0.553138
O O1 0.851632 0.750000 0.174120
O O2 0.934211 0.984876 0.131566
O O3 0.852773 0.993266 0.253272
O O4 0.770858 0.985239 0.127909
O O5 0.500000 0.500000 0.500000
O O6 0.531244 0.750000 0.574051
O O7 0.412778 0.559219 0.615363
O O8 0.306916 0.750000 0.553823
O O9 0.257088 0.963646 0.646324
O O10 0.310503 0.032341 0.511630
O O11 0.575549 0.250000 0.961554
O O12 0.601284 0.501976 0.890369
O O13 0.500000 0.500000 0.000000
O O14 0.654942 0.474952 0.027870
O O15 0.354430 0.250000 0.176313
O O16 0.747946 0.750000 0.570349
#
# Coordination Sequence:
#
# PCOD8252872 Si02
#       6
#     8   8   8   8   8   8
#     4  12  24  38  56  84 120 157 194 239 292 346
#     4  11  21  35  58  89 119 153 191 235 286 345
#     4   9  19  36  59  84 111 146 188 231 283 344
#     4  10  21  39  63  90 116 151 197 242 290 346
#     4  10  21  40  62  84 114 153 192 242 296 343
#     4  10  20  35  59  85 112 149 191 235 284 342
#
# _framework density 18.573277999999998
#
# number of rings (size 3 to 8) (size 9 to 14) (size 15 to 20)
#    0.000    1.667    1.667    3.500    0.000    3.333 
#    3.000    0.000    0.000    0.000    0.000    0.000 
#    0.000    0.000    0.000    0.000    0.000    0.000 
#
# Total GULP energy -595327.881371 kJ/mol
# GULP energy per Si atom -12402.664195 kJ/mol
# Density = 1.853100 g / cm^3
# Si number density = 18.573278 Si / 1000 Ang^3
#
#
#
# Elastic Constant Matrix: (Units=GPa)
#
#
# Indices 1 2 3 4 5 6 
#
# 1 119.1993 50.3199 78.4612 0.0000 0.0000 0.0000
# 2 50.3199 120.6251 80.3669 0.0000 0.0000 0.0000
# 3 78.4612 80.3669 154.8332 0.0000 0.0000 0.0000
# 4 0.0000 0.0000 0.0000 36.8824 0.0000 0.0000
# 5 0.0000 0.0000 0.0000 0.0000 22.1261 0.0000
# 6 0.0000 0.0000 0.0000 0.0000 0.0000 28.2334
#
#
#
# Elastic Compliance Matrix: (Units=1/GPa)
#
#
# Indices 1 2 3 4 5 6 
#
# 1 0.012776 -0.001553 -0.005668 0.000000 0.000000 0.000000
# 2 -0.001553 0.012861 -0.005889 0.000000 0.000000 0.000000
# 3 -0.005668 -0.005889 0.012387 0.000000 0.000000 0.000000
# 4 0.000000 0.000000 0.000000 0.027113 0.000000 0.000000
# 5 0.000000 0.000000 0.000000 0.000000 0.045195 0.000000
# 6 0.000000 0.000000 0.000000 0.000000 0.000000 0.035419
#
#
# Mechanical properties :
#
#
# Convention : Reuss Voigt Hill
#
# Bulk Modulus (GPa) = 84.71072 90.32819 87.51946
# Shear Modulus (GPa) = 28.42411 29.81567 29.11989
#
# Velocity S-wave (km/s) = 3.91625 4.01097 3.96389
# Velocity P-wave (km/s) = 8.13371 8.37791 8.25672
#
# Compressibility (1/GPa) = 0.01180488
#
# Stress axis : x y z
#
# Youngs Moduli (GPa) = 78.27284 77.75152 80.72809
#
# Poissons Ratio (x) = 0.12077 0.45755
# Poissons Ratio (y) = 0.12158 0.47538
# Poissons Ratio (z) = 0.44364 0.45785
#
# Static dielectric constant tensor:
#      x y z
#    x 3.664050 0.000000 0.000000 
#    y 0.000000 3.606780 0.000000 
#    z 0.000000 0.000000 3.308870 
# 
# 
# High freq. dielectric constant tensor:
#      x y z
#    x 1.728860 0.000000 0.000000 
#    y 0.000000 1.737440 0.000000 
#    z 0.000000 0.000000 1.706890 
# 
# From -- ./inp_files/23745.got.cif
#   From: 2010.03.12/outbox.cif.g09.slc.cpg/sg62_12_cif.got.tgz:23745.got - 2010.04.10 19:12:36.
