data_PCOD8252271
_publ_section_title
;
Structure prediction by ZEFSAII (Michael W. Deem and Ramdas Pophale) SiO2 
 PCOD8252271
Probable space group: P N M A
;
_chemical_formula_sum "Si O2"
_cell_formula_units_Z 64
_cell_length_a 10.951270
_cell_length_b 8.972663
_cell_length_c 33.096501
_cell_angle_alpha 90.000000
_cell_angle_beta 90.000000
_cell_angle_gamma 90.000000
_cell_volume 3252.130206
_symmetry_space_group_name_H-M "P N M A"
_symmetry_group_IT_number 62
_symmetry_cell_setting 'orthorhombic'
loop_
_space_group_symop_operation_xyz
x,y,z
1/2-x,-y,1/2+z
1/2+x,1/2-y,1/2-z
-x,1/2+y,-z
-x,-y,-z
1/2+x,y,1/2-z
1/2-x,1/2+y,1/2+z
x,1/2-y,z
loop_
_atom_site_type_symbol
_atom_site_label
_atom_site_fract_x
_atom_site_fract_y
_atom_site_fract_z
Si Si1 0.922063 0.927554 0.218081
Si Si2 0.120437 0.081149 0.872894
Si Si3 0.571347 0.075775 0.421958
Si Si4 0.753139 0.921765 0.363880
Si Si5 0.069937 0.422698 0.569508
Si Si6 0.215040 0.573166 0.012524
Si Si7 0.695763 0.579634 0.063390
Si Si8 0.700185 0.924858 0.273150
O O1 0.921981 0.750000 0.221040
O O2 0.058820 0.985825 0.232041
O O3 0.895307 0.981170 0.172344
O O4 0.805900 0.992410 0.243611
O O5 0.067931 0.250000 0.874273
O O6 0.258821 0.076346 0.889799
O O7 0.058512 0.975547 0.905792
O O8 0.574054 0.250000 0.430152
O O9 0.662502 0.031345 0.386311
O O10 0.598171 0.993274 0.464261
O O11 0.710754 0.750000 0.370099
O O12 0.885756 0.947039 0.384116
O O13 0.752556 0.964604 0.317136
O O14 0.053873 0.250000 0.560724
O O15 0.166423 0.486993 0.537241
O O16 0.938015 0.497503 0.563469
O O17 0.204239 0.750000 0.012772
O O18 0.219335 0.514141 0.966988
O O19 0.694393 0.750000 0.047938
O O20 0.693615 0.750000 0.265798
#
# Coordination Sequence:
#
# PCOD8252271 Si02
#       8
#     8   8   8   8   8   8   8   8
#     4   9  17  29  48  78 109 139 173 216 266 315
#     4  10  20  35  53  73 106 144 175 216 270 317
#     4  11  21  34  55  78 101 134 182 225 260 313
#     4   9  16  31  54  78 106 140 173 212 265 317
#     4   8  16  30  50  76 104 137 173 209 260 319
#     4  10  20  35  55  77 105 139 174 218 272 321
#     4  10  20  33  50  75 106 139 177 220 263 316
#     4   9  16  27  49  79 110 137 173 219 263 314
#
# _framework density 19.679409
#
# number of rings (size 3 to 8) (size 9 to 14) (size 15 to 20)
#    0.000    2.500    1.250    2.625    0.000    2.000 
#    0.000    7.500    0.000    0.750    0.000    0.000 
#    0.000    0.000    0.000    0.000    0.000    0.000 
#
# Total GULP energy -792873.831694 kJ/mol
# GULP energy per Si atom -12388.653620 kJ/mol
# Density = 1.963462 g / cm^3
# Si number density = 19.679409 Si / 1000 Ang^3
#
#
#
# Elastic Constant Matrix: (Units=GPa)
#
#
# Indices 1 2 3 4 5 6 
#
# 1 83.8635 16.9594 65.3145 0.0000 0.0000 0.0000
# 2 16.9594 52.6639 17.2909 0.0000 0.0000 0.0000
# 3 65.3145 17.2909 119.0658 0.0000 0.0000 0.0000
# 4 0.0000 0.0000 0.0000 18.3343 0.0000 0.0000
# 5 0.0000 0.0000 0.0000 0.0000 28.6378 0.0000
# 6 0.0000 0.0000 0.0000 0.0000 0.0000 11.1283
#
#
#
# Elastic Compliance Matrix: (Units=1/GPa)
#
#
# Indices 1 2 3 4 5 6 
#
# 1 0.021312 -0.003176 -0.011230 0.000000 0.000000 0.000000
# 2 -0.003176 0.020412 -0.001222 0.000000 0.000000 0.000000
# 3 -0.011230 -0.001222 0.014736 0.000000 0.000000 0.000000
# 4 0.000000 0.000000 0.000000 0.054543 0.000000 0.000000
# 5 0.000000 0.000000 0.000000 0.000000 0.034919 0.000000
# 6 0.000000 0.000000 0.000000 0.000000 0.000000 0.089861
#
#
# Mechanical properties :
#
#
# Convention : Reuss Voigt Hill
#
# Bulk Modulus (GPa) = 39.67446 50.52476 45.09961
# Shear Modulus (GPa) = 18.15266 22.02197 20.08731
#
# Velocity S-wave (km/s) = 3.04043 3.34883 3.19835
# Velocity P-wave (km/s) = 5.70349 6.37829 6.05030
#
# Compressibility (1/GPa) = 0.02520513
#
# Stress axis : x y z
#
# Youngs Moduli (GPa) = 46.92088 48.98989 67.85914
#
# Poissons Ratio (x) = 0.15560 0.76205
# Poissons Ratio (y) = 0.14903 0.08292
# Poissons Ratio (z) = 0.52692 0.05986
#
# Static dielectric constant tensor:
#      x y z
#    x 3.993570 0.000000 0.000000 
#    y 0.000000 3.055240 0.000000 
#    z 0.000000 0.000000 3.658710 
# 
# 
# High freq. dielectric constant tensor:
#      x y z
#    x 1.774720 0.000000 0.000000 
#    y 0.000000 1.711080 0.000000 
#    z 0.000000 0.000000 1.767250 
# 
# From -- ./inp_files/32495.got.cif
#   From: 2010.03.12/outbox.cif.g09.slc.cpg/sg62_17_cif.got.tgz:32495.got - 2010.04.10 19:12:36.
