data_PCOD8252320
_publ_section_title
;
Structure prediction by ZEFSAII (Michael W. Deem and Ramdas Pophale) SiO2 
 PCOD8252320
Probable space group: P N M A
;
_chemical_formula_sum "Si O2"
_cell_formula_units_Z 56
_cell_length_a 21.349798
_cell_length_b 9.180135
_cell_length_c 15.017121
_cell_angle_alpha 90.000000
_cell_angle_beta 90.000000
_cell_angle_gamma 90.000000
_cell_volume 2943.266032
_symmetry_space_group_name_H-M "P N M A"
_symmetry_group_IT_number 62
_symmetry_cell_setting 'orthorhombic'
loop_
_space_group_symop_operation_xyz
x,y,z
1/2-x,-y,1/2+z
1/2+x,1/2-y,1/2-z
-x,1/2+y,-z
-x,-y,-z
1/2+x,y,1/2-z
1/2-x,1/2+y,1/2+z
x,1/2-y,z
loop_
_atom_site_type_symbol
_atom_site_label
_atom_site_fract_x
_atom_site_fract_y
_atom_site_fract_z
Si Si1 0.277537 0.421569 0.577677
Si Si2 0.900721 0.579442 0.278561
Si Si3 0.188801 0.078020 0.425665
Si Si4 0.564622 0.419961 0.979082
Si Si5 0.517252 0.920398 0.640054
Si Si6 0.739863 0.422118 0.732612
Si Si7 0.416121 0.419249 0.542369
O O1 0.268527 0.250000 0.583246
O O2 0.225903 0.484009 0.510901
O O3 0.268325 0.484182 0.675918
O O4 0.344622 0.467778 0.540954
O O5 0.912494 0.750000 0.265173
O O6 0.906078 0.537510 0.382876
O O7 0.954436 0.491318 0.228008
O O8 0.833723 0.535466 0.235606
O O9 0.198636 0.250000 0.413313
O O10 0.115631 0.040815 0.443934
O O11 0.218487 0.999561 0.341340
O O12 0.549648 0.250000 0.980769
O O13 0.500000 0.500000 0.000000
O O14 0.509856 0.750000 0.656603
O O15 0.560130 0.958625 0.555585
O O16 0.449604 0.989173 0.619989
O O17 0.748046 0.250000 0.720858
O O18 0.425682 0.250000 0.564820
#
# Coordination Sequence:
#
# PCOD8252320 Si02
#       7
#     8   8   8   8   8   8   8
#     4   9  17  34  58  78 104 143 183 220 270 339
#     4  10  20  37  58  80 109 150 194 231 280 345
#     4  10  20  38  60  83 114 150 187 233 290 344
#     4  10  22  40  61  83 113 154 195 237 287 344
#     4  10  20  33  52  80 111 144 185 231 278 329
#     4  10  20  35  58  85 109 141 187 235 280 336
#     4   9  18  33  53  78 108 145 183 224 279 339
#
# _framework density 19.026482999999999
#
# number of rings (size 3 to 8) (size 9 to 14) (size 15 to 20)
#    0.000    2.286    1.429    1.286    0.000    4.571 
#    0.000    6.429    0.000    0.000    0.000    0.000 
#    0.000    0.000    0.000    0.000    0.000    0.000 
#
# Total GULP energy -694244.662057 kJ/mol
# GULP energy per Si atom -12397.226108 kJ/mol
# Density = 1.898318 g / cm^3
# Si number density = 19.026483 Si / 1000 Ang^3
#
#
#
# Elastic Constant Matrix: (Units=GPa)
#
#
# Indices 1 2 3 4 5 6 
#
# 1 116.3202 40.7278 50.3654 0.0000 0.0000 0.0000
# 2 40.7278 47.2567 33.7549 0.0000 0.0000 0.0000
# 3 50.3654 33.7549 106.2304 0.0000 0.0000 0.0000
# 4 0.0000 0.0000 0.0000 29.9616 0.0000 0.0000
# 5 0.0000 0.0000 0.0000 0.0000 35.3154 0.0000
# 6 0.0000 0.0000 0.0000 0.0000 0.0000 27.5371
#
#
#
# Elastic Compliance Matrix: (Units=1/GPa)
#
#
# Indices 1 2 3 4 5 6 
#
# 1 0.013209 -0.008940 -0.003422 0.000000 0.000000 0.000000
# 2 -0.008940 0.033424 -0.006382 0.000000 0.000000 0.000000
# 3 -0.003422 -0.006382 0.013064 0.000000 0.000000 0.000000
# 4 0.000000 0.000000 0.000000 0.033376 0.000000 0.000000
# 5 0.000000 0.000000 0.000000 0.000000 0.028316 0.000000
# 6 0.000000 0.000000 0.000000 0.000000 0.000000 0.036315
#
#
# Mechanical properties :
#
#
# Convention : Reuss Voigt Hill
#
# Bulk Modulus (GPa) = 45.02595 57.72261 51.37428
# Shear Modulus (GPa) = 24.67989 28.22677 26.45333
#
# Velocity S-wave (km/s) = 3.60548 3.85587 3.73278
# Velocity P-wave (km/s) = 6.40694 7.08714 6.75561
#
# Compressibility (1/GPa) = 0.02220941
#
# Stress axis : x y z
#
# Youngs Moduli (GPa) = 75.70801 29.91839 76.54724
#
# Poissons Ratio (x) = 0.26746 0.26193
# Poissons Ratio (y) = 0.67680 0.48854
# Poissons Ratio (z) = 0.25906 0.19095
#
# Static dielectric constant tensor:
#      x y z
#    x 3.600950 0.000000 0.000000 
#    y 0.000000 3.226140 0.000000 
#    z 0.000000 0.000000 3.585840 
# 
# 
# High freq. dielectric constant tensor:
#      x y z
#    x 1.749930 0.000000 0.000000 
#    y 0.000000 1.715700 0.000000 
#    z 0.000000 0.000000 1.743530 
# 
# From -- ./inp_files/20253.got.cif
#   From: 2010.03.12/outbox.cif.g09.slc.cpg/sg62_11_cif.got.tgz:20253.got - 2010.04.10 19:12:36.
