data_PCOD8252432
_publ_section_title
;
Structure prediction by ZEFSAII (Michael W. Deem and Ramdas Pophale) SiO2 
 PCOD8252432
Probable space group: P N M A
;
_chemical_formula_sum "Si O2"
_cell_formula_units_Z 40
_cell_length_a 10.360250
_cell_length_b 9.325734
_cell_length_c 21.139446
_cell_angle_alpha 90.000000
_cell_angle_beta 90.000000
_cell_angle_gamma 90.000000
_cell_volume 2042.428494
_symmetry_space_group_name_H-M "P N M A"
_symmetry_group_IT_number 62
_symmetry_cell_setting 'orthorhombic'
loop_
_space_group_symop_operation_xyz
x,y,z
1/2-x,-y,1/2+z
1/2+x,1/2-y,1/2-z
-x,1/2+y,-z
-x,-y,-z
1/2+x,y,1/2-z
1/2-x,1/2+y,1/2+z
x,1/2-y,z
loop_
_atom_site_type_symbol
_atom_site_label
_atom_site_fract_x
_atom_site_fract_y
_atom_site_fract_z
Si Si1 0.316580 0.581558 0.793602
Si Si2 0.343625 0.087897 0.049580
Si Si3 0.076124 0.583758 0.408821
Si Si4 0.972607 0.082592 0.195998
Si Si5 0.047200 0.415633 0.060720
O O1 0.339541 0.750000 0.805362
O O2 0.338096 0.498505 0.858353
O O3 0.167867 0.551672 0.773459
O O4 0.414814 0.518579 0.740887
O O5 0.389416 0.250000 0.064089
O O6 0.198745 0.062919 0.071552
O O7 0.432008 0.980442 0.089699
O O8 0.353451 0.056228 0.975173
O O9 0.067121 0.750000 0.390973
O O10 0.000799 0.250000 0.190097
O O11 0.980779 0.021000 0.124415
O O12 0.011730 0.250000 0.049300
O O13 0.000000 0.500000 0.000000
#
# Coordination Sequence:
#
# PCOD8252432 Si02
#       5
#     8   8   8   8   8
#     4  10  20  36  57  80 107 144 184 227 270 323
#     4   9  19  34  55  80 109 148 187 225 273 332
#     4  10  20  34  53  81 112 143 180 226 280 329
#     4   9  20  35  57  84 108 141 188 227 267 326
#     4  10  20  35  56  82 111 145 187 234 281 331
#
# _framework density 19.584529
#
# number of rings (size 3 to 8) (size 9 to 14) (size 15 to 20)
#    0.000    2.400    0.000    1.800    2.800    1.600 
#    0.000    2.000    0.000    0.000    0.000    0.000 
#    0.000    0.000    0.000    0.000    0.000    0.000 
#
# Total GULP energy -496006.461775 kJ/mol
# GULP energy per Si atom -12400.161544 kJ/mol
# Density = 1.953995 g / cm^3
# Si number density = 19.584529 Si / 1000 Ang^3
#
#
#
# Elastic Constant Matrix: (Units=GPa)
#
#
# Indices 1 2 3 4 5 6 
#
# 1 113.6734 35.8456 57.7775 0.0000 0.0000 0.0000
# 2 35.8456 58.6528 30.8614 0.0000 0.0000 0.0000
# 3 57.7775 30.8614 83.9629 0.0000 0.0000 0.0000
# 4 0.0000 0.0000 0.0000 28.4489 0.0000 0.0000
# 5 0.0000 0.0000 0.0000 0.0000 35.1914 0.0000
# 6 0.0000 0.0000 0.0000 0.0000 0.0000 20.4918
#
#
#
# Elastic Compliance Matrix: (Units=1/GPa)
#
#
# Indices 1 2 3 4 5 6 
#
# 1 0.014408 -0.004449 -0.008280 0.000000 0.000000 0.000000
# 2 -0.004449 0.022511 -0.005213 0.000000 0.000000 0.000000
# 3 -0.008280 -0.005213 0.019523 0.000000 0.000000 0.000000
# 4 0.000000 0.000000 0.000000 0.035151 0.000000 0.000000
# 5 0.000000 0.000000 0.000000 0.000000 0.028416 0.000000
# 6 0.000000 0.000000 0.000000 0.000000 0.000000 0.048800
#
#
# Mechanical properties :
#
#
# Convention : Reuss Voigt Hill
#
# Bulk Modulus (GPa) = 48.63716 56.13977 52.38847
# Shear Modulus (GPa) = 23.63550 25.61339 24.62445
#
# Velocity S-wave (km/s) = 3.47774 3.62033 3.54975
# Velocity P-wave (km/s) = 6.40426 6.79730 6.60371
#
# Compressibility (1/GPa) = 0.02056041
#
# Stress axis : x y z
#
# Youngs Moduli (GPa) = 69.40372 44.42201 51.22068
#
# Poissons Ratio (x) = 0.19764 0.42408
# Poissons Ratio (y) = 0.30879 0.26699
# Poissons Ratio (z) = 0.57463 0.23155
#
# Static dielectric constant tensor:
#      x y z
#    x 3.679390 0.000000 0.000000 
#    y 0.000000 3.380310 0.000000 
#    z 0.000000 0.000000 3.595540 
# 
# 
# High freq. dielectric constant tensor:
#      x y z
#    x 1.773880 0.000000 0.000000 
#    y 0.000000 1.731900 0.000000 
#    z 0.000000 0.000000 1.763660 
# 
# From -- ./inp_files/22790.got.cif
#   From: 2010.03.12/outbox.cif.g09.slc.cpg/sg62_12_cif.got.tgz:22790.got - 2010.04.10 19:12:36.
