data_PCOD8252507
_publ_section_title
;
Structure prediction by ZEFSAII (Michael W. Deem and Ramdas Pophale) SiO2 
 PCOD8252507
Probable space group: P N M A
;
_chemical_formula_sum "Si O2"
_cell_formula_units_Z 64
_cell_length_a 28.977681
_cell_length_b 9.299676
_cell_length_c 12.712990
_cell_angle_alpha 90.000000
_cell_angle_beta 90.000000
_cell_angle_gamma 90.000000
_cell_volume 3425.935250
_symmetry_space_group_name_H-M "P N M A"
_symmetry_group_IT_number 62
_symmetry_cell_setting 'orthorhombic'
loop_
_space_group_symop_operation_xyz
x,y,z
1/2-x,-y,1/2+z
1/2+x,1/2-y,1/2-z
-x,1/2+y,-z
-x,-y,-z
1/2+x,y,1/2-z
1/2-x,1/2+y,1/2+z
x,1/2-y,z
loop_
_atom_site_type_symbol
_atom_site_label
_atom_site_fract_x
_atom_site_fract_y
_atom_site_fract_z
Si Si1 0.414259 0.917373 0.390985
Si Si2 0.201270 0.584942 0.605758
Si Si3 0.169168 0.592308 0.832081
Si Si4 0.207116 0.916342 0.055592
Si Si5 0.111076 0.416693 0.542447
Si Si6 0.382971 0.920571 0.615698
Si Si7 0.563189 0.083915 0.177160
Si Si8 0.029159 0.082109 0.699593
O O1 0.406841 0.750000 0.387565
O O2 0.413706 0.968581 0.513060
O O3 0.459567 0.958510 0.322512
O O4 0.371357 0.978135 0.326438
O O5 0.205586 0.750000 0.566406
O O6 0.201182 0.577212 0.731327
O O7 0.244826 0.492068 0.574751
O O8 0.155196 0.516862 0.557649
O O9 0.145880 0.750000 0.837564
O O10 0.201534 0.567554 0.931388
O O11 0.208171 0.750000 0.092145
O O12 0.165685 0.997213 0.115834
O O13 0.124560 0.250000 0.559367
O O14 0.094566 0.444441 0.423757
O O15 0.071267 0.463408 0.623962
O O16 0.373400 0.750000 0.615911
O O17 0.410311 0.970880 0.718820
O O18 0.550438 0.250000 0.189459
O O19 0.515722 0.000642 0.162554
O O20 0.019035 0.250000 0.687299
#
# Coordination Sequence:
#
# PCOD8252507 Si02
#       8
#     8   8   8   8   8   8   8   8
#     4   9  17  32  56  80 105 138 178 225 271 314
#     4  11  22  36  57  84 109 139 181 227 274 326
#     4   9  19  35  54  77 105 137 175 221 269 318
#     4  10  21  37  57  81 109 143 180 221 274 330
#     4  10  21  38  56  78 110 146 185 228 275 324
#     4   9  19  37  56  78 110 146 183 225 274 326
#     4  10  22  37  55  79 113 153 185 221 274 331
#     4  10  20  34  55  82 109 142 186 233 277 321
#
# _framework density 18.681031000000001
#
# number of rings (size 3 to 8) (size 9 to 14) (size 15 to 20)
#    0.000    2.250    1.250    1.125    0.000    4.500 
#    0.000    5.000    0.000    0.000    0.000    0.000 
#    0.000    0.000    0.000    0.000    0.000    0.000 
#
# Total GULP energy -793456.664910 kJ/mol
# GULP energy per Si atom -12397.760389 kJ/mol
# Density = 1.863851 g / cm^3
# Si number density = 18.681031 Si / 1000 Ang^3
#
#
#
# Elastic Constant Matrix: (Units=GPa)
#
#
# Indices 1 2 3 4 5 6 
#
# 1 76.5414 35.6297 34.2098 0.0000 0.0000 0.0000
# 2 35.6297 49.1449 30.8796 0.0000 0.0000 0.0000
# 3 34.2098 30.8796 90.7336 0.0000 0.0000 0.0000
# 4 0.0000 0.0000 0.0000 22.8436 0.0000 0.0000
# 5 0.0000 0.0000 0.0000 0.0000 20.0628 0.0000
# 6 0.0000 0.0000 0.0000 0.0000 0.0000 30.5871
#
#
#
# Elastic Compliance Matrix: (Units=1/GPa)
#
#
# Indices 1 2 3 4 5 6 
#
# 1 0.020513 -0.012735 -0.003400 0.000000 0.000000 0.000000
# 2 -0.012735 0.033790 -0.006698 0.000000 0.000000 0.000000
# 3 -0.003400 -0.006698 0.014583 0.000000 0.000000 0.000000
# 4 0.000000 0.000000 0.000000 0.043776 0.000000 0.000000
# 5 0.000000 0.000000 0.000000 0.000000 0.049843 0.000000
# 6 0.000000 0.000000 0.000000 0.000000 0.000000 0.032693
#
#
# Mechanical properties :
#
#
# Convention : Reuss Voigt Hill
#
# Bulk Modulus (GPa) = 43.06872 46.42866 44.74869
# Shear Modulus (GPa) = 20.11235 22.41208 21.26222
#
# Velocity S-wave (km/s) = 3.28475 3.46746 3.37734
# Velocity P-wave (km/s) = 6.12298 6.39831 6.26216
#
# Compressibility (1/GPa) = 0.02321871
#
# Stress axis : x y z
#
# Youngs Moduli (GPa) = 48.75066 29.59490 68.57456
#
# Poissons Ratio (x) = 0.37690 0.23314
# Poissons Ratio (y) = 0.62085 0.45932
# Poissons Ratio (z) = 0.16574 0.19823
#
# Static dielectric constant tensor:
#      x y z
#    x 3.270490 0.000000 0.000000 
#    y 0.000000 3.480570 0.000000 
#    z 0.000000 0.000000 3.796150 
# 
# 
# High freq. dielectric constant tensor:
#      x y z
#    x 1.714150 0.000000 0.000000 
#    y 0.000000 1.726780 0.000000 
#    z 0.000000 0.000000 1.737300 
# 
# From -- ./inp_files/15907.got.cif
#   From: 2010.03.12/outbox.cif.g09.slc.cpg/sg62_8_cif.got.tgz:15907.got - 2010.04.10 19:12:36.
