data_PCOD8252820
_publ_section_title
;
Structure prediction by ZEFSAII (Michael W. Deem and Ramdas Pophale) SiO2 
 PCOD8252820
Probable space group: P N M A
;
_chemical_formula_sum "Si O2"
_cell_formula_units_Z 48
_cell_length_a 23.417851
_cell_length_b 9.304716
_cell_length_c 11.452415
_cell_angle_alpha 90.000000
_cell_angle_beta 90.000000
_cell_angle_gamma 90.000000
_cell_volume 2495.440605
_symmetry_space_group_name_H-M "P N M A"
_symmetry_group_IT_number 62
_symmetry_cell_setting 'orthorhombic'
loop_
_space_group_symop_operation_xyz
x,y,z
1/2-x,-y,1/2+z
1/2+x,1/2-y,1/2-z
-x,1/2+y,-z
-x,-y,-z
1/2+x,y,1/2-z
1/2-x,1/2+y,1/2+z
x,1/2-y,z
loop_
_atom_site_type_symbol
_atom_site_label
_atom_site_fract_x
_atom_site_fract_y
_atom_site_fract_z
Si Si1 0.853074 0.917777 0.618650
Si Si2 0.375021 0.085129 0.242546
Si Si3 0.559968 0.580469 0.524701
Si Si4 0.943229 0.414615 0.493833
Si Si5 0.786262 0.912156 0.391133
Si Si6 0.341041 0.086712 0.657653
O O1 0.868346 0.750000 0.621641
O O2 0.808348 0.957823 0.518174
O O3 0.908135 0.014001 0.597408
O O4 0.830850 0.969698 0.742566
O O5 0.358322 0.250000 0.265017
O O6 0.409826 0.026080 0.355216
O O7 0.315342 0.004254 0.213706
O O8 0.416025 0.064559 0.132681
O O9 0.500000 0.500000 0.500000
O O10 0.546835 0.750000 0.532390
O O11 0.605124 0.544868 0.422557
O O12 0.953626 0.250000 0.525007
O O13 0.000000 0.500000 0.500000
O O14 0.804059 0.750000 0.360949
O O15 0.718671 0.927703 0.409880
O O16 0.348534 0.250000 0.704941
#
# Coordination Sequence:
#
# PCOD8252820 Si02
#       6
#     8   8   8   8   8   8
#     4  10  21  37  58  85 114 148 193 238 285 349
#     4   9  20  38  60  84 114 150 190 236 287 345
#     4  10  23  41  60  84 118 158 198 240 291 349
#     4  10  20  35  57  85 115 148 188 237 289 341
#     4   9  20  38  60  87 116 147 188 237 293 349
#     4  10  22  39  59  85 118 153 188 239 297 346
#
# _framework density 19.235081000000001
#
# number of rings (size 3 to 8) (size 9 to 14) (size 15 to 20)
#    0.000    2.333    0.000    1.000    4.667    3.333 
#    0.000    0.000    0.000    0.000    0.000    0.000 
#    0.000    0.000    0.000    0.000    0.000    0.000 
#
# Total GULP energy -594941.024402 kJ/mol
# GULP energy per Si atom -12394.604675 kJ/mol
# Density = 1.919130 g / cm^3
# Si number density = 19.235081 Si / 1000 Ang^3
#
#
#
# Elastic Constant Matrix: (Units=GPa)
#
#
# Indices 1 2 3 4 5 6 
#
# 1 132.8784 54.2122 35.8431 0.0000 0.0000 0.0000
# 2 54.2122 92.0639 44.6972 0.0000 0.0000 0.0000
# 3 35.8431 44.6972 83.0587 0.0000 0.0000 0.0000
# 4 0.0000 0.0000 0.0000 30.5595 0.0000 0.0000
# 5 0.0000 0.0000 0.0000 0.0000 25.1167 0.0000
# 6 0.0000 0.0000 0.0000 0.0000 0.0000 36.0263
#
#
#
# Elastic Compliance Matrix: (Units=1/GPa)
#
#
# Indices 1 2 3 4 5 6 
#
# 1 0.010053 -0.005162 -0.001560 0.000000 0.000000 0.000000
# 2 -0.005162 0.017354 -0.007111 0.000000 0.000000 0.000000
# 3 -0.001560 -0.007111 0.016540 0.000000 0.000000 0.000000
# 4 0.000000 0.000000 0.000000 0.032723 0.000000 0.000000
# 5 0.000000 0.000000 0.000000 0.000000 0.039814 0.000000
# 6 0.000000 0.000000 0.000000 0.000000 0.000000 0.027758
#
#
# Mechanical properties :
#
#
# Convention : Reuss Voigt Hill
#
# Bulk Modulus (GPa) = 61.42695 64.16734 62.79714
# Shear Modulus (GPa) = 28.19519 29.89040 29.04280
#
# Velocity S-wave (km/s) = 3.83276 3.94630 3.88994
# Velocity P-wave (km/s) = 7.18268 7.36181 7.27280
#
# Compressibility (1/GPa) = 0.01627950
#
# Stress axis : x y z
#
# Youngs Moduli (GPa) = 99.47739 57.62261 60.45978
#
# Poissons Ratio (x) = 0.29745 0.09433
# Poissons Ratio (y) = 0.51350 0.42996
# Poissons Ratio (z) = 0.15520 0.40978
#
# Static dielectric constant tensor:
#      x y z
#    x 3.461980 0.000000 0.000000 
#    y 0.000000 3.610600 0.000000 
#    z 0.000000 0.000000 3.365560 
# 
# 
# High freq. dielectric constant tensor:
#      x y z
#    x 1.755530 0.000000 0.000000 
#    y 0.000000 1.747380 0.000000 
#    z 0.000000 0.000000 1.747080 
# 
# From -- ./inp_files/15094.got.cif
#   From: 2010.03.12/outbox.cif.g09.slc.cpg/sg62_8_cif.got.tgz:15094.got - 2010.04.10 19:12:36.
