data_PCOD8252202
_publ_section_title
;
Structure prediction by ZEFSAII (Michael W. Deem and Ramdas Pophale) SiO2 
 PCOD8252202
Probable space group: P N M A
;
_chemical_formula_sum "Si O2"
_cell_formula_units_Z 64
_cell_length_a 9.267489
_cell_length_b 24.577182
_cell_length_c 16.643715
_cell_angle_alpha 90.000000
_cell_angle_beta 90.000000
_cell_angle_gamma 90.000000
_cell_volume 3790.918391
_symmetry_space_group_name_H-M "P N M A"
_symmetry_group_IT_number 62
_symmetry_cell_setting 'orthorhombic'
loop_
_space_group_symop_operation_xyz
x,y,z
1/2-x,-y,1/2+z
1/2+x,1/2-y,1/2-z
-x,1/2+y,-z
-x,-y,-z
1/2+x,y,1/2-z
1/2-x,1/2+y,1/2+z
x,1/2-y,z
loop_
_atom_site_type_symbol
_atom_site_label
_atom_site_fract_x
_atom_site_fract_y
_atom_site_fract_z
Si Si1 0.392044 0.188559 0.858913
Si Si2 0.082129 0.601393 0.488893
Si Si3 0.780582 0.517913 0.091428
Si Si4 0.093895 0.187440 0.780263
Si Si5 0.290941 0.554569 0.044433
Si Si6 0.650346 0.951661 0.855768
Si Si7 0.040305 0.582941 0.150402
Si Si8 0.885193 0.985672 0.741422
O O1 0.378769 0.250000 0.887566
O O2 0.377271 0.156473 0.942402
O O3 0.263426 0.175073 0.794619
O O4 0.544006 0.177865 0.812543
O O5 0.144209 0.552527 0.436381
O O6 0.142130 0.599074 0.581037
O O7 0.909710 0.595021 0.491885
O O8 0.743277 0.493688 0.178100
O O9 0.923030 0.554272 0.093579
O O10 0.805176 0.469197 0.028427
O O11 0.055513 0.250000 0.804915
O O12 0.004875 0.144545 0.832597
O O13 0.370284 0.506688 0.093487
O O14 0.189363 0.588688 0.103145
O O15 0.808238 0.951993 0.813825
O O16 0.517629 0.949854 0.792589
O O17 0.060182 0.545240 0.229567
#
# Coordination Sequence:
#
# PCOD8252202 Si02
#       8
#     8   8   8   8   8   8   8   8
#     4  10  22  37  55  75  99 134 174 215 252 296
#     4  11  19  35  52  70 103 135 169 205 255 297
#     4  11  18  33  47  69 104 135 167 205 244 305
#     4  10  22  37  51  73 102 132 176 216 246 288
#     4  10  21  31  48  71 102 136 171 200 251 300
#     4  10  20  32  47  72 101 135 163 203 245 303
#     4  11  22  30  49  72  99 139 170 205 251 293
#     4  11  19  30  47  73  99 130 168 203 244 299
#
# _framework density 16.882452000000001
#
# number of rings (size 3 to 8) (size 9 to 14) (size 15 to 20)
#    0.000    1.500    5.000    1.875    1.750    0.000 
#    0.000    0.000    0.000    0.000    0.000    0.875 
#    0.000    0.000    0.000    0.000    0.000    0.000 
#
# Total GULP energy -793302.942855 kJ/mol
# GULP energy per Si atom -12395.358482 kJ/mol
# Density = 1.684403 g / cm^3
# Si number density = 16.882452 Si / 1000 Ang^3
#
#
#
# Elastic Constant Matrix: (Units=GPa)
#
#
# Indices 1 2 3 4 5 6 
#
# 1 69.7151 25.4137 36.9514 0.0000 0.0000 0.0000
# 2 25.4137 58.8954 39.6746 0.0000 0.0000 0.0000
# 3 36.9514 39.6746 91.6176 0.0000 0.0000 0.0000
# 4 0.0000 0.0000 0.0000 24.6105 0.0000 0.0000
# 5 0.0000 0.0000 0.0000 0.0000 29.2181 0.0000
# 6 0.0000 0.0000 0.0000 0.0000 0.0000 16.7652
#
#
#
# Elastic Compliance Matrix: (Units=1/GPa)
#
#
# Indices 1 2 3 4 5 6 
#
# 1 0.018980 -0.004282 -0.005800 0.000000 0.000000 0.000000
# 2 -0.004282 0.024939 -0.009072 0.000000 0.000000 0.000000
# 3 -0.005800 -0.009072 0.017183 0.000000 0.000000 0.000000
# 4 0.000000 0.000000 0.000000 0.040633 0.000000 0.000000
# 5 0.000000 0.000000 0.000000 0.000000 0.034225 0.000000
# 6 0.000000 0.000000 0.000000 0.000000 0.000000 0.059647
#
#
# Mechanical properties :
#
#
# Convention : Reuss Voigt Hill
#
# Bulk Modulus (GPa) = 43.87696 47.14529 45.51113
# Shear Modulus (GPa) = 20.70266 21.99797 21.35032
#
# Velocity S-wave (km/s) = 3.50563 3.61364 3.56004
# Velocity P-wave (km/s) = 6.51399 6.73776 6.62682
#
# Compressibility (1/GPa) = 0.02279100
#
# Stress axis : x y z
#
# Youngs Moduli (GPa) = 52.68812 40.09826 58.19650
#
# Poissons Ratio (x) = 0.17172 0.33757
# Poissons Ratio (y) = 0.22563 0.52798
# Poissons Ratio (z) = 0.30561 0.36379
#
# Static dielectric constant tensor:
#      x y z
#    x 3.242810 0.000000 0.000000 
#    y 0.000000 2.881460 0.000000 
#    z 0.000000 0.000000 3.252060 
# 
# 
# High freq. dielectric constant tensor:
#      x y z
#    x 1.665540 0.000000 0.000000 
#    y 0.000000 1.603060 0.000000 
#    z 0.000000 0.000000 1.644990 
# 
# From -- ./inp_files/22631.got.cif
#   From: 2010.03.12/outbox.cif.g09.slc.cpg/sg62_12_cif.got.tgz:22631.got - 2010.04.10 19:12:36.
