data_PCOD8252244
_publ_section_title
;
Structure prediction by ZEFSAII (Michael W. Deem and Ramdas Pophale) SiO2 
 PCOD8252244
Probable space group: P N M A
;
_chemical_formula_sum "Si O2"
_cell_formula_units_Z 40
_cell_length_a 10.176021
_cell_length_b 16.403349
_cell_length_c 12.389067
_cell_angle_alpha 90.000000
_cell_angle_beta 90.000000
_cell_angle_gamma 90.000000
_cell_volume 2067.993271
_symmetry_space_group_name_H-M "P N M A"
_symmetry_group_IT_number 62
_symmetry_cell_setting 'orthorhombic'
loop_
_space_group_symop_operation_xyz
x,y,z
1/2-x,-y,1/2+z
1/2+x,1/2-y,1/2-z
-x,1/2+y,-z
-x,-y,-z
1/2+x,y,1/2-z
1/2-x,1/2+y,1/2+z
x,1/2-y,z
loop_
_atom_site_type_symbol
_atom_site_label
_atom_site_fract_x
_atom_site_fract_y
_atom_site_fract_z
Si Si1 0.247122 0.656691 0.587202
Si Si2 0.454395 0.157559 0.472732
Si Si3 0.172744 0.941901 0.797190
Si Si4 0.982069 0.905935 0.194711
Si Si5 0.800413 0.099541 0.645346
O O1 0.202423 0.750000 0.605571
O O2 0.403140 0.650201 0.580721
O O3 0.199529 0.601112 0.684563
O O4 0.178403 0.622643 0.478940
O O5 0.420400 0.250000 0.503085
O O6 0.346500 0.126054 0.388629
O O7 0.443935 0.103636 0.580607
O O8 0.041190 0.997483 0.785546
O O9 0.291339 0.001486 0.835910
O O10 0.838510 0.860730 0.188296
O O11 0.074038 0.867505 0.287861
#
# Coordination Sequence:
#
# PCOD8252244 Si02
#       5
#     8   8   8   8   8
#     4  10  21  37  56  84 119 154 188 241 298 341
#     4  10  20  36  58  82 116 155 194 237 290 346
#     4  10  20  32  60  81 114 145 196 235 279 347
#     4   9  20  36  58  86 112 150 197 238 282 346
#     4   9  21  35  60  83 118 148 195 238 287 340
#
# _framework density 19.342424000000001
#
# number of rings (size 3 to 8) (size 9 to 14) (size 15 to 20)
#    1.200    1.200    0.000    2.400    2.800    1.600 
#    0.000    2.000    0.000    4.800    0.000    0.000 
#    0.000    0.000    0.000    0.000    0.000    0.000 
#
# Total GULP energy -495684.905688 kJ/mol
# GULP energy per Si atom -12392.122642 kJ/mol
# Density = 1.929840 g / cm^3
# Si number density = 19.342424 Si / 1000 Ang^3
#
#
#
# Elastic Constant Matrix: (Units=GPa)
#
#
# Indices 1 2 3 4 5 6 
#
# 1 34.3120 23.8729 23.7152 0.0000 0.0000 0.0000
# 2 23.8729 73.7309 61.2727 0.0000 0.0000 0.0000
# 3 23.7152 61.2727 115.5345 0.0000 0.0000 0.0000
# 4 0.0000 0.0000 0.0000 23.0932 0.0000 0.0000
# 5 0.0000 0.0000 0.0000 0.0000 33.3626 0.0000
# 6 0.0000 0.0000 0.0000 0.0000 0.0000 9.3660
#
#
#
# Elastic Compliance Matrix: (Units=1/GPa)
#
#
# Indices 1 2 3 4 5 6 
#
# 1 0.037951 -0.010396 -0.002277 0.000000 0.000000 0.000000
# 2 -0.010396 0.027099 -0.012238 0.000000 0.000000 0.000000
# 3 -0.002277 -0.012238 0.015613 0.000000 0.000000 0.000000
# 4 0.000000 0.000000 0.000000 0.043303 0.000000 0.000000
# 5 0.000000 0.000000 0.000000 0.000000 0.029974 0.000000
# 6 0.000000 0.000000 0.000000 0.000000 0.000000 0.106770
#
#
# Mechanical properties :
#
#
# Convention : Reuss Voigt Hill
#
# Bulk Modulus (GPa) = 32.42322 49.03323 40.72822
# Shear Modulus (GPa) = 15.58554 20.81211 18.19883
#
# Velocity S-wave (km/s) = 2.84169 3.28378 3.07070
# Velocity P-wave (km/s) = 5.25034 6.30735 5.80296
#
# Compressibility (1/GPa) = 0.03084210
#
# Stress axis : x y z
#
# Youngs Moduli (GPa) = 26.34979 36.90199 64.04968
#
# Poissons Ratio (x) = 0.38363 0.14581
# Poissons Ratio (y) = 0.27393 0.78382
# Poissons Ratio (z) = 0.05999 0.45159
#
# Static dielectric constant tensor:
#      x y z
#    x 3.277880 0.000000 0.000000 
#    y 0.000000 3.438060 0.000000 
#    z 0.000000 0.000000 3.388230 
# 
# 
# High freq. dielectric constant tensor:
#      x y z
#    x 1.726160 0.000000 0.000000 
#    y 0.000000 1.743780 0.000000 
#    z 0.000000 0.000000 1.754260 
# 
# From -- ./inp_files/5028.got.cif
#   From: 2010.03.12/outbox.cif.g09.slc.cpg/sg62_3_cif.got.tgz:5028.got - 2010.04.10 19:12:36.
