data_PCOD8252501
_publ_section_title
;
Structure prediction by ZEFSAII (Michael W. Deem and Ramdas Pophale) SiO2 
 PCOD8252501
Probable space group: P N M A
;
_chemical_formula_sum "Si O2"
_cell_formula_units_Z 56
_cell_length_a 21.290094
_cell_length_b 8.880136
_cell_length_c 15.175786
_cell_angle_alpha 90.000000
_cell_angle_beta 90.000000
_cell_angle_gamma 90.000000
_cell_volume 2869.117866
_symmetry_space_group_name_H-M "P N M A"
_symmetry_group_IT_number 62
_symmetry_cell_setting 'orthorhombic'
loop_
_space_group_symop_operation_xyz
x,y,z
1/2-x,-y,1/2+z
1/2+x,1/2-y,1/2-z
-x,1/2+y,-z
-x,-y,-z
1/2+x,y,1/2-z
1/2-x,1/2+y,1/2+z
x,1/2-y,z
loop_
_atom_site_type_symbol
_atom_site_label
_atom_site_fract_x
_atom_site_fract_y
_atom_site_fract_z
Si Si1 0.910560 0.578512 0.472723
Si Si2 0.944315 0.080274 0.951970
Si Si3 0.839330 0.072744 0.186871
Si Si4 0.012846 0.082803 0.369798
Si Si5 0.298853 0.425090 0.116152
Si Si6 0.028512 0.417023 0.792088
Si Si7 0.181642 0.074752 0.994188
O O1 0.924339 0.750000 0.439471
O O2 0.956464 0.450225 0.436660
O O3 0.841529 0.531223 0.444272
O O4 0.920318 0.573609 0.578961
O O5 0.933414 0.250000 0.986946
O O6 0.967370 0.077088 0.852538
O O7 0.882056 0.985659 0.964488
O O8 0.000000 0.000000 0.000000
O O9 0.836231 0.250000 0.174915
O O10 0.805456 0.026813 0.280013
O O11 0.912885 0.025037 0.185302
O O12 0.803999 0.001011 0.101636
O O13 0.003424 0.250000 0.329777
O O14 0.006438 0.957004 0.297138
O O15 0.317608 0.250000 0.107036
O O16 0.231244 0.456209 0.072620
O O17 0.057680 0.250000 0.788476
O O18 0.175030 0.250000 0.974302
#
# Coordination Sequence:
#
# PCOD8252501 Si02
#       7
#     8   8   8   8   8   8   8
#     4  10  20  34  57  86 117 156 201 249 296 352
#     4  11  23  39  62  90 120 154 196 250 308 362
#     4  11  22  39  65  91 117 157 204 248 301 363
#     4  10  20  34  54  85 121 157 197 244 300 354
#     4  10  23  42  63  87 121 163 205 252 305 365
#     4  11  22  36  59  90 120 153 197 246 297 358
#     4  11  24  43  64  89 122 160 202 253 308 365
#
# _framework density 19.518194000000001
#
# number of rings (size 3 to 8) (size 9 to 14) (size 15 to 20)
#    0.000    1.429    2.857    2.571    0.000    5.143 
#    2.571    0.000    0.000    0.000    0.000    0.000 
#    0.000    0.000    0.000    0.000    0.000    0.000 
#
# Total GULP energy -693810.026577 kJ/mol
# GULP energy per Si atom -12389.464760 kJ/mol
# Density = 1.947377 g / cm^3
# Si number density = 19.518194 Si / 1000 Ang^3
#
#
#
# Elastic Constant Matrix: (Units=GPa)
#
#
# Indices 1 2 3 4 5 6 
#
# 1 98.2783 46.2921 52.5971 0.0000 0.0000 0.0000
# 2 46.2921 72.1463 41.1155 0.0000 0.0000 0.0000
# 3 52.5971 41.1155 106.3476 0.0000 0.0000 0.0000
# 4 0.0000 0.0000 0.0000 30.6671 0.0000 0.0000
# 5 0.0000 0.0000 0.0000 0.0000 30.6590 0.0000
# 6 0.0000 0.0000 0.0000 0.0000 0.0000 28.4168
#
#
#
# Elastic Compliance Matrix: (Units=1/GPa)
#
#
# Indices 1 2 3 4 5 6 
#
# 1 0.016587 -0.007654 -0.005244 0.000000 0.000000 0.000000
# 2 -0.007654 0.021310 -0.004453 0.000000 0.000000 0.000000
# 3 -0.005244 -0.004453 0.013718 0.000000 0.000000 0.000000
# 4 0.000000 0.000000 0.000000 0.032608 0.000000 0.000000
# 5 0.000000 0.000000 0.000000 0.000000 0.032617 0.000000
# 6 0.000000 0.000000 0.000000 0.000000 0.000000 0.035190
#
#
# Mechanical properties :
#
#
# Convention : Reuss Voigt Hill
#
# Bulk Modulus (GPa) = 59.12947 61.86462 60.49704
# Shear Modulus (GPa) = 25.99128 27.06642 26.52885
#
# Velocity S-wave (km/s) = 3.65313 3.72792 3.69071
# Velocity P-wave (km/s) = 6.93932 7.09186 7.01600
#
# Compressibility (1/GPa) = 0.01691204
#
# Stress axis : x y z
#
# Youngs Moduli (GPa) = 60.28673 46.92672 72.89428
#
# Poissons Ratio (x) = 0.35920 0.38229
# Poissons Ratio (y) = 0.46146 0.32460
# Poissons Ratio (z) = 0.31617 0.20896
#
# Static dielectric constant tensor:
#      x y z
#    x 3.185140 0.000000 0.000000 
#    y 0.000000 3.767420 0.000000 
#    z 0.000000 0.000000 3.816190 
# 
# 
# High freq. dielectric constant tensor:
#      x y z
#    x 1.735560 0.000000 0.000000 
#    y 0.000000 1.776590 0.000000 
#    z 0.000000 0.000000 1.769690 
# 
# From -- ./inp_files/20421.got.cif
#   From: 2010.03.12/outbox.cif.g09.slc.cpg/sg62_11_cif.got.tgz:20421.got - 2010.04.10 19:12:36.
