data_PCOD8252176
_publ_section_title
;
Structure prediction by ZEFSAII (Michael W. Deem and Ramdas Pophale) SiO2 
 PCOD8252176
Probable space group: P N M A
;
_chemical_formula_sum "Si O2"
_cell_formula_units_Z 64
_cell_length_a 15.863168
_cell_length_b 14.308161
_cell_length_c 16.421846
_cell_angle_alpha 90.000000
_cell_angle_beta 90.000000
_cell_angle_gamma 90.000000
_cell_volume 3727.311739
_symmetry_space_group_name_H-M "P N M A"
_symmetry_group_IT_number 62
_symmetry_cell_setting 'orthorhombic'
loop_
_space_group_symop_operation_xyz
x,y,z
1/2-x,-y,1/2+z
1/2+x,1/2-y,1/2-z
-x,1/2+y,-z
-x,-y,-z
1/2+x,y,1/2-z
1/2-x,1/2+y,1/2+z
x,1/2-y,z
loop_
_atom_site_type_symbol
_atom_site_label
_atom_site_fract_x
_atom_site_fract_y
_atom_site_fract_z
Si Si1 0.284919 0.355176 0.829489
Si Si2 0.988648 0.359191 0.424861
Si Si3 0.180887 0.852481 0.980297
Si Si4 0.818882 0.025476 0.162234
Si Si5 0.033714 0.857931 0.387698
Si Si6 0.100734 0.489759 0.672505
Si Si7 0.171871 0.353437 0.370267
Si Si8 0.245286 0.642959 0.146733
O O1 0.258095 0.250000 0.851123
O O2 0.206926 0.419076 0.858562
O O3 0.368641 0.384572 0.877251
O O4 0.301477 0.367256 0.732894
O O5 0.969520 0.250000 0.409886
O O6 0.993267 0.381029 0.520394
O O7 0.914694 0.420160 0.384473
O O8 0.077285 0.390847 0.384328
O O9 0.138948 0.750000 0.967038
O O10 0.137509 0.926695 0.917733
O O11 0.280936 0.847776 0.957912
O O12 0.177417 0.881328 0.075407
O O13 0.730389 0.079171 0.186267
O O14 0.884112 0.028527 0.236434
O O15 0.018728 0.750000 0.364732
O O16 0.979586 0.921314 0.326615
O O17 0.179338 0.430736 0.639801
O O18 0.168262 0.250000 0.330253
O O19 0.278355 0.750000 0.135147
#
# Coordination Sequence:
#
# PCOD8252176 Si02
#       8
#     8   8   8   8   8   8   8   8
#     4   9  18  30  44  64  95 127 156 192 230 280
#     4  10  20  30  45  71 100 130 157 184 232 291
#     4   8  15  28  49  67  85 113 154 199 229 265
#     4   9  18  29  44  68  92 121 156 190 238 274
#     4  10  20  32  46  68  97 127 157 189 235 286
#     4  11  20  28  45  70  98 125 151 196 237 277
#     4   8  15  29  46  65  89 121 152 186 226 274
#     4   9  17  30  47  69  90 120 165 199 229 272
#
# _framework density 17.170552000000001
#
# number of rings (size 3 to 8) (size 9 to 14) (size 15 to 20)
#    0.750    2.000    0.000    2.250    1.750    3.500 
#    0.000    0.000    0.000    0.750    0.000    0.000 
#    0.000    0.000    0.000    0.000    0.000    0.000 
#
# Total GULP energy -792959.050641 kJ/mol
# GULP energy per Si atom -12389.985166 kJ/mol
# Density = 1.713147 g / cm^3
# Si number density = 17.170552 Si / 1000 Ang^3
#
#
#
# Elastic Constant Matrix: (Units=GPa)
#
#
# Indices 1 2 3 4 5 6 
#
# 1 31.0633 16.2787 -2.2593 0.0000 0.0000 0.0000
# 2 16.2787 66.6884 23.6507 0.0000 0.0000 0.0000
# 3 -2.2593 23.6507 29.1991 0.0000 0.0000 0.0000
# 4 0.0000 0.0000 0.0000 27.9229 0.0000 0.0000
# 5 0.0000 0.0000 0.0000 0.0000 26.9208 0.0000
# 6 0.0000 0.0000 0.0000 0.0000 0.0000 22.7302
#
#
#
# Elastic Compliance Matrix: (Units=1/GPa)
#
#
# Indices 1 2 3 4 5 6 
#
# 1 0.041685 -0.015881 0.016089 0.000000 0.000000 0.000000
# 2 -0.015881 0.027089 -0.023170 0.000000 0.000000 0.000000
# 3 0.016089 -0.023170 0.054260 0.000000 0.000000 0.000000
# 4 0.000000 0.000000 0.000000 0.035813 0.000000 0.000000
# 5 0.000000 0.000000 0.000000 0.000000 0.037146 0.000000
# 6 0.000000 0.000000 0.000000 0.000000 0.000000 0.043994
#
#
# Mechanical properties :
#
#
# Convention : Reuss Voigt Hill
#
# Bulk Modulus (GPa) = 12.96871 22.47676 17.72273
# Shear Modulus (GPa) = 16.04542 21.46683 18.75612
#
# Velocity S-wave (km/s) = 3.06023 3.53967 3.30865
# Velocity P-wave (km/s) = 4.47839 5.46117 4.99401
#
# Compressibility (1/GPa) = 0.07710867
#
# Stress axis : x y z
#
# Youngs Moduli (GPa) = 23.98944 36.91543 18.42977
#
# Poissons Ratio (x) = 0.58626 -0.29651
# Poissons Ratio (y) = 0.38098 0.42702
# Poissons Ratio (z) = -0.38596 0.85534
#
# Static dielectric constant tensor:
#      x y z
#    x 2.821440 0.000000 0.000000 
#    y 0.000000 3.389960 0.000000 
#    z 0.000000 0.000000 3.056590 
# 
# 
# High freq. dielectric constant tensor:
#      x y z
#    x 1.617390 0.000000 0.000000 
#    y 0.000000 1.680330 0.000000 
#    z 0.000000 0.000000 1.642460 
# 
# From -- ./inp_files/24104.got.cif
#   From: 2010.03.12/outbox.cif.g09.slc.cpg/sg62_13_cif.got.tgz:24104.got - 2010.04.10 19:12:36.
