data_PCOD8252802
_publ_section_title
;
Structure prediction by ZEFSAII (Michael W. Deem and Ramdas Pophale) SiO2 
 PCOD8252802
Probable space group: P N M A
;
_chemical_formula_sum "Si O2"
_cell_formula_units_Z 56
_cell_length_a 13.972771
_cell_length_b 22.365729
_cell_length_c 9.618293
_cell_angle_alpha 90.000000
_cell_angle_beta 90.000000
_cell_angle_gamma 90.000000
_cell_volume 3005.824379
_symmetry_space_group_name_H-M "P N M A"
_symmetry_group_IT_number 62
_symmetry_cell_setting 'orthorhombic'
loop_
_space_group_symop_operation_xyz
x,y,z
1/2-x,-y,1/2+z
1/2+x,1/2-y,1/2-z
-x,1/2+y,-z
-x,-y,-z
1/2+x,y,1/2-z
1/2-x,1/2+y,1/2+z
x,1/2-y,z
loop_
_atom_site_type_symbol
_atom_site_label
_atom_site_fract_x
_atom_site_fract_y
_atom_site_fract_z
Si Si1 0.760652 0.181461 0.626861
Si Si2 0.926424 0.414352 0.353408
Si Si3 0.100383 0.184185 0.659637
Si Si4 0.919733 0.682596 0.659619
Si Si5 0.292952 0.610673 0.636863
Si Si6 0.549883 0.489315 0.353404
Si Si7 0.063494 0.902071 0.334099
O O1 0.777644 0.250000 0.580804
O O2 0.702186 0.176444 0.768435
O O3 0.703960 0.146558 0.506907
O O4 0.861148 0.151134 0.655697
O O5 0.814208 0.408161 0.320226
O O6 0.943159 0.433662 0.514245
O O7 0.979144 0.351387 0.323731
O O8 0.970823 0.464038 0.252943
O O9 0.057285 0.250000 0.696830
O O10 0.117953 0.179443 0.496432
O O11 0.033730 0.130539 0.711849
O O12 0.937989 0.750000 0.710484
O O13 0.834710 0.653518 0.746208
O O14 0.358310 0.552085 0.623519
O O15 0.500000 0.500000 0.500000
O O16 0.589388 0.550458 0.285159
#
# Coordination Sequence:
#
# PCOD8252802 Si02
#       7
#     8   8   8   8   8   8   8
#     4  10  20  35  57  84 109 139 181 225 275 328
#     4   9  21  37  54  77 104 142 184 218 265 329
#     4   9  18  33  53  77 105 135 170 216 267 317
#     4   9  18  34  55  79 107 138 175 221 271 325
#     4  10  21  36  55  80 109 144 181 224 275 330
#     4  11  23  37  54  79 110 142 182 229 277 324
#     4  10  20  36  56  76 104 142 181 219 263 323
#
# _framework density 18.630496000000001
#
# number of rings (size 3 to 8) (size 9 to 14) (size 15 to 20)
#    0.000    2.286    0.000    2.143    0.000    8.571 
#    0.000    1.429    0.000    4.286    0.000    0.000 
#    0.000    0.000    0.000    0.000    0.000    0.000 
#
# Total GULP energy -694402.496608 kJ/mol
# GULP energy per Si atom -12400.044582 kJ/mol
# Density = 1.858809 g / cm^3
# Si number density = 18.630496 Si / 1000 Ang^3
#
#
#
# Elastic Constant Matrix: (Units=GPa)
#
#
# Indices 1 2 3 4 5 6 
#
# 1 94.4102 27.0210 39.6251 0.0000 0.0000 0.0000
# 2 27.0210 86.9613 41.8527 0.0000 0.0000 0.0000
# 3 39.6251 41.8527 81.5222 0.0000 0.0000 0.0000
# 4 0.0000 0.0000 0.0000 33.5522 0.0000 0.0000
# 5 0.0000 0.0000 0.0000 0.0000 29.1432 0.0000
# 6 0.0000 0.0000 0.0000 0.0000 0.0000 22.9677
#
#
#
# Elastic Compliance Matrix: (Units=1/GPa)
#
#
# Indices 1 2 3 4 5 6 
#
# 1 0.013428 -0.001370 -0.005824 0.000000 0.000000 0.000000
# 2 -0.001370 0.015413 -0.007247 0.000000 0.000000 0.000000
# 3 -0.005824 -0.007247 0.018818 0.000000 0.000000 0.000000
# 4 0.000000 0.000000 0.000000 0.029804 0.000000 0.000000
# 5 0.000000 0.000000 0.000000 0.000000 0.034313 0.000000
# 6 0.000000 0.000000 0.000000 0.000000 0.000000 0.043539
#
#
# Mechanical properties :
#
#
# Convention : Reuss Voigt Hill
#
# Bulk Modulus (GPa) = 53.25384 53.32127 53.28755
# Shear Modulus (GPa) = 26.25267 27.42563 26.83915
#
# Velocity S-wave (km/s) = 3.75790 3.84094 3.79965
# Velocity P-wave (km/s) = 6.89024 6.95363 6.92201
#
# Compressibility (1/GPa) = 0.01877799
#
# Stress axis : x y z
#
# Youngs Moduli (GPa) = 74.46866 64.88115 53.14060
#
# Poissons Ratio (x) = 0.08886 0.30949
# Poissons Ratio (y) = 0.10199 0.38511
# Poissons Ratio (z) = 0.43370 0.47020
#
# Static dielectric constant tensor:
#      x y z
#    x 3.296400 0.000000 0.000000 
#    y 0.000000 3.581450 0.000000 
#    z 0.000000 0.000000 3.560010 
# 
# 
# High freq. dielectric constant tensor:
#      x y z
#    x 1.720640 0.000000 0.000000 
#    y 0.000000 1.733930 0.000000 
#    z 0.000000 0.000000 1.724070 
# 
# From -- ./inp_files/6746.got.cif
#   From: 2010.03.12/outbox.cif.g09.slc.cpg/sg62_4_cif.got.tgz:6746.got - 2010.04.10 19:12:36.
