data_PCOD8252371
_publ_section_title
;
Structure prediction by ZEFSAII (Michael W. Deem and Ramdas Pophale) SiO2 
 PCOD8252371
Probable space group: P N M A
;
_chemical_formula_sum "Si O2"
_cell_formula_units_Z 48
_cell_length_a 29.281845
_cell_length_b 9.156486
_cell_length_c 10.023504
_cell_angle_alpha 90.000000
_cell_angle_beta 90.000000
_cell_angle_gamma 90.000000
_cell_volume 2687.489902
_symmetry_space_group_name_H-M "P N M A"
_symmetry_group_IT_number 62
_symmetry_cell_setting 'orthorhombic'
loop_
_space_group_symop_operation_xyz
x,y,z
1/2-x,-y,1/2+z
1/2+x,1/2-y,1/2-z
-x,1/2+y,-z
-x,-y,-z
1/2+x,y,1/2-z
1/2-x,1/2+y,1/2+z
x,1/2-y,z
loop_
_atom_site_type_symbol
_atom_site_label
_atom_site_fract_x
_atom_site_fract_y
_atom_site_fract_z
Si Si1 0.889037 0.420098 0.111302
Si Si2 0.278583 0.919843 0.628881
Si Si3 0.052471 0.579829 0.357518
Si Si4 0.383739 0.578989 0.657050
Si Si5 0.284999 0.079435 0.364629
Si Si6 0.539669 0.918912 0.837712
O O1 0.893315 0.250000 0.075047
O O2 0.837971 0.459904 0.158414
O O3 0.921914 0.464678 0.232102
O O4 0.902848 0.511609 0.980685
O O5 0.271355 0.750000 0.602258
O O6 0.330212 0.954375 0.672592
O O7 0.244110 0.979456 0.740533
O O8 0.265280 0.002228 0.494737
O O9 0.054591 0.750000 0.321979
O O10 0.092771 0.496218 0.282996
O O11 0.059266 0.551165 0.514811
O O12 0.004082 0.517931 0.308203
O O13 0.394726 0.750000 0.657093
O O14 0.277353 0.250000 0.384158
O O15 0.525402 0.750000 0.822359
#
# Coordination Sequence:
#
# PCOD8252371 Si02
#       6
#     8   8   8   8   8   8
#     4   9  18  34  54  74  98 129 166 206 245 289
#     4   9  19  34  51  74 103 133 166 204 246 292
#     4  10  20  34  53  76 100 129 166 205 248 298
#     4  10  20  34  51  73 103 135 166 203 246 292
#     4   9  18  33  52  74 100 130 165 204 244 289
#     4   9  19  35  53  74 100 129 163 205 251 296
#
# _framework density 17.860531000000002
#
# number of rings (size 3 to 8) (size 9 to 14) (size 15 to 20)
#    0.000    2.667    0.000    1.000    0.000    4.667 
#    0.000    1.667    0.000    0.000    0.000    0.000 
#    0.000    0.000    0.000    0.000    0.000    0.000 
#
# Total GULP energy -595346.455946 kJ/mol
# GULP energy per Si atom -12403.051166 kJ/mol
# Density = 1.781988 g / cm^3
# Si number density = 17.860531 Si / 1000 Ang^3
#
#
#
# Elastic Constant Matrix: (Units=GPa)
#
#
# Indices 1 2 3 4 5 6 
#
# 1 49.1025 23.2848 31.9048 0.0000 0.0000 0.0000
# 2 23.2848 56.0485 28.9705 0.0000 0.0000 0.0000
# 3 31.9048 28.9705 71.1645 0.0000 0.0000 0.0000
# 4 0.0000 0.0000 0.0000 32.8398 0.0000 0.0000
# 5 0.0000 0.0000 0.0000 0.0000 40.2827 0.0000
# 6 0.0000 0.0000 0.0000 0.0000 0.0000 24.6192
#
#
#
# Elastic Compliance Matrix: (Units=1/GPa)
#
#
# Indices 1 2 3 4 5 6 
#
# 1 0.030861 -0.007180 -0.010913 0.000000 0.000000 0.000000
# 2 -0.007180 0.024267 -0.006660 0.000000 0.000000 0.000000
# 3 -0.010913 -0.006660 0.021656 0.000000 0.000000 0.000000
# 4 0.000000 0.000000 0.000000 0.030451 0.000000 0.000000
# 5 0.000000 0.000000 0.000000 0.000000 0.024825 0.000000
# 6 0.000000 0.000000 0.000000 0.000000 0.000000 0.040619
#
#
# Mechanical properties :
#
#
# Convention : Reuss Voigt Hill
#
# Bulk Modulus (GPa) = 36.65961 38.29285 37.47623
# Shear Modulus (GPa) = 21.61912 25.69201 23.65556
#
# Velocity S-wave (km/s) = 3.48291 3.79684 3.64326
# Velocity P-wave (km/s) = 6.06171 6.38027 6.22303
#
# Compressibility (1/GPa) = 0.02727798
#
# Stress axis : x y z
#
# Youngs Moduli (GPa) = 32.40304 41.20814 46.17747
#
# Poissons Ratio (x) = 0.29589 0.50393
# Poissons Ratio (y) = 0.23267 0.30753
# Poissons Ratio (z) = 0.35361 0.27444
#
# Static dielectric constant tensor:
#      x y z
#    x 3.305890 0.000000 0.000000 
#    y 0.000000 3.313960 0.000000 
#    z 0.000000 0.000000 3.371840 
# 
# 
# High freq. dielectric constant tensor:
#      x y z
#    x 1.688700 0.000000 0.000000 
#    y 0.000000 1.692970 0.000000 
#    z 0.000000 0.000000 1.694820 
# 
# From -- ./inp_files/10184.got.cif
#   From: 2010.03.12/outbox.cif.g09.slc.cpg/sg62_6_cif.got.tgz:10184.got - 2010.04.10 19:12:36.
