data_PCOD8252224
_publ_section_title
;
Structure prediction by ZEFSAII (Michael W. Deem and Ramdas Pophale) SiO2 
 PCOD8252224
Probable space group: P N M A
;
_chemical_formula_sum "Si O2"
_cell_formula_units_Z 64
_cell_length_a 14.932664
_cell_length_b 24.526718
_cell_length_c 9.192671
_cell_angle_alpha 90.000000
_cell_angle_beta 90.000000
_cell_angle_gamma 90.000000
_cell_volume 3366.808757
_symmetry_space_group_name_H-M "P N M A"
_symmetry_group_IT_number 62
_symmetry_cell_setting 'orthorhombic'
loop_
_space_group_symop_operation_xyz
x,y,z
1/2-x,-y,1/2+z
1/2+x,1/2-y,1/2-z
-x,1/2+y,-z
-x,-y,-z
1/2+x,y,1/2-z
1/2-x,1/2+y,1/2+z
x,1/2-y,z
loop_
_atom_site_type_symbol
_atom_site_label
_atom_site_fract_x
_atom_site_fract_y
_atom_site_fract_z
Si Si1 0.681346 0.592642 0.698082
Si Si2 0.552166 0.513539 0.145101
Si Si3 0.772543 0.120951 0.883834
Si Si4 0.470385 0.386406 0.676320
Si Si5 0.244754 0.026234 0.835032
Si Si6 0.358046 0.814098 0.301259
Si Si7 0.308327 0.616193 0.555419
Si Si8 0.489439 0.920617 0.635039
O O1 0.733060 0.614867 0.556934
O O2 0.686322 0.526785 0.702478
O O3 0.724039 0.620775 0.838792
O O4 0.576621 0.609408 0.702671
O O5 0.527403 0.575733 0.181741
O O6 0.657362 0.507176 0.113329
O O7 0.524834 0.477343 0.283388
O O8 0.500000 0.500000 0.000000
O O9 0.872181 0.140693 0.838242
O O10 0.751762 0.062472 0.810729
O O11 0.699358 0.165530 0.836566
O O12 0.542660 0.339087 0.697463
O O13 0.491054 0.425546 0.537812
O O14 0.195755 0.060206 0.961988
O O15 0.367342 0.750000 0.294673
O O16 0.306181 0.832095 0.448163
O O17 0.399214 0.615399 0.651816
#
# Coordination Sequence:
#
# PCOD8252224 Si02
#       8
#     8   8   8   8   8   8   8   8
#     4  11  20  32  55  79 114 149 178 220 271 330
#     4  11  21  31  49  82 117 151 178 218 269 328
#     4   9  21  36  53  83 111 141 186 227 269 327
#     4   9  21  36  55  79 110 142 188 224 267 335
#     4  10  20  32  49  79 118 151 180 209 268 331
#     4  10  22  40  62  78 101 144 191 237 284 320
#     4  10  21  37  53  79 113 146 184 228 269 333
#     4  10  21  33  52  77 111 156 182 211 267 326
#
# _framework density 19.0091
#
# number of rings (size 3 to 8) (size 9 to 14) (size 15 to 20)
#    0.000    2.000    1.250    1.875   10.500    0.500 
#    0.000    0.625    0.000    3.000    0.000    0.000 
#    0.000    0.000    0.000    0.000    0.000    0.000 
#
# Total GULP energy -793480.392711 kJ/mol
# GULP energy per Si atom -12398.131136 kJ/mol
# Density = 1.896583 g / cm^3
# Si number density = 19.009100 Si / 1000 Ang^3
#
#
#
# Elastic Constant Matrix: (Units=GPa)
#
#
# Indices 1 2 3 4 5 6 
#
# 1 95.7637 25.3199 20.9830 0.0000 0.0000 0.0000
# 2 25.3199 83.0163 23.8858 0.0000 0.0000 0.0000
# 3 20.9830 23.8858 50.9126 0.0000 0.0000 0.0000
# 4 0.0000 0.0000 0.0000 13.1975 0.0000 0.0000
# 5 0.0000 0.0000 0.0000 0.0000 30.8107 0.0000
# 6 0.0000 0.0000 0.0000 0.0000 0.0000 20.4038
#
#
#
# Elastic Compliance Matrix: (Units=1/GPa)
#
#
# Indices 1 2 3 4 5 6 
#
# 1 0.011936 -0.002572 -0.003712 0.000000 0.000000 0.000000
# 2 -0.002572 0.014480 -0.005733 0.000000 0.000000 0.000000
# 3 -0.003712 -0.005733 0.023861 0.000000 0.000000 0.000000
# 4 0.000000 0.000000 0.000000 0.075772 0.000000 0.000000
# 5 0.000000 0.000000 0.000000 0.000000 0.032456 0.000000
# 6 0.000000 0.000000 0.000000 0.000000 0.000000 0.049011
#
#
# Mechanical properties :
#
#
# Convention : Reuss Voigt Hill
#
# Bulk Modulus (GPa) = 38.10783 41.11888 39.61336
# Shear Modulus (GPa) = 20.80742 23.51599 22.16171
#
# Velocity S-wave (km/s) = 3.31207 3.52105 3.41815
# Velocity P-wave (km/s) = 5.89212 6.18130 6.03844
#
# Compressibility (1/GPa) = 0.02624133
#
# Stress axis : x y z
#
# Youngs Moduli (GPa) = 83.78068 69.06105 41.90893
#
# Poissons Ratio (x) = 0.17764 0.15558
# Poissons Ratio (y) = 0.21551 0.24027
# Poissons Ratio (z) = 0.31103 0.39594
#
# Static dielectric constant tensor:
#      x y z
#    x 3.865610 0.000000 0.000000 
#    y 0.000000 2.942510 0.000000 
#    z 0.000000 0.000000 3.509040 
# 
# 
# High freq. dielectric constant tensor:
#      x y z
#    x 1.762670 0.000000 0.000000 
#    y 0.000000 1.678530 0.000000 
#    z 0.000000 0.000000 1.739770 
# 
# From -- ./inp_files/6942.got.cif
#   From: 2010.03.12/outbox.cif.g09.slc.cpg/sg62_4_cif.got.tgz:6942.got - 2010.04.10 19:12:36.
