data_PCOD8252520
_publ_section_title
;
Structure prediction by ZEFSAII (Michael W. Deem and Ramdas Pophale) SiO2 
 PCOD8252520
Probable space group: P N M A
;
_chemical_formula_sum "Si O2"
_cell_formula_units_Z 64
_cell_length_a 14.661238
_cell_length_b 9.146776
_cell_length_c 24.327580
_cell_angle_alpha 90.000000
_cell_angle_beta 90.000000
_cell_angle_gamma 90.000000
_cell_volume 3262.402917
_symmetry_space_group_name_H-M "P N M A"
_symmetry_group_IT_number 62
_symmetry_cell_setting 'orthorhombic'
loop_
_space_group_symop_operation_xyz
x,y,z
1/2-x,-y,1/2+z
1/2+x,1/2-y,1/2-z
-x,1/2+y,-z
-x,-y,-z
1/2+x,y,1/2-z
1/2-x,1/2+y,1/2+z
x,1/2-y,z
loop_
_atom_site_type_symbol
_atom_site_label
_atom_site_fract_x
_atom_site_fract_y
_atom_site_fract_z
Si Si1 0.941498 0.585019 0.863019
Si Si2 0.131753 0.921946 0.237869
Si Si3 0.824390 0.418827 0.269101
Si Si4 0.091051 0.419457 0.016942
Si Si5 0.016681 0.421756 0.671590
Si Si6 0.048560 0.922470 0.449731
Si Si7 0.644211 0.911852 0.646443
Si Si8 0.747973 0.422194 0.562036
O O1 0.924290 0.750000 0.840059
O O2 0.918581 0.463130 0.818465
O O3 0.884486 0.557768 0.918743
O O4 0.046347 0.566832 0.881946
O O5 0.151440 0.750000 0.239169
O O6 0.068356 0.969228 0.289506
O O7 0.226182 0.008002 0.237345
O O8 0.811742 0.250000 0.286521
O O9 0.873524 0.436575 0.210775
O O10 0.889501 0.496431 0.313309
O O11 0.076463 0.250000 0.002945
O O12 0.177774 0.482284 0.983657
O O13 0.000000 0.500000 0.000000
O O14 0.033820 0.250000 0.678517
O O15 0.995136 0.465234 0.608877
O O16 0.043442 0.750000 0.458926
O O17 0.151906 0.981779 0.450975
O O18 0.000000 0.000000 0.500000
O O19 0.683211 0.750000 0.635431
O O20 0.717107 0.024415 0.622221
O O21 0.750666 0.250000 0.564641
#
# Coordination Sequence:
#
# PCOD8252520 Si02
#       8
#     8   8   8   8   8   8   8   8
#     4  10  20  36  55  82 123 159 194 242 292 351
#     4  11  23  39  61  90 122 158 198 244 298 358
#     4  11  23  38  60  88 120 158 199 246 298 357
#     4  10  20  34  55  83 118 157 193 236 289 348
#     4  10  22  41  63  87 120 158 199 249 300 356
#     4  10  23  43  63  87 118 153 199 253 300 351
#     4  10  20  35  57  86 119 154 195 242 292 347
#     4  10  21  37  60  87 117 156 201 245 297 354
#
# _framework density 19.617440999999999
#
# number of rings (size 3 to 8) (size 9 to 14) (size 15 to 20)
#    0.000    1.750    2.500    1.500    0.000    5.500 
#    0.000    1.250    0.000    0.000    0.000    0.000 
#    0.000    0.000    0.000    0.000    0.000    0.000 
#
# Total GULP energy -793613.472949 kJ/mol
# GULP energy per Si atom -12400.210515 kJ/mol
# Density = 1.957279 g / cm^3
# Si number density = 19.617441 Si / 1000 Ang^3
#
#
#
# Elastic Constant Matrix: (Units=GPa)
#
#
# Indices 1 2 3 4 5 6 
#
# 1 118.0112 43.7343 56.2335 0.0000 0.0000 0.0000
# 2 43.7343 54.7093 40.7346 0.0000 0.0000 0.0000
# 3 56.2335 40.7346 118.8762 0.0000 0.0000 0.0000
# 4 0.0000 0.0000 0.0000 33.5003 0.0000 0.0000
# 5 0.0000 0.0000 0.0000 0.0000 31.0554 0.0000
# 6 0.0000 0.0000 0.0000 0.0000 0.0000 31.7345
#
#
#
# Elastic Compliance Matrix: (Units=1/GPa)
#
#
# Indices 1 2 3 4 5 6 
#
# 1 0.013034 -0.007825 -0.003484 0.000000 0.000000 0.000000
# 2 -0.007825 0.029237 -0.006317 0.000000 0.000000 0.000000
# 3 -0.003484 -0.006317 0.012225 0.000000 0.000000 0.000000
# 4 0.000000 0.000000 0.000000 0.029851 0.000000 0.000000
# 5 0.000000 0.000000 0.000000 0.000000 0.032200 0.000000
# 6 0.000000 0.000000 0.000000 0.000000 0.000000 0.031511
#
#
# Mechanical properties :
#
#
# Convention : Reuss Voigt Hill
#
# Bulk Modulus (GPa) = 51.96556 63.66684 57.81620
# Shear Modulus (GPa) = 26.35389 29.31767 27.83578
#
# Velocity S-wave (km/s) = 3.66921 3.87003 3.77096
# Velocity P-wave (km/s) = 6.67066 7.24529 6.96390
#
# Compressibility (1/GPa) = 0.01924351
#
# Stress axis : x y z
#
# Youngs Moduli (GPa) = 76.72262 34.20315 81.80021
#
# Poissons Ratio (x) = 0.26764 0.28501
# Poissons Ratio (y) = 0.60036 0.51673
# Poissons Ratio (z) = 0.26732 0.21606
#
# Static dielectric constant tensor:
#      x y z
#    x 3.669800 0.000000 0.000000 
#    y 0.000000 3.488440 0.000000 
#    z 0.000000 0.000000 3.682290 
# 
# 
# High freq. dielectric constant tensor:
#      x y z
#    x 1.767090 0.000000 0.000000 
#    y 0.000000 1.757160 0.000000 
#    z 0.000000 0.000000 1.769500 
# 
# From -- ./inp_files/29861.got.cif
#   From: 2010.03.12/outbox.cif.g09.slc.cpg/sg62_15_cif.got.tgz:29861.got - 2010.04.10 19:12:36.
