data_PCOD8252742
_publ_section_title
;
Structure prediction by ZEFSAII (Michael W. Deem and Ramdas Pophale) SiO2 
 PCOD8252742
Probable space group: P N M A
;
_chemical_formula_sum "Si O2"
_cell_formula_units_Z 48
_cell_length_a 18.973391
_cell_length_b 8.783288
_cell_length_c 15.241850
_cell_angle_alpha 90.000000
_cell_angle_beta 90.000000
_cell_angle_gamma 90.000000
_cell_volume 2540.035364
_symmetry_space_group_name_H-M "P N M A"
_symmetry_group_IT_number 62
_symmetry_cell_setting 'orthorhombic'
loop_
_space_group_symop_operation_xyz
x,y,z
1/2-x,-y,1/2+z
1/2+x,1/2-y,1/2-z
-x,1/2+y,-z
-x,-y,-z
1/2+x,y,1/2-z
1/2-x,1/2+y,1/2+z
x,1/2-y,z
loop_
_atom_site_type_symbol
_atom_site_label
_atom_site_fract_x
_atom_site_fract_y
_atom_site_fract_z
Si Si1 0.179782 0.428954 0.147361
Si Si2 0.076125 0.071407 0.495859
Si Si3 0.674307 0.429117 0.155802
Si Si4 0.332670 0.069850 0.342591
Si Si5 0.576320 0.429322 0.506518
Si Si6 0.827035 0.571757 0.341127
O O1 0.197157 0.250000 0.142003
O O2 0.152482 0.472806 0.244876
O O3 0.120266 0.479559 0.079038
O O4 0.250393 0.520788 0.124747
O O5 0.067586 0.250000 0.483188
O O6 0.119058 0.999564 0.413142
O O7 0.117213 0.031043 0.584144
O O8 0.000000 0.000000 0.500000
O O9 0.675053 0.250000 0.142934
O O10 0.753478 0.487897 0.135804
O O11 0.340602 0.250000 0.352005
O O12 0.386526 0.988407 0.406531
O O13 0.351404 0.022180 0.243697
O O14 0.500000 0.500000 0.500000
O O15 0.569144 0.250000 0.511905
O O16 0.825499 0.750000 0.319342
#
# Coordination Sequence:
#
# PCOD8252742 Si02
#       6
#     8   8   8   8   8   8
#     4   9  19  36  58  82 107 141 184 225 269 326
#     4  10  21  35  52  77 110 145 179 217 264 320
#     4   8  16  34  57  78 102 136 179 222 266 318
#     4  10  20  37  60  81 104 142 188 232 279 327
#     4  11  23  37  54  81 116 150 185 226 275 333
#     4  10  20  35  56  83 112 142 180 228 277 324
#
# _framework density 18.897373999999999
#
# number of rings (size 3 to 8) (size 9 to 14) (size 15 to 20)
#    0.000    2.333    0.000    3.500    0.000    5.333 
#    0.000    5.833    0.000    0.000    0.000    0.000 
#    0.000    0.000    0.000    0.000    0.000    0.000 
#
# Total GULP energy -595240.862471 kJ/mol
# GULP energy per Si atom -12400.851301 kJ/mol
# Density = 1.885436 g / cm^3
# Si number density = 18.897374 Si / 1000 Ang^3
#
#
#
# Elastic Constant Matrix: (Units=GPa)
#
#
# Indices 1 2 3 4 5 6 
#
# 1 158.4240 44.0253 102.1655 0.0000 0.0000 0.0000
# 2 44.0253 43.3169 39.9135 0.0000 0.0000 0.0000
# 3 102.1655 39.9135 130.0230 0.0000 0.0000 0.0000
# 4 0.0000 0.0000 0.0000 24.3890 0.0000 0.0000
# 5 0.0000 0.0000 0.0000 0.0000 16.7109 0.0000
# 6 0.0000 0.0000 0.0000 0.0000 0.0000 33.8150
#
#
#
# Elastic Compliance Matrix: (Units=1/GPa)
#
#
# Indices 1 2 3 4 5 6 
#
# 1 0.013701 -0.005585 -0.009051 0.000000 0.000000 0.000000
# 2 -0.005585 0.034468 -0.006192 0.000000 0.000000 0.000000
# 3 -0.009051 -0.006192 0.016704 0.000000 0.000000 0.000000
# 4 0.000000 0.000000 0.000000 0.041002 0.000000 0.000000
# 5 0.000000 0.000000 0.000000 0.000000 0.059841 0.000000
# 6 0.000000 0.000000 0.000000 0.000000 0.000000 0.029573
#
#
# Mechanical properties :
#
#
# Convention : Reuss Voigt Hill
#
# Bulk Modulus (GPa) = 43.07423 78.21916 60.64670
# Shear Modulus (GPa) = 20.43445 24.69362 22.56404
#
# Velocity S-wave (km/s) = 3.29194 3.61878 3.45922
# Velocity P-wave (km/s) = 6.10675 7.67738 6.93666
#
# Compressibility (1/GPa) = 0.02321574
#
# Stress axis : x y z
#
# Youngs Moduli (GPa) = 72.98534 29.01250 59.86658
#
# Poissons Ratio (x) = 0.16204 0.54187
# Poissons Ratio (y) = 0.40765 0.37070
# Poissons Ratio (z) = 0.66061 0.17965
#
# Static dielectric constant tensor:
#      x y z
#    x 3.851970 0.000000 0.000000 
#    y 0.000000 3.602530 0.000000 
#    z 0.000000 0.000000 3.607290 
# 
# 
# High freq. dielectric constant tensor:
#      x y z
#    x 1.732200 0.000000 0.000000 
#    y 0.000000 1.722500 0.000000 
#    z 0.000000 0.000000 1.749650 
# 
# From -- ./inp_files/19641.got.cif
#   From: 2010.03.12/outbox.cif.g09.slc.cpg/sg62_10_cif.got.tgz:19641.got - 2010.04.10 19:12:36.
