data_PCOD8252138
_publ_section_title
;
Structure prediction by ZEFSAII (Michael W. Deem and Ramdas Pophale) SiO2 
 PCOD8252138
Probable space group: P N M A
;
_chemical_formula_sum "Si O2"
_cell_formula_units_Z 64
_cell_length_a 13.851942
_cell_length_b 18.448657
_cell_length_c 12.560980
_cell_angle_alpha 90.000000
_cell_angle_beta 90.000000
_cell_angle_gamma 90.000000
_cell_volume 3209.955007
_symmetry_space_group_name_H-M "P N M A"
_symmetry_group_IT_number 62
_symmetry_cell_setting 'orthorhombic'
loop_
_space_group_symop_operation_xyz
x,y,z
1/2-x,-y,1/2+z
1/2+x,1/2-y,1/2-z
-x,1/2+y,-z
-x,-y,-z
1/2+x,y,1/2-z
1/2-x,1/2+y,1/2+z
x,1/2-y,z
loop_
_atom_site_type_symbol
_atom_site_label
_atom_site_fract_x
_atom_site_fract_y
_atom_site_fract_z
Si Si1 0.052164 0.108498 0.501191
Si Si2 0.207289 0.930648 0.800835
Si Si3 0.369553 0.469117 0.079938
Si Si4 0.432557 0.166369 0.806215
Si Si5 0.558332 0.165397 0.603228
Si Si6 0.958236 0.334292 0.117775
Si Si7 0.243031 0.918921 0.392847
Si Si8 0.381741 0.668296 0.788742
O O1 0.098361 0.162629 0.415138
O O2 0.976659 0.059865 0.437246
O O3 0.005313 0.154591 0.595911
O O4 0.133803 0.054175 0.547359
O O5 0.149767 0.964765 0.703800
O O6 0.294274 0.882893 0.754708
O O7 0.138219 0.881854 0.874523
O O8 0.249995 0.996601 0.867103
O O9 0.294714 0.418619 0.014456
O O10 0.401248 0.250000 0.803471
O O11 0.484784 0.143481 0.696839
O O12 0.336203 0.118449 0.816508
O O13 0.584321 0.250000 0.608006
O O14 0.511588 0.143896 0.491014
O O15 0.656434 0.121543 0.618338
O O16 0.928320 0.250000 0.116511
O O17 0.025335 0.352685 0.218578
O O18 0.350799 0.750000 0.761979
#
# Coordination Sequence:
#
# PCOD8252138 Si02
#       8
#     8   8   8   8   8   8   8   8
#     4  10  19  39  62  86 117 157 203 257 302 360
#     4  12  23  38  61  92 126 162 201 255 312 379
#     4  10  21  37  59  88 123 156 201 251 309 359
#     4  10  22  40  63  90 121 162 210 261 308 361
#     4  10  22  43  64  88 125 165 209 256 307 373
#     4  10  23  42  62  88 124 163 204 255 312 369
#     4  11  23  38  62  92 122 164 208 252 308 375
#     4  11  22  39  63  91 123 162 207 255 309 372
#
# _framework density 19.937974000000001
#
# number of rings (size 3 to 8) (size 9 to 14) (size 15 to 20)
#    0.000    1.500    2.500    2.625    0.000    2.500 
#    2.250    1.250    0.000    0.000    0.000    0.000 
#    0.000    0.000    0.000    0.000    0.000    0.000 
#
# Total GULP energy -793776.752044 kJ/mol
# GULP energy per Si atom -12402.761751 kJ/mol
# Density = 1.989259 g / cm^3
# Si number density = 19.937974 Si / 1000 Ang^3
#
#
#
# Elastic Constant Matrix: (Units=GPa)
#
#
# Indices 1 2 3 4 5 6 
#
# 1 101.1209 58.1128 32.3694 0.0000 0.0000 0.0000
# 2 58.1128 85.8809 22.9068 0.0000 0.0000 0.0000
# 3 32.3694 22.9068 100.6417 0.0000 0.0000 0.0000
# 4 0.0000 0.0000 0.0000 27.1197 0.0000 0.0000
# 5 0.0000 0.0000 0.0000 0.0000 24.8356 0.0000
# 6 0.0000 0.0000 0.0000 0.0000 0.0000 42.2217
#
#
#
# Elastic Compliance Matrix: (Units=1/GPa)
#
#
# Indices 1 2 3 4 5 6 
#
# 1 0.017010 -0.010701 -0.003035 0.000000 0.000000 0.000000
# 2 -0.010701 0.019128 -0.000912 0.000000 0.000000 0.000000
# 3 -0.003035 -0.000912 0.011120 0.000000 0.000000 0.000000
# 4 0.000000 0.000000 0.000000 0.036874 0.000000 0.000000
# 5 0.000000 0.000000 0.000000 0.000000 0.040265 0.000000
# 6 0.000000 0.000000 0.000000 0.000000 0.000000 0.023685
#
#
# Mechanical properties :
#
#
# Convention : Reuss Voigt Hill
#
# Bulk Modulus (GPa) = 55.67261 57.15796 56.41529
# Shear Modulus (GPa) = 27.26796 30.45236 28.86016
#
# Velocity S-wave (km/s) = 3.70217 3.91238 3.80873
# Velocity P-wave (km/s) = 6.80135 7.00993 6.90642
#
# Compressibility (1/GPa) = 0.01796215
#
# Stress axis : x y z
#
# Youngs Moduli (GPa) = 58.78761 52.27901 89.92700
#
# Poissons Ratio (x) = 0.55942 0.27297
# Poissons Ratio (y) = 0.62907 0.08202
# Poissons Ratio (z) = 0.17845 0.04768
#
# Static dielectric constant tensor:
#      x y z
#    x 3.515950 0.000000 0.000000 
#    y 0.000000 3.648370 0.000000 
#    z 0.000000 0.000000 3.622820 
# 
# 
# High freq. dielectric constant tensor:
#      x y z
#    x 1.775650 0.000000 0.000000 
#    y 0.000000 1.781860 0.000000 
#    z 0.000000 0.000000 1.783210 
# 
# From -- ./inp_files/13568.got.cif
#   From: 2010.03.12/outbox.cif.g09.slc.cpg/sg62_7_cif.got.tgz:13568.got - 2010.04.10 19:12:36.
