data_PCOD8252391
_publ_section_title
;
Structure prediction by ZEFSAII (Michael W. Deem and Ramdas Pophale) SiO2 
 PCOD8252391
Probable space group: P N M A
;
_chemical_formula_sum "Si O2"
_cell_formula_units_Z 48
_cell_length_a 11.722248
_cell_length_b 9.245191
_cell_length_c 23.941156
_cell_angle_alpha 90.000000
_cell_angle_beta 90.000000
_cell_angle_gamma 90.000000
_cell_volume 2594.608937
_symmetry_space_group_name_H-M "P N M A"
_symmetry_group_IT_number 62
_symmetry_cell_setting 'orthorhombic'
loop_
_space_group_symop_operation_xyz
x,y,z
1/2-x,-y,1/2+z
1/2+x,1/2-y,1/2-z
-x,1/2+y,-z
-x,-y,-z
1/2+x,y,1/2-z
1/2-x,1/2+y,1/2+z
x,1/2-y,z
loop_
_atom_site_type_symbol
_atom_site_label
_atom_site_fract_x
_atom_site_fract_y
_atom_site_fract_z
Si Si1 0.247210 0.084739 0.042198
Si Si2 0.801584 0.419099 0.582538
Si Si3 0.377350 0.080647 0.632597
Si Si4 0.880057 0.921456 0.172795
Si Si5 0.156290 0.080173 0.701893
Si Si6 0.970942 0.080405 0.390590
O O1 0.218331 0.250000 0.055731
O O2 0.373119 0.046047 0.064361
O O3 0.152189 0.989605 0.073094
O O4 0.240745 0.052433 0.976578
O O5 0.832055 0.250000 0.589824
O O6 0.716130 0.476379 0.630157
O O7 0.915173 0.512208 0.584964
O O8 0.386235 0.250000 0.622049
O O9 0.496644 0.016408 0.654944
O O10 0.281396 0.043021 0.678446
O O11 0.885078 0.750000 0.171593
O O12 0.848101 0.975602 0.234580
O O13 0.128744 0.250000 0.697111
O O14 0.059730 0.994221 0.668142
O O15 0.988197 0.250000 0.380783
#
# Coordination Sequence:
#
# PCOD8252391 Si02
#       6
#     8   8   8   8   8   8
#     4   9  19  35  53  75 106 141 174 212 263 312
#     4  10  20  34  54  79 106 138 176 218 259 305
#     4   9  18  33  53  77 102 133 173 215 260 308
#     4   9  19  33  53  80 104 131 175 222 257 302
#     4   9  18  33  55  76  99 133 171 214 260 307
#     4  10  20  34  52  77 107 138 173 216 260 310
#
# _framework density 18.499896
#
# number of rings (size 3 to 8) (size 9 to 14) (size 15 to 20)
#    0.000    2.667    0.000    1.000    2.333    2.000 
#    0.000    2.500    0.000    0.000    0.000    0.000 
#    0.000    0.000    0.000    0.000    0.000    0.000 
#
# Total GULP energy -595303.821376 kJ/mol
# GULP energy per Si atom -12402.162945 kJ/mol
# Density = 1.845779 g / cm^3
# Si number density = 18.499896 Si / 1000 Ang^3
#
#
#
# Elastic Constant Matrix: (Units=GPa)
#
#
# Indices 1 2 3 4 5 6 
#
# 1 48.6307 20.0892 16.9554 0.0000 0.0000 0.0000
# 2 20.0892 41.9548 28.9749 0.0000 0.0000 0.0000
# 3 16.9554 28.9749 117.8010 0.0000 0.0000 0.0000
# 4 0.0000 0.0000 0.0000 26.4496 0.0000 0.0000
# 5 0.0000 0.0000 0.0000 0.0000 22.8078 0.0000
# 6 0.0000 0.0000 0.0000 0.0000 0.0000 18.7494
#
#
#
# Elastic Compliance Matrix: (Units=1/GPa)
#
#
# Indices 1 2 3 4 5 6 
#
# 1 0.025698 -0.011745 -0.000810 0.000000 0.000000 0.000000
# 2 -0.011745 0.034081 -0.006692 0.000000 0.000000 0.000000
# 3 -0.000810 -0.006692 0.010251 0.000000 0.000000 0.000000
# 4 0.000000 0.000000 0.000000 0.037808 0.000000 0.000000
# 5 0.000000 0.000000 0.000000 0.000000 0.043845 0.000000
# 6 0.000000 0.000000 0.000000 0.000000 0.000000 0.053335
#
#
# Mechanical properties :
#
#
# Convention : Reuss Voigt Hill
#
# Bulk Modulus (GPa) = 31.71060 37.82505 34.76783
# Shear Modulus (GPa) = 19.68318 23.09249 21.38784
#
# Velocity S-wave (km/s) = 3.26538 3.53689 3.40384
# Velocity P-wave (km/s) = 5.60314 6.09672 5.85513
#
# Compressibility (1/GPa) = 0.03153520
#
# Stress axis : x y z
#
# Youngs Moduli (GPa) = 38.91428 29.34185 97.54689
#
# Poissons Ratio (x) = 0.34463 0.07899
# Poissons Ratio (y) = 0.45707 0.65280
# Poissons Ratio (z) = 0.03151 0.19636
#
# Static dielectric constant tensor:
#      x y z
#    x 3.423060 0.000000 0.000000 
#    y 0.000000 3.197640 0.000000 
#    z 0.000000 0.000000 3.582640 
# 
# 
# High freq. dielectric constant tensor:
#      x y z
#    x 1.716950 0.000000 0.000000 
#    y 0.000000 1.693440 0.000000 
#    z 0.000000 0.000000 1.726520 
# 
# From -- ./inp_files/29220.got.cif
#   From: 2010.03.12/outbox.cif.g09.slc.cpg/sg62_15_cif.got.tgz:29220.got - 2010.04.10 19:12:36.
