data_PCOD8252209
_publ_section_title
;
Structure prediction by ZEFSAII (Michael W. Deem and Ramdas Pophale) SiO2 
 PCOD8252209
Probable space group: P N M A
;
_chemical_formula_sum "Si O2"
_cell_formula_units_Z 48
_cell_length_a 16.107941
_cell_length_b 18.828218
_cell_length_c 9.012864
_cell_angle_alpha 90.000000
_cell_angle_beta 90.000000
_cell_angle_gamma 90.000000
_cell_volume 2733.455865
_symmetry_space_group_name_H-M "P N M A"
_symmetry_group_IT_number 62
_symmetry_cell_setting 'orthorhombic'
loop_
_space_group_symop_operation_xyz
x,y,z
1/2-x,-y,1/2+z
1/2+x,1/2-y,1/2-z
-x,1/2+y,-z
-x,-y,-z
1/2+x,y,1/2-z
1/2-x,1/2+y,1/2+z
x,1/2-y,z
loop_
_atom_site_type_symbol
_atom_site_label
_atom_site_fract_x
_atom_site_fract_y
_atom_site_fract_z
Si Si1 0.082837 0.582272 0.090554
Si Si2 0.241209 0.333118 0.069060
Si Si3 0.164616 0.671622 0.855109
Si Si4 0.903877 0.332952 0.610482
Si Si5 0.916613 0.581198 0.905191
Si Si6 0.002881 0.171676 0.329236
O O1 0.078616 0.621366 0.245805
O O2 0.105863 0.500730 0.116812
O O3 0.155780 0.615992 0.989356
O O4 0.993510 0.591394 0.015161
O O5 0.221207 0.250000 0.054122
O O6 0.264071 0.352300 0.239944
O O7 0.161168 0.378428 0.021799
O O8 0.315510 0.354674 0.959142
O O9 0.184831 0.750000 0.920610
O O10 0.080453 0.676384 0.764148
O O11 0.904587 0.250000 0.651124
O O12 0.978573 0.350738 0.496173
O O13 0.935306 0.614568 0.743106
O O14 0.045283 0.250000 0.328528
#
# Coordination Sequence:
#
# PCOD8252209 Si02
#       6
#     8   8   8   8   8   8
#     4  10  20  32  48  73 103 132 160 194 244 300
#     4   9  18  33  52  71  91 122 167 210 242 281
#     4   8  15  30  50  67  87 122 163 196 233 289
#     4   9  18  33  52  72  95 127 165 203 247 293
#     4  10  20  32  48  73 102 131 164 199 237 288
#     4   8  15  30  50  68  90 125 163 194 233 287
#
# _framework density 17.560188
#
# number of rings (size 3 to 8) (size 9 to 14) (size 15 to 20)
#    0.000    3.000    0.000    3.000    0.000    4.000 
#    0.000    1.667    0.000    2.000    0.000    0.000 
#    0.000    0.000    0.000    0.000    0.000    0.000 
#
# Total GULP energy -595038.139269 kJ/mol
# GULP energy per Si atom -12396.627901 kJ/mol
# Density = 1.752022 g / cm^3
# Si number density = 17.560188 Si / 1000 Ang^3
#
#
#
# Elastic Constant Matrix: (Units=GPa)
#
#
# Indices 1 2 3 4 5 6 
#
# 1 51.8001 39.4605 20.3492 0.0000 0.0000 0.0000
# 2 39.4605 108.7359 63.5317 0.0000 0.0000 0.0000
# 3 20.3492 63.5317 104.9690 0.0000 0.0000 0.0000
# 4 0.0000 0.0000 0.0000 7.9479 0.0000 0.0000
# 5 0.0000 0.0000 0.0000 0.0000 15.3270 0.0000
# 6 0.0000 0.0000 0.0000 0.0000 0.0000 20.0919
#
#
#
# Elastic Compliance Matrix: (Units=1/GPa)
#
#
# Indices 1 2 3 4 5 6 
#
# 1 0.026758 -0.010334 0.001067 0.000000 0.000000 0.000000
# 2 -0.010334 0.018219 -0.009024 0.000000 0.000000 0.000000
# 3 0.001067 -0.009024 0.014781 0.000000 0.000000 0.000000
# 4 0.000000 0.000000 0.000000 0.125820 0.000000 0.000000
# 5 0.000000 0.000000 0.000000 0.000000 0.065244 0.000000
# 6 0.000000 0.000000 0.000000 0.000000 0.000000 0.049771
#
#
# Mechanical properties :
#
#
# Convention : Reuss Voigt Hill
#
# Bulk Modulus (GPa) = 43.14515 56.90974 50.02744
# Shear Modulus (GPa) = 14.49692 18.15093 16.32393
#
# Velocity S-wave (km/s) = 2.87637 3.21852 3.05224
# Velocity P-wave (km/s) = 5.97114 6.80372 6.40098
#
# Compressibility (1/GPa) = 0.02317758
#
# Stress axis : x y z
#
# Youngs Moduli (GPa) = 37.37182 54.88718 67.65355
#
# Poissons Ratio (x) = 0.56722 -0.07221
# Poissons Ratio (y) = 0.38621 0.61048
# Poissons Ratio (z) = -0.03989 0.49528
#
# Static dielectric constant tensor:
#      x y z
#    x 3.135330 0.000000 0.000000 
#    y 0.000000 3.373760 0.000000 
#    z 0.000000 0.000000 3.248700 
# 
# 
# High freq. dielectric constant tensor:
#      x y z
#    x 1.660890 0.000000 0.000000 
#    y 0.000000 1.677240 0.000000 
#    z 0.000000 0.000000 1.669430 
# 
# From -- ./inp_files/7674.got.cif
#   From: 2010.03.12/outbox.cif.g09.slc.cpg/sg62_4_cif.got.tgz:7674.got - 2010.04.10 19:12:36.
