data_PCOD8252684
_publ_section_title
;
Structure prediction by ZEFSAII (Michael W. Deem and Ramdas Pophale) SiO2 
 PCOD8252684
Probable space group: P N M A
;
_chemical_formula_sum "Si O2"
_cell_formula_units_Z 48
_cell_length_a 18.289964
_cell_length_b 13.938188
_cell_length_c 9.673258
_cell_angle_alpha 90.000000
_cell_angle_beta 90.000000
_cell_angle_gamma 90.000000
_cell_volume 2465.993570
_symmetry_space_group_name_H-M "P N M A"
_symmetry_group_IT_number 62
_symmetry_cell_setting 'orthorhombic'
loop_
_space_group_symop_operation_xyz
x,y,z
1/2-x,-y,1/2+z
1/2+x,1/2-y,1/2-z
-x,1/2+y,-z
-x,-y,-z
1/2+x,y,1/2-z
1/2-x,1/2+y,1/2+z
x,1/2-y,z
loop_
_atom_site_type_symbol
_atom_site_label
_atom_site_fract_x
_atom_site_fract_y
_atom_site_fract_z
Si Si1 0.785499 0.641467 0.908844
Si Si2 0.921083 0.640050 0.706471
Si Si3 0.183304 0.864462 0.827142
Si Si4 0.461380 0.018804 0.355060
Si Si5 0.688326 0.138157 0.986378
Si Si6 0.646813 0.362089 0.685151
O O1 0.763176 0.750000 0.938295
O O2 0.859736 0.635282 0.823435
O O3 0.716995 0.597587 0.821284
O O4 0.802682 0.595780 0.060064
O O5 0.951366 0.750000 0.695927
O O6 0.885653 0.601598 0.562682
O O7 0.984302 0.564902 0.743535
O O8 0.176607 0.750000 0.825955
O O9 0.105871 0.908006 0.865310
O O10 0.237952 0.903043 0.946410
O O11 0.500000 0.000000 0.500000
O O12 0.431088 0.915822 0.305626
O O13 0.688014 0.250000 0.019002
O O14 0.690480 0.115002 0.824783
O O15 0.628949 0.250000 0.666408
#
# Coordination Sequence:
#
# PCOD8252684 Si02
#       6
#     8   8   8   8   8   8
#     4   8  15  32  57  77 101 139 178 224 271 319
#     4   9  17  34  57  79 107 143 184 225 272 336
#     4   9  19  36  58  82 107 139 188 235 272 326
#     4  12  23  32  53  86 114 148 187 227 282 333
#     4   8  17  36  60  80 105 147 187 228 280 329
#     4  10  20  35  55  80 111 144 185 229 280 334
#
# _framework density 19.464770999999999
#
# number of rings (size 3 to 8) (size 9 to 14) (size 15 to 20)
#    0.000    2.667    1.667    2.500    0.000    2.667 
#    0.000    0.000    3.667    0.000    0.000    0.000 
#    0.000    0.000    0.000    0.000    0.000    0.000 
#
# Total GULP energy -594650.829978 kJ/mol
# GULP energy per Si atom -12388.558958 kJ/mol
# Density = 1.942047 g / cm^3
# Si number density = 19.464771 Si / 1000 Ang^3
#
#
#
# Elastic Constant Matrix: (Units=GPa)
#
#
# Indices 1 2 3 4 5 6 
#
# 1 110.5892 35.5626 51.2058 0.0000 0.0000 0.0000
# 2 35.5626 69.2034 22.5857 0.0000 0.0000 0.0000
# 3 51.2058 22.5857 138.3158 0.0000 0.0000 0.0000
# 4 0.0000 0.0000 0.0000 13.2319 0.0000 0.0000
# 5 0.0000 0.0000 0.0000 0.0000 23.5180 0.0000
# 6 0.0000 0.0000 0.0000 0.0000 0.0000 35.1445
#
#
#
# Elastic Compliance Matrix: (Units=1/GPa)
#
#
# Indices 1 2 3 4 5 6 
#
# 1 0.012447 -0.005168 -0.003764 0.000000 0.000000 0.000000
# 2 -0.005168 0.017409 -0.000930 0.000000 0.000000 0.000000
# 3 -0.003764 -0.000930 0.008775 0.000000 0.000000 0.000000
# 4 0.000000 0.000000 0.000000 0.075575 0.000000 0.000000
# 5 0.000000 0.000000 0.000000 0.000000 0.042521 0.000000
# 6 0.000000 0.000000 0.000000 0.000000 0.000000 0.028454
#
#
# Mechanical properties :
#
#
# Convention : Reuss Voigt Hill
#
# Bulk Modulus (GPa) = 52.88692 59.64629 56.26661
# Shear Modulus (GPa) = 23.67338 28.29583 25.98461
#
# Velocity S-wave (km/s) = 3.49121 3.81687 3.65767
# Velocity P-wave (km/s) = 6.59401 7.08056 6.84162
#
# Compressibility (1/GPa) = 0.01890827
#
# Stress axis : x y z
#
# Youngs Moduli (GPa) = 80.33879 57.44071 113.95790
#
# Poissons Ratio (x) = 0.29685 0.42896
# Poissons Ratio (y) = 0.41519 0.10593
# Poissons Ratio (z) = 0.30241 0.05339
#
# Static dielectric constant tensor:
#      x y z
#    x 3.452820 0.000000 0.000000 
#    y 0.000000 3.505790 0.000000 
#    z 0.000000 0.000000 3.794960 
# 
# 
# High freq. dielectric constant tensor:
#      x y z
#    x 1.741060 0.000000 0.000000 
#    y 0.000000 1.751340 0.000000 
#    z 0.000000 0.000000 1.762660 
# 
# From -- ./inp_files/7628.got.cif
#   From: 2010.03.12/outbox.cif.g09.slc.cpg/sg62_4_cif.got.tgz:7628.got - 2010.04.10 19:12:36.
