data_PCOD8252412
_publ_section_title
;
Structure prediction by ZEFSAII (Michael W. Deem and Ramdas Pophale) SiO2 
 PCOD8252412
Probable space group: P N M A
;
_chemical_formula_sum "Si O2"
_cell_formula_units_Z 64
_cell_length_a 20.917359
_cell_length_b 8.726532
_cell_length_c 18.629012
_cell_angle_alpha 90.000000
_cell_angle_beta 90.000000
_cell_angle_gamma 90.000000
_cell_volume 3400.465384
_symmetry_space_group_name_H-M "P N M A"
_symmetry_group_IT_number 62
_symmetry_cell_setting 'orthorhombic'
loop_
_space_group_symop_operation_xyz
x,y,z
1/2-x,-y,1/2+z
1/2+x,1/2-y,1/2-z
-x,1/2+y,-z
-x,-y,-z
1/2+x,y,1/2-z
1/2-x,1/2+y,1/2+z
x,1/2-y,z
loop_
_atom_site_type_symbol
_atom_site_label
_atom_site_fract_x
_atom_site_fract_y
_atom_site_fract_z
Si Si1 0.138000 0.426299 0.338879
Si Si2 0.637983 0.067525 0.680718
Si Si3 0.128565 0.430344 0.655158
Si Si4 0.503898 0.925975 0.827965
Si Si5 0.636309 0.567323 0.317076
Si Si6 0.244644 0.930693 0.073462
Si Si7 0.501474 0.427450 0.678192
Si Si8 0.750547 0.568924 0.079625
O O1 0.157643 0.250000 0.334526
O O2 0.149789 0.497437 0.260702
O O3 0.181399 0.507814 0.397956
O O4 0.064684 0.444931 0.366937
O O5 0.638737 0.250000 0.677102
O O6 0.645798 0.016455 0.763597
O O7 0.569166 0.005349 0.648221
O O8 0.695663 0.000026 0.633515
O O9 0.116011 0.250000 0.651276
O O10 0.065471 0.520512 0.625450
O O11 0.186746 0.479037 0.604343
O O12 0.512125 0.750000 0.802425
O O13 0.503658 0.044949 0.762879
O O14 0.636379 0.750000 0.308016
O O15 0.690577 0.512091 0.371349
O O16 0.567180 0.506449 0.348692
O O17 0.240118 0.750000 0.061138
O O18 0.231860 0.016089 0.999631
O O19 0.501134 0.250000 0.661093
O O20 0.749819 0.750000 0.083247
#
# Coordination Sequence:
#
# PCOD8252412 Si02
#       8
#     8   8   8   8   8   8   8   8
#     4  10  20  34  53  77 104 130 160 206 256 297
#     4   8  15  30  52  76  98 124 163 206 244 286
#     4   9  17  32  54  74  96 129 164 201 247 299
#     4   9  17  29  48  76 104 124 152 202 254 296
#     4   9  17  32  56  79  99 130 169 205 244 298
#     4  10  21  36  51  72 104 136 169 210 253 293
#     4   8  14  28  51  75  98 127 164 201 241 293
#     4  11  22  35  51  71 100 138 176 209 245 296
#
# _framework density 18.820952999999999
#
# number of rings (size 3 to 8) (size 9 to 14) (size 15 to 20)
#    0.000    2.750    0.000    2.625    0.000    4.500 
#    0.000    8.750    0.000    0.000    0.000    0.000 
#    0.000    0.000    0.000    0.000    0.000    0.000 
#
# Total GULP energy -792904.166460 kJ/mol
# GULP energy per Si atom -12389.127601 kJ/mol
# Density = 1.877812 g / cm^3
# Si number density = 18.820953 Si / 1000 Ang^3
#
#
#
# Elastic Constant Matrix: (Units=GPa)
#
#
# Indices 1 2 3 4 5 6 
#
# 1 116.0580 21.2401 20.1437 0.0000 0.0000 0.0000
# 2 21.2401 28.0673 16.4658 0.0000 0.0000 0.0000
# 3 20.1437 16.4658 48.6524 0.0000 0.0000 0.0000
# 4 0.0000 0.0000 0.0000 24.6898 0.0000 0.0000
# 5 0.0000 0.0000 0.0000 0.0000 8.0907 0.0000
# 6 0.0000 0.0000 0.0000 0.0000 0.0000 21.4285
#
#
#
# Elastic Compliance Matrix: (Units=1/GPa)
#
#
# Indices 1 2 3 4 5 6 
#
# 1 0.010155 -0.006511 -0.002001 0.000000 0.000000 0.000000
# 2 -0.006511 0.048630 -0.013762 0.000000 0.000000 0.000000
# 3 -0.002001 -0.013762 0.026040 0.000000 0.000000 0.000000
# 4 0.000000 0.000000 0.000000 0.040503 0.000000 0.000000
# 5 0.000000 0.000000 0.000000 0.000000 0.123599 0.000000
# 6 0.000000 0.000000 0.000000 0.000000 0.000000 0.046667
#
#
# Mechanical properties :
#
#
# Convention : Reuss Voigt Hill
#
# Bulk Modulus (GPa) = 24.82857 34.27524 29.55190
# Shear Modulus (GPa) = 14.14153 19.83699 16.98926
#
# Velocity S-wave (km/s) = 2.74409 3.25003 3.00772
# Velocity P-wave (km/s) = 4.82293 5.68633 5.27234
#
# Compressibility (1/GPa) = 0.04027618
#
# Stress axis : x y z
#
# Youngs Moduli (GPa) = 98.47049 20.56351 38.40226
#
# Poissons Ratio (x) = 0.13389 0.07684
# Poissons Ratio (y) = 0.64116 0.52850
# Poissons Ratio (z) = 0.19704 0.28300
#
# Static dielectric constant tensor:
#      x y z
#    x 4.212120 0.000000 0.000000 
#    y 0.000000 3.257810 0.000000 
#    z 0.000000 0.000000 3.092460 
# 
# 
# High freq. dielectric constant tensor:
#      x y z
#    x 1.762420 0.000000 0.000000 
#    y 0.000000 1.712620 0.000000 
#    z 0.000000 0.000000 1.683960 
# 
# From -- ./inp_files/24817.got.cif
#   From: 2010.03.12/outbox.cif.g09.slc.cpg/sg62_13_cif.got.tgz:24817.got - 2010.04.10 19:12:36.
