data_PCOD8252675
_publ_section_title
;
Structure prediction by ZEFSAII (Michael W. Deem and Ramdas Pophale) SiO2 
 PCOD8252675
Probable space group: P N M A
;
_chemical_formula_sum "Si O2"
_cell_formula_units_Z 64
_cell_length_a 12.624904
_cell_length_b 9.019234
_cell_length_c 29.033650
_cell_angle_alpha 90.000000
_cell_angle_beta 90.000000
_cell_angle_gamma 90.000000
_cell_volume 3305.973562
_symmetry_space_group_name_H-M "P N M A"
_symmetry_group_IT_number 62
_symmetry_cell_setting 'orthorhombic'
loop_
_space_group_symop_operation_xyz
x,y,z
1/2-x,-y,1/2+z
1/2+x,1/2-y,1/2-z
-x,1/2+y,-z
-x,-y,-z
1/2+x,y,1/2-z
1/2-x,1/2+y,1/2+z
x,1/2-y,z
loop_
_atom_site_type_symbol
_atom_site_label
_atom_site_fract_x
_atom_site_fract_y
_atom_site_fract_z
Si Si1 0.494211 0.073260 0.859743
Si Si2 0.794041 0.424325 0.381780
Si Si3 0.526826 0.922103 0.244423
Si Si4 0.862996 0.411764 0.203869
Si Si5 0.288872 0.912567 0.716193
Si Si6 0.895242 0.921054 0.947160
Si Si7 0.109436 0.422375 0.945107
Si Si8 0.223974 0.073427 0.380759
O O1 0.486886 0.250000 0.863767
O O2 0.503264 0.018675 0.806539
O O3 0.596832 0.014802 0.887447
O O4 0.390618 0.002759 0.883285
O O5 0.820546 0.250000 0.382597
O O6 0.737589 0.471192 0.334375
O O7 0.712912 0.470709 0.422055
O O8 0.510885 0.750000 0.244353
O O9 0.463090 0.983489 0.288666
O O10 0.646005 0.966593 0.255465
O O11 0.900655 0.250000 0.186176
O O12 0.817833 0.397030 0.255103
O O13 0.779780 0.476160 0.167054
O O14 0.345492 0.750000 0.714095
O O15 0.920918 0.750000 0.936288
O O16 0.876746 0.948629 0.000811
O O17 0.995012 0.016082 0.928784
O O18 0.117076 0.250000 0.931556
O O19 0.204007 0.513918 0.922117
O O20 0.209965 0.250000 0.384277
#
# Coordination Sequence:
#
# PCOD8252675 Si02
#       8
#     8   8   8   8   8   8   8   8
#     4  11  23  38  56  82 118 155 190 235 289 338
#     4  10  21  38  61  85 111 149 195 236 276 334
#     4  11  23  35  51  77 114 152 186 233 286 335
#     4  10  21  36  55  78 107 148 194 233 271 327
#     4  10  20  35  55  79 109 149 194 232 271 328
#     4   9  20  40  64  90 118 149 186 231 287 347
#     4  10  21  39  63  90 120 148 182 235 294 346
#     4  11  23  39  60  84 113 153 200 240 279 337
#
# _framework density 19.358896999999999
#
# number of rings (size 3 to 8) (size 9 to 14) (size 15 to 20)
#    0.000    1.750    2.500    1.500    1.750    4.000 
#    0.000    0.625    0.000    0.000    0.000    0.000 
#    0.000    0.000    0.000    0.000    0.000    0.000 
#
# Total GULP energy -793498.353885 kJ/mol
# GULP energy per Si atom -12398.411779 kJ/mol
# Density = 1.931484 g / cm^3
# Si number density = 19.358897 Si / 1000 Ang^3
#
#
#
# Elastic Constant Matrix: (Units=GPa)
#
#
# Indices 1 2 3 4 5 6 
#
# 1 124.5050 55.1581 44.3558 0.0000 0.0000 0.0000
# 2 55.1581 70.5398 32.5341 0.0000 0.0000 0.0000
# 3 44.3558 32.5341 66.8203 0.0000 0.0000 0.0000
# 4 0.0000 0.0000 0.0000 25.5055 0.0000 0.0000
# 5 0.0000 0.0000 0.0000 0.0000 33.0332 0.0000
# 6 0.0000 0.0000 0.0000 0.0000 0.0000 32.1814
#
#
#
# Elastic Compliance Matrix: (Units=1/GPa)
#
#
# Indices 1 2 3 4 5 6 
#
# 1 0.013428 -0.008239 -0.004902 0.000000 0.000000 0.000000
# 2 -0.008239 0.023337 -0.005893 0.000000 0.000000 0.000000
# 3 -0.004902 -0.005893 0.021089 0.000000 0.000000 0.000000
# 4 0.000000 0.000000 0.000000 0.039207 0.000000 0.000000
# 5 0.000000 0.000000 0.000000 0.000000 0.030273 0.000000
# 6 0.000000 0.000000 0.000000 0.000000 0.000000 0.031074
#
#
# Mechanical properties :
#
#
# Convention : Reuss Voigt Hill
#
# Bulk Modulus (GPa) = 50.54358 58.44013 54.49186
# Shear Modulus (GPa) = 24.62170 26.79849 25.71010
#
# Velocity S-wave (km/s) = 3.57018 3.72465 3.64823
# Velocity P-wave (km/s) = 6.56965 6.98217 6.77905
#
# Compressibility (1/GPa) = 0.01978490
#
# Stress axis : x y z
#
# Youngs Moduli (GPa) = 74.46886 42.85019 47.41797
#
# Poissons Ratio (x) = 0.35305 0.23246
# Poissons Ratio (y) = 0.61357 0.27945
# Poissons Ratio (z) = 0.36507 0.25253
#
# Static dielectric constant tensor:
#      x y z
#    x 3.476840 0.000000 0.000000 
#    y 0.000000 3.511840 0.000000 
#    z 0.000000 0.000000 3.476510 
# 
# 
# High freq. dielectric constant tensor:
#      x y z
#    x 1.756200 0.000000 0.000000 
#    y 0.000000 1.751790 0.000000 
#    z 0.000000 0.000000 1.740570 
# 
# From -- ./inp_files/32508.got.cif
#   From: 2010.03.12/outbox.cif.g09.slc.cpg/sg62_17_cif.got.tgz:32508.got - 2010.04.10 19:12:36.
