data_PCOD8252260
_publ_section_title
;
Structure prediction by ZEFSAII (Michael W. Deem and Ramdas Pophale) SiO2 
 PCOD8252260
Probable space group: P N M A
;
_chemical_formula_sum "Si O2"
_cell_formula_units_Z 56
_cell_length_a 18.817753
_cell_length_b 9.271464
_cell_length_c 18.224415
_cell_angle_alpha 90.000000
_cell_angle_beta 90.000000
_cell_angle_gamma 90.000000
_cell_volume 3179.579414
_symmetry_space_group_name_H-M "P N M A"
_symmetry_group_IT_number 62
_symmetry_cell_setting 'orthorhombic'
loop_
_space_group_symop_operation_xyz
x,y,z
1/2-x,-y,1/2+z
1/2+x,1/2-y,1/2-z
-x,1/2+y,-z
-x,-y,-z
1/2+x,y,1/2-z
1/2-x,1/2+y,1/2+z
x,1/2-y,z
loop_
_atom_site_type_symbol
_atom_site_label
_atom_site_fract_x
_atom_site_fract_y
_atom_site_fract_z
Si Si1 0.243263 0.583065 0.347805
Si Si2 0.955532 0.080385 0.825255
Si Si3 0.935728 0.912288 0.532088
Si Si4 0.364505 0.414934 0.538795
Si Si5 0.605633 0.416415 0.608585
Si Si6 0.386172 0.919447 0.804511
Si Si7 0.283779 0.586984 0.989485
O O1 0.223684 0.750000 0.336007
O O2 0.327626 0.553871 0.336430
O O3 0.193019 0.487908 0.294720
O O4 0.229278 0.537910 0.431229
O O5 0.945556 0.250000 0.810116
O O6 0.035573 0.040723 0.847187
O O7 0.939655 0.991733 0.752272
O O8 0.902549 0.023836 0.888963
O O9 0.962862 0.750000 0.531062
O O10 0.915625 0.958008 0.614812
O O11 0.864666 0.932503 0.480997
O O12 0.000000 0.000000 0.500000
O O13 0.387733 0.250000 0.528296
O O14 0.390981 0.494754 0.466344
O O15 0.278495 0.428793 0.550197
O O16 0.604409 0.250000 0.584773
O O17 0.381354 0.750000 0.790147
O O18 0.279271 0.750000 0.954080
#
# Coordination Sequence:
#
# PCOD8252260 Si02
#       7
#     8   8   8   8   8   8   8
#     4   9  16  29  50  71  91 121 159 198 238 286
#     4  10  20  33  49  73 104 135 165 201 246 297
#     4   9  18  32  51  72  93 119 157 203 249 293
#     4   9  17  30  50  73  99 132 167 200 239 288
#     4   9  18  31  49  75 103 129 164 205 243 288
#     4  10  21  36  51  70  97 130 167 206 249 299
#     4   8  15  29  47  70  97 122 152 193 237 285
#
# _framework density 17.612392
#
# number of rings (size 3 to 8) (size 9 to 14) (size 15 to 20)
#    0.000    2.857    0.000    2.143    0.000    4.571 
#    0.000    1.429    0.000    6.857    0.000    0.000 
#    0.000    0.000    0.000    0.000    0.000    0.000 
#
# Total GULP energy -693904.504241 kJ/mol
# GULP energy per Si atom -12391.151861 kJ/mol
# Density = 1.757231 g / cm^3
# Si number density = 17.612392 Si / 1000 Ang^3
#
#
#
# Elastic Constant Matrix: (Units=GPa)
#
#
# Indices 1 2 3 4 5 6 
#
# 1 163.7553 59.4107 59.2657 0.0000 0.0000 0.0000
# 2 59.4107 71.7221 39.8107 0.0000 0.0000 0.0000
# 3 59.2657 39.8107 59.2003 0.0000 0.0000 0.0000
# 4 0.0000 0.0000 0.0000 26.0137 0.0000 0.0000
# 5 0.0000 0.0000 0.0000 0.0000 22.7295 0.0000
# 6 0.0000 0.0000 0.0000 0.0000 0.0000 26.4337
#
#
#
# Elastic Compliance Matrix: (Units=1/GPa)
#
#
# Indices 1 2 3 4 5 6 
#
# 1 0.010426 -0.004536 -0.007387 0.000000 0.000000 0.000000
# 2 -0.004536 0.024220 -0.011747 0.000000 0.000000 0.000000
# 3 -0.007387 -0.011747 0.032186 0.000000 0.000000 0.000000
# 4 0.000000 0.000000 0.000000 0.038441 0.000000 0.000000
# 5 0.000000 0.000000 0.000000 0.000000 0.043996 0.000000
# 6 0.000000 0.000000 0.000000 0.000000 0.000000 0.037831
#
#
# Mechanical properties :
#
#
# Convention : Reuss Voigt Hill
#
# Bulk Modulus (GPa) = 51.29979 67.96132 59.63056
# Shear Modulus (GPa) = 20.75237 24.11476 22.43356
#
# Velocity S-wave (km/s) = 3.43634 3.70427 3.57282
# Velocity P-wave (km/s) = 6.70335 7.54762 7.13798
#
# Compressibility (1/GPa) = 0.01949326
#
# Stress axis : x y z
#
# Youngs Moduli (GPa) = 95.91621 41.28806 31.06909
#
# Poissons Ratio (x) = 0.18727 0.22951
# Poissons Ratio (y) = 0.43506 0.36496
# Poissons Ratio (z) = 0.70854 0.48499
#
# Static dielectric constant tensor:
#      x y z
#    x 3.694340 0.000000 0.000000 
#    y 0.000000 3.296540 0.000000 
#    z 0.000000 0.000000 2.910170 
# 
# 
# High freq. dielectric constant tensor:
#      x y z
#    x 1.700480 0.000000 0.000000 
#    y 0.000000 1.684380 0.000000 
#    z 0.000000 0.000000 1.634460 
# 
# From -- ./inp_files/27593.got.cif
#   From: 2010.03.12/outbox.cif.g09.slc.cpg/sg62_14_cif.got.tgz:27593.got - 2010.04.10 19:12:36.
