data_PCOD8252973
_publ_section_title
;
Structure prediction by ZEFSAII (Michael W. Deem and Ramdas Pophale) SiO2 
 PCOD8252973
Probable space group: P N M A
;
_chemical_formula_sum "Si O2"
_cell_formula_units_Z 56
_cell_length_a 22.363391
_cell_length_b 8.907594
_cell_length_c 14.291834
_cell_angle_alpha 90.000000
_cell_angle_beta 90.000000
_cell_angle_gamma 90.000000
_cell_volume 2846.990607
_symmetry_space_group_name_H-M "P N M A"
_symmetry_group_IT_number 62
_symmetry_cell_setting 'orthorhombic'
loop_
_space_group_symop_operation_xyz
x,y,z
1/2-x,-y,1/2+z
1/2+x,1/2-y,1/2-z
-x,1/2+y,-z
-x,-y,-z
1/2+x,y,1/2-z
1/2-x,1/2+y,1/2+z
x,1/2-y,z
loop_
_atom_site_type_symbol
_atom_site_label
_atom_site_fract_x
_atom_site_fract_y
_atom_site_fract_z
Si Si1 0.784254 0.079681 0.392855
Si Si2 0.497961 0.927068 0.100883
Si Si3 0.608855 0.926703 0.224810
Si Si4 0.646443 0.425488 0.405792
Si Si5 0.884018 0.574090 0.280659
Si Si6 0.277401 0.077654 0.894681
Si Si7 0.347399 0.072987 0.400090
O O1 0.797352 0.250000 0.359878
O O2 0.714951 0.038603 0.380140
O O3 0.802770 0.058579 0.500739
O O4 0.821614 0.965216 0.330433
O O5 0.499955 0.750000 0.087354
O O6 0.554283 0.983346 0.161284
O O7 0.438103 0.979375 0.153601
O O8 0.500000 0.000000 0.000000
O O9 0.605054 0.750000 0.242111
O O10 0.670532 0.972692 0.174941
O O11 0.604550 0.009627 0.324276
O O12 0.635334 0.250000 0.417938
O O13 0.629333 0.503714 0.503037
O O14 0.886549 0.750000 0.260706
O O15 0.889853 0.487917 0.182314
O O16 0.257229 0.250000 0.878879
O O17 0.220665 0.972873 0.876694
O O18 0.352043 0.250000 0.406523
#
# Coordination Sequence:
#
# PCOD8252973 Si02
#       7
#     8   8   8   8   8   8   8
#     4   9  18  33  54  82 114 146 180 221 271 325
#     4  10  23  41  60  83 112 145 182 225 268 316
#     4  10  20  36  57  81 110 145 184 225 272 322
#     4  10  21  37  56  81 112 143 179 225 275 327
#     4  11  22  36  55  80 111 147 185 225 270 319
#     4   9  18  33  55  82 113 146 179 222 273 324
#     4  11  22  36  56  81 110 144 182 225 272 325
#
# _framework density 19.669893999999999
#
# number of rings (size 3 to 8) (size 9 to 14) (size 15 to 20)
#    0.000    2.000    0.000    4.714    0.000    8.571 
#    0.000    0.714    0.000    0.000    0.000    0.000 
#    0.000    0.000    0.000    0.000    0.000    0.000 
#
# Total GULP energy -694655.727557 kJ/mol
# GULP energy per Si atom -12404.566564 kJ/mol
# Density = 1.962512 g / cm^3
# Si number density = 19.669894 Si / 1000 Ang^3
#
#
#
# Elastic Constant Matrix: (Units=GPa)
#
#
# Indices 1 2 3 4 5 6 
#
# 1 66.2748 41.6344 70.1174 0.0000 0.0000 0.0000
# 2 41.6344 92.3757 68.1546 0.0000 0.0000 0.0000
# 3 70.1174 68.1546 169.9213 0.0000 0.0000 0.0000
# 4 0.0000 0.0000 0.0000 39.6105 0.0000 0.0000
# 5 0.0000 0.0000 0.0000 0.0000 32.5658 0.0000
# 6 0.0000 0.0000 0.0000 0.0000 0.0000 22.1791
#
#
#
# Elastic Compliance Matrix: (Units=1/GPa)
#
#
# Indices 1 2 3 4 5 6 
#
# 1 0.028957 -0.006015 -0.009536 0.000000 0.000000 0.000000
# 2 -0.006015 0.016625 -0.004186 0.000000 0.000000 0.000000
# 3 -0.009536 -0.004186 0.011499 0.000000 0.000000 0.000000
# 4 0.000000 0.000000 0.000000 0.025246 0.000000 0.000000
# 5 0.000000 0.000000 0.000000 0.000000 0.030707 0.000000
# 6 0.000000 0.000000 0.000000 0.000000 0.000000 0.045087
#
#
# Mechanical properties :
#
#
# Convention : Reuss Voigt Hill
#
# Bulk Modulus (GPa) = 56.79933 76.48719 66.64326
# Shear Modulus (GPa) = 24.57437 28.78213 26.67825
#
# Velocity S-wave (km/s) = 3.53843 3.82941 3.68679
# Velocity P-wave (km/s) = 6.75522 7.64999 7.21648
#
# Compressibility (1/GPa) = 0.01760584
#
# Stress axis : x y z
#
# Youngs Moduli (GPa) = 34.53455 60.15084 86.96321
#
# Poissons Ratio (x) = 0.36182 0.82929
# Poissons Ratio (y) = 0.20773 0.36403
# Poissons Ratio (z) = 0.32933 0.25179
#
# Static dielectric constant tensor:
#      x y z
#    x 3.464020 0.000000 0.000000 
#    y 0.000000 3.442510 0.000000 
#    z 0.000000 0.000000 3.746620 
# 
# 
# High freq. dielectric constant tensor:
#      x y z
#    x 1.744830 0.000000 0.000000 
#    y 0.000000 1.762630 0.000000 
#    z 0.000000 0.000000 1.784440 
# 
# From -- ./inp_files/20407.got.cif
#   From: 2010.03.12/outbox.cif.g09.slc.cpg/sg62_11_cif.got.tgz:20407.got - 2010.04.10 19:12:36.
