data_PCOD8252463
_publ_section_title
;
Structure prediction by ZEFSAII (Michael W. Deem and Ramdas Pophale) SiO2 
 PCOD8252463
Probable space group: P N M A
;
_chemical_formula_sum "Si O2"
_cell_formula_units_Z 56
_cell_length_a 16.330557
_cell_length_b 9.241212
_cell_length_c 20.074171
_cell_angle_alpha 90.000000
_cell_angle_beta 90.000000
_cell_angle_gamma 90.000000
_cell_volume 3029.476239
_symmetry_space_group_name_H-M "P N M A"
_symmetry_group_IT_number 62
_symmetry_cell_setting 'orthorhombic'
loop_
_space_group_symop_operation_xyz
x,y,z
1/2-x,-y,1/2+z
1/2+x,1/2-y,1/2-z
-x,1/2+y,-z
-x,-y,-z
1/2+x,y,1/2-z
1/2-x,1/2+y,1/2+z
x,1/2-y,z
loop_
_atom_site_type_symbol
_atom_site_label
_atom_site_fract_x
_atom_site_fract_y
_atom_site_fract_z
Si Si1 0.847001 0.581886 0.148418
Si Si2 0.754594 0.078003 0.522392
Si Si3 0.016085 0.417446 0.685264
Si Si4 0.062991 0.581209 0.453471
Si Si5 0.533288 0.585003 0.330322
Si Si6 0.183842 0.080208 0.115976
Si Si7 0.174878 0.579341 0.717584
O O1 0.826980 0.750000 0.162073
O O2 0.802368 0.522895 0.082568
O O3 0.813127 0.490943 0.210315
O O4 0.943666 0.558420 0.138839
O O5 0.756129 0.250000 0.521347
O O6 0.846576 0.019275 0.532597
O O7 0.719210 0.016503 0.453180
O O8 0.043943 0.250000 0.688775
O O9 0.097060 0.514314 0.678764
O O10 0.957033 0.449415 0.623600
O O11 0.967037 0.458397 0.752312
O O12 0.057100 0.750000 0.470307
O O13 0.000000 0.500000 0.500000
O O14 0.561041 0.750000 0.339203
O O15 0.595527 0.486366 0.370514
O O16 0.171654 0.250000 0.109394
O O17 0.245114 0.040004 0.175322
O O18 0.162009 0.750000 0.724679
#
# Coordination Sequence:
#
# PCOD8252463 Si02
#       7
#     8   8   8   8   8   8   8
#     4   9  19  37  59  79 102 139 185 227 266 318
#     4   9  19  36  57  78 105 144 185 219 264 324
#     4   9  19  35  55  80 106 137 183 224 263 321
#     4  10  20  35  56  81 110 145 181 221 270 324
#     4   9  19  34  53  80 105 132 179 229 267 309
#     4  10  21  35  52  78 109 143 179 215 267 330
#     4  10  20  34  54  80 111 142 175 220 273 324
#
# _framework density 18.485043000000001
#
# number of rings (size 3 to 8) (size 9 to 14) (size 15 to 20)
#    0.000    2.571    0.000    2.143    2.000    5.714 
#    0.000    2.143    0.000    0.000    0.000    0.000 
#    0.000    0.000    0.000    0.000    0.000    0.000 
#
# Total GULP energy -694516.226594 kJ/mol
# GULP energy per Si atom -12402.075475 kJ/mol
# Density = 1.844297 g / cm^3
# Si number density = 18.485043 Si / 1000 Ang^3
#
#
#
# Elastic Constant Matrix: (Units=GPa)
#
#
# Indices 1 2 3 4 5 6 
#
# 1 133.3947 43.9551 88.8874 0.0000 0.0000 0.0000
# 2 43.9551 47.3325 44.4577 0.0000 0.0000 0.0000
# 3 88.8874 44.4577 130.3096 0.0000 0.0000 0.0000
# 4 0.0000 0.0000 0.0000 25.2730 0.0000 0.0000
# 5 0.0000 0.0000 0.0000 0.0000 34.3270 0.0000
# 6 0.0000 0.0000 0.0000 0.0000 0.0000 27.9888
#
#
#
# Elastic Compliance Matrix: (Units=1/GPa)
#
#
# Indices 1 2 3 4 5 6 
#
# 1 0.014928 -0.006326 -0.008025 0.000000 0.000000 0.000000
# 2 -0.006326 0.033770 -0.007207 0.000000 0.000000 0.000000
# 3 -0.008025 -0.007207 0.015607 0.000000 0.000000 0.000000
# 4 0.000000 0.000000 0.000000 0.039568 0.000000 0.000000
# 5 0.000000 0.000000 0.000000 0.000000 0.029132 0.000000
# 6 0.000000 0.000000 0.000000 0.000000 0.000000 0.035729
#
#
# Mechanical properties :
#
#
# Convention : Reuss Voigt Hill
#
# Bulk Modulus (GPa) = 47.18947 73.95970 60.57458
# Shear Modulus (GPa) = 22.84035 26.43353 24.63694
#
# Velocity S-wave (km/s) = 3.51894 3.78563 3.65472
# Velocity P-wave (km/s) = 6.48803 7.69451 7.11688
#
# Compressibility (1/GPa) = 0.02119117
#
# Stress axis : x y z
#
# Youngs Moduli (GPa) = 66.98720 29.61187 64.07542
#
# Poissons Ratio (x) = 0.18731 0.51419
# Poissons Ratio (y) = 0.42373 0.46176
# Poissons Ratio (z) = 0.53756 0.21340
#
# Static dielectric constant tensor:
#      x y z
#    x 3.407200 0.000000 0.000000 
#    y 0.000000 3.197980 0.000000 
#    z 0.000000 0.000000 3.682650 
# 
# 
# High freq. dielectric constant tensor:
#      x y z
#    x 1.721230 0.000000 0.000000 
#    y 0.000000 1.696110 0.000000 
#    z 0.000000 0.000000 1.726340 
# 
# From -- ./inp_files/27190.got.cif
#   From: 2010.03.12/outbox.cif.g09.slc.cpg/sg62_14_cif.got.tgz:27190.got - 2010.04.10 19:12:36.
