data_PCOD8252058
_publ_section_title
;
Structure prediction by ZEFSAII (Michael W. Deem and Ramdas Pophale) SiO2 
 PCOD8252058
Probable space group: P N M A
;
_chemical_formula_sum "Si O2"
_cell_formula_units_Z 24
_cell_length_a 13.478997
_cell_length_b 5.325292
_cell_length_c 12.468625
_cell_angle_alpha 90.000000
_cell_angle_beta 90.000000
_cell_angle_gamma 90.000000
_cell_volume 894.992851
_symmetry_space_group_name_H-M "P N M A"
_symmetry_group_IT_number 62
_symmetry_cell_setting 'orthorhombic'
loop_
_space_group_symop_operation_xyz
x,y,z
1/2-x,-y,1/2+z
1/2+x,1/2-y,1/2-z
-x,1/2+y,-z
-x,-y,-z
1/2+x,y,1/2-z
1/2-x,1/2+y,1/2+z
x,1/2-y,z
loop_
_atom_site_type_symbol
_atom_site_label
_atom_site_fract_x
_atom_site_fract_y
_atom_site_fract_z
Si Si1 0.199708 0.750000 0.549870
Si Si2 0.900812 0.750000 0.362282
Si Si3 0.925697 0.250000 0.042231
Si Si4 0.386434 0.750000 0.689306
Si Si5 0.877960 0.250000 0.673948
Si Si6 0.101964 0.250000 0.890437
O O1 0.144273 0.501009 0.589079
O O2 0.311860 0.750000 0.590107
O O3 0.206183 0.750000 0.419151
O O4 0.882704 0.750000 0.235126
O O5 0.017254 0.750000 0.387723
O O6 0.855693 0.493999 0.055403
O O7 0.001863 0.250000 0.143945
O O8 0.982824 0.250000 0.927215
O O9 0.365341 0.501175 0.757695
#
# Coordination Sequence:
#
# PCOD8252058 Si02
#       6
#     4   4   4   4   4   4
#     4  12  28  42  68 104 135 172 234 276 337 400
#     4  12  22  45  69 101 135 178 227 281 324 407
#     4  10  19  37  59  96 124 171 213 265 320 398
#     4  12  24  44  68  96 137 181 219 278 350 397
#     4  12  25  47  72  94 135 186 220 276 341 402
#     4  10  20  35  66  93 126 162 223 266 320 374
#
# _framework density 26.815857999999999
#
# number of rings (size 3 to 8) (size 9 to 14) (size 15 to 20)
#    0.000    0.667    3.333    5.000    0.000    2.667 
#    0.000    0.000    0.000    0.000    0.000    0.000 
#    0.000    0.000    0.000    0.000    0.000    0.000 
#
# Total GULP energy -297539.673613 kJ/mol
# GULP energy per Si atom -12397.486401 kJ/mol
# Density = 2.675482 g / cm^3
# Si number density = 26.815858 Si / 1000 Ang^3
#
#
#
# Elastic Constant Matrix: (Units=GPa)
#
#
# Indices 1 2 3 4 5 6 
#
# 1 86.8108 35.2835 29.6234 0.0000 0.0000 0.0000
# 2 35.2835 309.5067 91.1145 0.0000 0.0000 0.0000
# 3 29.6234 91.1145 186.3377 0.0000 0.0000 0.0000
# 4 0.0000 0.0000 0.0000 157.4196 0.0000 0.0000
# 5 0.0000 0.0000 0.0000 0.0000 50.9780 0.0000
# 6 0.0000 0.0000 0.0000 0.0000 0.0000 31.2007
#
#
#
# Elastic Compliance Matrix: (Units=1/GPa)
#
#
# Indices 1 2 3 4 5 6 
#
# 1 0.012427 -0.000976 -0.001499 0.000000 0.000000 0.000000
# 2 -0.000976 0.003851 -0.001728 0.000000 0.000000 0.000000
# 3 -0.001499 -0.001728 0.006450 0.000000 0.000000 0.000000
# 4 0.000000 0.000000 0.000000 0.006352 0.000000 0.000000
# 5 0.000000 0.000000 0.000000 0.000000 0.019616 0.000000
# 6 0.000000 0.000000 0.000000 0.000000 0.000000 0.032051
#
#
# Mechanical properties :
#
#
# Convention : Reuss Voigt Hill
#
# Bulk Modulus (GPa) = 69.81434 99.41091 84.61262
# Shear Modulus (GPa) = 53.23358 76.36191 64.79775
#
# Velocity S-wave (km/s) = 4.46034 5.34212 4.92102
# Velocity P-wave (km/s) = 7.25379 8.67197 7.99439
#
# Compressibility (1/GPa) = 0.01432370
#
# Stress axis : x y z
#
# Youngs Moduli (GPa) = 80.46873 259.68519 155.04512
#
# Poissons Ratio (x) = 0.25333 0.23236
# Poissons Ratio (y) = 0.07850 0.26790
# Poissons Ratio (z) = 0.12059 0.44870
#
# Static dielectric constant tensor:
#      x y z
#    x 4.845100 0.000000 0.000000 
#    y 0.000000 6.314510 0.000000 
#    z 0.000000 0.000000 4.972050 
# 
# 
# High freq. dielectric constant tensor:
#      x y z
#    x 2.071380 0.000000 0.000000 
#    y 0.000000 2.127890 0.000000 
#    z 0.000000 0.000000 2.091990 
# 
# From -- ./inp_files/12656.got.cif
#   From: 2010.03.12/outbox.cif.g09.slc.cpg/sg62_7_cif.got.tgz:12656.got - 2010.04.10 19:12:36.
