data_PCOD8252289
_publ_section_title
;
Structure prediction by ZEFSAII (Michael W. Deem and Ramdas Pophale) SiO2 
 PCOD8252289
Probable space group: P N M A
;
_chemical_formula_sum "Si O2"
_cell_formula_units_Z 64
_cell_length_a 14.756415
_cell_length_b 9.300861
_cell_length_c 24.110913
_cell_angle_alpha 90.000000
_cell_angle_beta 90.000000
_cell_angle_gamma 90.000000
_cell_volume 3309.159272
_symmetry_space_group_name_H-M "P N M A"
_symmetry_group_IT_number 62
_symmetry_cell_setting 'orthorhombic'
loop_
_space_group_symop_operation_xyz
x,y,z
1/2-x,-y,1/2+z
1/2+x,1/2-y,1/2-z
-x,1/2+y,-z
-x,-y,-z
1/2+x,y,1/2-z
1/2-x,1/2+y,1/2+z
x,1/2-y,z
loop_
_atom_site_type_symbol
_atom_site_label
_atom_site_fract_x
_atom_site_fract_y
_atom_site_fract_z
Si Si1 0.226690 0.082425 0.514557
Si Si2 0.173797 0.419666 0.102702
Si Si3 0.060312 0.582648 0.187580
Si Si4 0.333012 0.080050 0.798871
Si Si5 0.352928 0.405555 0.168156
Si Si6 0.870491 0.583469 0.590698
Si Si7 0.633989 0.415662 0.728517
Si Si8 0.438800 0.409232 0.056628
O O1 0.239732 0.250000 0.528831
O O2 0.219413 0.057680 0.447611
O O3 0.309368 0.992145 0.541998
O O4 0.130955 0.029942 0.538325
O O5 0.158889 0.250000 0.094036
O O6 0.089084 0.490300 0.134073
O O7 0.259559 0.457780 0.140486
O O8 0.082446 0.750000 0.177420
O O9 0.111012 0.531078 0.244094
O O10 0.952317 0.554838 0.189628
O O11 0.339920 0.250000 0.806107
O O12 0.228827 0.024293 0.795420
O O13 0.372885 0.010436 0.854175
O O14 0.336702 0.250000 0.196528
O O15 0.388146 0.516814 0.212627
O O16 0.430850 0.392799 0.122880
O O17 0.877980 0.750000 0.607630
O O18 0.956222 0.541391 0.550068
O O19 0.647116 0.250000 0.740569
O O20 0.419330 0.250000 0.029793
#
# Coordination Sequence:
#
# PCOD8252289 Si02
#       8
#     8   8   8   8   8   8   8   8
#     4  10  20  33  52  77 104 140 181 221 268 316
#     4  10  20  34  53  77 104 136 175 218 262 311
#     4  10  20  35  55  79 107 139 175 219 266 315
#     4  10  21  35  52  78 110 143 178 216 263 319
#     4   9  17  29  47  72 102 136 171 208 253 305
#     4  10  21  35  51  74 107 144 180 220 266 318
#     4  10  20  33  51  76 106 138 176 217 261 315
#     4   9  18  32  49  75 108 139 178 220 261 315
#
# _framework density 19.340261000000002
#
# number of rings (size 3 to 8) (size 9 to 14) (size 15 to 20)
#    0.000    2.250    1.250    2.625    0.000    5.000 
#    0.000    0.000    0.000    0.750    0.000    0.000 
#    0.000    0.000    0.000    0.000    0.000    0.000 
#
# Total GULP energy -793145.303929 kJ/mol
# GULP energy per Si atom -12392.895374 kJ/mol
# Density = 1.929624 g / cm^3
# Si number density = 19.340261 Si / 1000 Ang^3
#
#
#
# Elastic Constant Matrix: (Units=GPa)
#
#
# Indices 1 2 3 4 5 6 
#
# 1 57.8217 11.6321 -3.0551 0.0000 0.0000 0.0000
# 2 11.6321 44.3335 5.6212 0.0000 0.0000 0.0000
# 3 -3.0551 5.6212 31.8658 0.0000 0.0000 0.0000
# 4 0.0000 0.0000 0.0000 27.6624 0.0000 0.0000
# 5 0.0000 0.0000 0.0000 0.0000 22.5316 0.0000
# 6 0.0000 0.0000 0.0000 0.0000 0.0000 22.6110
#
#
#
# Elastic Compliance Matrix: (Units=1/GPa)
#
#
# Indices 1 2 3 4 5 6 
#
# 1 0.018481 -0.005190 0.002687 0.000000 0.000000 0.000000
# 2 -0.005190 0.024530 -0.004825 0.000000 0.000000 0.000000
# 3 0.002687 -0.004825 0.032490 0.000000 0.000000 0.000000
# 4 0.000000 0.000000 0.000000 0.036150 0.000000 0.000000
# 5 0.000000 0.000000 0.000000 0.000000 0.044382 0.000000
# 6 0.000000 0.000000 0.000000 0.000000 0.000000 0.044226
#
#
# Mechanical properties :
#
#
# Convention : Reuss Voigt Hill
#
# Bulk Modulus (GPa) = 16.43478 18.04637 17.24057
# Shear Modulus (GPa) = 21.25894 22.54919 21.90407
#
# Velocity S-wave (km/s) = 3.31903 3.41826 3.36901
# Velocity P-wave (km/s) = 4.81706 4.99305 4.90585
#
# Compressibility (1/GPa) = 0.06084659
#
# Stress axis : x y z
#
# Youngs Moduli (GPa) = 54.11101 40.76694 30.77842
#
# Poissons Ratio (x) = 0.21156 -0.08271
# Poissons Ratio (y) = 0.28081 0.14849
# Poissons Ratio (z) = -0.14541 0.19669
#
# Static dielectric constant tensor:
#      x y z
#    x 3.522320 0.000000 0.000000 
#    y 0.000000 3.501050 0.000000 
#    z 0.000000 0.000000 3.457550 
# 
# 
# High freq. dielectric constant tensor:
#      x y z
#    x 1.734990 0.000000 0.000000 
#    y 0.000000 1.752900 0.000000 
#    z 0.000000 0.000000 1.737520 
# 
# From -- ./inp_files/29732.got.cif
#   From: 2010.03.12/outbox.cif.g09.slc.cpg/sg62_15_cif.got.tgz:29732.got - 2010.04.10 19:12:36.
