data_PCOD8252089
_publ_section_title
;
Structure prediction by ZEFSAII (Michael W. Deem and Ramdas Pophale) SiO2 
 PCOD8252089
Probable space group: P N M A
;
_chemical_formula_sum "Si O2"
_cell_formula_units_Z 48
_cell_length_a 9.106543
_cell_length_b 8.502439
_cell_length_c 30.346852
_cell_angle_alpha 90.000000
_cell_angle_beta 90.000000
_cell_angle_gamma 90.000000
_cell_volume 2349.690787
_symmetry_space_group_name_H-M "P N M A"
_symmetry_group_IT_number 62
_symmetry_cell_setting 'orthorhombic'
loop_
_space_group_symop_operation_xyz
x,y,z
1/2-x,-y,1/2+z
1/2+x,1/2-y,1/2-z
-x,1/2+y,-z
-x,-y,-z
1/2+x,y,1/2-z
1/2-x,1/2+y,1/2+z
x,1/2-y,z
loop_
_atom_site_type_symbol
_atom_site_label
_atom_site_fract_x
_atom_site_fract_y
_atom_site_fract_z
Si Si1 0.646050 0.568067 0.623750
Si Si2 0.158938 0.063998 0.710701
Si Si3 0.640253 0.567214 0.948933
Si Si4 0.668528 0.567762 0.049390
Si Si5 0.669267 0.565958 0.374342
Si Si6 0.824379 0.437025 0.702942
O O1 0.604223 0.750000 0.627192
O O2 0.712505 0.533436 0.575740
O O3 0.502229 0.464617 0.632159
O O4 0.766745 0.521669 0.659577
O O5 0.171626 0.250000 0.711096
O O6 0.245074 0.998623 0.668208
O O7 0.233288 0.999611 0.755215
O O8 0.991509 0.007910 0.709434
O O9 0.600965 0.750000 0.946159
O O10 0.496315 0.470760 0.934423
O O11 0.774745 0.525007 0.917361
O O12 0.687642 0.521218 0.998353
O O13 0.699711 0.750000 0.058419
O O14 0.697956 0.750000 0.380608
O O15 0.811857 0.250000 0.697019
#
# Coordination Sequence:
#
# PCOD8252089 Si02
#       6
#     8   8   8   8   8   8
#     4  12  25  39  56  83 117 153 196 247 298 341
#     4   9  19  35  61  90 114 147 191 236 281 345
#     4  10  21  38  61  90 120 149 188 240 292 342
#     4  10  21  39  62  86 115 155 197 235 284 348
#     4  11  22  38  60  86 117 156 198 238 288 349
#     4  10  19  37  62  87 115 148 190 236 287 349
#
# _framework density 20.428218999999999
#
# number of rings (size 3 to 8) (size 9 to 14) (size 15 to 20)
#    0.000    1.667    0.000    5.000    0.000    6.667 
#    0.000    5.000    0.000    0.000    0.000    0.000 
#    0.000    0.000    0.000    0.000    0.000    0.000 
#
# Total GULP energy -595520.283979 kJ/mol
# GULP energy per Si atom -12406.672583 kJ/mol
# Density = 2.038172 g / cm^3
# Si number density = 20.428219 Si / 1000 Ang^3
#
#
#
# Elastic Constant Matrix: (Units=GPa)
#
#
# Indices 1 2 3 4 5 6 
#
# 1 116.1457 8.9501 51.9440 0.0000 0.0000 0.0000
# 2 8.9501 46.3642 25.7074 0.0000 0.0000 0.0000
# 3 51.9440 25.7074 110.5087 0.0000 0.0000 0.0000
# 4 0.0000 0.0000 0.0000 25.3031 0.0000 0.0000
# 5 0.0000 0.0000 0.0000 0.0000 42.6484 0.0000
# 6 0.0000 0.0000 0.0000 0.0000 0.0000 25.5777
#
#
#
# Elastic Compliance Matrix: (Units=1/GPa)
#
#
# Indices 1 2 3 4 5 6 
#
# 1 0.010931 0.000848 -0.005335 0.000000 0.000000 0.000000
# 2 0.000848 0.024828 -0.006174 0.000000 0.000000 0.000000
# 3 -0.005335 -0.006174 0.012993 0.000000 0.000000 0.000000
# 4 0.000000 0.000000 0.000000 0.039521 0.000000 0.000000
# 5 0.000000 0.000000 0.000000 0.000000 0.023448 0.000000
# 6 0.000000 0.000000 0.000000 0.000000 0.000000 0.039097
#
#
# Mechanical properties :
#
#
# Convention : Reuss Voigt Hill
#
# Bulk Modulus (GPa) = 36.45769 49.58018 43.01894
# Shear Modulus (GPa) = 27.58125 31.13364 29.35744
#
# Velocity S-wave (km/s) = 3.67843 3.90814 3.79503
# Velocity P-wave (km/s) = 5.99388 6.68490 6.34880
#
# Compressibility (1/GPa) = 0.02742905
#
# Stress axis : x y z
#
# Youngs Moduli (GPa) = 91.48661 40.27691 76.96358
#
# Poissons Ratio (x) = -0.03416 0.41061
# Poissons Ratio (y) = -0.07759 0.47520
# Poissons Ratio (z) = 0.48809 0.24869
#
# Static dielectric constant tensor:
#      x y z
#    x 3.665460 0.000000 0.000000 
#    y 0.000000 3.445690 0.000000 
#    z 0.000000 0.000000 3.851040 
# 
# 
# High freq. dielectric constant tensor:
#      x y z
#    x 1.803420 0.000000 0.000000 
#    y 0.000000 1.781600 0.000000 
#    z 0.000000 0.000000 1.812060 
# 
# From -- ./inp_files/31908.got.cif
#   From: 2010.03.12/outbox.cif.g09.slc.cpg/sg62_16_cif.got.tgz:31908.got - 2010.04.10 19:12:36.
