data_PCOD8252812
_publ_section_title
;
Structure prediction by ZEFSAII (Michael W. Deem and Ramdas Pophale) SiO2 
 PCOD8252812
Probable space group: P N M A
;
_chemical_formula_sum "Si O2"
_cell_formula_units_Z 64
_cell_length_a 25.112765
_cell_length_b 9.144225
_cell_length_c 14.417994
_cell_angle_alpha 90.000000
_cell_angle_beta 90.000000
_cell_angle_gamma 90.000000
_cell_volume 3310.901623
_symmetry_space_group_name_H-M "P N M A"
_symmetry_group_IT_number 62
_symmetry_cell_setting 'orthorhombic'
loop_
_space_group_symop_operation_xyz
x,y,z
1/2-x,-y,1/2+z
1/2+x,1/2-y,1/2-z
-x,1/2+y,-z
-x,-y,-z
1/2+x,y,1/2-z
1/2-x,1/2+y,1/2+z
x,1/2-y,z
loop_
_atom_site_type_symbol
_atom_site_label
_atom_site_fract_x
_atom_site_fract_y
_atom_site_fract_z
Si Si1 0.427433 0.076645 0.248501
Si Si2 0.262035 0.915676 0.553038
Si Si3 0.890164 0.420817 0.692391
Si Si4 0.450568 0.422575 0.454733
Si Si5 0.512896 0.074900 0.097374
Si Si6 0.229434 0.576965 0.353986
Si Si7 0.864940 0.419091 0.896658
Si Si8 0.190845 0.916521 0.720424
O O1 0.426895 0.250000 0.248177
O O2 0.444082 0.018868 0.350084
O O3 0.468498 0.020452 0.170983
O O4 0.368462 0.016690 0.226211
O O5 0.281428 0.750000 0.541285
O O6 0.247703 0.984157 0.453726
O O7 0.208474 0.924200 0.613680
O O8 0.309108 0.999401 0.604186
O O9 0.900244 0.250000 0.669616
O O10 0.831073 0.471160 0.663876
O O11 0.897413 0.453290 0.802194
O O12 0.930332 0.520132 0.634114
O O13 0.500000 0.500000 0.500000
O O14 0.459920 0.250000 0.458147
O O15 0.398763 0.467407 0.513989
O O16 0.513518 0.250000 0.086428
O O17 0.500000 0.000000 0.000000
O O18 0.233758 0.750000 0.347879
O O19 0.268572 0.510422 0.279323
O O20 0.850333 0.250000 0.900037
O O21 0.191639 0.750000 0.757707
#
# Coordination Sequence:
#
# PCOD8252812 Si02
#       8
#     8   8   8   8   8   8   8   8
#     4   9  20  38  59  82 113 152 191 234 288 345
#     4  10  21  34  55  84 112 149 192 231 280 345
#     4  10  21  38  60  84 117 154 190 236 290 346
#     4  10  20  35  57  85 112 146 187 228 282 341
#     4  11  24  41  62  85 113 153 200 246 292 342
#     4  10  21  37  57  85 120 156 189 232 295 347
#     4  10  20  36  59  86 117 152 186 231 289 345
#     4  10  20  37  60  84 111 148 192 233 276 338
#
# _framework density 19.330082000000001
#
# number of rings (size 3 to 8) (size 9 to 14) (size 15 to 20)
#    0.000    2.000    1.250    1.875    1.750    3.000 
#    0.000    2.500    0.000    0.000    0.000    0.000 
#    0.000    0.000    0.000    0.000    0.000    0.000 
#
# Total GULP energy -793698.253845 kJ/mol
# GULP energy per Si atom -12401.535216 kJ/mol
# Density = 1.928609 g / cm^3
# Si number density = 19.330082 Si / 1000 Ang^3
#
#
#
# Elastic Constant Matrix: (Units=GPa)
#
#
# Indices 1 2 3 4 5 6 
#
# 1 137.2563 39.8630 55.6952 0.0000 0.0000 0.0000
# 2 39.8630 39.2040 32.1151 0.0000 0.0000 0.0000
# 3 55.6952 32.1151 132.2644 0.0000 0.0000 0.0000
# 4 0.0000 0.0000 0.0000 27.7378 0.0000 0.0000
# 5 0.0000 0.0000 0.0000 0.0000 36.0565 0.0000
# 6 0.0000 0.0000 0.0000 0.0000 0.0000 29.7033
#
#
#
# Elastic Compliance Matrix: (Units=1/GPa)
#
#
# Indices 1 2 3 4 5 6 
#
# 1 0.010904 -0.009145 -0.002371 0.000000 0.000000 0.000000
# 2 -0.009145 0.039510 -0.005743 0.000000 0.000000 0.000000
# 3 -0.002371 -0.005743 0.009953 0.000000 0.000000 0.000000
# 4 0.000000 0.000000 0.000000 0.036052 0.000000 0.000000
# 5 0.000000 0.000000 0.000000 0.000000 0.027734 0.000000
# 6 0.000000 0.000000 0.000000 0.000000 0.000000 0.033666
#
#
# Mechanical properties :
#
#
# Convention : Reuss Voigt Hill
#
# Bulk Modulus (GPa) = 38.68394 62.67460 50.67927
# Shear Modulus (GPa) = 24.88140 30.76961 27.82551
#
# Velocity S-wave (km/s) = 3.59163 3.99406 3.79818
# Velocity P-wave (km/s) = 6.10373 7.33238 6.74608
#
# Compressibility (1/GPa) = 0.02585052
#
# Stress axis : x y z
#
# Youngs Moduli (GPa) = 91.71314 25.30987 100.46793
#
# Poissons Ratio (x) = 0.23145 0.23821
# Poissons Ratio (y) = 0.83868 0.57697
# Poissons Ratio (z) = 0.21745 0.14535
#
# Static dielectric constant tensor:
#      x y z
#    x 3.074250 0.000000 0.000000 
#    y 0.000000 3.317170 0.000000 
#    z 0.000000 0.000000 3.796660 
# 
# 
# High freq. dielectric constant tensor:
#      x y z
#    x 1.760220 0.000000 0.000000 
#    y 0.000000 1.729920 0.000000 
#    z 0.000000 0.000000 1.769610 
# 
# From -- ./inp_files/20782.got.cif
#   From: 2010.03.12/outbox.cif.g09.slc.cpg/sg62_11_cif.got.tgz:20782.got - 2010.04.10 19:12:36.
