data_PCOD8252012
_publ_section_title
;
Structure prediction by ZEFSAII (Michael W. Deem and Ramdas Pophale) SiO2 
 PCOD8252012
Probable space group: P N M A
;
_chemical_formula_sum "Si O2"
_cell_formula_units_Z 64
_cell_length_a 13.480642
_cell_length_b 12.464758
_cell_length_c 19.336725
_cell_angle_alpha 90.000000
_cell_angle_beta 90.000000
_cell_angle_gamma 90.000000
_cell_volume 3249.206756
_symmetry_space_group_name_H-M "P N M A"
_symmetry_group_IT_number 62
_symmetry_cell_setting 'orthorhombic'
loop_
_space_group_symop_operation_xyz
x,y,z
1/2-x,-y,1/2+z
1/2+x,1/2-y,1/2-z
-x,1/2+y,-z
-x,-y,-z
1/2+x,y,1/2-z
1/2-x,1/2+y,1/2+z
x,1/2-y,z
loop_
_atom_site_type_symbol
_atom_site_label
_atom_site_fract_x
_atom_site_fract_y
_atom_site_fract_z
Si Si1 0.693659 0.621641 0.617680
Si Si2 0.260092 0.523434 0.739113
Si Si3 0.982524 0.534082 0.922623
Si Si4 0.784380 0.631131 0.900925
Si Si5 0.580831 0.629802 0.313467
Si Si6 0.510237 0.871489 0.069696
Si Si7 0.332465 0.981208 0.995283
Si Si8 0.913229 0.867104 0.289486
O O1 0.690574 0.750000 0.620163
O O2 0.748479 0.577243 0.686011
O O3 0.582283 0.575042 0.614586
O O4 0.753175 0.583719 0.550093
O O5 0.276553 0.614554 0.681638
O O6 0.349213 0.437311 0.738694
O O7 0.163230 0.461744 0.715018
O O8 0.900415 0.627586 0.921564
O O9 0.932242 0.431269 0.885739
O O10 0.000000 0.500000 0.000000
O O11 0.744247 0.750000 0.918439
O O12 0.722202 0.542719 0.942636
O O13 0.623924 0.750000 0.326316
O O14 0.472284 0.638145 0.281624
O O15 0.536792 0.750000 0.053184
O O16 0.490175 0.893117 0.149798
O O17 0.412379 0.899687 0.026136
O O18 0.609038 0.936030 0.052412
O O19 0.862684 0.750000 0.302803
#
# Coordination Sequence:
#
# PCOD8252012 Si02
#       8
#     8   8   8   8   8   8   8   8
#     4  12  25  43  66  92 126 170 212 262 321 379
#     4  11  22  41  62  89 125 161 210 257 305 376
#     4  11  23  43  62  93 131 165 209 266 310 383
#     4  11  23  41  64  91 124 169 210 255 315 372
#     4  10  22  39  64  93 125 162 206 256 317 375
#     4  10  21  38  62  92 125 159 198 253 312 365
#     4  11  22  40  63  91 128 162 207 257 303 378
#     4  10  19  36  61  89 119 154 194 248 309 362
#
# _framework density 19.697113999999999
#
# number of rings (size 3 to 8) (size 9 to 14) (size 15 to 20)
#    0.000    1.250    3.750    2.625    0.000    1.000 
#    0.000    1.875    0.000    0.000    0.000    0.000 
#    0.000    0.000    0.000    0.000    0.000    0.000 
#
# Total GULP energy -793561.585719 kJ/mol
# GULP energy per Si atom -12399.399777 kJ/mol
# Density = 1.965228 g / cm^3
# Si number density = 19.697114 Si / 1000 Ang^3
#
#
#
# Elastic Constant Matrix: (Units=GPa)
#
#
# Indices 1 2 3 4 5 6 
#
# 1 77.6077 25.4530 8.7262 0.0000 0.0000 0.0000
# 2 25.4530 114.7589 28.9440 0.0000 0.0000 0.0000
# 3 8.7262 28.9440 85.9359 0.0000 0.0000 0.0000
# 4 0.0000 0.0000 0.0000 18.1488 0.0000 0.0000
# 5 0.0000 0.0000 0.0000 0.0000 28.7900 0.0000
# 6 0.0000 0.0000 0.0000 0.0000 0.0000 -22.0602
#
#
#
# Elastic Compliance Matrix: (Units=1/GPa)
#
#
# Indices 1 2 3 4 5 6 
#
# 1 0.013909 -0.002982 -0.000408 0.000000 0.000000 0.000000
# 2 -0.002982 0.010162 -0.003120 0.000000 0.000000 0.000000
# 3 -0.000408 -0.003120 0.012729 0.000000 0.000000 0.000000
# 4 0.000000 0.000000 0.000000 0.055100 0.000000 0.000000
# 5 0.000000 0.000000 0.000000 0.000000 0.034734 0.000000
# 6 0.000000 0.000000 0.000000 0.000000 0.000000 -0.045330
#
#
# Mechanical properties :
#
#
# Convention : Reuss Voigt Hill
#
# Bulk Modulus (GPa) = 42.05166 44.94986 43.50076
# Shear Modulus (GPa) = 48.89938 19.32102 34.11020
#
# Velocity S-wave (km/s) = 4.98794 3.13534 4.16593
# Velocity P-wave (km/s) = 7.38703 5.99810 6.72850
#
# Compressibility (1/GPa) = 0.02378028
#
# Stress axis : x y z
#
# Youngs Moduli (GPa) = 71.89468 98.40360 78.56189
#
# Poissons Ratio (x) = 0.29345 0.03205
# Poissons Ratio (y) = 0.21440 0.24511
# Poissons Ratio (z) = 0.02933 0.30701
#
# Static dielectric constant tensor:
#      x y z
#    x 3.677970 0.000000 0.000000 
#    y 0.000000 3.626080 0.000000 
#    z 0.000000 0.000000 3.596560 
# 
# 
# High freq. dielectric constant tensor:
#      x y z
#    x 1.773400 0.000000 0.000000 
#    y 0.000000 1.772590 0.000000 
#    z 0.000000 0.000000 1.773200 
# 
# From -- ./inp_files/24060.got.cif
#   From: 2010.03.12/outbox.cif.g09.slc.cpg/sg62_13_cif.got.tgz:24060.got - 2010.04.10 19:12:36.
