data_PCOD8252503
_publ_section_title
;
Structure prediction by ZEFSAII (Michael W. Deem and Ramdas Pophale) SiO2 
 PCOD8252503
Probable space group: P N M A
;
_chemical_formula_sum "Si O2"
_cell_formula_units_Z 56
_cell_length_a 23.744047
_cell_length_b 9.392345
_cell_length_c 13.748447
_cell_angle_alpha 90.000000
_cell_angle_beta 90.000000
_cell_angle_gamma 90.000000
_cell_volume 3066.072527
_symmetry_space_group_name_H-M "P N M A"
_symmetry_group_IT_number 62
_symmetry_cell_setting 'orthorhombic'
loop_
_space_group_symop_operation_xyz
x,y,z
1/2-x,-y,1/2+z
1/2+x,1/2-y,1/2-z
-x,1/2+y,-z
-x,-y,-z
1/2+x,y,1/2-z
1/2-x,1/2+y,1/2+z
x,1/2-y,z
loop_
_atom_site_type_symbol
_atom_site_label
_atom_site_fract_x
_atom_site_fract_y
_atom_site_fract_z
Si Si1 0.834656 0.419027 0.424025
Si Si2 0.884168 0.412641 0.722724
Si Si3 0.673333 0.584477 0.707172
Si Si4 0.228922 0.583515 0.389144
Si Si5 0.554761 0.914086 0.025114
Si Si6 0.437377 0.916427 0.606131
Si Si7 0.065309 0.586963 0.914481
O O1 0.839100 0.250000 0.424303
O O2 0.820768 0.476989 0.316639
O O3 0.786978 0.465764 0.501190
O O4 0.895074 0.477534 0.458809
O O5 0.885276 0.250000 0.759821
O O6 0.822160 0.452402 0.683808
O O7 0.929715 0.433657 0.637861
O O8 0.899136 0.516850 0.810192
O O9 0.689186 0.750000 0.703774
O O10 0.715782 0.502112 0.638166
O O11 0.609631 0.558374 0.671437
O O12 0.242723 0.750000 0.386135
O O13 0.543660 0.750000 0.000420
O O14 0.500000 0.000000 0.000000
O O15 0.423980 0.750000 0.601031
O O16 0.503260 0.947121 0.627489
O O17 0.419658 0.985282 0.504009
O O18 0.068137 0.750000 0.951150
#
# Coordination Sequence:
#
# PCOD8252503 Si02
#       7
#     8   8   8   8   8   8   8
#     4   8  17  35  55  73 102 140 173 207 258 320
#     4   9  19  35  53  75 107 144 174 212 275 328
#     4  10  20  35  57  80 103 139 181 221 267 316
#     4   9  19  37  55  75 105 140 177 217 264 316
#     4   9  18  32  52  77 105 138 171 210 262 319
#     4  10  20  34  55  80 105 140 182 222 262 318
#     4   9  20  36  52  76 109 141 173 219 277 323
#
# _framework density 18.264409000000001
#
# number of rings (size 3 to 8) (size 9 to 14) (size 15 to 20)
#    0.000    2.857    0.000    2.143    2.000    3.429 
#    0.000    6.429    0.000    0.000    0.000    0.000 
#    0.000    0.000    0.000    0.000    0.000    0.000 
#
# Total GULP energy -694369.276744 kJ/mol
# GULP energy per Si atom -12399.451370 kJ/mol
# Density = 1.822284 g / cm^3
# Si number density = 18.264409 Si / 1000 Ang^3
#
#
#
# Elastic Constant Matrix: (Units=GPa)
#
#
# Indices 1 2 3 4 5 6 
#
# 1 71.3443 27.7603 44.7208 0.0000 0.0000 0.0000
# 2 27.7603 59.9170 42.7862 0.0000 0.0000 0.0000
# 3 44.7208 42.7862 114.6060 0.0000 0.0000 0.0000
# 4 0.0000 0.0000 0.0000 28.1353 0.0000 0.0000
# 5 0.0000 0.0000 0.0000 0.0000 24.9171 0.0000
# 6 0.0000 0.0000 0.0000 0.0000 0.0000 33.4537
#
#
#
# Elastic Compliance Matrix: (Units=1/GPa)
#
#
# Indices 1 2 3 4 5 6 
#
# 1 0.019567 -0.004927 -0.005796 0.000000 0.000000 0.000000
# 2 -0.004927 0.023997 -0.007036 0.000000 0.000000 0.000000
# 3 -0.005796 -0.007036 0.013614 0.000000 0.000000 0.000000
# 4 0.000000 0.000000 0.000000 0.035543 0.000000 0.000000
# 5 0.000000 0.000000 0.000000 0.000000 0.040133 0.000000
# 6 0.000000 0.000000 0.000000 0.000000 0.000000 0.029892
#
#
# Mechanical properties :
#
#
# Convention : Reuss Voigt Hill
#
# Bulk Modulus (GPa) = 46.16858 52.93355 49.55107
# Shear Modulus (GPa) = 24.33292 26.00789 25.17040
#
# Velocity S-wave (km/s) = 3.65397 3.77764 3.71632
# Velocity P-wave (km/s) = 6.56771 6.93341 6.75303
#
# Compressibility (1/GPa) = 0.02165975
#
# Stress axis : x y z
#
# Youngs Moduli (GPa) = 51.10770 41.67194 73.45343
#
# Poissons Ratio (x) = 0.20530 0.42572
# Poissons Ratio (y) = 0.25179 0.51685
# Poissons Ratio (z) = 0.29621 0.29322
#
# Static dielectric constant tensor:
#      x y z
#    x 3.277510 0.000000 0.000000 
#    y 0.000000 3.173500 0.000000 
#    z 0.000000 0.000000 3.501800 
# 
# 
# High freq. dielectric constant tensor:
#      x y z
#    x 1.707700 0.000000 0.000000 
#    y 0.000000 1.690530 0.000000 
#    z 0.000000 0.000000 1.710940 
# 
# From -- ./inp_files/20428.got.cif
#   From: 2010.03.12/outbox.cif.g09.slc.cpg/sg62_11_cif.got.tgz:20428.got - 2010.04.10 19:12:36.
