data_PCOD8252768
_publ_section_title
;
Structure prediction by ZEFSAII (Michael W. Deem and Ramdas Pophale) SiO2 
 PCOD8252768
Probable space group: P N M A
;
_chemical_formula_sum "Si O2"
_cell_formula_units_Z 64
_cell_length_a 15.224852
_cell_length_b 8.925711
_cell_length_c 24.428141
_cell_angle_alpha 90.000000
_cell_angle_beta 90.000000
_cell_angle_gamma 90.000000
_cell_volume 3319.604301
_symmetry_space_group_name_H-M "P N M A"
_symmetry_group_IT_number 62
_symmetry_cell_setting 'orthorhombic'
loop_
_space_group_symop_operation_xyz
x,y,z
1/2-x,-y,1/2+z
1/2+x,1/2-y,1/2-z
-x,1/2+y,-z
-x,-y,-z
1/2+x,y,1/2-z
1/2-x,1/2+y,1/2+z
x,1/2-y,z
loop_
_atom_site_type_symbol
_atom_site_label
_atom_site_fract_x
_atom_site_fract_y
_atom_site_fract_z
Si Si1 0.677708 0.072807 0.063547
Si Si2 0.994125 0.427176 0.389629
Si Si3 0.466922 0.079450 0.781712
Si Si4 0.174438 0.927742 0.851251
Si Si5 0.182857 0.424557 0.144681
Si Si6 0.321140 0.076524 0.050410
Si Si7 0.730806 0.575448 0.244971
Si Si8 0.502382 0.573007 0.342095
O O1 0.674175 0.250000 0.060665
O O2 0.583388 0.009026 0.083278
O O3 0.752475 0.019340 0.105513
O O4 0.701901 0.010806 0.004440
O O5 0.993651 0.250000 0.388642
O O6 0.911333 0.488314 0.423850
O O7 0.985499 0.479298 0.326959
O O8 0.489927 0.250000 0.795046
O O9 0.362864 0.051574 0.783714
O O10 0.502425 0.034271 0.722242
O O11 0.166606 0.750000 0.847797
O O12 0.196991 0.993079 0.791635
O O13 0.082184 0.998868 0.870696
O O14 0.170032 0.250000 0.158391
O O15 0.241332 0.450202 0.091461
O O16 0.231828 0.503306 0.195110
O O17 0.089263 0.500120 0.132097
O O18 0.332926 0.250000 0.036097
O O19 0.754756 0.750000 0.250528
O O20 0.505372 0.750000 0.352670
#
# Coordination Sequence:
#
# PCOD8252768 Si02
#       8
#     8   8   8   8   8   8   8   8
#     4  10  22  39  59  85 117 153 198 242 291 351
#     4  10  20  36  56  84 119 154 191 235 284 345
#     4   9  19  34  53  82 116 151 189 229 282 342
#     4  11  22  37  59  88 118 155 198 243 296 352
#     4  10  21  39  59  85 118 154 198 247 298 353
#     4  10  23  39  59  85 114 153 200 244 294 350
#     4  10  20  35  56  84 119 156 193 239 291 348
#     4  10  22  39  58  86 119 154 197 243 298 356
#
# _framework density 19.279406000000002
#
# number of rings (size 3 to 8) (size 9 to 14) (size 15 to 20)
#    0.000    2.000    1.250    2.625    1.750    5.500 
#    0.000    0.625    0.000    0.000    0.000    0.000 
#    0.000    0.000    0.000    0.000    0.000    0.000 
#
# Total GULP energy -793838.787711 kJ/mol
# GULP energy per Si atom -12403.731058 kJ/mol
# Density = 1.923552 g / cm^3
# Si number density = 19.279406 Si / 1000 Ang^3
#
#
#
# Elastic Constant Matrix: (Units=GPa)
#
#
# Indices 1 2 3 4 5 6 
#
# 1 130.3446 45.5941 46.0457 0.0000 0.0000 0.0000
# 2 45.5941 67.8929 35.3957 0.0000 0.0000 0.0000
# 3 46.0457 35.3957 77.1060 0.0000 0.0000 0.0000
# 4 0.0000 0.0000 0.0000 35.2382 0.0000 0.0000
# 5 0.0000 0.0000 0.0000 0.0000 20.0484 0.0000
# 6 0.0000 0.0000 0.0000 0.0000 0.0000 26.9069
#
#
#
# Elastic Compliance Matrix: (Units=1/GPa)
#
#
# Indices 1 2 3 4 5 6 
#
# 1 0.010957 -0.005189 -0.004161 0.000000 0.000000 0.000000
# 2 -0.005189 0.021820 -0.006918 0.000000 0.000000 0.000000
# 3 -0.004161 -0.006918 0.018630 0.000000 0.000000 0.000000
# 4 0.000000 0.000000 0.000000 0.028378 0.000000 0.000000
# 5 0.000000 0.000000 0.000000 0.000000 0.049879 0.000000
# 6 0.000000 0.000000 0.000000 0.000000 0.000000 0.037165
#
#
# Mechanical properties :
#
#
# Convention : Reuss Voigt Hill
#
# Bulk Modulus (GPa) = 52.99147 58.82381 55.90764
# Shear Modulus (GPa) = 24.31236 26.32592 25.31914
#
# Velocity S-wave (km/s) = 3.55498 3.69927 3.62784
# Velocity P-wave (km/s) = 6.66305 6.98739 6.82715
#
# Compressibility (1/GPa) = 0.01887096
#
# Stress axis : x y z
#
# Youngs Moduli (GPa) = 91.26556 45.82869 53.67708
#
# Poissons Ratio (x) = 0.23780 0.22337
# Poissons Ratio (y) = 0.47356 0.37134
# Poissons Ratio (z) = 0.37978 0.31705
#
# Static dielectric constant tensor:
#      x y z
#    x 3.680590 0.000000 0.000000 
#    y 0.000000 3.450560 0.000000 
#    z 0.000000 0.000000 3.326640 
# 
# 
# High freq. dielectric constant tensor:
#      x y z
#    x 1.758550 0.000000 0.000000 
#    y 0.000000 1.750640 0.000000 
#    z 0.000000 0.000000 1.736840 
# 
# From -- ./inp_files/29739.got.cif
#   From: 2010.03.12/outbox.cif.g09.slc.cpg/sg62_15_cif.got.tgz:29739.got - 2010.04.10 19:12:36.
