data_PCOD8252303
_publ_section_title
;
Structure prediction by ZEFSAII (Michael W. Deem and Ramdas Pophale) SiO2 
 PCOD8252303
Probable space group: P N M A
;
_chemical_formula_sum "Si O2"
_cell_formula_units_Z 48
_cell_length_a 15.662142
_cell_length_b 13.573080
_cell_length_c 12.498090
_cell_angle_alpha 90.000000
_cell_angle_beta 90.000000
_cell_angle_gamma 90.000000
_cell_volume 2656.887795
_symmetry_space_group_name_H-M "P N M A"
_symmetry_group_IT_number 62
_symmetry_cell_setting 'orthorhombic'
loop_
_space_group_symop_operation_xyz
x,y,z
1/2-x,-y,1/2+z
1/2+x,1/2-y,1/2-z
-x,1/2+y,-z
-x,-y,-z
1/2+x,y,1/2-z
1/2-x,1/2+y,1/2+z
x,1/2-y,z
loop_
_atom_site_type_symbol
_atom_site_label
_atom_site_fract_x
_atom_site_fract_y
_atom_site_fract_z
Si Si1 0.097096 0.975965 0.372624
Si Si2 0.264882 0.133996 0.988616
Si Si3 0.030588 0.358095 0.498463
Si Si4 0.568818 0.365233 0.521856
Si Si5 0.115913 0.858213 0.674229
Si Si6 0.502669 0.525429 0.674432
O O1 0.185295 0.917378 0.389365
O O2 0.014348 0.908480 0.399765
O O3 0.104137 0.070400 0.452589
O O4 0.079906 0.009585 0.251034
O O5 0.277357 0.250000 0.973276
O O6 0.303623 0.102265 0.104543
O O7 0.167187 0.101751 0.984760
O O8 0.067734 0.250000 0.529445
O O9 0.961966 0.346100 0.405966
O O10 0.558758 0.250000 0.543923
O O11 0.524512 0.422056 0.619283
O O12 0.523318 0.391904 0.410996
O O13 0.136773 0.750000 0.723984
O O14 0.087932 0.935085 0.765591
#
# Coordination Sequence:
#
# PCOD8252303 Si02
#       6
#     8   8   8   8   8   8
#     4   9  16  28  49  74  97 124 161 199 234 279
#     4   9  18  33  52  74 100 125 152 194 244 288
#     4   8  14  25  44  74 105 126 151 194 243 285
#     4  10  22  37  49  67  98 131 161 196 240 286
#     4   8  14  28  52  76  95 121 158 197 237 280
#     4  10  20  33  52  72  93 127 165 199 232 278
#
# _framework density 18.06625
#
# number of rings (size 3 to 8) (size 9 to 14) (size 15 to 20)
#    0.000    3.000    0.000    3.000    0.000    3.333 
#    0.000    0.000    0.000    5.000    0.000    0.000 
#    0.000    0.000    0.000    0.000    0.000    0.000 
#
# Total GULP energy -594899.792689 kJ/mol
# GULP energy per Si atom -12393.745681 kJ/mol
# Density = 1.802513 g / cm^3
# Si number density = 18.066250 Si / 1000 Ang^3
#
#
#
# Elastic Constant Matrix: (Units=GPa)
#
#
# Indices 1 2 3 4 5 6 
#
# 1 56.6125 14.2508 10.4049 0.0000 0.0000 0.0000
# 2 14.2508 86.4730 24.3650 0.0000 0.0000 0.0000
# 3 10.4049 24.3650 67.9197 0.0000 0.0000 0.0000
# 4 0.0000 0.0000 0.0000 10.3357 0.0000 0.0000
# 5 0.0000 0.0000 0.0000 0.0000 3.9780 0.0000
# 6 0.0000 0.0000 0.0000 0.0000 0.0000 20.8390
#
#
#
# Elastic Compliance Matrix: (Units=1/GPa)
#
#
# Indices 1 2 3 4 5 6 
#
# 1 0.018658 -0.002525 -0.001953 0.000000 0.000000 0.000000
# 2 -0.002525 0.013206 -0.004351 0.000000 0.000000 0.000000
# 3 -0.001953 -0.004351 0.016583 0.000000 0.000000 0.000000
# 4 0.000000 0.000000 0.000000 0.096752 0.000000 0.000000
# 5 0.000000 0.000000 0.000000 0.000000 0.251381 0.000000
# 6 0.000000 0.000000 0.000000 0.000000 0.000000 0.047987
#
#
# Mechanical properties :
#
#
# Convention : Reuss Voigt Hill
#
# Bulk Modulus (GPa) = 32.47644 34.33851 33.40748
# Shear Modulus (GPa) = 10.58229 17.82950 14.20590
#
# Velocity S-wave (km/s) = 2.42285 3.14490 2.80719
# Velocity P-wave (km/s) = 5.08353 5.67763 5.38877
#
# Compressibility (1/GPa) = 0.03079155
#
# Stress axis : x y z
#
# Youngs Moduli (GPa) = 53.59528 75.72168 60.30216
#
# Poissons Ratio (x) = 0.19118 0.11775
# Poissons Ratio (y) = 0.13531 0.26236
# Poissons Ratio (z) = 0.10465 0.32945
#
# Static dielectric constant tensor:
#      x y z
#    x 3.131560 0.000000 0.000000 
#    y 0.000000 3.735320 0.000000 
#    z 0.000000 0.000000 3.244170 
# 
# 
# High freq. dielectric constant tensor:
#      x y z
#    x 1.665020 0.000000 0.000000 
#    y 0.000000 1.708450 0.000000 
#    z 0.000000 0.000000 1.683150 
# 
# From -- ./inp_files/13238.got.cif
#   From: 2010.03.12/outbox.cif.g09.slc.cpg/sg62_7_cif.got.tgz:13238.got - 2010.04.10 19:12:36.
