data_PCOD8252077
_publ_section_title
;
Structure prediction by ZEFSAII (Michael W. Deem and Ramdas Pophale) SiO2 
 PCOD8252077
Probable space group: P N M A
;
_chemical_formula_sum "Si O2"
_cell_formula_units_Z 64
_cell_length_a 17.258597
_cell_length_b 19.721306
_cell_length_c 9.382312
_cell_angle_alpha 90.000000
_cell_angle_beta 90.000000
_cell_angle_gamma 90.000000
_cell_volume 3193.383158
_symmetry_space_group_name_H-M "P N M A"
_symmetry_group_IT_number 62
_symmetry_cell_setting 'orthorhombic'
loop_
_space_group_symop_operation_xyz
x,y,z
1/2-x,-y,1/2+z
1/2+x,1/2-y,1/2-z
-x,1/2+y,-z
-x,-y,-z
1/2+x,y,1/2-z
1/2-x,1/2+y,1/2+z
x,1/2-y,z
loop_
_atom_site_type_symbol
_atom_site_label
_atom_site_fract_x
_atom_site_fract_y
_atom_site_fract_z
Si Si1 0.533259 0.824716 0.156711
Si Si2 0.287316 0.927548 0.799117
Si Si3 0.551269 0.049520 0.318308
Si Si4 0.691432 0.670465 0.515799
Si Si5 0.462591 0.098590 0.573881
Si Si6 0.219399 0.554585 0.493902
Si Si7 0.783270 0.324320 0.697509
Si Si8 0.040823 0.934476 0.558248
O O1 0.499289 0.750000 0.132030
O O2 0.500117 0.853766 0.305123
O O3 0.625106 0.824058 0.175948
O O4 0.505936 0.868632 0.021375
O O5 0.379672 0.918609 0.777549
O O6 0.245883 0.859690 0.858145
O O7 0.261979 0.949350 0.642586
O O8 0.264229 0.986006 0.909222
O O9 0.535229 0.084734 0.469743
O O10 0.473791 0.065740 0.227278
O O11 0.566943 0.969869 0.346466
O O12 0.677732 0.750000 0.548771
O O13 0.608413 0.632851 0.511476
O O14 0.734595 0.660697 0.363912
O O15 0.253497 0.617746 0.402211
O O16 0.130163 0.563478 0.524788
O O17 0.749845 0.250000 0.655130
O O18 0.000000 0.000000 0.500000
#
# Coordination Sequence:
#
# PCOD8252077 Si02
#       8
#     8   8   8   8   8   8   8   8
#     4   9  17  33  58  85 111 147 195 241 287 347
#     4  12  23  37  55  87 119 152 195 244 297 350
#     4  11  22  36  59  89 121 147 192 256 305 351
#     4  10  21  40  62  83 115 158 201 241 292 360
#     4  10  19  37  61  87 113 152 198 245 300 359
#     4  11  22  36  60  86 119 156 195 242 295 352
#     4   8  16  34  60  84 107 144 195 242 282 339
#     4  11  19  37  59  85 116 155 194 249 294 347
#
# _framework density 20.041442
#
# number of rings (size 3 to 8) (size 9 to 14) (size 15 to 20)
#    0.000    1.750    2.500    4.875    0.000    1.500 
#    0.000    5.625    0.000    1.500    0.000    0.000 
#    0.000    0.000    0.000    0.000    0.000    0.000 
#
# Total GULP energy -793361.119169 kJ/mol
# GULP energy per Si atom -12396.267487 kJ/mol
# Density = 1.999583 g / cm^3
# Si number density = 20.041442 Si / 1000 Ang^3
#
#
#
# Elastic Constant Matrix: (Units=GPa)
#
#
# Indices 1 2 3 4 5 6 
#
# 1 30.8090 30.9997 19.1847 0.0000 0.0000 0.0000
# 2 30.9997 136.1189 54.2269 0.0000 0.0000 0.0000
# 3 19.1847 54.2269 109.6253 0.0000 0.0000 0.0000
# 4 0.0000 0.0000 0.0000 40.0679 0.0000 0.0000
# 5 0.0000 0.0000 0.0000 0.0000 33.9375 0.0000
# 6 0.0000 0.0000 0.0000 0.0000 0.0000 20.7052
#
#
#
# Elastic Compliance Matrix: (Units=1/GPa)
#
#
# Indices 1 2 3 4 5 6 
#
# 1 0.043069 -0.008476 -0.003344 0.000000 0.000000 0.000000
# 2 -0.008476 0.010818 -0.003868 0.000000 0.000000 0.000000
# 3 -0.003344 -0.003868 0.011620 0.000000 0.000000 0.000000
# 4 0.000000 0.000000 0.000000 0.024958 0.000000 0.000000
# 5 0.000000 0.000000 0.000000 0.000000 0.029466 0.000000
# 6 0.000000 0.000000 0.000000 0.000000 0.000000 0.048297
#
#
# Mechanical properties :
#
#
# Convention : Reuss Voigt Hill
#
# Bulk Modulus (GPa) = 29.29908 53.93064 41.61486
# Shear Modulus (GPa) = 23.69874 30.41826 27.05850
#
# Velocity S-wave (km/s) = 3.44246 3.90008 3.67839
# Velocity P-wave (km/s) = 5.51831 6.87378 6.23300
#
# Compressibility (1/GPa) = 0.03413076
#
# Stress axis : x y z
#
# Youngs Moduli (GPa) = 23.21838 92.44110 86.05536
#
# Poissons Ratio (x) = 0.78355 0.28780
# Poissons Ratio (y) = 0.19680 0.33283
# Poissons Ratio (z) = 0.07765 0.35753
#
# Static dielectric constant tensor:
#      x y z
#    x 3.156680 0.000000 0.000000 
#    y 0.000000 3.900040 0.000000 
#    z 0.000000 0.000000 4.218210 
# 
# 
# High freq. dielectric constant tensor:
#      x y z
#    x 1.746450 0.000000 0.000000 
#    y 0.000000 1.784770 0.000000 
#    z 0.000000 0.000000 1.795400 
# 
# From -- ./inp_files/8911.got.cif
#   From: 2010.03.12/outbox.cif.g09.slc.cpg/sg62_5_cif.got.tgz:8911.got - 2010.04.10 19:12:36.
