data_PCOD8252843
_publ_section_title
;
Structure prediction by ZEFSAII (Michael W. Deem and Ramdas Pophale) SiO2 
 PCOD8252843
Probable space group: P N M A
;
_chemical_formula_sum "Si O2"
_cell_formula_units_Z 48
_cell_length_a 10.252557
_cell_length_b 8.842004
_cell_length_c 28.726924
_cell_angle_alpha 90.000000
_cell_angle_beta 90.000000
_cell_angle_gamma 90.000000
_cell_volume 2604.186151
_symmetry_space_group_name_H-M "P N M A"
_symmetry_group_IT_number 62
_symmetry_cell_setting 'orthorhombic'
loop_
_space_group_symop_operation_xyz
x,y,z
1/2-x,-y,1/2+z
1/2+x,1/2-y,1/2-z
-x,1/2+y,-z
-x,-y,-z
1/2+x,y,1/2-z
1/2-x,1/2+y,1/2+z
x,1/2-y,z
loop_
_atom_site_type_symbol
_atom_site_label
_atom_site_fract_x
_atom_site_fract_y
_atom_site_fract_z
Si Si1 0.986235 0.423811 0.123265
Si Si2 0.713992 0.927883 0.781801
Si Si3 0.782635 0.078120 0.388719
Si Si4 0.506239 0.928455 0.281291
Si Si5 0.376052 0.927513 0.022992
Si Si6 0.618341 0.573181 0.526511
O O1 0.973847 0.250000 0.140292
O O2 0.957791 0.531984 0.166712
O O3 0.885830 0.462803 0.081833
O O4 0.130096 0.452697 0.102969
O O5 0.711975 0.750000 0.770296
O O6 0.681309 0.959675 0.835637
O O7 0.604596 0.015279 0.753437
O O8 0.857404 0.990210 0.769241
O O9 0.818811 0.250000 0.400790
O O10 0.865413 0.971754 0.422760
O O11 0.524953 0.750000 0.276359
O O12 0.388087 0.750000 0.018793
O O13 0.252422 0.990974 0.994269
O O14 0.500000 0.000000 0.000000
O O15 0.500000 0.500000 0.500000
O O16 0.606879 0.750000 0.517768
#
# Coordination Sequence:
#
# PCOD8252843 Si02
#       6
#     8   8   8   8   8   8
#     4   9  18  35  58  83 112 148 188 230 281 347
#     4  10  21  40  63  85 114 156 193 228 285 354
#     4   9  18  35  60  83 108 146 189 227 276 340
#     4  11  22  37  59  89 119 146 188 245 290 332
#     4  11  23  37  55  81 115 152 188 231 283 335
#     4  10  20  35  58  85 110 144 188 232 278 332
#
# _framework density 18.431863
#
# number of rings (size 3 to 8) (size 9 to 14) (size 15 to 20)
#    0.000    2.000    1.667    3.500    0.000    4.667 
#    3.000    0.000    0.000    0.000    0.000    0.000 
#    0.000    0.000    0.000    0.000    0.000    0.000 
#
# Total GULP energy -595271.140175 kJ/mol
# GULP energy per Si atom -12401.482087 kJ/mol
# Density = 1.838991 g / cm^3
# Si number density = 18.431863 Si / 1000 Ang^3
#
#
#
# Elastic Constant Matrix: (Units=GPa)
#
#
# Indices 1 2 3 4 5 6 
#
# 1 110.0548 40.5471 64.5744 0.0000 0.0000 0.0000
# 2 40.5471 79.3012 42.5370 0.0000 0.0000 0.0000
# 3 64.5744 42.5370 102.0545 0.0000 0.0000 0.0000
# 4 0.0000 0.0000 0.0000 34.8047 0.0000 0.0000
# 5 0.0000 0.0000 0.0000 0.0000 29.3998 0.0000
# 6 0.0000 0.0000 0.0000 0.0000 0.0000 29.3249
#
#
#
# Elastic Compliance Matrix: (Units=1/GPa)
#
#
# Indices 1 2 3 4 5 6 
#
# 1 0.015111 -0.003346 -0.008167 0.000000 0.000000 0.000000
# 2 -0.003346 0.016982 -0.004961 0.000000 0.000000 0.000000
# 3 -0.008167 -0.004961 0.017034 0.000000 0.000000 0.000000
# 4 0.000000 0.000000 0.000000 0.028732 0.000000 0.000000
# 5 0.000000 0.000000 0.000000 0.000000 0.034014 0.000000
# 6 0.000000 0.000000 0.000000 0.000000 0.000000 0.034101
#
#
# Mechanical properties :
#
#
# Convention : Reuss Voigt Hill
#
# Bulk Modulus (GPa) = 61.80663 65.19194 63.49929
# Shear Modulus (GPa) = 27.12761 28.28933 27.70847
#
# Velocity S-wave (km/s) = 3.84054 3.92191 3.88144
# Velocity P-wave (km/s) = 7.29874 7.48027 7.39006
#
# Compressibility (1/GPa) = 0.01617949
#
# Stress axis : x y z
#
# Youngs Moduli (GPa) = 66.17758 58.88586 58.70569
#
# Poissons Ratio (x) = 0.19701 0.47944
# Poissons Ratio (y) = 0.22140 0.29126
# Poissons Ratio (z) = 0.54046 0.29215
#
# Static dielectric constant tensor:
#      x y z
#    x 3.611300 0.000000 0.000000 
#    y 0.000000 3.381620 0.000000 
#    z 0.000000 0.000000 5.219190 
# 
# 
# High freq. dielectric constant tensor:
#      x y z
#    x 1.703420 0.000000 0.000000 
#    y 0.000000 1.717000 0.000000 
#    z 0.000000 0.000000 1.722660 
# 
# From -- ./inp_files/31926.got.cif
#   From: 2010.03.12/outbox.cif.g09.slc.cpg/sg62_16_cif.got.tgz:31926.got - 2010.04.10 19:12:36.
