data_PCOD8252679
_publ_section_title
;
Structure prediction by ZEFSAII (Michael W. Deem and Ramdas Pophale) SiO2 
 PCOD8252679
Probable space group: P N M A
;
_chemical_formula_sum "Si O2"
_cell_formula_units_Z 64
_cell_length_a 12.872879
_cell_length_b 8.888440
_cell_length_c 29.674065
_cell_angle_alpha 90.000000
_cell_angle_beta 90.000000
_cell_angle_gamma 90.000000
_cell_volume 3395.300957
_symmetry_space_group_name_H-M "P N M A"
_symmetry_group_IT_number 62
_symmetry_cell_setting 'orthorhombic'
loop_
_space_group_symop_operation_xyz
x,y,z
1/2-x,-y,1/2+z
1/2+x,1/2-y,1/2-z
-x,1/2+y,-z
-x,-y,-z
1/2+x,y,1/2-z
1/2-x,1/2+y,1/2+z
x,1/2-y,z
loop_
_atom_site_type_symbol
_atom_site_label
_atom_site_fract_x
_atom_site_fract_y
_atom_site_fract_z
Si Si1 0.952638 0.928601 0.398931
Si Si2 0.286408 0.071743 0.034224
Si Si3 0.820665 0.427123 0.567842
Si Si4 0.410570 0.575293 0.583761
Si Si5 0.127437 0.929039 0.883358
Si Si6 0.381864 0.576307 0.197096
Si Si7 0.342827 0.082129 0.668571
Si Si8 0.939018 0.922611 0.206978
O O1 0.938897 0.750000 0.400484
O O2 0.933916 0.992221 0.348219
O O3 0.067324 0.978370 0.414001
O O4 0.867436 0.995738 0.432286
O O5 0.295533 0.250000 0.040772
O O6 0.166571 0.017244 0.044068
O O7 0.313547 0.021339 0.983888
O O8 0.803343 0.250000 0.573101
O O9 0.733048 0.510936 0.595918
O O10 0.425954 0.750000 0.578149
O O11 0.527907 0.506635 0.587292
O O12 0.349626 0.540448 0.629560
O O13 0.128423 0.750000 0.883231
O O14 0.119066 0.985260 0.832047
O O15 0.413694 0.750000 0.198594
O O16 0.259171 0.550041 0.197021
O O17 0.418325 0.502024 0.244085
O O18 0.339253 0.250000 0.646818
O O19 0.437669 0.067440 0.702586
O O20 0.899170 0.750000 0.204373
#
# Coordination Sequence:
#
# PCOD8252679 Si02
#       8
#     8   8   8   8   8   8   8   8
#     4  10  20  35  55  80 109 140 179 225 268 315
#     4  10  20  35  55  80 108 142 181 221 270 325
#     4  10  22  37  54  78 111 147 180 218 270 325
#     4   9  18  33  53  75 103 137 173 218 266 310
#     4  10  21  37  54  75 105 140 178 221 269 318
#     4   9  17  30  51  79 104 131 174 219 262 315
#     4   9  16  29  50  74 100 133 173 215 258 309
#     4   9  18  32  52  76 102 135 172 214 266 318
#
# _framework density 18.849582000000002
#
# number of rings (size 3 to 8) (size 9 to 14) (size 15 to 20)
#    0.000    2.500    1.250    0.750    0.000    3.000 
#    0.000    5.000    0.000    3.000    0.000    0.000 
#    0.000    0.000    0.000    0.000    0.000    0.000 
#
# Total GULP energy -793172.676832 kJ/mol
# GULP energy per Si atom -12393.323076 kJ/mol
# Density = 1.880668 g / cm^3
# Si number density = 18.849582 Si / 1000 Ang^3
#
#
#
# Elastic Constant Matrix: (Units=GPa)
#
#
# Indices 1 2 3 4 5 6 
#
# 1 106.3717 18.4878 75.1792 0.0000 0.0000 0.0000
# 2 18.4878 16.1469 22.4209 0.0000 0.0000 0.0000
# 3 75.1792 22.4209 135.9100 0.0000 0.0000 0.0000
# 4 0.0000 0.0000 0.0000 23.3196 0.0000 0.0000
# 5 0.0000 0.0000 0.0000 0.0000 27.0575 0.0000
# 6 0.0000 0.0000 0.0000 0.0000 0.0000 17.2397
#
#
#
# Elastic Compliance Matrix: (Units=1/GPa)
#
#
# Indices 1 2 3 4 5 6 
#
# 1 0.016178 -0.007909 -0.007644 0.000000 0.000000 0.000000
# 2 -0.007909 0.084200 -0.009515 0.000000 0.000000 0.000000
# 3 -0.007644 -0.009515 0.013156 0.000000 0.000000 0.000000
# 4 0.000000 0.000000 0.000000 0.042882 0.000000 0.000000
# 5 0.000000 0.000000 0.000000 0.000000 0.036958 0.000000
# 6 0.000000 0.000000 0.000000 0.000000 0.000000 0.058006
#
#
# Mechanical properties :
#
#
# Convention : Reuss Voigt Hill
#
# Bulk Modulus (GPa) = 15.77370 54.51161 35.14266
# Shear Modulus (GPa) = 15.49661 23.01274 19.25467
#
# Velocity S-wave (km/s) = 2.87037 3.49787 3.19954
# Velocity P-wave (km/s) = 4.40134 6.73020 5.68627
#
# Compressibility (1/GPa) = 0.06339665
#
# Stress axis : x y z
#
# Youngs Moduli (GPa) = 61.81081 11.87646 76.01056
#
# Poissons Ratio (x) = 0.09393 0.58105
# Poissons Ratio (y) = 0.48888 0.72327
# Poissons Ratio (z) = 0.47251 0.11301
#
# Static dielectric constant tensor:
#      x y z
#    x 3.692100 0.000000 0.000000 
#    y 0.000000 3.250470 0.000000 
#    z 0.000000 0.000000 3.640610 
# 
# 
# High freq. dielectric constant tensor:
#      x y z
#    x 1.744920 0.000000 0.000000 
#    y 0.000000 1.703820 0.000000 
#    z 0.000000 0.000000 1.731640 
# 
# From -- ./inp_files/32590.got.cif
#   From: 2010.03.12/outbox.cif.g09.slc.cpg/sg62_17_cif.got.tgz:32590.got - 2010.04.10 19:12:36.
