data_PCOD8252374
_publ_section_title
;
Structure prediction by ZEFSAII (Michael W. Deem and Ramdas Pophale) SiO2 
 PCOD8252374
Probable space group: P N M A
;
_chemical_formula_sum "Si O2"
_cell_formula_units_Z 40
_cell_length_a 9.599792
_cell_length_b 8.927193
_cell_length_c 25.582468
_cell_angle_alpha 90.000000
_cell_angle_beta 90.000000
_cell_angle_gamma 90.000000
_cell_volume 2192.396938
_symmetry_space_group_name_H-M "P N M A"
_symmetry_group_IT_number 62
_symmetry_cell_setting 'orthorhombic'
loop_
_space_group_symop_operation_xyz
x,y,z
1/2-x,-y,1/2+z
1/2+x,1/2-y,1/2-z
-x,1/2+y,-z
-x,-y,-z
1/2+x,y,1/2-z
1/2-x,1/2+y,1/2+z
x,1/2-y,z
loop_
_atom_site_type_symbol
_atom_site_label
_atom_site_fract_x
_atom_site_fract_y
_atom_site_fract_z
Si Si1 0.352434 0.426608 0.907567
Si Si2 0.143953 0.571513 0.590417
Si Si3 0.850251 0.574222 0.999676
Si Si4 0.651550 0.922089 0.793992
Si Si5 0.832140 0.924123 0.700867
O O1 0.375445 0.250000 0.905379
O O2 0.496485 0.501298 0.926055
O O3 0.233664 0.472268 0.948670
O O4 0.300470 0.485675 0.851732
O O5 0.122936 0.750000 0.590481
O O6 0.263141 0.518501 0.550712
O O7 0.185658 0.511924 0.648425
O O8 0.872529 0.750000 0.996568
O O9 0.000000 0.500000 0.000000
O O10 0.695924 0.750000 0.794650
O O11 0.739983 0.997366 0.747379
O O12 0.490317 0.944819 0.781103
O O13 0.796894 0.750000 0.690217
#
# Coordination Sequence:
#
# PCOD8252374 Si02
#       5
#     8   8   8   8   8
#     4  10  20  34  51  75 104 134 167 204 246 301
#     4   9  18  35  56  76  97 130 173 211 246 293
#     4  10  22  36  52  76 104 131 165 207 253 300
#     4   8  15  28  49  73  94 120 164 210 243 279
#     4   9  17  31  50  72  97 129 166 206 247 289
#
# _framework density 18.244871
#
# number of rings (size 3 to 8) (size 9 to 14) (size 15 to 20)
#    0.000    2.800    0.000    2.400    0.000    4.000 
#    0.000    8.000    0.000    0.000    0.000    0.000 
#    0.000    0.000    0.000    0.000    0.000    0.000 
#
# Total GULP energy -495902.232138 kJ/mol
# GULP energy per Si atom -12397.555803 kJ/mol
# Density = 1.820335 g / cm^3
# Si number density = 18.244871 Si / 1000 Ang^3
#
#
#
# Elastic Constant Matrix: (Units=GPa)
#
#
# Indices 1 2 3 4 5 6 
#
# 1 137.5379 40.0871 104.1449 0.0000 0.0000 0.0000
# 2 40.0871 38.5493 39.1094 0.0000 0.0000 0.0000
# 3 104.1449 39.1094 151.3498 0.0000 0.0000 0.0000
# 4 0.0000 0.0000 0.0000 25.2879 0.0000 0.0000
# 5 0.0000 0.0000 0.0000 0.0000 40.2034 0.0000
# 6 0.0000 0.0000 0.0000 0.0000 0.0000 27.4807
#
#
#
# Elastic Compliance Matrix: (Units=1/GPa)
#
#
# Indices 1 2 3 4 5 6 
#
# 1 0.016730 -0.007750 -0.009510 0.000000 0.000000 0.000000
# 2 -0.007750 0.038748 -0.004680 0.000000 0.000000 0.000000
# 3 -0.009510 -0.004680 0.014360 0.000000 0.000000 0.000000
# 4 0.000000 0.000000 0.000000 0.039545 0.000000 0.000000
# 5 0.000000 0.000000 0.000000 0.000000 0.024874 0.000000
# 6 0.000000 0.000000 0.000000 0.000000 0.000000 0.036389
#
#
# Mechanical properties :
#
#
# Convention : Reuss Voigt Hill
#
# Bulk Modulus (GPa) = 38.52167 77.12443 57.82305
# Shear Modulus (GPa) = 22.40372 28.20075 25.30224
#
# Velocity S-wave (km/s) = 3.50801 3.93578 3.72803
# Velocity P-wave (km/s) = 6.12925 7.93835 7.09172
#
# Compressibility (1/GPa) = 0.02595942
#
# Stress axis : x y z
#
# Youngs Moduli (GPa) = 59.77174 25.80806 69.63714
#
# Poissons Ratio (x) = 0.20001 0.66223
# Poissons Ratio (y) = 0.46322 0.32589
# Poissons Ratio (z) = 0.56841 0.12078
#
# Static dielectric constant tensor:
#      x y z
#    x 3.349090 0.000000 0.000000 
#    y 0.000000 3.103090 0.000000 
#    z 0.000000 0.000000 3.767190 
# 
# 
# High freq. dielectric constant tensor:
#      x y z
#    x 1.703700 0.000000 0.000000 
#    y 0.000000 1.677880 0.000000 
#    z 0.000000 0.000000 1.724110 
# 
# From -- ./inp_files/30663.got.cif
#   From: 2010.03.12/outbox.cif.g09.slc.cpg/sg62_16_cif.got.tgz:30663.got - 2010.04.10 19:12:36.
