data_PCOD8252900
_publ_section_title
;
Structure prediction by ZEFSAII (Michael W. Deem and Ramdas Pophale) SiO2 
 PCOD8252900
Probable space group: P N M A
;
_chemical_formula_sum "Si O2"
_cell_formula_units_Z 64
_cell_length_a 32.402832
_cell_length_b 9.065816
_cell_length_c 9.978493
_cell_angle_alpha 90.000000
_cell_angle_beta 90.000000
_cell_angle_gamma 90.000000
_cell_volume 2931.263272
_symmetry_space_group_name_H-M "P N M A"
_symmetry_group_IT_number 62
_symmetry_cell_setting 'orthorhombic'
loop_
_space_group_symop_operation_xyz
x,y,z
1/2-x,-y,1/2+z
1/2+x,1/2-y,1/2-z
-x,1/2+y,-z
-x,-y,-z
1/2+x,y,1/2-z
1/2-x,1/2+y,1/2+z
x,1/2-y,z
loop_
_atom_site_type_symbol
_atom_site_label
_atom_site_fract_x
_atom_site_fract_y
_atom_site_fract_z
Si Si1 0.776514 0.421459 0.613095
Si Si2 0.130887 0.086875 0.779433
Si Si3 0.990243 0.083034 0.349223
Si Si4 0.369726 0.421382 0.818175
Si Si5 0.712957 0.576270 0.805471
Si Si6 0.563523 0.919058 0.584531
Si Si7 0.421939 0.912440 0.021898
Si Si8 0.935205 0.920152 0.828993
O O1 0.765945 0.250000 0.636125
O O2 0.821886 0.459374 0.666928
O O3 0.746031 0.522648 0.697570
O O4 0.772414 0.462799 0.456188
O O5 0.144041 0.250000 0.831751
O O6 0.096238 0.106213 0.668042
O O7 0.170163 0.002793 0.722864
O O8 0.108620 0.993692 0.895501
O O9 0.983310 0.250000 0.400183
O O10 0.038701 0.052732 0.310574
O O11 0.969896 0.969129 0.458440
O O12 0.967239 0.061719 0.207872
O O13 0.377036 0.250000 0.791192
O O14 0.389331 0.515889 0.696867
O O15 0.392855 0.467366 0.953523
O O16 0.706184 0.750000 0.790510
O O17 0.571665 0.750000 0.551615
O O18 0.543710 0.995571 0.453067
O O19 0.422319 0.750000 0.950361
O O20 0.933671 0.750000 0.868055
#
# Coordination Sequence:
#
# PCOD8252900 Si02
#       8
#     8   8   8   8   8   8   8   8
#     4  10  24  44  65  93 127 163 206 255 311 375
#     4  10  20  36  61  90 119 153 195 242 295 355
#     4   9  20  37  58  84 117 158 201 250 303 362
#     4  11  23  41  62  82 117 161 200 247 303 365
#     4  11  23  41  67  96 126 162 203 254 310 371
#     4  10  20  36  59  86 118 159 204 247 302 363
#     4  10  20  35  60  89 115 149 198 249 296 353
#     4  11  23  38  56  84 121 158 202 253 306 360
#
# _framework density 21.833589
#
# number of rings (size 3 to 8) (size 9 to 14) (size 15 to 20)
#    0.000    1.750    1.250    2.625    0.000    6.000 
#    0.000    2.500    0.000    0.000    0.000    0.000 
#    0.000    0.000    0.000    0.000    0.000    0.000 
#
# Total GULP energy -793671.488820 kJ/mol
# GULP energy per Si atom -12401.117013 kJ/mol
# Density = 2.178389 g / cm^3
# Si number density = 21.833589 Si / 1000 Ang^3
#
#
#
# Elastic Constant Matrix: (Units=GPa)
#
#
# Indices 1 2 3 4 5 6 
#
# 1 108.8665 52.4076 13.8815 0.0000 0.0000 0.0000
# 2 52.4076 124.7683 30.8919 0.0000 0.0000 0.0000
# 3 13.8815 30.8919 57.0213 0.0000 0.0000 0.0000
# 4 0.0000 0.0000 0.0000 39.6874 0.0000 0.0000
# 5 0.0000 0.0000 0.0000 0.0000 29.7844 0.0000
# 6 0.0000 0.0000 0.0000 0.0000 0.0000 33.1878
#
#
#
# Elastic Compliance Matrix: (Units=1/GPa)
#
#
# Indices 1 2 3 4 5 6 
#
# 1 0.011516 -0.004785 -0.000211 0.000000 0.000000 0.000000
# 2 -0.004785 0.011245 -0.004927 0.000000 0.000000 0.000000
# 3 -0.000211 -0.004927 0.020258 0.000000 0.000000 0.000000
# 4 0.000000 0.000000 0.000000 0.025197 0.000000 0.000000
# 5 0.000000 0.000000 0.000000 0.000000 0.033575 0.000000
# 6 0.000000 0.000000 0.000000 0.000000 0.000000 0.030132
#
#
# Mechanical properties :
#
#
# Convention : Reuss Voigt Hill
#
# Bulk Modulus (GPa) = 43.15504 53.89090 48.52297
# Shear Modulus (GPa) = 31.34957 33.43026 32.38992
#
# Velocity S-wave (km/s) = 3.79336 3.91722 3.85579
# Velocity P-wave (km/s) = 6.24455 6.72277 6.48807
#
# Compressibility (1/GPa) = 0.02317227
#
# Stress axis : x y z
#
# Youngs Moduli (GPa) = 86.83660 88.93173 49.36316
#
# Poissons Ratio (x) = 0.42552 0.01043
# Poissons Ratio (y) = 0.41550 0.24321
# Poissons Ratio (z) = 0.01834 0.43817
#
# Static dielectric constant tensor:
#      x y z
#    x 3.982320 0.000000 0.000000 
#    y 0.000000 4.093600 0.000000 
#    z 0.000000 0.000000 4.037590 
# 
# 
# High freq. dielectric constant tensor:
#      x y z
#    x 1.861570 0.000000 0.000000 
#    y 0.000000 1.865920 0.000000 
#    z 0.000000 0.000000 1.873160 
# 
# From -- ./inp_files/15817.got.cif
#   From: 2010.03.12/outbox.cif.g09.slc.cpg/sg62_8_cif.got.tgz:15817.got - 2010.04.10 19:12:36.
