data_PCOD8252390
_publ_section_title
;
Structure prediction by ZEFSAII (Michael W. Deem and Ramdas Pophale) SiO2 
 PCOD8252390
Probable space group: P N M A
;
_chemical_formula_sum "Si O2"
_cell_formula_units_Z 64
_cell_length_a 16.920731
_cell_length_b 9.388424
_cell_length_c 20.829475
_cell_angle_alpha 90.000000
_cell_angle_beta 90.000000
_cell_angle_gamma 90.000000
_cell_volume 3308.949507
_symmetry_space_group_name_H-M "P N M A"
_symmetry_group_IT_number 62
_symmetry_cell_setting 'orthorhombic'
loop_
_space_group_symop_operation_xyz
x,y,z
1/2-x,-y,1/2+z
1/2+x,1/2-y,1/2-z
-x,1/2+y,-z
-x,-y,-z
1/2+x,y,1/2-z
1/2-x,1/2+y,1/2+z
x,1/2-y,z
loop_
_atom_site_type_symbol
_atom_site_label
_atom_site_fract_x
_atom_site_fract_y
_atom_site_fract_z
Si Si1 0.287602 0.081176 0.227351
Si Si2 0.839505 0.083083 0.132558
Si Si3 0.430083 0.416375 0.802383
Si Si4 0.496346 0.916670 0.567735
Si Si5 0.576237 0.907442 0.997387
Si Si6 0.199748 0.914633 0.402989
Si Si7 0.615263 0.418234 0.317315
Si Si8 0.431024 0.090000 0.146079
O O1 0.285365 0.250000 0.227010
O O2 0.310701 0.025470 0.298068
O O3 0.205167 0.027682 0.195397
O O4 0.359647 0.022072 0.185813
O O5 0.826274 0.250000 0.126861
O O6 0.928744 0.042594 0.112757
O O7 0.779527 0.002782 0.085654
O O8 0.448129 0.250000 0.792654
O O9 0.343909 0.440145 0.834471
O O10 0.437313 0.497423 0.734605
O O11 0.494311 0.485165 0.850118
O O12 0.497403 0.750000 0.550515
O O13 0.418197 0.954204 0.610880
O O14 0.500000 0.000000 0.500000
O O15 0.556752 0.750000 0.024772
O O16 0.604795 0.900226 0.924686
O O17 0.644297 0.974976 0.040716
O O18 0.500000 0.000000 0.000000
O O19 0.220657 0.750000 0.412863
O O20 0.605996 0.250000 0.304528
O O21 0.454639 0.250000 0.169913
#
# Coordination Sequence:
#
# PCOD8252390 Si02
#       8
#     8   8   8   8   8   8   8   8
#     4   9  18  34  58  87 112 138 188 246 287 332
#     4  10  20  37  59  84 113 148 194 246 292 342
#     4  11  21  34  54  83 118 150 184 232 289 344
#     4  10  23  41  63  90 120 157 202 249 298 357
#     4  10  20  34  52  76 110 148 186 226 271 330
#     4  10  21  35  53  81 115 150 190 236 285 344
#     4  10  20  38  64  87 110 148 197 243 290 348
#     4  10  20  34  55  80 109 149 190 227 273 335
#
# _framework density 19.341486
#
# number of rings (size 3 to 8) (size 9 to 14) (size 15 to 20)
#    0.000    2.000    2.500    1.125    0.000    5.000 
#    0.000    5.000    0.000    0.000    0.000    0.000 
#    0.000    0.000    0.000    0.000    0.000    0.000 
#
# Total GULP energy -793202.707331 kJ/mol
# GULP energy per Si atom -12393.792302 kJ/mol
# Density = 1.929746 g / cm^3
# Si number density = 19.341486 Si / 1000 Ang^3
#
#
#
# Elastic Constant Matrix: (Units=GPa)
#
#
# Indices 1 2 3 4 5 6 
#
# 1 114.6949 35.9288 38.8437 0.0000 0.0000 0.0000
# 2 35.9288 54.2728 32.2663 0.0000 0.0000 0.0000
# 3 38.8437 32.2663 85.5241 0.0000 0.0000 0.0000
# 4 0.0000 0.0000 0.0000 27.9362 0.0000 0.0000
# 5 0.0000 0.0000 0.0000 0.0000 33.4467 0.0000
# 6 0.0000 0.0000 0.0000 0.0000 0.0000 25.7782
#
#
#
# Elastic Compliance Matrix: (Units=1/GPa)
#
#
# Indices 1 2 3 4 5 6 
#
# 1 0.011587 -0.005855 -0.003054 0.000000 0.000000 0.000000
# 2 -0.005855 0.026712 -0.007418 0.000000 0.000000 0.000000
# 3 -0.003054 -0.007418 0.015878 0.000000 0.000000 0.000000
# 4 0.000000 0.000000 0.000000 0.035796 0.000000 0.000000
# 5 0.000000 0.000000 0.000000 0.000000 0.029898 0.000000
# 6 0.000000 0.000000 0.000000 0.000000 0.000000 0.038793
#
#
# Mechanical properties :
#
#
# Convention : Reuss Voigt Hill
#
# Bulk Modulus (GPa) = 46.46241 52.06327 49.26284
# Shear Modulus (GPa) = 25.18975 27.26242 26.22609
#
# Velocity S-wave (km/s) = 3.61275 3.75844 3.68632
# Velocity P-wave (km/s) = 6.44026 6.76838 6.60635
#
# Compressibility (1/GPa) = 0.02152278
#
# Stress axis : x y z
#
# Youngs Moduli (GPa) = 86.30244 37.43620 62.97885
#
# Poissons Ratio (x) = 0.21920 0.19231
# Poissons Ratio (y) = 0.50533 0.46721
# Poissons Ratio (z) = 0.26354 0.27772
#
# Static dielectric constant tensor:
#      x y z
#    x 3.766520 0.000000 0.000000 
#    y 0.000000 3.298390 0.000000 
#    z 0.000000 0.000000 4.187290 
# 
# 
# High freq. dielectric constant tensor:
#      x y z
#    x 1.753220 0.000000 0.000000 
#    y 0.000000 1.731600 0.000000 
#    z 0.000000 0.000000 1.755010 
# 
# From -- ./inp_files/27779.got.cif
#   From: 2010.03.12/outbox.cif.g09.slc.cpg/sg62_14_cif.got.tgz:27779.got - 2010.04.10 19:12:36.
