data_PCOD8252588
_publ_section_title
;
Structure prediction by ZEFSAII (Michael W. Deem and Ramdas Pophale) SiO2 
 PCOD8252588
Probable space group: P N M A
;
_chemical_formula_sum "Si O2"
_cell_formula_units_Z 56
_cell_length_a 21.256777
_cell_length_b 8.359594
_cell_length_c 15.475887
_cell_angle_alpha 90.000000
_cell_angle_beta 90.000000
_cell_angle_gamma 90.000000
_cell_volume 2750.034562
_symmetry_space_group_name_H-M "P N M A"
_symmetry_group_IT_number 62
_symmetry_cell_setting 'orthorhombic'
loop_
_space_group_symop_operation_xyz
x,y,z
1/2-x,-y,1/2+z
1/2+x,1/2-y,1/2-z
-x,1/2+y,-z
-x,-y,-z
1/2+x,y,1/2-z
1/2-x,1/2+y,1/2+z
x,1/2-y,z
loop_
_atom_site_type_symbol
_atom_site_label
_atom_site_fract_x
_atom_site_fract_y
_atom_site_fract_z
Si Si1 0.897275 0.572066 0.475881
Si Si2 0.949639 0.938312 0.934636
Si Si3 0.840895 0.060362 0.190289
Si Si4 0.012116 0.069392 0.390434
Si Si5 0.289452 0.432317 0.126389
Si Si6 0.020119 0.433344 0.782621
Si Si7 0.186347 0.061323 0.994209
O O1 0.869033 0.750000 0.462104
O O2 0.965252 0.560929 0.430782
O O3 0.851401 0.444148 0.433035
O O4 0.915308 0.538239 0.576695
O O5 0.956217 0.750000 0.916556
O O6 0.881749 0.983409 0.970715
O O7 0.965299 0.043569 0.851815
O O8 0.000000 0.000000 0.000000
O O9 0.848417 0.250000 0.197563
O O10 0.803278 0.995624 0.276899
O O11 0.910154 0.982926 0.185953
O O12 0.803843 0.015307 0.101711
O O13 0.992634 0.250000 0.416003
O O14 0.006676 0.050817 0.289198
O O15 0.270919 0.250000 0.140935
O O16 0.234098 0.510993 0.067372
O O17 0.022950 0.250000 0.752983
O O18 0.196618 0.250000 0.983280
#
# Coordination Sequence:
#
# PCOD8252588 Si02
#       7
#     8   8   8   8   8   8   8
#     4  10  20  34  57  87 118 155 199 248 299 355
#     4  11  22  38  62  89 121 155 193 248 310 362
#     4  11  22  38  64  91 117 156 203 249 301 364
#     4  10  20  35  55  84 120 157 198 246 299 353
#     4  10  22  41  63  87 122 164 205 249 305 367
#     4  12  23  36  59  89 121 155 197 246 298 361
#     4  10  23  43  64  87 120 161 202 252 306 363
#
# _framework density 20.363381
#
# number of rings (size 3 to 8) (size 9 to 14) (size 15 to 20)
#    0.000    1.429    2.857    3.000    0.000    3.429 
#    2.571    0.000    0.000    0.000    0.000    0.000 
#    0.000    0.000    0.000    0.000    0.000    0.000 
#
# Total GULP energy -693759.208730 kJ/mol
# GULP energy per Si atom -12388.557299 kJ/mol
# Density = 2.031703 g / cm^3
# Si number density = 20.363381 Si / 1000 Ang^3
#
#
#
# Elastic Constant Matrix: (Units=GPa)
#
#
# Indices 1 2 3 4 5 6 
#
# 1 99.4590 17.1857 64.2266 0.0000 0.0000 0.0000
# 2 17.1857 54.0159 16.3940 0.0000 0.0000 0.0000
# 3 64.2266 16.3940 132.8550 0.0000 0.0000 0.0000
# 4 0.0000 0.0000 0.0000 31.1125 0.0000 0.0000
# 5 0.0000 0.0000 0.0000 0.0000 37.5126 0.0000
# 6 0.0000 0.0000 0.0000 0.0000 0.0000 21.4453
#
#
#
# Elastic Compliance Matrix: (Units=1/GPa)
#
#
# Indices 1 2 3 4 5 6 
#
# 1 0.014979 -0.002668 -0.006912 0.000000 0.000000 0.000000
# 2 -0.002668 0.019709 -0.001142 0.000000 0.000000 0.000000
# 3 -0.006912 -0.001142 0.011010 0.000000 0.000000 0.000000
# 4 0.000000 0.000000 0.000000 0.032141 0.000000 0.000000
# 5 0.000000 0.000000 0.000000 0.000000 0.026658 0.000000
# 6 0.000000 0.000000 0.000000 0.000000 0.000000 0.046630
#
#
# Mechanical properties :
#
#
# Convention : Reuss Voigt Hill
#
# Bulk Modulus (GPa) = 41.23279 53.54917 47.39098
# Shear Modulus (GPa) = 27.67706 30.58233 29.12969
#
# Velocity S-wave (km/s) = 3.69068 3.87955 3.78629
# Velocity P-wave (km/s) = 6.20112 6.81335 6.51443
#
# Compressibility (1/GPa) = 0.02425254
#
# Stress axis : x y z
#
# Youngs Moduli (GPa) = 66.76033 50.73936 90.83058
#
# Poissons Ratio (x) = 0.13537 0.62783
# Poissons Ratio (y) = 0.17811 0.10375
# Poissons Ratio (z) = 0.46146 0.05796
#
# Static dielectric constant tensor:
#      x y z
#    x 3.587210 0.000000 0.000000 
#    y 0.000000 3.575040 0.000000 
#    z 0.000000 0.000000 3.987190 
# 
# 
# High freq. dielectric constant tensor:
#      x y z
#    x 1.772820 0.000000 0.000000 
#    y 0.000000 1.790270 0.000000 
#    z 0.000000 0.000000 1.811650 
# 
# From -- ./inp_files/20420.got.cif
#   From: 2010.03.12/outbox.cif.g09.slc.cpg/sg62_11_cif.got.tgz:20420.got - 2010.04.10 19:12:36.
