data_PCOD8252199
_publ_section_title
;
Structure prediction by ZEFSAII (Michael W. Deem and Ramdas Pophale) SiO2 
 PCOD8252199
Probable space group: P N M A
;
_chemical_formula_sum "Si O2"
_cell_formula_units_Z 64
_cell_length_a 9.521353
_cell_length_b 24.584427
_cell_length_c 15.545550
_cell_angle_alpha 90.000000
_cell_angle_beta 90.000000
_cell_angle_gamma 90.000000
_cell_volume 3638.855828
_symmetry_space_group_name_H-M "P N M A"
_symmetry_group_IT_number 62
_symmetry_cell_setting 'orthorhombic'
loop_
_space_group_symop_operation_xyz
x,y,z
1/2-x,-y,1/2+z
1/2+x,1/2-y,1/2-z
-x,1/2+y,-z
-x,-y,-z
1/2+x,y,1/2-z
1/2-x,1/2+y,1/2+z
x,1/2-y,z
loop_
_atom_site_type_symbol
_atom_site_label
_atom_site_fract_x
_atom_site_fract_y
_atom_site_fract_z
Si Si1 0.839001 0.008099 0.690518
Si Si2 0.932778 0.385169 0.592610
Si Si3 0.595511 0.573381 0.503497
Si Si4 0.597520 0.810091 0.453016
Si Si5 0.700860 0.310744 0.629458
Si Si6 0.907203 0.549687 0.531417
Si Si7 0.977790 0.992900 0.144995
Si Si8 0.154493 0.311866 0.679973
O O1 0.904007 0.059583 0.642854
O O2 0.670292 0.014340 0.693959
O O3 0.897177 0.001722 0.786340
O O4 0.885824 0.954628 0.634827
O O5 0.790617 0.352314 0.570947
O O6 0.011794 0.396210 0.501403
O O7 0.023529 0.348634 0.656218
O O8 0.598299 0.638927 0.518914
O O9 0.751466 0.548689 0.489922
O O10 0.507335 0.558650 0.417404
O O11 0.521721 0.547402 0.586999
O O12 0.608475 0.750000 0.498596
O O13 0.459825 0.812657 0.396125
O O14 0.726185 0.819241 0.389979
O O15 0.761536 0.250000 0.617211
O O16 0.714969 0.330388 0.728097
O O17 0.000000 0.500000 0.500000
O O18 0.100644 0.250000 0.686386
#
# Coordination Sequence:
#
# PCOD8252199 Si02
#       8
#     8   8   8   8   8   8   8   8
#     4  10  23  36  52  81 105 138 180 221 271 322
#     4  11  20  31  54  71 102 145 176 219 260 316
#     4  10  20  39  56  79 110 146 180 224 272 329
#     4  10  20  34  53  75 104 140 181 221 267 325
#     4  10  21  33  45  74 110 137 178 220 259 315
#     4   9  20  36  51  76 109 138 179 225 268 313
#     4  10  23  37  58  79 111 142 180 222 273 328
#     4  10  20  32  47  71 102 142 180 215 257 310
#
# _framework density 17.587947
#
# number of rings (size 3 to 8) (size 9 to 14) (size 15 to 20)
#    0.000    2.000    1.250    1.875    8.750    3.000 
#    0.000    0.000    0.000    0.000    0.000    5.250 
#    0.000    0.000    0.000    0.000    0.000    0.000 
#
# Total GULP energy -793290.764115 kJ/mol
# GULP energy per Si atom -12395.168189 kJ/mol
# Density = 1.754792 g / cm^3
# Si number density = 17.587947 Si / 1000 Ang^3
#
#
#
# Elastic Constant Matrix: (Units=GPa)
#
#
# Indices 1 2 3 4 5 6 
#
# 1 74.9337 36.4162 36.1021 0.0000 0.0000 0.0000
# 2 36.4162 91.4130 31.8692 0.0000 0.0000 0.0000
# 3 36.1021 31.8692 68.4067 0.0000 0.0000 0.0000
# 4 0.0000 0.0000 0.0000 19.4767 0.0000 0.0000
# 5 0.0000 0.0000 0.0000 0.0000 24.7543 0.0000
# 6 0.0000 0.0000 0.0000 0.0000 0.0000 32.8855
#
#
#
# Elastic Compliance Matrix: (Units=1/GPa)
#
#
# Indices 1 2 3 4 5 6 
#
# 1 0.019660 -0.005032 -0.008031 0.000000 0.000000 0.000000
# 2 -0.005032 0.014349 -0.004029 0.000000 0.000000 0.000000
# 3 -0.008031 -0.004029 0.020734 0.000000 0.000000 0.000000
# 4 0.000000 0.000000 0.000000 0.051343 0.000000 0.000000
# 5 0.000000 0.000000 0.000000 0.000000 0.040397 0.000000
# 6 0.000000 0.000000 0.000000 0.000000 0.000000 0.030409
#
#
# Mechanical properties :
#
#
# Convention : Reuss Voigt Hill
#
# Bulk Modulus (GPa) = 48.64317 49.28092 48.96204
# Shear Modulus (GPa) = 22.94322 24.11434 23.52878
#
# Velocity S-wave (km/s) = 3.61568 3.70682 3.66153
# Velocity P-wave (km/s) = 6.71923 6.81184 6.76569
#
# Compressibility (1/GPa) = 0.02055787
#
# Stress axis : x y z
#
# Youngs Moduli (GPa) = 50.86467 69.69329 48.22968
#
# Poissons Ratio (x) = 0.35070 0.38735
# Poissons Ratio (y) = 0.25595 0.19432
# Poissons Ratio (z) = 0.40852 0.28080
#
# Static dielectric constant tensor:
#      x y z
#    x 3.455080 0.000000 0.000000 
#    y 0.000000 2.684650 0.000000 
#    z 0.000000 0.000000 3.150510 
# 
# 
# High freq. dielectric constant tensor:
#      x y z
#    x 1.701400 0.000000 0.000000 
#    y 0.000000 1.677240 0.000000 
#    z 0.000000 0.000000 1.637350 
# 
# From -- ./inp_files/22648.got.cif
#   From: 2010.03.12/outbox.cif.g09.slc.cpg/sg62_12_cif.got.tgz:22648.got - 2010.04.10 19:12:36.
