data_PCOD8252265
_publ_section_title
;
Structure prediction by ZEFSAII (Michael W. Deem and Ramdas Pophale) SiO2 
 PCOD8252265
Probable space group: P N M A
;
_chemical_formula_sum "Si O2"
_cell_formula_units_Z 48
_cell_length_a 13.468070
_cell_length_b 8.687569
_cell_length_c 23.626157
_cell_angle_alpha 90.000000
_cell_angle_beta 90.000000
_cell_angle_gamma 90.000000
_cell_volume 2764.373477
_symmetry_space_group_name_H-M "P N M A"
_symmetry_group_IT_number 62
_symmetry_cell_setting 'orthorhombic'
loop_
_space_group_symop_operation_xyz
x,y,z
1/2-x,-y,1/2+z
1/2+x,1/2-y,1/2-z
-x,1/2+y,-z
-x,-y,-z
1/2+x,y,1/2-z
1/2-x,1/2+y,1/2+z
x,1/2-y,z
loop_
_atom_site_type_symbol
_atom_site_label
_atom_site_fract_x
_atom_site_fract_y
_atom_site_fract_z
Si Si1 0.702397 0.927622 0.663694
Si Si2 0.888424 0.928849 0.056560
Si Si3 0.616287 0.571287 0.438917
Si Si4 0.605890 0.071137 0.771064
Si Si5 0.222225 0.070473 0.164772
Si Si6 0.598573 0.426647 0.227036
O O1 0.680531 0.750000 0.650129
O O2 0.816467 0.955133 0.680482
O O3 0.681781 0.028998 0.608645
O O4 0.630719 0.976607 0.714613
O O5 0.878355 0.750000 0.041618
O O6 0.001574 0.970919 0.072344
O O7 0.853359 0.026520 0.002518
O O8 0.637565 0.750000 0.428602
O O9 0.683412 0.472590 0.396848
O O10 0.618906 0.250000 0.758099
O O11 0.676974 0.022304 0.822638
O O12 0.493177 0.035131 0.788848
O O13 0.247641 0.250000 0.168314
O O14 0.139555 0.026237 0.211240
O O15 0.563750 0.250000 0.226655
#
# Coordination Sequence:
#
# PCOD8252265 Si02
#       6
#     8   8   8   8   8   8
#     4  10  20  34  52  73 100 133 166 203 246 293
#     4  10  20  33  51  75 102 132 165 203 246 292
#     4  10  20  33  50  74 103 133 166 203 244 292
#     4  11  21  32  50  75 102 131 164 204 247 293
#     4  10  20  34  52  73 100 133 167 204 246 293
#     4   9  19  34  51  72  99 132 166 200 243 293
#
# _framework density 17.363788
#
# number of rings (size 3 to 8) (size 9 to 14) (size 15 to 20)
#    0.000    2.000    0.000    5.500    0.000    8.667 
#    0.000    0.000    0.000    1.000    0.000    0.000 
#    0.000    0.000    0.000    0.000    0.000    0.000 
#
# Total GULP energy -595459.582538 kJ/mol
# GULP energy per Si atom -12405.407970 kJ/mol
# Density = 1.732427 g / cm^3
# Si number density = 17.363788 Si / 1000 Ang^3
#
#
#
# Elastic Constant Matrix: (Units=GPa)
#
#
# Indices 1 2 3 4 5 6 
#
# 1 89.0522 32.2832 37.0164 0.0000 0.0000 0.0000
# 2 32.2832 58.5248 12.7993 0.0000 0.0000 0.0000
# 3 37.0164 12.7993 86.2585 0.0000 0.0000 0.0000
# 4 0.0000 0.0000 0.0000 32.9166 0.0000 0.0000
# 5 0.0000 0.0000 0.0000 0.0000 23.0842 0.0000
# 6 0.0000 0.0000 0.0000 0.0000 0.0000 27.7203
#
#
#
# Elastic Compliance Matrix: (Units=1/GPa)
#
#
# Indices 1 2 3 4 5 6 
#
# 1 0.016531 -0.007821 -0.005934 0.000000 0.000000 0.000000
# 2 -0.007821 0.021360 0.000187 0.000000 0.000000 0.000000
# 3 -0.005934 0.000187 0.014112 0.000000 0.000000 0.000000
# 4 0.000000 0.000000 0.000000 0.030380 0.000000 0.000000
# 5 0.000000 0.000000 0.000000 0.000000 0.043320 0.000000
# 6 0.000000 0.000000 0.000000 0.000000 0.000000 0.036075
#
#
# Mechanical properties :
#
#
# Convention : Reuss Voigt Hill
#
# Bulk Modulus (GPa) = 40.21362 44.22593 42.21978
# Shear Modulus (GPa) = 25.35475 26.86000 26.10737
#
# Velocity S-wave (km/s) = 3.82541 3.93733 3.88177
# Velocity P-wave (km/s) = 6.53617 6.79673 6.66772
#
# Compressibility (1/GPa) = 0.02486720
#
# Stress axis : x y z
#
# Youngs Moduli (GPa) = 60.49212 46.81604 70.86371
#
# Poissons Ratio (x) = 0.36616 0.42047
# Poissons Ratio (y) = 0.47312 -0.01324
# Poissons Ratio (z) = 0.35893 -0.00875
#
# Static dielectric constant tensor:
#      x y z
#    x 3.126040 0.000000 0.000000 
#    y 0.000000 3.251140 0.000000 
#    z 0.000000 0.000000 3.096290 
# 
# 
# High freq. dielectric constant tensor:
#      x y z
#    x 1.657540 0.000000 0.000000 
#    y 0.000000 1.684220 0.000000 
#    z 0.000000 0.000000 1.659150 
# 
# From -- ./inp_files/26846.got.cif
#   From: 2010.03.12/outbox.cif.g09.slc.cpg/sg62_14_cif.got.tgz:26846.got - 2010.04.10 19:12:36.
