data_PCOD8252467
_publ_section_title
;
Structure prediction by ZEFSAII (Michael W. Deem and Ramdas Pophale) SiO2 
 PCOD8252467
Probable space group: P N M A
;
_chemical_formula_sum "Si O2"
_cell_formula_units_Z 64
_cell_length_a 14.829269
_cell_length_b 10.675970
_cell_length_c 19.298274
_cell_angle_alpha 90.000000
_cell_angle_beta 90.000000
_cell_angle_gamma 90.000000
_cell_volume 3055.241583
_symmetry_space_group_name_H-M "P N M A"
_symmetry_group_IT_number 62
_symmetry_cell_setting 'orthorhombic'
loop_
_space_group_symop_operation_xyz
x,y,z
1/2-x,-y,1/2+z
1/2+x,1/2-y,1/2-z
-x,1/2+y,-z
-x,-y,-z
1/2+x,y,1/2-z
1/2-x,1/2+y,1/2+z
x,1/2-y,z
loop_
_atom_site_type_symbol
_atom_site_label
_atom_site_fract_x
_atom_site_fract_y
_atom_site_fract_z
Si Si1 0.898581 0.957565 0.923410
Si Si2 0.394955 0.607496 0.147789
Si Si3 0.255676 0.481749 0.380158
Si Si4 0.644329 0.890980 0.747027
Si Si5 0.565916 0.386205 0.571356
Si Si6 0.059955 0.385527 0.219196
Si Si7 0.903579 0.391429 0.684231
Si Si8 0.732796 0.388720 0.973174
O O1 0.802206 0.012275 0.942708
O O2 0.970196 0.064512 0.902257
O O3 0.891842 0.872065 0.855474
O O4 0.936702 0.878615 0.987743
O O5 0.373427 0.750000 0.175061
O O6 0.346823 0.502643 0.196254
O O7 0.502410 0.586553 0.144155
O O8 0.360106 0.591281 0.069086
O O9 0.276350 0.402703 0.310461
O O10 0.351523 0.533434 0.402621
O O11 0.181337 0.589481 0.366737
O O12 0.216290 0.401733 0.444345
O O13 0.653183 0.750000 0.779621
O O14 0.547120 0.907045 0.710739
O O15 0.578011 0.250000 0.603812
O O16 0.076836 0.250000 0.256640
O O17 0.105803 0.502265 0.257477
O O18 0.899201 0.250000 0.714878
O O19 0.771317 0.250000 0.959669
#
# Coordination Sequence:
#
# PCOD8252467 Si02
#       8
#     8   8   8   8   8   8   8   8
#     4  10  20  35  53  85 119 157 201 244 298 365
#     4   9  21  43  64  88 120 160 207 258 308 363
#     4  11  22  38  59  90 122 158 204 255 305 365
#     4  10  21  39  61  88 122 161 201 249 307 367
#     4  10  20  34  54  80 117 159 196 241 300 361
#     4  10  21  39  61  87 121 160 202 249 306 369
#     4  10  23  41  62  88 120 159 208 259 309 364
#     4  10  22  39  61  88 121 162 209 256 309 367
#
# _framework density 20.947607000000001
#
# number of rings (size 3 to 8) (size 9 to 14) (size 15 to 20)
#    0.000    2.000    1.250    1.500    1.750    3.500 
#    0.000    3.125    0.000    0.000    0.000    0.000 
#    0.000    0.000    0.000    0.000    0.000    0.000 
#
# Total GULP energy -793123.708414 kJ/mol
# GULP energy per Si atom -12392.557944 kJ/mol
# Density = 2.089993 g / cm^3
# Si number density = 20.947607 Si / 1000 Ang^3
#
#
#
# Elastic Constant Matrix: (Units=GPa)
#
#
# Indices 1 2 3 4 5 6 
#
# 1 70.9019 22.3997 29.0470 0.0000 0.0000 0.0000
# 2 22.3997 123.1113 35.0797 0.0000 0.0000 0.0000
# 3 29.0470 35.0797 77.0485 0.0000 0.0000 0.0000
# 4 0.0000 0.0000 0.0000 23.8501 0.0000 0.0000
# 5 0.0000 0.0000 0.0000 0.0000 28.5477 0.0000
# 6 0.0000 0.0000 0.0000 0.0000 0.0000 21.9926
#
#
#
# Elastic Compliance Matrix: (Units=1/GPa)
#
#
# Indices 1 2 3 4 5 6 
#
# 1 0.016902 -0.001447 -0.005713 0.000000 0.000000 0.000000
# 2 -0.001447 0.009458 -0.003760 0.000000 0.000000 0.000000
# 3 -0.005713 -0.003760 0.016845 0.000000 0.000000 0.000000
# 4 0.000000 0.000000 0.000000 0.041929 0.000000 0.000000
# 5 0.000000 0.000000 0.000000 0.000000 0.035029 0.000000
# 6 0.000000 0.000000 0.000000 0.000000 0.000000 0.045470
#
#
# Mechanical properties :
#
#
# Convention : Reuss Voigt Hill
#
# Bulk Modulus (GPa) = 46.81050 49.34604 48.07827
# Shear Modulus (GPa) = 25.69460 27.18044 26.43752
#
# Velocity S-wave (km/s) = 3.50610 3.60605 3.55643
# Velocity P-wave (km/s) = 6.22779 6.39892 6.31393
#
# Compressibility (1/GPa) = 0.02136273
#
# Stress axis : x y z
#
# Youngs Moduli (GPa) = 59.16565 105.73562 59.36609
#
# Poissons Ratio (x) = 0.15304 0.33915
# Poissons Ratio (y) = 0.08563 0.22324
# Poissons Ratio (z) = 0.33801 0.39760
#
# Static dielectric constant tensor:
#      x y z
#    x 3.697580 0.000000 0.000000 
#    y 0.000000 3.830390 0.000000 
#    z 0.000000 0.000000 3.774170 
# 
# 
# High freq. dielectric constant tensor:
#      x y z
#    x 1.818400 0.000000 0.000000 
#    y 0.000000 1.824930 0.000000 
#    z 0.000000 0.000000 1.801240 
# 
# From -- ./inp_files/24050.got.cif
#   From: 2010.03.12/outbox.cif.g09.slc.cpg/sg62_13_cif.got.tgz:24050.got - 2010.04.10 19:12:36.
