data_PCOD8252427
_publ_section_title
;
Structure prediction by ZEFSAII (Michael W. Deem and Ramdas Pophale) SiO2 
 PCOD8252427
Probable space group: P N M A
;
_chemical_formula_sum "Si O2"
_cell_formula_units_Z 48
_cell_length_a 12.330111
_cell_length_b 8.893289
_cell_length_c 24.680630
_cell_angle_alpha 90.000000
_cell_angle_beta 90.000000
_cell_angle_gamma 90.000000
_cell_volume 2706.360419
_symmetry_space_group_name_H-M "P N M A"
_symmetry_group_IT_number 62
_symmetry_cell_setting 'orthorhombic'
loop_
_space_group_symop_operation_xyz
x,y,z
1/2-x,-y,1/2+z
1/2+x,1/2-y,1/2-z
-x,1/2+y,-z
-x,-y,-z
1/2+x,y,1/2-z
1/2-x,1/2+y,1/2+z
x,1/2-y,z
loop_
_atom_site_type_symbol
_atom_site_label
_atom_site_fract_x
_atom_site_fract_y
_atom_site_fract_z
Si Si1 0.113695 0.575949 0.935869
Si Si2 0.689787 0.419571 0.869411
Si Si3 0.490633 0.573282 0.832677
Si Si4 0.760764 0.071659 0.650145
Si Si5 0.633527 0.419406 0.754184
Si Si6 0.890568 0.424895 0.938351
O O1 0.123982 0.750000 0.920192
O O2 0.203001 0.480105 0.904551
O O3 0.994452 0.519166 0.919706
O O4 0.136099 0.547642 0.998994
O O5 0.665035 0.250000 0.889677
O O6 0.581044 0.520423 0.877091
O O7 0.718541 0.419072 0.804905
O O8 0.789521 0.486833 0.903443
O O9 0.477196 0.750000 0.833591
O O10 0.378686 0.498621 0.848744
O O11 0.528875 0.518426 0.772455
O O12 0.771430 0.250000 0.651923
O O13 0.691485 0.011497 0.701557
O O14 0.592893 0.250000 0.742029
O O15 0.913604 0.250000 0.926188
#
# Coordination Sequence:
#
# PCOD8252427 Si02
#       6
#     8   8   8   8   8   8
#     4  10  21  34  52  83 113 140 177 228 278 315
#     4   8  16  35  57  77 101 139 182 217 257 315
#     4  10  20  34  53  80 111 135 168 224 277 315
#     4  11  21  36  56  78 109 148 185 216 260 326
#     4   8  18  35  54  75 100 139 181 214 255 318
#     4   9  18  36  59  79 107 143 183 224 268 327
#
# _framework density 17.735997000000001
#
# number of rings (size 3 to 8) (size 9 to 14) (size 15 to 20)
#    1.000    1.667    0.000    2.000    0.000    4.000 
#    0.000    4.167    0.000    0.000    0.000    0.000 
#    0.000    0.000    0.000    0.000    0.000    0.000 
#
# Total GULP energy -594889.772993 kJ/mol
# GULP energy per Si atom -12393.536937 kJ/mol
# Density = 1.769563 g / cm^3
# Si number density = 17.735997 Si / 1000 Ang^3
#
#
#
# Elastic Constant Matrix: (Units=GPa)
#
#
# Indices 1 2 3 4 5 6 
#
# 1 98.4391 42.2797 34.2921 0.0000 0.0000 0.0000
# 2 42.2797 82.9813 23.2014 0.0000 0.0000 0.0000
# 3 34.2921 23.2014 48.7923 0.0000 0.0000 0.0000
# 4 0.0000 0.0000 0.0000 22.7252 0.0000 0.0000
# 5 0.0000 0.0000 0.0000 0.0000 30.4182 0.0000
# 6 0.0000 0.0000 0.0000 0.0000 0.0000 29.8208
#
#
#
# Elastic Compliance Matrix: (Units=1/GPa)
#
#
# Indices 1 2 3 4 5 6 
#
# 1 0.015394 -0.005557 -0.008176 0.000000 0.000000 0.000000
# 2 -0.005557 0.015905 -0.003657 0.000000 0.000000 0.000000
# 3 -0.008176 -0.003657 0.027981 0.000000 0.000000 0.000000
# 4 0.000000 0.000000 0.000000 0.044004 0.000000 0.000000
# 5 0.000000 0.000000 0.000000 0.000000 0.032875 0.000000
# 6 0.000000 0.000000 0.000000 0.000000 0.000000 0.033534
#
#
# Mechanical properties :
#
#
# Convention : Reuss Voigt Hill
#
# Bulk Modulus (GPa) = 40.82062 47.75101 44.28582
# Shear Modulus (GPa) = 23.51397 25.28882 24.40139
#
# Velocity S-wave (km/s) = 3.64507 3.78014 3.71322
# Velocity P-wave (km/s) = 6.38600 6.78485 6.58845
#
# Compressibility (1/GPa) = 0.02449742
#
# Stress axis : x y z
#
# Youngs Moduli (GPa) = 64.96171 62.87370 35.73892
#
# Poissons Ratio (x) = 0.34940 0.29222
# Poissons Ratio (y) = 0.36100 0.13071
# Poissons Ratio (z) = 0.53116 0.22995
#
# Static dielectric constant tensor:
#      x y z
#    x 3.184530 0.000000 0.000000 
#    y 0.000000 3.268470 0.000000 
#    z 0.000000 0.000000 3.207630 
# 
# 
# High freq. dielectric constant tensor:
#      x y z
#    x 1.678800 0.000000 0.000000 
#    y 0.000000 1.685590 0.000000 
#    z 0.000000 0.000000 1.670800 
# 
# From -- ./inp_files/31002.got.cif
#   From: 2010.03.12/outbox.cif.g09.slc.cpg/sg62_16_cif.got.tgz:31002.got - 2010.04.10 19:12:36.
