data_PCOD8252977
_publ_section_title
;
Structure prediction by ZEFSAII (Michael W. Deem and Ramdas Pophale) SiO2 
 PCOD8252977
Probable space group: P N M A
;
_chemical_formula_sum "Si O2"
_cell_formula_units_Z 64
_cell_length_a 16.262105
_cell_length_b 23.833524
_cell_length_c 8.775958
_cell_angle_alpha 90.000000
_cell_angle_beta 90.000000
_cell_angle_gamma 90.000000
_cell_volume 3401.414497
_symmetry_space_group_name_H-M "P N M A"
_symmetry_group_IT_number 62
_symmetry_cell_setting 'orthorhombic'
loop_
_space_group_symop_operation_xyz
x,y,z
1/2-x,-y,1/2+z
1/2+x,1/2-y,1/2-z
-x,1/2+y,-z
-x,-y,-z
1/2+x,y,1/2-z
1/2-x,1/2+y,1/2+z
x,1/2-y,z
loop_
_atom_site_type_symbol
_atom_site_label
_atom_site_fract_x
_atom_site_fract_y
_atom_site_fract_z
Si Si1 0.217136 0.001387 0.546379
Si Si2 0.367560 0.499661 0.361592
Si Si3 0.909430 0.813600 0.392203
Si Si4 0.014997 0.104128 0.834561
Si Si5 0.748248 0.376965 0.932267
Si Si6 0.412097 0.375707 0.392611
Si Si7 0.570081 0.815288 0.923494
Si Si8 0.853399 0.098276 0.644730
O O1 0.314450 0.990545 0.515927
O O2 0.161972 0.958673 0.449527
O O3 0.197848 0.995956 0.724235
O O4 0.203326 0.066938 0.502553
O O5 0.434118 0.547802 0.354336
O O6 0.416684 0.441728 0.358698
O O7 0.912992 0.750000 0.337088
O O8 0.927211 0.851399 0.246579
O O9 0.817727 0.827408 0.448729
O O10 0.976326 0.824834 0.523529
O O11 0.935101 0.086620 0.739698
O O12 0.986930 0.134375 0.990269
O O13 0.777682 0.387288 0.757133
O O14 0.824822 0.358555 0.035184
O O15 0.425592 0.337159 0.247568
O O16 0.595231 0.750000 0.931194
O O17 0.633566 0.849406 0.030202
#
# Coordination Sequence:
#
# PCOD8252977 Si02
#       8
#     8   8   8   8   8   8   8   8
#     4  11  19  34  56  82 117 147 181 229 282 332
#     4  11  21  36  55  85 117 148 180 228 281 340
#     4  10  21  39  59  80 108 147 192 235 281 330
#     4  10  21  38  56  82 114 147 191 228 276 344
#     4  10  21  38  58  83 115 151 188 228 279 344
#     4  10  22  38  58  85 115 149 186 229 286 339
#     4  10  22  39  57  81 112 145 189 241 285 327
#     4  10  20  36  57  82 112 150 190 229 277 338
#
# _framework density 18.815702000000002
#
# number of rings (size 3 to 8) (size 9 to 14) (size 15 to 20)
#    0.000    1.750    3.750    0.375    0.000    3.000 
#    4.500    2.500    0.000    0.000    0.000    0.000 
#    0.000    0.000    0.000    0.000    0.000    0.000 
#
# Total GULP energy -793477.532136 kJ/mol
# GULP energy per Si atom -12398.086440 kJ/mol
# Density = 1.877288 g / cm^3
# Si number density = 18.815702 Si / 1000 Ang^3
#
#
#
# Elastic Constant Matrix: (Units=GPa)
#
#
# Indices 1 2 3 4 5 6 
#
# 1 80.8267 46.6858 34.1634 0.0000 0.0000 0.0000
# 2 46.6858 81.0297 26.3927 0.0000 0.0000 0.0000
# 3 34.1634 26.3927 81.0148 0.0000 0.0000 0.0000
# 4 0.0000 0.0000 0.0000 17.9215 0.0000 0.0000
# 5 0.0000 0.0000 0.0000 0.0000 16.2359 0.0000
# 6 0.0000 0.0000 0.0000 0.0000 0.0000 29.8358
#
#
#
# Elastic Compliance Matrix: (Units=1/GPa)
#
#
# Indices 1 2 3 4 5 6 
#
# 1 0.020422 -0.010025 -0.005346 0.000000 0.000000 0.000000
# 2 -0.010025 0.018727 -0.001873 0.000000 0.000000 0.000000
# 3 -0.005346 -0.001873 0.015208 0.000000 0.000000 0.000000
# 4 0.000000 0.000000 0.000000 0.055799 0.000000 0.000000
# 5 0.000000 0.000000 0.000000 0.000000 0.061592 0.000000
# 6 0.000000 0.000000 0.000000 0.000000 0.000000 0.033517
#
#
# Mechanical properties :
#
#
# Convention : Reuss Voigt Hill
#
# Bulk Modulus (GPa) = 50.33038 50.81721 50.57379
# Shear Modulus (GPa) = 20.29403 21.84058 21.06730
#
# Velocity S-wave (km/s) = 3.28772 3.41069 3.34977
# Velocity P-wave (km/s) = 6.42023 6.52510 6.47288
#
# Compressibility (1/GPa) = 0.01986872
#
# Stress axis : x y z
#
# Youngs Moduli (GPa) = 48.96587 53.39754 65.75439
#
# Poissons Ratio (x) = 0.53532 0.35152
# Poissons Ratio (y) = 0.49089 0.12318
# Poissons Ratio (z) = 0.26177 0.10003
#
# Static dielectric constant tensor:
#      x y z
#    x 3.514760 0.000000 0.000000 
#    y 0.000000 3.445960 0.000000 
#    z 0.000000 0.000000 3.584720 
# 
# 
# High freq. dielectric constant tensor:
#      x y z
#    x 1.730950 0.000000 0.000000 
#    y 0.000000 1.729450 0.000000 
#    z 0.000000 0.000000 1.730300 
# 
# From -- ./inp_files/6940.got.cif
#   From: 2010.03.12/outbox.cif.g09.slc.cpg/sg62_4_cif.got.tgz:6940.got - 2010.04.10 19:12:36.
