data_PCOD8252753
_publ_section_title
;
Structure prediction by ZEFSAII (Michael W. Deem and Ramdas Pophale) SiO2 
 PCOD8252753
Probable space group: P N M A
;
_chemical_formula_sum "Si O2"
_cell_formula_units_Z 48
_cell_length_a 30.013200
_cell_length_b 8.989371
_cell_length_c 9.458834
_cell_angle_alpha 90.000000
_cell_angle_beta 90.000000
_cell_angle_gamma 90.000000
_cell_volume 2551.991424
_symmetry_space_group_name_H-M "P N M A"
_symmetry_group_IT_number 62
_symmetry_cell_setting 'orthorhombic'
loop_
_space_group_symop_operation_xyz
x,y,z
1/2-x,-y,1/2+z
1/2+x,1/2-y,1/2-z
-x,1/2+y,-z
-x,-y,-z
1/2+x,y,1/2-z
1/2-x,1/2+y,1/2+z
x,1/2-y,z
loop_
_atom_site_type_symbol
_atom_site_label
_atom_site_fract_x
_atom_site_fract_y
_atom_site_fract_z
Si Si1 0.965724 0.423314 0.101868
Si Si2 0.285129 0.423787 0.587861
Si Si3 0.707466 0.925982 0.086876
Si Si4 0.967038 0.578101 0.394727
Si Si5 0.634816 0.578660 0.613505
Si Si6 0.864574 0.921132 0.406641
O O1 0.976056 0.250000 0.106710
O O2 0.974987 0.492697 0.251738
O O3 0.914752 0.456208 0.056176
O O4 0.000000 0.500000 0.000000
O O5 0.273450 0.250000 0.577172
O O6 0.247765 0.515618 0.507323
O O7 0.332278 0.460281 0.514706
O O8 0.286867 0.476691 0.750455
O O9 0.705302 0.750000 0.075628
O O10 0.661585 0.991598 0.027797
O O11 0.979745 0.750000 0.376090
O O12 0.916277 0.559317 0.445406
O O13 0.000000 0.500000 0.500000
O O14 0.638871 0.750000 0.660373
O O15 0.646916 0.482163 0.750797
O O16 0.849739 0.750000 0.407616
#
# Coordination Sequence:
#
# PCOD8252753 Si02
#       6
#     8   8   8   8   8   8
#     4  10  20  35  56  83 114 150 190 230 276 329
#     4  10  22  39  57  80 109 141 181 226 270 321
#     4  11  23  37  56  82 110 143 180 221 272 325
#     4  10  21  37  57  82 112 147 186 230 280 332
#     4   9  19  37  59  81 109 146 184 224 272 325
#     4  10  21  37  57  82 111 143 181 225 272 324
#
# _framework density 18.808841999999999
#
# number of rings (size 3 to 8) (size 9 to 14) (size 15 to 20)
#    0.000    2.000    0.000    3.000    0.000    8.667 
#    0.000    1.667    0.000    0.000    0.000    0.000 
#    0.000    0.000    0.000    0.000    0.000    0.000 
#
# Total GULP energy -595321.863592 kJ/mol
# GULP energy per Si atom -12402.538825 kJ/mol
# Density = 1.876603 g / cm^3
# Si number density = 18.808842 Si / 1000 Ang^3
#
#
#
# Elastic Constant Matrix: (Units=GPa)
#
#
# Indices 1 2 3 4 5 6 
#
# 1 118.0566 64.1956 89.7919 0.0000 0.0000 0.0000
# 2 64.1956 107.4143 75.9483 0.0000 0.0000 0.0000
# 3 89.7919 75.9483 140.4834 0.0000 0.0000 0.0000
# 4 0.0000 0.0000 0.0000 35.9646 0.0000 0.0000
# 5 0.0000 0.0000 0.0000 0.0000 42.3461 0.0000
# 6 0.0000 0.0000 0.0000 0.0000 0.0000 34.8746
#
#
#
# Elastic Compliance Matrix: (Units=1/GPa)
#
#
# Indices 1 2 3 4 5 6 
#
# 1 0.017552 -0.004140 -0.008980 0.000000 0.000000 0.000000
# 2 -0.004140 0.016047 -0.006029 0.000000 0.000000 0.000000
# 3 -0.008980 -0.006029 0.016118 0.000000 0.000000 0.000000
# 4 0.000000 0.000000 0.000000 0.027805 0.000000 0.000000
# 5 0.000000 0.000000 0.000000 0.000000 0.023615 0.000000
# 6 0.000000 0.000000 0.000000 0.000000 0.000000 0.028674
#
#
# Mechanical properties :
#
#
# Convention : Reuss Voigt Hill
#
# Bulk Modulus (GPa) = 87.58542 91.75845 89.67194
# Shear Modulus (GPa) = 29.08387 31.70497 30.39442
#
# Velocity S-wave (km/s) = 3.93655 4.11011 4.02427
# Velocity P-wave (km/s) = 8.20543 8.45072 8.32898
#
# Compressibility (1/GPa) = 0.01141743
#
# Stress axis : x y z
#
# Youngs Moduli (GPa) = 56.97269 62.31653 62.04369
#
# Poissons Ratio (x) = 0.25801 0.55718
# Poissons Ratio (y) = 0.23589 0.37406
# Poissons Ratio (z) = 0.51164 0.37571
#
# Static dielectric constant tensor:
#      x y z
#    x 6.966000 0.000000 0.000000 
#    y 0.000000 3.594150 0.000000 
#    z 0.000000 0.000000 3.149240 
# 
# 
# High freq. dielectric constant tensor:
#      x y z
#    x 1.742650 0.000000 0.000000 
#    y 0.000000 1.741800 0.000000 
#    z 0.000000 0.000000 1.730580 
# 
# From -- ./inp_files/10129.got.cif
#   From: 2010.03.12/outbox.cif.g09.slc.cpg/sg62_6_cif.got.tgz:10129.got - 2010.04.10 19:12:36.
