data_PCOD8252233
_publ_section_title
;
Structure prediction by ZEFSAII (Michael W. Deem and Ramdas Pophale) SiO2 
 PCOD8252233
Probable space group: P N M A
;
_chemical_formula_sum "Si O2"
_cell_formula_units_Z 56
_cell_length_a 14.261367
_cell_length_b 9.027475
_cell_length_c 22.174436
_cell_angle_alpha 90.000000
_cell_angle_beta 90.000000
_cell_angle_gamma 90.000000
_cell_volume 2854.828561
_symmetry_space_group_name_H-M "P N M A"
_symmetry_group_IT_number 62
_symmetry_cell_setting 'orthorhombic'
loop_
_space_group_symop_operation_xyz
x,y,z
1/2-x,-y,1/2+z
1/2+x,1/2-y,1/2-z
-x,1/2+y,-z
-x,-y,-z
1/2+x,y,1/2-z
1/2-x,1/2+y,1/2+z
x,1/2-y,z
loop_
_atom_site_type_symbol
_atom_site_label
_atom_site_fract_x
_atom_site_fract_y
_atom_site_fract_z
Si Si1 0.600532 0.420923 0.654550
Si Si2 0.715436 0.920255 0.892020
Si Si3 0.101123 0.074047 0.504770
Si Si4 0.390215 0.078025 0.649223
Si Si5 0.789424 0.420157 0.599355
Si Si6 0.405278 0.418891 0.223150
Si Si7 0.909443 0.420178 0.714108
O O1 0.602941 0.250000 0.673674
O O2 0.497055 0.462097 0.630117
O O3 0.677795 0.453202 0.602836
O O4 0.626986 0.508149 0.714760
O O5 0.714632 0.750000 0.914025
O O6 0.677754 0.937662 0.824514
O O7 0.651401 0.017942 0.935327
O O8 0.821733 0.980804 0.892415
O O9 0.089092 0.250000 0.507168
O O10 0.164201 0.030748 0.447658
O O11 0.000000 0.000000 0.500000
O O12 0.367521 0.250000 0.637946
O O13 0.374857 0.034324 0.719270
O O14 0.809007 0.250000 0.580002
O O15 0.828694 0.452583 0.666027
O O16 0.428312 0.250000 0.236695
O O17 0.498798 0.489526 0.195071
O O18 0.940055 0.250000 0.714564
#
# Coordination Sequence:
#
# PCOD8252233 Si02
#       7
#     8   8   8   8   8   8   8
#     4   9  19  36  58  83 114 149 185 225 275 334
#     4  11  23  38  56  81 112 149 190 232 278 327
#     4  12  26  43  62  84 111 144 183 229 276 328
#     4   9  18  34  56  84 114 146 185 227 272 328
#     4  10  20  37  60  84 111 147 188 231 278 330
#     4  10  20  32  51  81 115 147 183 229 279 328
#     4   9  18  32  54  83 114 148 184 223 276 337
#
# _framework density 19.61589
#
# number of rings (size 3 to 8) (size 9 to 14) (size 15 to 20)
#    0.000    2.000    0.000    4.714    0.000    9.143 
#    0.000    0.714    0.000    0.000    0.000    0.000 
#    0.000    0.000    0.000    0.000    0.000    0.000 
#
# Total GULP energy -694484.983737 kJ/mol
# GULP energy per Si atom -12401.517567 kJ/mol
# Density = 1.957124 g / cm^3
# Si number density = 19.615890 Si / 1000 Ang^3
#
#
#
# Elastic Constant Matrix: (Units=GPa)
#
#
# Indices 1 2 3 4 5 6 
#
# 1 138.1482 67.6221 49.5388 0.0000 0.0000 0.0000
# 2 67.6221 117.6852 45.1995 0.0000 0.0000 0.0000
# 3 49.5388 45.1995 61.4680 0.0000 0.0000 0.0000
# 4 0.0000 0.0000 0.0000 31.6814 0.0000 0.0000
# 5 0.0000 0.0000 0.0000 0.0000 29.4731 0.0000
# 6 0.0000 0.0000 0.0000 0.0000 0.0000 31.7442
#
#
#
# Elastic Compliance Matrix: (Units=1/GPa)
#
#
# Indices 1 2 3 4 5 6 
#
# 1 0.011534 -0.004261 -0.006163 0.000000 0.000000 0.000000
# 2 -0.004261 0.013415 -0.006431 0.000000 0.000000 0.000000
# 3 -0.006163 -0.006431 0.025964 0.000000 0.000000 0.000000
# 4 0.000000 0.000000 0.000000 0.031564 0.000000 0.000000
# 5 0.000000 0.000000 0.000000 0.000000 0.033929 0.000000
# 6 0.000000 0.000000 0.000000 0.000000 0.000000 0.031502
#
#
# Mechanical properties :
#
#
# Convention : Reuss Voigt Hill
#
# Bulk Modulus (GPa) = 58.12234 71.33578 64.72906
# Shear Modulus (GPa) = 26.68769 28.90915 27.79842
#
# Velocity S-wave (km/s) = 3.69252 3.84313 3.76857
# Velocity P-wave (km/s) = 6.91911 7.49254 7.21153
#
# Compressibility (1/GPa) = 0.01720509
#
# Stress axis : x y z
#
# Youngs Moduli (GPa) = 86.70055 74.54154 38.51451
#
# Poissons Ratio (x) = 0.31759 0.23735
# Poissons Ratio (y) = 0.36939 0.24769
# Poissons Ratio (z) = 0.53430 0.47938
#
# Static dielectric constant tensor:
#      x y z
#    x 3.781220 0.000000 0.000000 
#    y 0.000000 3.595950 0.000000 
#    z 0.000000 0.000000 3.398100 
# 
# 
# High freq. dielectric constant tensor:
#      x y z
#    x 1.776720 0.000000 0.000000 
#    y 0.000000 1.762840 0.000000 
#    z 0.000000 0.000000 1.743100 
# 
# From -- ./inp_files/27059.got.cif
#   From: 2010.03.12/outbox.cif.g09.slc.cpg/sg62_14_cif.got.tgz:27059.got - 2010.04.10 19:12:36.
