data_PCOD8252417
_publ_section_title
;
Structure prediction by ZEFSAII (Michael W. Deem and Ramdas Pophale) SiO2 
 PCOD8252417
Probable space group: P N M A
;
_chemical_formula_sum "Si O2"
_cell_formula_units_Z 48
_cell_length_a 12.815932
_cell_length_b 12.923389
_cell_length_c 15.257021
_cell_angle_alpha 90.000000
_cell_angle_beta 90.000000
_cell_angle_gamma 90.000000
_cell_volume 2526.948293
_symmetry_space_group_name_H-M "P N M A"
_symmetry_group_IT_number 62
_symmetry_cell_setting 'orthorhombic'
loop_
_space_group_symop_operation_xyz
x,y,z
1/2-x,-y,1/2+z
1/2+x,1/2-y,1/2-z
-x,1/2+y,-z
-x,-y,-z
1/2+x,y,1/2-z
1/2-x,1/2+y,1/2+z
x,1/2-y,z
loop_
_atom_site_type_symbol
_atom_site_label
_atom_site_fract_x
_atom_site_fract_y
_atom_site_fract_z
Si Si1 0.116886 0.966299 0.986212
Si Si2 0.793346 0.129233 0.514733
Si Si3 0.539536 0.868225 0.161671
Si Si4 0.857384 0.038399 0.825024
Si Si5 0.364118 0.465150 0.165364
Si Si6 0.030301 0.867576 0.826260
O O1 0.116280 0.890436 0.902390
O O2 0.153937 0.911191 0.077100
O O3 0.188603 0.065566 0.965534
O O4 0.000000 0.000000 0.000000
O O5 0.764346 0.250000 0.515430
O O6 0.875301 0.100872 0.590008
O O7 0.844046 0.098245 0.422725
O O8 0.503874 0.750000 0.151890
O O9 0.588702 0.882866 0.258285
O O10 0.438531 0.937760 0.146338
O O11 0.742494 0.008147 0.791878
O O12 0.925684 0.934560 0.835452
O O13 0.416516 0.386769 0.232952
O O14 0.993696 0.750000 0.832676
#
# Coordination Sequence:
#
# PCOD8252417 Si02
#       6
#     8   8   8   8   8   8
#     4   9  19  34  52  78 106 136 176 220 259 310
#     4  10  20  36  58  80 106 143 180 216 267 322
#     4  10  21  36  55  79 107 140 177 219 267 317
#     4   9  20  36  53  75 105 139 176 214 260 317
#     4  10  20  36  56  80 108 138 178 222 261 314
#     4  10  20  34  53  78 107 138 174 219 267 312
#
# _framework density 18.995244
#
# number of rings (size 3 to 8) (size 9 to 14) (size 15 to 20)
#    0.000    2.333    0.000    2.000    0.000    8.000 
#    0.000   12.500    0.000    7.000    0.000    0.000 
#    0.000    0.000    0.000    0.000    0.000    0.000 
#
# Total GULP energy -595118.283636 kJ/mol
# GULP energy per Si atom -12398.297576 kJ/mol
# Density = 1.895201 g / cm^3
# Si number density = 18.995244 Si / 1000 Ang^3
#
#
#
# Elastic Constant Matrix: (Units=GPa)
#
#
# Indices 1 2 3 4 5 6 
#
# 1 112.0403 45.5839 34.2580 0.0000 0.0000 0.0000
# 2 45.5839 79.3781 37.9103 0.0000 0.0000 0.0000
# 3 34.2580 37.9103 90.6203 0.0000 0.0000 0.0000
# 4 0.0000 0.0000 0.0000 22.6009 0.0000 0.0000
# 5 0.0000 0.0000 0.0000 0.0000 25.5888 0.0000
# 6 0.0000 0.0000 0.0000 0.0000 0.0000 25.5674
#
#
#
# Elastic Compliance Matrix: (Units=1/GPa)
#
#
# Indices 1 2 3 4 5 6 
#
# 1 0.011946 -0.005877 -0.002057 0.000000 0.000000 0.000000
# 2 -0.005877 0.018635 -0.005574 0.000000 0.000000 0.000000
# 3 -0.002057 -0.005574 0.014145 0.000000 0.000000 0.000000
# 4 0.000000 0.000000 0.000000 0.044246 0.000000 0.000000
# 5 0.000000 0.000000 0.000000 0.000000 0.039080 0.000000
# 6 0.000000 0.000000 0.000000 0.000000 0.000000 0.039112
#
#
# Mechanical properties :
#
#
# Convention : Reuss Voigt Hill
#
# Bulk Modulus (GPa) = 56.47082 57.50479 56.98780
# Shear Modulus (GPa) = 24.98960 25.70385 25.34673
#
# Velocity S-wave (km/s) = 3.63102 3.68254 3.65687
# Velocity P-wave (km/s) = 6.88277 6.95848 6.92073
#
# Compressibility (1/GPa) = 0.01770826
#
# Stress axis : x y z
#
# Youngs Moduli (GPa) = 83.71266 53.66178 70.69853
#
# Poissons Ratio (x) = 0.31540 0.14544
# Poissons Ratio (y) = 0.49202 0.39407
# Poissons Ratio (z) = 0.17221 0.29911
#
# Static dielectric constant tensor:
#      x y z
#    x 3.517960 0.000000 0.000000 
#    y 0.000000 3.236920 0.000000 
#    z 0.000000 0.000000 4.040070 
# 
# 
# High freq. dielectric constant tensor:
#      x y z
#    x 1.742790 0.000000 0.000000 
#    y 0.000000 1.717760 0.000000 
#    z 0.000000 0.000000 1.759060 
# 
# From -- ./inp_files/23008.got.cif
#   From: 2010.03.12/outbox.cif.g09.slc.cpg/sg62_12_cif.got.tgz:23008.got - 2010.04.10 19:12:36.
