data_PCOD8252386
_publ_section_title
;
Structure prediction by ZEFSAII (Michael W. Deem and Ramdas Pophale) SiO2 
 PCOD8252386
Probable space group: P N M A
;
_chemical_formula_sum "Si O2"
_cell_formula_units_Z 48
_cell_length_a 29.482741
_cell_length_b 9.133604
_cell_length_c 10.007694
_cell_angle_alpha 90.000000
_cell_angle_beta 90.000000
_cell_angle_gamma 90.000000
_cell_volume 2694.908680
_symmetry_space_group_name_H-M "P N M A"
_symmetry_group_IT_number 62
_symmetry_cell_setting 'orthorhombic'
loop_
_space_group_symop_operation_xyz
x,y,z
1/2-x,-y,1/2+z
1/2+x,1/2-y,1/2-z
-x,1/2+y,-z
-x,-y,-z
1/2+x,y,1/2-z
1/2-x,1/2+y,1/2+z
x,1/2-y,z
loop_
_atom_site_type_symbol
_atom_site_label
_atom_site_fract_x
_atom_site_fract_y
_atom_site_fract_z
Si Si1 0.783728 0.578605 0.153033
Si Si2 0.123274 0.922984 0.853510
Si Si3 0.946847 0.420783 0.373154
Si Si4 0.281611 0.583573 0.652952
Si Si5 0.949893 0.578452 0.639688
Si Si6 0.614386 0.419090 0.375997
O O1 0.792825 0.750000 0.172362
O O2 0.829448 0.493986 0.191060
O O3 0.744007 0.527306 0.250323
O O4 0.769555 0.545100 0.000415
O O5 0.129630 0.750000 0.863232
O O6 0.085836 0.969291 0.745801
O O7 0.105837 0.983330 0.994330
O O8 0.943332 0.250000 0.402503
O O9 0.931085 0.502183 0.506872
O O10 0.998006 0.465810 0.333256
O O11 0.267176 0.750000 0.686084
O O12 0.334831 0.560716 0.678657
O O13 0.943774 0.750000 0.619232
O O14 0.920303 0.523553 0.764383
O O15 0.605676 0.250000 0.414168
#
# Coordination Sequence:
#
# PCOD8252386 Si02
#       6
#     8   8   8   8   8   8
#     4  10  21  36  54  76 101 132 170 208 249 300
#     4  10  20  34  52  75 104 135 167 207 252 296
#     4   9  19  34  51  75 105 134 168 209 250 295
#     4   9  19  35  52  74 103 131 164 208 253 297
#     4   9  18  34  54  75 102 135 169 207 250 296
#     4   9  19  35  53  75 103 133 168 209 250 297
#
# _framework density 17.811364999999999
#
# number of rings (size 3 to 8) (size 9 to 14) (size 15 to 20)
#    0.000    2.667    0.000    2.000    0.000    7.333 
#    0.000    3.333    0.000    0.000    0.000    0.000 
#    0.000    0.000    0.000    0.000    0.000    0.000 
#
# Total GULP energy -595323.758587 kJ/mol
# GULP energy per Si atom -12402.578304 kJ/mol
# Density = 1.777083 g / cm^3
# Si number density = 17.811365 Si / 1000 Ang^3
#
#
#
# Elastic Constant Matrix: (Units=GPa)
#
#
# Indices 1 2 3 4 5 6 
#
# 1 68.3406 28.9608 50.4867 0.0000 0.0000 0.0000
# 2 28.9608 53.8594 35.6366 0.0000 0.0000 0.0000
# 3 50.4867 35.6366 82.9144 0.0000 0.0000 0.0000
# 4 0.0000 0.0000 0.0000 36.1632 0.0000 0.0000
# 5 0.0000 0.0000 0.0000 0.0000 37.8284 0.0000
# 6 0.0000 0.0000 0.0000 0.0000 0.0000 27.2848
#
#
#
# Elastic Compliance Matrix: (Units=1/GPa)
#
#
# Indices 1 2 3 4 5 6 
#
# 1 0.027601 -0.005200 -0.014571 0.000000 0.000000 0.000000
# 2 -0.005200 0.026925 -0.008406 0.000000 0.000000 0.000000
# 3 -0.014571 -0.008406 0.024546 0.000000 0.000000 0.000000
# 4 0.000000 0.000000 0.000000 0.027652 0.000000 0.000000
# 5 0.000000 0.000000 0.000000 0.000000 0.026435 0.000000
# 6 0.000000 0.000000 0.000000 0.000000 0.000000 0.036650
#
#
# Mechanical properties :
#
#
# Convention : Reuss Voigt Hill
#
# Bulk Modulus (GPa) = 44.01964 48.36472 46.19218
# Shear Modulus (GPa) = 21.39165 26.25730 23.82447
#
# Velocity S-wave (km/s) = 3.46932 3.84368 3.66129
# Velocity P-wave (km/s) = 6.38876 6.84918 6.62297
#
# Compressibility (1/GPa) = 0.02271713
#
# Stress axis : x y z
#
# Youngs Moduli (GPa) = 36.23104 37.14036 40.74007
#
# Poissons Ratio (x) = 0.19313 0.59363
# Poissons Ratio (y) = 0.18841 0.34246
# Poissons Ratio (z) = 0.52792 0.31220
#
# Static dielectric constant tensor:
#      x y z
#    x 3.334470 0.000000 0.000000 
#    y 0.000000 3.261930 0.000000 
#    z 0.000000 0.000000 3.323420 
# 
# 
# High freq. dielectric constant tensor:
#      x y z
#    x 1.689480 0.000000 0.000000 
#    y 0.000000 1.690960 0.000000 
#    z 0.000000 0.000000 1.690530 
# 
# From -- ./inp_files/10183.got.cif
#   From: 2010.03.12/outbox.cif.g09.slc.cpg/sg62_6_cif.got.tgz:10183.got - 2010.04.10 19:12:36.
