data_PCOD8252938
_publ_section_title
;
Structure prediction by ZEFSAII (Michael W. Deem and Ramdas Pophale) SiO2 
 PCOD8252938
Probable space group: P N M A
;
_chemical_formula_sum "Si O2"
_cell_formula_units_Z 64
_cell_length_a 19.318741
_cell_length_b 8.652025
_cell_length_c 20.510870
_cell_angle_alpha 90.000000
_cell_angle_beta 90.000000
_cell_angle_gamma 90.000000
_cell_volume 3428.314597
_symmetry_space_group_name_H-M "P N M A"
_symmetry_group_IT_number 62
_symmetry_cell_setting 'orthorhombic'
loop_
_space_group_symop_operation_xyz
x,y,z
1/2-x,-y,1/2+z
1/2+x,1/2-y,1/2-z
-x,1/2+y,-z
-x,-y,-z
1/2+x,y,1/2-z
1/2-x,1/2+y,1/2+z
x,1/2-y,z
loop_
_atom_site_type_symbol
_atom_site_label
_atom_site_fract_x
_atom_site_fract_y
_atom_site_fract_z
Si Si1 0.432889 0.928568 0.731912
Si Si2 0.712649 0.928948 0.070960
Si Si3 0.926970 0.929508 0.239712
Si Si4 0.420448 0.928219 0.881098
Si Si5 0.214494 0.429244 0.182453
Si Si6 0.576829 0.570935 0.880189
Si Si7 0.708139 0.429287 0.936890
Si Si8 0.295803 0.069600 0.312324
O O1 0.455164 0.750000 0.729175
O O2 0.412069 0.972344 0.805455
O O3 0.367534 0.963060 0.685850
O O4 0.498194 0.030291 0.708569
O O5 0.727244 0.750000 0.083111
O O6 0.630861 0.965104 0.077468
O O7 0.755183 0.028765 0.122416
O O8 0.736625 0.975256 0.998501
O O9 0.923223 0.750000 0.257093
O O10 0.914509 0.028735 0.304583
O O11 0.867546 0.974869 0.188433
O O12 0.400260 0.750000 0.892468
O O13 0.498815 0.961888 0.904194
O O14 0.229111 0.250000 0.167548
O O15 0.245236 0.532373 0.125332
O O16 0.249471 0.478198 0.250358
O O17 0.596788 0.750000 0.887646
O O18 0.628069 0.470348 0.923917
O O19 0.713761 0.250000 0.953184
O O20 0.312544 0.250000 0.312259
#
# Coordination Sequence:
#
# PCOD8252938 Si02
#       8
#     8   8   8   8   8   8   8   8
#     4   9  18  35  58  84 114 150 187 230 284 339
#     4  12  25  39  57  82 116 153 194 239 288 344
#     4  11  21  33  54  88 120 148 187 235 283 335
#     4   9  18  35  56  80 112 152 194 232 280 338
#     4  10  20  37  62  86 113 150 192 236 286 339
#     4  10  20  36  56  79 113 154 193 233 281 336
#     4  12  25  39  57  82 116 153 195 239 287 343
#     4  11  21  38  62  85 114 152 192 238 287 336
#
# _framework density 18.668064999999999
#
# number of rings (size 3 to 8) (size 9 to 14) (size 15 to 20)
#    0.000    1.500    2.500    4.875    0.000    4.000 
#    0.000    0.000    0.000    0.750    0.000    0.000 
#    0.000    0.000    0.000    0.000    0.000    0.000 
#
# Total GULP energy -793893.112243 kJ/mol
# GULP energy per Si atom -12404.579879 kJ/mol
# Density = 1.862558 g / cm^3
# Si number density = 18.668065 Si / 1000 Ang^3
#
#
#
# Elastic Constant Matrix: (Units=GPa)
#
#
# Indices 1 2 3 4 5 6 
#
# 1 89.1371 31.1025 32.6903 0.0000 0.0000 0.0000
# 2 31.1025 71.6790 16.2452 0.0000 0.0000 0.0000
# 3 32.6903 16.2452 74.9352 0.0000 0.0000 0.0000
# 4 0.0000 0.0000 0.0000 27.3587 0.0000 0.0000
# 5 0.0000 0.0000 0.0000 0.0000 20.1617 0.0000
# 6 0.0000 0.0000 0.0000 0.0000 0.0000 29.5007
#
#
#
# Elastic Compliance Matrix: (Units=1/GPa)
#
#
# Indices 1 2 3 4 5 6 
#
# 1 0.015057 -0.005305 -0.005418 0.000000 0.000000 0.000000
# 2 -0.005305 0.016541 -0.001272 0.000000 0.000000 0.000000
# 3 -0.005418 -0.001272 0.015984 0.000000 0.000000 0.000000
# 4 0.000000 0.000000 0.000000 0.036551 0.000000 0.000000
# 5 0.000000 0.000000 0.000000 0.000000 0.049599 0.000000
# 6 0.000000 0.000000 0.000000 0.000000 0.000000 0.033897
#
#
# Mechanical properties :
#
#
# Convention : Reuss Voigt Hill
#
# Bulk Modulus (GPa) = 42.38738 43.98081 43.18410
# Shear Modulus (GPa) = 25.06449 25.78512 25.42480
#
# Velocity S-wave (km/s) = 3.66818 3.72054 3.69445
# Velocity P-wave (km/s) = 6.37933 6.48591 6.43284
#
# Compressibility (1/GPa) = 0.02359193
#
# Stress axis : x y z
#
# Youngs Moduli (GPa) = 66.41396 60.45451 62.56143
#
# Poissons Ratio (x) = 0.32074 0.33899
# Poissons Ratio (y) = 0.35236 0.07955
# Poissons Ratio (z) = 0.35986 0.07687
#
# Static dielectric constant tensor:
#      x y z
#    x 3.609610 0.000000 0.000000 
#    y 0.000000 3.346330 0.000000 
#    z 0.000000 0.000000 3.181380 
# 
# 
# High freq. dielectric constant tensor:
#      x y z
#    x 1.728230 0.000000 0.000000 
#    y 0.000000 1.727450 0.000000 
#    z 0.000000 0.000000 1.697140 
# 
# From -- ./inp_files/24755.got.cif
#   From: 2010.03.12/outbox.cif.g09.slc.cpg/sg62_13_cif.got.tgz:24755.got - 2010.04.10 19:12:36.
