data_PCOD8252531
_publ_section_title
;
Structure prediction by ZEFSAII (Michael W. Deem and Ramdas Pophale) SiO2 
 PCOD8252531
Probable space group: P N M A
;
_chemical_formula_sum "Si O2"
_cell_formula_units_Z 48
_cell_length_a 20.290987
_cell_length_b 8.677564
_cell_length_c 11.023597
_cell_angle_alpha 90.000000
_cell_angle_beta 90.000000
_cell_angle_gamma 90.000000
_cell_volume 1940.994595
_symmetry_space_group_name_H-M "P N M A"
_symmetry_group_IT_number 62
_symmetry_cell_setting 'orthorhombic'
loop_
_space_group_symop_operation_xyz
x,y,z
1/2-x,-y,1/2+z
1/2+x,1/2-y,1/2-z
-x,1/2+y,-z
-x,-y,-z
1/2+x,y,1/2-z
1/2-x,1/2+y,1/2+z
x,1/2-y,z
loop_
_atom_site_type_symbol
_atom_site_label
_atom_site_fract_x
_atom_site_fract_y
_atom_site_fract_z
Si Si1 0.439881 0.578727 0.639615
Si Si2 0.576178 0.072546 0.622310
Si Si3 0.208521 0.570330 0.819735
Si Si4 0.399472 0.922276 0.076377
Si Si5 0.038192 0.922046 0.361770
Si Si6 0.233965 0.925147 0.559812
O O1 0.431532 0.750000 0.692612
O O2 0.396305 0.561659 0.518083
O O3 0.517338 0.549887 0.616993
O O4 0.417680 0.456744 0.742981
O O5 0.554256 0.250000 0.646881
O O6 0.640388 0.025617 0.703530
O O7 0.191182 0.750000 0.822555
O O8 0.256049 0.535904 0.700846
O O9 0.240973 0.529917 0.949321
O O10 0.368672 0.750000 0.076037
O O11 0.458564 0.936757 0.178969
O O12 0.344872 0.053789 0.071239
O O13 0.445502 0.946078 0.958290
O O14 0.052805 0.750000 0.409333
O O15 0.250833 0.750000 0.525801
#
# Coordination Sequence:
#
# PCOD8252531 Si02
#       6
#     8   8   8   8   8   8
#     4  10  20  34  55  85 121 158 197 245 300 361
#     4  10  21  37  58  85 118 157 200 246 300 362
#     4  11  25  44  67  93 122 161 208 257 311 369
#     4  10  21  37  58  85 118 156 198 245 300 361
#     4  10  20  34  56  86 119 157 199 245 300 361
#     4  11  25  44  66  92 122 159 206 257 309 368
#
# _framework density 24.729588
#
# number of rings (size 3 to 8) (size 9 to 14) (size 15 to 20)
#    0.000    1.667    0.000    4.000    0.000   10.667 
#    0.000    1.667    0.000    0.000    0.000    0.000 
#    0.000    0.000    0.000    0.000    0.000    0.000 
#
# Total GULP energy -594633.138782 kJ/mol
# GULP energy per Si atom -12388.190391 kJ/mol
# Density = 2.467330 g / cm^3
# Si number density = 24.729588 Si / 1000 Ang^3
#
#
#
# Elastic Constant Matrix: (Units=GPa)
#
#
# Indices 1 2 3 4 5 6 
#
# 1 24.8860 0.2685 4.4854 0.0000 0.0000 0.0000
# 2 0.2685 95.1877 15.5872 0.0000 0.0000 0.0000
# 3 4.4854 15.5872 83.1036 0.0000 0.0000 0.0000
# 4 0.0000 0.0000 0.0000 40.6975 0.0000 0.0000
# 5 0.0000 0.0000 0.0000 0.0000 33.1927 0.0000
# 6 0.0000 0.0000 0.0000 0.0000 0.0000 32.4260
#
#
#
# Elastic Compliance Matrix: (Units=1/GPa)
#
#
# Indices 1 2 3 4 5 6 
#
# 1 0.040584 0.000252 -0.002238 0.000000 0.000000 0.000000
# 2 0.000252 0.010840 -0.002047 0.000000 0.000000 0.000000
# 3 -0.002238 -0.002047 0.012538 0.000000 0.000000 0.000000
# 4 0.000000 0.000000 0.000000 0.024572 0.000000 0.000000
# 5 0.000000 0.000000 0.000000 0.000000 0.030127 0.000000
# 6 0.000000 0.000000 0.000000 0.000000 0.000000 0.030839
#
#
# Mechanical properties :
#
#
# Convention : Reuss Voigt Hill
#
# Bulk Modulus (GPa) = 17.89019 27.09551 22.49285
# Shear Modulus (GPa) = 28.37732 33.45231 30.91482
#
# Velocity S-wave (km/s) = 3.39116 3.68193 3.53953
# Velocity P-wave (km/s) = 4.75219 5.39036 5.08130
#
# Compressibility (1/GPa) = 0.05589656
#
# Stress axis : x y z
#
# Youngs Moduli (GPa) = 24.64039 92.25077 79.75852
#
# Poissons Ratio (x) = -0.02324 0.17848
# Poissons Ratio (y) = -0.00621 0.16325
# Poissons Ratio (z) = 0.05514 0.18882
#
# Static dielectric constant tensor:
#      x y z
#    x 4.038140 0.000000 0.000000 
#    y 0.000000 4.063080 0.000000 
#    z 0.000000 0.000000 5.359540 
# 
# 
# High freq. dielectric constant tensor:
#      x y z
#    x 1.949420 0.000000 0.000000 
#    y 0.000000 1.975220 0.000000 
#    z 0.000000 0.000000 2.035790 
# 
# From -- ./inp_files/15133.got.cif
#   From: 2010.03.12/outbox.cif.g09.slc.cpg/sg62_8_cif.got.tgz:15133.got - 2010.04.10 19:12:36.
