data_PCOD8252165
_publ_section_title
;
Structure prediction by ZEFSAII (Michael W. Deem and Ramdas Pophale) SiO2 
 PCOD8252165
Probable space group: P N M A
;
_chemical_formula_sum "Si O2"
_cell_formula_units_Z 48
_cell_length_a 11.732837
_cell_length_b 11.766654
_cell_length_c 17.202163
_cell_angle_alpha 90.000000
_cell_angle_beta 90.000000
_cell_angle_gamma 90.000000
_cell_volume 2374.865830
_symmetry_space_group_name_H-M "P N M A"
_symmetry_group_IT_number 62
_symmetry_cell_setting 'orthorhombic'
loop_
_space_group_symop_operation_xyz
x,y,z
1/2-x,-y,1/2+z
1/2+x,1/2-y,1/2-z
-x,1/2+y,-z
-x,-y,-z
1/2+x,y,1/2-z
1/2-x,1/2+y,1/2+z
x,1/2-y,z
loop_
_atom_site_type_symbol
_atom_site_label
_atom_site_fract_x
_atom_site_fract_y
_atom_site_fract_z
Si Si1 0.171394 0.939240 0.742622
Si Si2 0.214229 0.250000 0.142001
Si Si3 0.801797 0.624759 0.495108
Si Si4 0.447102 0.878381 0.148208
Si Si5 0.588881 0.750000 0.487066
Si Si6 0.802260 0.055522 0.625517
Si Si7 0.333040 0.750000 0.456845
Si Si8 0.542117 0.750000 0.666813
O O1 0.222023 0.864180 0.671585
O O2 0.099577 0.861846 0.800025
O O3 0.082587 0.034532 0.715708
O O4 0.268034 0.006886 0.790283
O O5 0.092102 0.250000 0.184067
O O6 0.205767 0.250000 0.047737
O O7 0.848871 0.750000 0.517742
O O8 0.876879 0.574826 0.425636
O O9 0.667458 0.637810 0.469055
O O10 0.820666 0.550835 0.570339
O O11 0.407679 0.750000 0.169292
O O12 0.581221 0.875586 0.133074
O O13 0.469608 0.750000 0.442255
O O14 0.561018 0.750000 0.576610
O O15 0.709691 0.137812 0.586553
#
# Coordination Sequence:
#
# PCOD8252165 Si02
#       8
#     8   4   8   8   4   8   4   4
#     4  11  23  41  65  93 129 175 210 268 335 378
#     4  10  23  43  67  97 129 157 224 278 321 383
#     4   9  20  41  65  92 123 166 212 268 322 384
#     4  11  24  42  61  93 134 171 216 262 321 395
#     4   9  19  42  61  94 119 162 210 265 325 379
#     4  12  23  43  66  96 129 171 223 263 328 394
#     4  11  25  40  65  98 128 170 221 274 319 390
#     4  10  19  43  63  93 124 159 215 269 321 388
#
# _framework density 20.211670000000002
#
# number of rings (size 3 to 8) (size 9 to 14) (size 15 to 20)
#    0.500    1.000    2.500    2.500    2.333    0.667 
#    9.000    0.000    0.000    0.000    0.000    0.000 
#    0.000    0.000    0.000    0.000    0.000    0.000 
#
# Total GULP energy -595021.995756 kJ/mol
# GULP energy per Si atom -12396.291578 kJ/mol
# Density = 2.016567 g / cm^3
# Si number density = 20.211670 Si / 1000 Ang^3
#
#
#
# Elastic Constant Matrix: (Units=GPa)
#
#
# Indices 1 2 3 4 5 6 
#
# 1 115.1073 27.8647 25.6052 0.0000 0.0000 0.0000
# 2 27.8647 88.7063 35.6864 0.0000 0.0000 0.0000
# 3 25.6052 35.6864 60.0770 0.0000 0.0000 0.0000
# 4 0.0000 0.0000 0.0000 39.9874 0.0000 0.0000
# 5 0.0000 0.0000 0.0000 0.0000 28.1301 0.0000
# 6 0.0000 0.0000 0.0000 0.0000 0.0000 42.8018
#
#
#
# Elastic Compliance Matrix: (Units=1/GPa)
#
#
# Indices 1 2 3 4 5 6 
#
# 1 0.009821 -0.001841 -0.003092 0.000000 0.000000 0.000000
# 2 -0.001841 0.015158 -0.008219 0.000000 0.000000 0.000000
# 3 -0.003092 -0.008219 0.022846 0.000000 0.000000 0.000000
# 4 0.000000 0.000000 0.000000 0.025008 0.000000 0.000000
# 5 0.000000 0.000000 0.000000 0.000000 0.035549 0.000000
# 6 0.000000 0.000000 0.000000 0.000000 0.000000 0.023363
#
#
# Mechanical properties :
#
#
# Convention : Reuss Voigt Hill
#
# Bulk Modulus (GPa) = 46.46947 49.13370 47.80158
# Shear Modulus (GPa) = 30.26196 33.83281 32.04739
#
# Velocity S-wave (km/s) = 3.87363 4.09580 3.98626
# Velocity P-wave (km/s) = 6.56110 6.83592 6.69992
#
# Compressibility (1/GPa) = 0.02151951
#
# Stress axis : x y z
#
# Youngs Moduli (GPa) = 101.82196 65.97122 43.77198
#
# Poissons Ratio (x) = 0.12146 0.13535
# Poissons Ratio (y) = 0.18746 0.35978
# Poissons Ratio (z) = 0.31485 0.54225
#
# Static dielectric constant tensor:
#      x y z
#    x 3.946620 0.000000 0.000000 
#    y 0.000000 3.656500 0.000000 
#    z 0.000000 0.000000 3.554500 
# 
# 
# High freq. dielectric constant tensor:
#      x y z
#    x 1.793570 0.000000 0.000000 
#    y 0.000000 1.797260 0.000000 
#    z 0.000000 0.000000 1.781330 
# 
# From -- ./inp_files/23079.got.cif
#   From: 2010.03.12/outbox.cif.g09.slc.cpg/sg62_12_cif.got.tgz:23079.got - 2010.04.10 19:12:36.
