data_PCOD8252273
_publ_section_title
;
Structure prediction by ZEFSAII (Michael W. Deem and Ramdas Pophale) SiO2 
 PCOD8252273
Probable space group: P N M A
;
_chemical_formula_sum "Si O2"
_cell_formula_units_Z 64
_cell_length_a 8.812110
_cell_length_b 25.358272
_cell_length_c 15.667272
_cell_angle_alpha 90.000000
_cell_angle_beta 90.000000
_cell_angle_gamma 90.000000
_cell_volume 3501.006757
_symmetry_space_group_name_H-M "P N M A"
_symmetry_group_IT_number 62
_symmetry_cell_setting 'orthorhombic'
loop_
_space_group_symop_operation_xyz
x,y,z
1/2-x,-y,1/2+z
1/2+x,1/2-y,1/2-z
-x,1/2+y,-z
-x,-y,-z
1/2+x,y,1/2-z
1/2-x,1/2+y,1/2+z
x,1/2-y,z
loop_
_atom_site_type_symbol
_atom_site_label
_atom_site_fract_x
_atom_site_fract_y
_atom_site_fract_z
Si Si1 0.914357 0.311623 0.350196
Si Si2 0.643628 0.057046 0.354928
Si Si3 0.643924 0.425498 0.643626
Si Si4 0.195253 0.945551 0.191363
Si Si5 0.201310 0.364325 0.277231
Si Si6 0.591426 0.050357 0.965899
Si Si7 0.181451 0.888181 0.510353
Si Si8 0.676779 0.954770 0.606834
O O1 0.931396 0.250000 0.363563
O O2 0.819590 0.322573 0.263418
O O3 0.831324 0.334115 0.435375
O O4 0.083075 0.336505 0.340978
O O5 0.610387 0.109686 0.301254
O O6 0.783728 0.065058 0.420365
O O7 0.500257 0.048841 0.416915
O O8 0.660436 0.007434 0.290314
O O9 0.739570 0.411559 0.729543
O O10 0.462020 0.419654 0.657059
O O11 0.691472 0.386836 0.565111
O O12 0.708191 0.484200 0.627379
O O13 0.336573 0.951369 0.127045
O O14 0.288774 0.414082 0.317226
O O15 0.478175 0.099861 0.966130
O O16 0.730911 0.064002 0.026139
O O17 0.500000 0.000000 0.000000
#
# Coordination Sequence:
#
# PCOD8252273 Si02
#       8
#     8   8   8   8   8   8   8   8
#     4  11  24  40  59  82 111 149 198 249 291 332
#     4  10  20  33  50  77 114 155 188 222 277 336
#     4  11  22  34  52  81 116 156 191 230 283 344
#     4  11  22  33  53  79 120 152 192 230 273 341
#     4  11  20  35  57  82 110 149 189 233 281 346
#     4  12  21  32  51  79 112 153 194 232 274 338
#     4  11  22  36  55  77 112 149 195 238 288 338
#     4  11  20  31  51  76 114 151 188 223 275 344
#
# _framework density 18.280456000000001
#
# number of rings (size 3 to 8) (size 9 to 14) (size 15 to 20)
#    0.000    1.000    6.250    1.875    0.000    2.000 
#    0.000    0.000    0.000    0.000    0.000    3.500 
#    0.000    0.000    0.000    0.000    0.000    0.000 
#
# Total GULP energy -792925.310269 kJ/mol
# GULP energy per Si atom -12389.457973 kJ/mol
# Density = 1.823885 g / cm^3
# Si number density = 18.280456 Si / 1000 Ang^3
#
#
#
# Elastic Constant Matrix: (Units=GPa)
#
#
# Indices 1 2 3 4 5 6 
#
# 1 76.4612 28.4009 26.1569 0.0000 0.0000 0.0000
# 2 28.4009 57.8808 26.8344 0.0000 0.0000 0.0000
# 3 26.1569 26.8344 80.0054 0.0000 0.0000 0.0000
# 4 0.0000 0.0000 0.0000 19.1021 0.0000 0.0000
# 5 0.0000 0.0000 0.0000 0.0000 36.2392 0.0000
# 6 0.0000 0.0000 0.0000 0.0000 0.0000 14.6040
#
#
#
# Elastic Compliance Matrix: (Units=1/GPa)
#
#
# Indices 1 2 3 4 5 6 
#
# 1 0.016659 -0.006689 -0.003203 0.000000 0.000000 0.000000
# 2 -0.006689 0.023144 -0.005576 0.000000 0.000000 0.000000
# 3 -0.003203 -0.005576 0.015416 0.000000 0.000000 0.000000
# 4 0.000000 0.000000 0.000000 0.052350 0.000000 0.000000
# 5 0.000000 0.000000 0.000000 0.000000 0.027594 0.000000
# 6 0.000000 0.000000 0.000000 0.000000 0.000000 0.068474
#
#
# Mechanical properties :
#
#
# Convention : Reuss Voigt Hill
#
# Bulk Modulus (GPa) = 41.17968 41.90351 41.54160
# Shear Modulus (GPa) = 20.60421 22.85274 21.72847
#
# Velocity S-wave (km/s) = 3.36090 3.53954 3.45137
# Velocity P-wave (km/s) = 6.13485 6.29895 6.21744
#
# Compressibility (1/GPa) = 0.02428382
#
# Stress axis : x y z
#
# Youngs Moduli (GPa) = 60.02806 43.20741 64.86588
#
# Poissons Ratio (x) = 0.28903 0.20775
# Poissons Ratio (y) = 0.40154 0.36168
# Poissons Ratio (z) = 0.19226 0.24091
#
# Static dielectric constant tensor:
#      x y z
#    x 3.572440 0.000000 0.000000 
#    y 0.000000 2.879010 0.000000 
#    z 0.000000 0.000000 3.457110 
# 
# 
# High freq. dielectric constant tensor:
#      x y z
#    x 1.729700 0.000000 0.000000 
#    y 0.000000 1.640780 0.000000 
#    z 0.000000 0.000000 1.707650 
# 
# From -- ./inp_files/17364.got.cif
#   From: 2010.03.12/outbox.cif.g09.slc.cpg/sg62_9_cif.got.tgz:17364.got - 2010.04.10 19:12:36.
