data_PCOD8252950
_publ_section_title
;
Structure prediction by ZEFSAII (Michael W. Deem and Ramdas Pophale) SiO2 
 PCOD8252950
Probable space group: P N M A
;
_chemical_formula_sum "Si O2"
_cell_formula_units_Z 48
_cell_length_a 17.934536
_cell_length_b 8.681294
_cell_length_c 15.486639
_cell_angle_alpha 90.000000
_cell_angle_beta 90.000000
_cell_angle_gamma 90.000000
_cell_volume 2411.191946
_symmetry_space_group_name_H-M "P N M A"
_symmetry_group_IT_number 62
_symmetry_cell_setting 'orthorhombic'
loop_
_space_group_symop_operation_xyz
x,y,z
1/2-x,-y,1/2+z
1/2+x,1/2-y,1/2-z
-x,1/2+y,-z
-x,-y,-z
1/2+x,y,1/2-z
1/2-x,1/2+y,1/2+z
x,1/2-y,z
loop_
_atom_site_type_symbol
_atom_site_label
_atom_site_fract_x
_atom_site_fract_y
_atom_site_fract_z
Si Si1 0.961850 0.067223 0.746563
Si Si2 0.792463 0.067761 0.760487
Si Si3 0.714098 0.067074 0.586760
Si Si4 0.540578 0.931620 0.917738
Si Si5 0.043969 0.068576 0.920287
Si Si6 0.203242 0.432740 0.575123
O O1 0.967760 0.250000 0.730746
O O2 0.877115 0.009615 0.756090
O O3 0.006027 0.014702 0.831648
O O4 0.995490 0.977165 0.666751
O O5 0.791165 0.250000 0.762681
O O6 0.745631 0.008873 0.678411
O O7 0.755325 0.003549 0.847785
O O8 0.721080 0.250000 0.577121
O O9 0.629051 0.010339 0.578567
O O10 0.763304 0.986236 0.514844
O O11 0.544105 0.750000 0.927741
O O12 0.622722 0.997580 0.910503
O O13 0.500000 0.000000 0.000000
O O14 0.040310 0.250000 0.928195
O O15 0.000000 0.000000 0.000000
O O16 0.196913 0.250000 0.576781
#
# Coordination Sequence:
#
# PCOD8252950 Si02
#       6
#     8   8   8   8   8   8
#     4  10  20  38  62  88 117 155 198 241 289 347
#     4   9  19  36  60  84 112 149 190 233 285 344
#     4  10  20  36  56  82 115 153 192 238 292 346
#     4  12  25  41  61  88 119 154 194 242 296 353
#     4  10  21  36  57  84 119 159 200 244 294 347
#     4  11  22  39  62  88 116 152 195 240 290 349
#
# _framework density 19.907166
#
# number of rings (size 3 to 8) (size 9 to 14) (size 15 to 20)
#    0.000    1.667    0.000    5.000    0.000    6.667 
#    0.000    5.000    0.000    0.000    0.000    0.000 
#    0.000    0.000    0.000    0.000    0.000    0.000 
#
# Total GULP energy -595396.027019 kJ/mol
# GULP energy per Si atom -12404.083896 kJ/mol
# Density = 1.986186 g / cm^3
# Si number density = 19.907166 Si / 1000 Ang^3
#
#
#
# Elastic Constant Matrix: (Units=GPa)
#
#
# Indices 1 2 3 4 5 6 
#
# 1 -1806.1302-1470.3032-1759.4007 0.0000 0.0000 0.0000
# 2 -1470.3032-1100.3587-1355.9994 0.0000 0.0000 0.0000
# 3 -1759.4007-1355.9994-1537.1101 0.0000 0.0000 0.0000
# 4 0.0000 0.0000 0.0000 31.2087 0.0000 0.0000
# 5 0.0000 0.0000 0.0000 0.0000 47.2321 0.0000
# 6 0.0000 0.0000 0.0000 0.0000 0.0000 30.1972
#
#
#
# Elastic Compliance Matrix: (Units=1/GPa)
#
#
# Indices 1 2 3 4 5 6 
#
# 1 0.007251 -0.006186 -0.002842 0.000000 0.000000 0.000000
# 2 -0.006186 0.015709 -0.006777 0.000000 0.000000 0.000000
# 3 -0.002842 -0.006777 0.008581 0.000000 0.000000 0.000000
# 4 0.000000 0.000000 0.000000 0.032042 0.000000 0.000000
# 5 0.000000 0.000000 0.000000 0.000000 0.021172 0.000000
# 6 0.000000 0.000000 0.000000 0.000000 0.000000 0.033116
#
#
# Mechanical properties :
#
#
# Convention : Reuss Voigt Hill
#
# Bulk Modulus (GPa) = -14278.46352 -1512.77839 -7895.62096
# Shear Modulus (GPa) = 33.45435 31.20120 32.32778
#
# Velocity S-wave (km/s) = 4.10386 3.96325 4.03417
# Velocity P-wave (km/s) = 84.65010 27.21439 62.87393
#
# Compressibility (1/GPa) = -0.00007004
#
# Stress axis : x y z
#
# Youngs Moduli (GPa) = 137.92046 63.65848 116.53773
#
# Poissons Ratio (x) = 0.39380 0.33118
# Poissons Ratio (y) = 0.85319 0.78980
# Poissons Ratio (z) = 0.39195 0.43142
#
# Static dielectric constant tensor:
#      x y z
#    x 3.921140 0.000000 0.000000 
#    y 0.000000 3.425270 0.000000 
#    z 0.000000 0.000000 3.849070 
# 
# 
# High freq. dielectric constant tensor:
#      x y z
#    x 1.799740 0.000000 0.000000 
#    y 0.000000 1.754950 0.000000 
#    z 0.000000 0.000000 1.797160 
# 
# From -- ./inp_files/19531.got.cif
#   From: 2010.03.12/outbox.cif.g09.slc.cpg/sg62_10_cif.got.tgz:19531.got - 2010.04.10 19:12:36.
