data_PCOD8252021
_publ_section_title
;
Structure prediction by ZEFSAII (Michael W. Deem and Ramdas Pophale) SiO2 
 PCOD8252021
Probable space group: P N M A
;
_chemical_formula_sum "Si O2"
_cell_formula_units_Z 64
_cell_length_a 21.782643
_cell_length_b 9.019927
_cell_length_c 16.826578
_cell_angle_alpha 90.000000
_cell_angle_beta 90.000000
_cell_angle_gamma 90.000000
_cell_volume 3306.049864
_symmetry_space_group_name_H-M "P N M A"
_symmetry_group_IT_number 62
_symmetry_cell_setting 'orthorhombic'
loop_
_space_group_symop_operation_xyz
x,y,z
1/2-x,-y,1/2+z
1/2+x,1/2-y,1/2-z
-x,1/2+y,-z
-x,-y,-z
1/2+x,y,1/2-z
1/2-x,1/2+y,1/2+z
x,1/2-y,z
loop_
_atom_site_type_symbol
_atom_site_label
_atom_site_fract_x
_atom_site_fract_y
_atom_site_fract_z
Si Si1 0.566989 0.925474 0.172648
Si Si2 0.034395 0.574194 0.157195
Si Si3 0.103561 0.425125 0.870024
Si Si4 0.243786 0.925435 0.585008
Si Si5 0.634228 0.574104 0.467279
Si Si6 0.834905 0.916502 0.291216
Si Si7 0.945889 0.917023 0.408389
Si Si8 0.363213 0.076258 0.973137
O O1 0.559693 0.750000 0.178949
O O2 0.566445 0.990974 0.262177
O O3 0.508736 0.987702 0.124128
O O4 0.628473 0.965948 0.120914
O O5 0.032890 0.750000 0.162496
O O6 0.074305 0.522429 0.081949
O O7 0.965021 0.514098 0.148090
O O8 0.101884 0.250000 0.886125
O O9 0.150464 0.464390 0.799017
O O10 0.130781 0.507382 0.945604
O O11 0.254483 0.750000 0.582934
O O12 0.200387 0.981713 0.511545
O O13 0.307302 0.010208 0.578318
O O14 0.213131 0.970438 0.668943
O O15 0.639731 0.750000 0.471813
O O16 0.807060 0.750000 0.293900
O O17 0.899362 0.920439 0.335309
O O18 0.955074 0.750000 0.439449
O O19 0.922164 0.013700 0.481305
O O20 0.365205 0.250000 0.985572
#
# Coordination Sequence:
#
# PCOD8252021 Si02
#       8
#     8   8   8   8   8   8   8   8
#     4   9  15  28  50  77 107 136 174 220 265 323
#     4   9  18  34  57  84 111 140 180 231 280 335
#     4  10  19  36  62  87 110 140 182 228 283 343
#     4  10  21  38  55  76 112 151 188 230 276 324
#     4  11  23  38  57  82 111 146 189 236 282 329
#     4   9  17  32  57  85 108 140 182 222 270 335
#     4   9  15  26  49  77 107 138 170 213 267 324
#     4   9  18  30  49  76 105 141 180 219 265 320
#
# _framework density 19.358449
#
# number of rings (size 3 to 8) (size 9 to 14) (size 15 to 20)
#    0.000    2.500    1.250    1.500    0.000    1.000 
#    2.250    0.625    0.000    3.750    0.000    0.000 
#    0.000    0.000    0.000    0.000    0.000    0.000 
#
# Total GULP energy -793274.899400 kJ/mol
# GULP energy per Si atom -12394.920303 kJ/mol
# Density = 1.931439 g / cm^3
# Si number density = 19.358449 Si / 1000 Ang^3
#
#
#
# Elastic Constant Matrix: (Units=GPa)
#
#
# Indices 1 2 3 4 5 6 
#
# 1 83.9383 27.4377 43.3844 0.0000 0.0000 0.0000
# 2 27.4377 38.2374 31.7701 0.0000 0.0000 0.0000
# 3 43.3844 31.7701 116.0310 0.0000 0.0000 0.0000
# 4 0.0000 0.0000 0.0000 25.9578 0.0000 0.0000
# 5 0.0000 0.0000 0.0000 0.0000 19.2517 0.0000
# 6 0.0000 0.0000 0.0000 0.0000 0.0000 21.8365
#
#
#
# Elastic Compliance Matrix: (Units=1/GPa)
#
#
# Indices 1 2 3 4 5 6 
#
# 1 0.016801 -0.008849 -0.003859 0.000000 0.000000 0.000000
# 2 -0.008849 0.038515 -0.007237 0.000000 0.000000 0.000000
# 3 -0.003859 -0.007237 0.012043 0.000000 0.000000 0.000000
# 4 0.000000 0.000000 0.000000 0.038524 0.000000 0.000000
# 5 0.000000 0.000000 0.000000 0.000000 0.051944 0.000000
# 6 0.000000 0.000000 0.000000 0.000000 0.000000 0.045795
#
#
# Mechanical properties :
#
#
# Convention : Reuss Voigt Hill
#
# Bulk Modulus (GPa) = 36.40540 49.26568 42.83554
# Shear Modulus (GPa) = 19.78885 22.45017 21.11951
#
# Velocity S-wave (km/s) = 3.20071 3.40914 3.30657
# Velocity P-wave (km/s) = 5.70142 6.40319 6.06246
#
# Compressibility (1/GPa) = 0.02746845
#
# Stress axis : x y z
#
# Youngs Moduli (GPa) = 59.52144 25.96370 83.03768
#
# Poissons Ratio (x) = 0.22976 0.32043
# Poissons Ratio (y) = 0.52673 0.60094
# Poissons Ratio (z) = 0.22968 0.18790
#
# Static dielectric constant tensor:
#      x y z
#    x 3.538200 0.000000 0.000000 
#    y 0.000000 3.228230 0.000000 
#    z 0.000000 0.000000 3.758850 
# 
# 
# High freq. dielectric constant tensor:
#      x y z
#    x 1.745180 0.000000 0.000000 
#    y 0.000000 1.719300 0.000000 
#    z 0.000000 0.000000 1.761890 
# 
# From -- ./inp_files/24845.got.cif
#   From: 2010.03.12/outbox.cif.g09.slc.cpg/sg62_13_cif.got.tgz:24845.got - 2010.04.10 19:12:36.
