data_PCOD8252830
_publ_section_title
;
Structure prediction by ZEFSAII (Michael W. Deem and Ramdas Pophale) SiO2 
 PCOD8252830
Probable space group: P N M A
;
_chemical_formula_sum "Si O2"
_cell_formula_units_Z 48
_cell_length_a 9.173172
_cell_length_b 13.186014
_cell_length_c 16.314272
_cell_angle_alpha 90.000000
_cell_angle_beta 90.000000
_cell_angle_gamma 90.000000
_cell_volume 1973.334769
_symmetry_space_group_name_H-M "P N M A"
_symmetry_group_IT_number 62
_symmetry_cell_setting 'orthorhombic'
loop_
_space_group_symop_operation_xyz
x,y,z
1/2-x,-y,1/2+z
1/2+x,1/2-y,1/2-z
-x,1/2+y,-z
-x,-y,-z
1/2+x,y,1/2-z
1/2-x,1/2+y,1/2+z
x,1/2-y,z
loop_
_atom_site_type_symbol
_atom_site_label
_atom_site_fract_x
_atom_site_fract_y
_atom_site_fract_z
Si Si1 0.384605 0.632560 0.234067
Si Si2 0.409173 0.862869 0.646421
Si Si3 0.657499 0.566912 0.149653
Si Si4 0.234971 0.862693 0.808904
Si Si5 0.705380 0.490770 0.914582
Si Si6 0.508496 0.133232 0.011734
O O1 0.377872 0.750000 0.211560
O O2 0.550543 0.593501 0.226103
O O3 0.316446 0.611069 0.324107
O O4 0.286901 0.570231 0.169718
O O5 0.413601 0.750000 0.607400
O O6 0.281918 0.868060 0.714425
O O7 0.563820 0.889837 0.686376
O O8 0.356554 0.944694 0.577028
O O9 0.674570 0.444484 0.138211
O O10 0.598059 0.619229 0.067683
O O11 0.267737 0.750000 0.844556
O O12 0.670265 0.411094 0.988522
O O13 0.566683 0.569144 0.915271
O O14 0.519872 0.250000 0.036736
#
# Coordination Sequence:
#
# PCOD8252830 Si02
#       6
#     8   8   8   8   8   8
#     4  11  22  37  61  91 123 158 202 252 301 354
#     4  10  20  35  57  86 121 156 196 246 302 356
#     4  11  21  38  61  89 120 159 199 250 302 358
#     4  10  21  36  56  88 122 155 197 249 303 358
#     4  10  20  36  61  84 114 159 199 246 296 355
#     4  10  22  40  59  87 122 159 202 247 301 361
#
# _framework density 24.324306
#
# number of rings (size 3 to 8) (size 9 to 14) (size 15 to 20)
#    0.000    1.667    1.667    4.500    2.333    0.000 
#    0.000    9.167    0.000    0.000    0.000    0.000 
#    0.000    0.000    0.000    0.000    0.000    0.000 
#
# Total GULP energy -594663.689775 kJ/mol
# GULP energy per Si atom -12388.826870 kJ/mol
# Density = 2.426894 g / cm^3
# Si number density = 24.324306 Si / 1000 Ang^3
#
#
#
# Elastic Constant Matrix: (Units=GPa)
#
#
# Indices 1 2 3 4 5 6 
#
# 1 106.5354 32.9825 24.5995 0.0000 0.0000 0.0000
# 2 32.9825 177.2775 7.6141 0.0000 0.0000 0.0000
# 3 24.5995 7.6141 53.5026 0.0000 0.0000 0.0000
# 4 0.0000 0.0000 0.0000 15.3455 0.0000 0.0000
# 5 0.0000 0.0000 0.0000 0.0000 37.8310 0.0000
# 6 0.0000 0.0000 0.0000 0.0000 0.0000 33.8826
#
#
#
# Elastic Compliance Matrix: (Units=1/GPa)
#
#
# Indices 1 2 3 4 5 6 
#
# 1 0.011075 -0.001853 -0.004828 0.000000 0.000000 0.000000
# 2 -0.001853 0.005986 0.000000 0.000000 0.000000 0.000000
# 3 -0.004828 0.000000 0.020911 0.000000 0.000000 0.000000
# 4 0.000000 0.000000 0.000000 0.065166 0.000000 0.000000
# 5 0.000000 0.000000 0.000000 0.000000 0.026433 0.000000
# 6 0.000000 0.000000 0.000000 0.000000 0.000000 0.029514
#
#
# Mechanical properties :
#
#
# Convention : Reuss Voigt Hill
#
# Bulk Modulus (GPa) = 40.63596 51.96753 46.30174
# Shear Modulus (GPa) = 27.67782 35.55310 31.61546
#
# Velocity S-wave (km/s) = 3.37689 3.82727 3.60911
# Velocity P-wave (km/s) = 5.65214 6.39856 6.03689
#
# Compressibility (1/GPa) = 0.02460874
#
# Stress axis : x y z
#
# Youngs Moduli (GPa) = 90.29195 167.06635 47.82247
#
# Poissons Ratio (x) = 0.30960 0.23091
# Poissons Ratio (y) = 0.16733 -0.00001
# Poissons Ratio (z) = 0.43597 -0.00004
#
# Static dielectric constant tensor:
#      x y z
#    x 4.279360 0.000000 0.000000 
#    y 0.000000 4.788790 0.000000 
#    z 0.000000 0.000000 3.951690 
# 
# 
# High freq. dielectric constant tensor:
#      x y z
#    x 1.956740 0.000000 0.000000 
#    y 0.000000 1.989630 0.000000 
#    z 0.000000 0.000000 1.930860 
# 
# From -- ./inp_files/22200.got.cif
#   From: 2010.03.12/outbox.cif.g09.slc.cpg/sg62_12_cif.got.tgz:22200.got - 2010.04.10 19:12:36.
