data_PCOD8252029
_publ_section_title
;
Structure prediction by ZEFSAII (Michael W. Deem and Ramdas Pophale) SiO2 
 PCOD8252029
Probable space group: P N M A
;
_chemical_formula_sum "Si O2"
_cell_formula_units_Z 28
_cell_length_a 15.927538
_cell_length_b 5.155248
_cell_length_c 16.896835
_cell_angle_alpha 90.000000
_cell_angle_beta 90.000000
_cell_angle_gamma 90.000000
_cell_volume 1387.406023
_symmetry_space_group_name_H-M "P N M A"
_symmetry_group_IT_number 62
_symmetry_cell_setting 'orthorhombic'
loop_
_space_group_symop_operation_xyz
x,y,z
1/2-x,-y,1/2+z
1/2+x,1/2-y,1/2-z
-x,1/2+y,-z
-x,-y,-z
1/2+x,y,1/2-z
1/2-x,1/2+y,1/2+z
x,1/2-y,z
loop_
_atom_site_type_symbol
_atom_site_label
_atom_site_fract_x
_atom_site_fract_y
_atom_site_fract_z
Si Si1 0.656254 0.750000 0.866543
Si Si2 0.396431 0.250000 0.802013
Si Si3 0.001027 0.250000 0.266563
Si Si4 0.979547 0.250000 0.097283
Si Si5 0.057891 0.750000 0.484326
Si Si6 0.259247 0.250000 0.676636
Si Si7 0.587596 0.750000 0.436963
O O1 0.559520 0.750000 0.840583
O O2 0.701537 0.500113 0.832168
O O3 0.642391 0.750000 0.961342
O O4 0.440389 0.500759 0.766557
O O5 0.400946 0.250000 0.896919
O O6 0.302777 0.250000 0.763524
O O7 0.944180 0.250000 0.186571
O O8 0.038029 0.497769 0.088357
O O9 0.904066 0.250000 0.033319
O O10 0.000000 0.500000 0.500000
O O11 0.322152 0.250000 0.602720
#
# Coordination Sequence:
#
# PCOD8252029 Si02
#       7
#     4   4   4   4   4   4   4
#     4  12  26  41  65  93 133 163 213 276 326 381
#     4  12  23  42  72  92 125 174 220 261 329 397
#     4  12  21  41  67  93 123 166 221 269 306 389
#     4  10  19  36  62  91 111 159 218 259 291 381
#     4  12  23  45  71  94 123 168 229 273 316 387
#     4  12  24  43  61  94 135 168 202 272 347 382
#     4  10  20  36  62  85 122 162 205 252 319 377
#
# _framework density 20.181549
#
# number of rings (size 3 to 8) (size 9 to 14) (size 15 to 20)
#    0.000    0.571    5.714    3.429    0.000    0.000 
#    5.143    0.000    0.000    0.000    0.000    0.000 
#    0.000    0.000    0.000    0.000    0.000    0.000 
#
# Total GULP energy -347093.186599 kJ/mol
# GULP energy per Si atom -12396.185236 kJ/mol
# Density = 2.013562 g / cm^3
# Si number density = 20.181549 Si / 1000 Ang^3
#
#
#
# Elastic Constant Matrix: (Units=GPa)
#
#
# Indices 1 2 3 4 5 6 
#
# 1 80.9670 45.6983 32.8423 0.0000 0.0000 0.0000
# 2 45.6983 180.5026 31.2403 0.0000 0.0000 0.0000
# 3 32.8423 31.2403 166.3146 0.0000 0.0000 0.0000
# 4 0.0000 0.0000 0.0000 29.8056 0.0000 0.0000
# 5 0.0000 0.0000 0.0000 0.0000 50.9516 0.0000
# 6 0.0000 0.0000 0.0000 0.0000 0.0000 36.5865
#
#
#
# Elastic Compliance Matrix: (Units=1/GPa)
#
#
# Indices 1 2 3 4 5 6 
#
# 1 0.015259 -0.003454 -0.002364 0.000000 0.000000 0.000000
# 2 -0.003454 0.006508 -0.000540 0.000000 0.000000 0.000000
# 3 -0.002364 -0.000540 0.006581 0.000000 0.000000 0.000000
# 4 0.000000 0.000000 0.000000 0.033551 0.000000 0.000000
# 5 0.000000 0.000000 0.000000 0.000000 0.019626 0.000000
# 6 0.000000 0.000000 0.000000 0.000000 0.000000 0.027332
#
#
# Mechanical properties :
#
#
# Convention : Reuss Voigt Hill
#
# Bulk Modulus (GPa) = 63.97657 71.92733 67.95195
# Shear Modulus (GPa) = 39.43651 44.66898 42.05274
#
# Velocity S-wave (km/s) = 4.42530 4.70974 4.56973
# Velocity P-wave (km/s) = 7.60792 8.08041 7.84772
#
# Compressibility (1/GPa) = 0.01563072
#
# Stress axis : x y z
#
# Youngs Moduli (GPa) = 65.53402 153.65536 151.94982
#
# Poissons Ratio (x) = 0.53072 0.35928
# Poissons Ratio (y) = 0.22635 0.08211
# Poissons Ratio (z) = 0.15495 0.08304
#
# Static dielectric constant tensor:
#      x y z
#    x 3.409690 0.000000 0.000000 
#    y 0.000000 3.951630 0.000000 
#    z 0.000000 0.000000 4.201940 
# 
# 
# High freq. dielectric constant tensor:
#      x y z
#    x 1.755250 0.000000 0.000000 
#    y 0.000000 1.818240 0.000000 
#    z 0.000000 0.000000 1.812460 
# 
# From -- ./inp_files/22683.got.cif
#   From: 2010.03.12/outbox.cif.g09.slc.cpg/sg62_12_cif.got.tgz:22683.got - 2010.04.10 19:12:36.
