data_PCOD8252799
_publ_section_title
;
Structure prediction by ZEFSAII (Michael W. Deem and Ramdas Pophale) SiO2 
 PCOD8252799
Probable space group: P N M A
;
_chemical_formula_sum "Si O2"
_cell_formula_units_Z 48
_cell_length_a 23.452961
_cell_length_b 9.148896
_cell_length_c 11.809053
_cell_angle_alpha 90.000000
_cell_angle_beta 90.000000
_cell_angle_gamma 90.000000
_cell_volume 2533.853163
_symmetry_space_group_name_H-M "P N M A"
_symmetry_group_IT_number 62
_symmetry_cell_setting 'orthorhombic'
loop_
_space_group_symop_operation_xyz
x,y,z
1/2-x,-y,1/2+z
1/2+x,1/2-y,1/2-z
-x,1/2+y,-z
-x,-y,-z
1/2+x,y,1/2-z
1/2-x,1/2+y,1/2+z
x,1/2-y,z
loop_
_atom_site_type_symbol
_atom_site_label
_atom_site_fract_x
_atom_site_fract_y
_atom_site_fract_z
Si Si1 0.637388 0.420230 0.359297
Si Si2 0.219453 0.078556 0.344288
Si Si3 0.080718 0.082127 0.697944
Si Si4 0.668436 0.082178 0.608561
Si Si5 0.951711 0.420176 0.718619
Si Si6 0.370738 0.421391 0.986783
O O1 0.623450 0.250000 0.361372
O O2 0.688773 0.457977 0.274106
O O3 0.655168 0.476669 0.482919
O O4 0.579578 0.499335 0.321480
O O5 0.220739 0.250000 0.369146
O O6 0.282955 0.016620 0.335269
O O7 0.187078 0.999634 0.447219
O O8 0.081083 0.250000 0.655320
O O9 0.111272 0.066174 0.818424
O O10 0.016421 0.023988 0.711842
O O11 0.113053 0.981839 0.608694
O O12 0.689407 0.250000 0.605190
O O13 0.948914 0.250000 0.745923
O O14 0.921698 0.458206 0.599765
O O15 0.358586 0.250000 0.995516
#
# Coordination Sequence:
#
# PCOD8252799 Si02
#       6
#     8   8   8   8   8   8
#     4   9  20  38  57  78 108 144 182 226 277 331
#     4  10  21  37  57  80 107 142 184 229 277 332
#     4  10  21  36  55  83 117 148 184 228 278 327
#     4  10  22  38  55  80 113 148 181 227 280 328
#     4   9  19  36  57  82 112 147 185 229 276 329
#     4  10  20  35  57  83 111 146 187 231 279 326
#
# _framework density 18.943481999999999
#
# number of rings (size 3 to 8) (size 9 to 14) (size 15 to 20)
#    0.000    2.333    0.000    1.500    2.333    4.000 
#    0.000    0.000    0.000    0.000    0.000    0.000 
#    0.000    0.000    0.000    0.000    0.000    0.000 
#
# Total GULP energy -595456.526089 kJ/mol
# GULP energy per Si atom -12405.344294 kJ/mol
# Density = 1.890037 g / cm^3
# Si number density = 18.943482 Si / 1000 Ang^3
#
#
#
# Elastic Constant Matrix: (Units=GPa)
#
#
# Indices 1 2 3 4 5 6 
#
# 1 80.9225 29.0251 31.1895 0.0000 0.0000 0.0000
# 2 29.0251 62.7721 35.0669 0.0000 0.0000 0.0000
# 3 31.1895 35.0669 103.5622 0.0000 0.0000 0.0000
# 4 0.0000 0.0000 0.0000 27.5645 0.0000 0.0000
# 5 0.0000 0.0000 0.0000 0.0000 21.6012 0.0000
# 6 0.0000 0.0000 0.0000 0.0000 0.0000 33.4343
#
#
#
# Elastic Compliance Matrix: (Units=1/GPa)
#
#
# Indices 1 2 3 4 5 6 
#
# 1 0.015425 -0.005596 -0.002751 0.000000 0.000000 0.000000
# 2 -0.005596 0.021677 -0.005655 0.000000 0.000000 0.000000
# 3 -0.002751 -0.005655 0.012399 0.000000 0.000000 0.000000
# 4 0.000000 0.000000 0.000000 0.036278 0.000000 0.000000
# 5 0.000000 0.000000 0.000000 0.000000 0.046294 0.000000
# 6 0.000000 0.000000 0.000000 0.000000 0.000000 0.029909
#
#
# Mechanical properties :
#
#
# Convention : Reuss Voigt Hill
#
# Bulk Modulus (GPa) = 46.51432 48.64666 47.58049
# Shear Modulus (GPa) = 25.36130 26.65170 26.00650
#
# Velocity S-wave (km/s) = 3.66291 3.75494 3.70921
# Velocity P-wave (km/s) = 6.51896 6.67346 6.59666
#
# Compressibility (1/GPa) = 0.02149876
#
# Stress axis : x y z
#
# Youngs Moduli (GPa) = 64.83107 46.13201 80.65032
#
# Poissons Ratio (x) = 0.25813 0.22185
# Poissons Ratio (y) = 0.36277 0.45606
# Poissons Ratio (z) = 0.17833 0.26087
#
# Static dielectric constant tensor:
#      x y z
#    x 3.526180 0.000000 0.000000 
#    y 0.000000 3.425720 0.000000 
#    z 0.000000 0.000000 3.446980 
# 
# 
# High freq. dielectric constant tensor:
#      x y z
#    x 1.739990 0.000000 0.000000 
#    y 0.000000 1.734000 0.000000 
#    z 0.000000 0.000000 1.735060 
# 
# From -- ./inp_files/15086.got.cif
#   From: 2010.03.12/outbox.cif.g09.slc.cpg/sg62_8_cif.got.tgz:15086.got - 2010.04.10 19:12:36.
