data_PCOD8252409
_publ_section_title
;
Structure prediction by ZEFSAII (Michael W. Deem and Ramdas Pophale) SiO2 
 PCOD8252409
Probable space group: P N M A
;
_chemical_formula_sum "Si O2"
_cell_formula_units_Z 64
_cell_length_a 18.954206
_cell_length_b 8.541686
_cell_length_c 22.892090
_cell_angle_alpha 90.000000
_cell_angle_beta 90.000000
_cell_angle_gamma 90.000000
_cell_volume 3706.249425
_symmetry_space_group_name_H-M "P N M A"
_symmetry_group_IT_number 62
_symmetry_cell_setting 'orthorhombic'
loop_
_space_group_symop_operation_xyz
x,y,z
1/2-x,-y,1/2+z
1/2+x,1/2-y,1/2-z
-x,1/2+y,-z
-x,-y,-z
1/2+x,y,1/2-z
1/2-x,1/2+y,1/2+z
x,1/2-y,z
loop_
_atom_site_type_symbol
_atom_site_label
_atom_site_fract_x
_atom_site_fract_y
_atom_site_fract_z
Si Si1 0.493523 0.430828 0.116997
Si Si2 0.276943 0.930456 0.839333
Si Si3 0.860604 0.571056 0.444109
Si Si4 0.141995 0.932303 0.770281
Si Si5 0.772552 0.931332 0.333388
Si Si6 0.141020 0.067341 0.220952
Si Si7 0.500078 0.568158 0.244117
Si Si8 0.631760 0.929233 0.066330
O O1 0.473306 0.250000 0.109386
O O2 0.434303 0.536548 0.087466
O O3 0.500467 0.468521 0.185039
O O4 0.567443 0.460816 0.085175
O O5 0.281355 0.750000 0.857745
O O6 0.197276 0.976418 0.821293
O O7 0.328594 0.964373 0.785295
O O8 0.299996 0.035616 0.893856
O O9 0.862093 0.750000 0.465171
O O10 0.796003 0.541120 0.399940
O O11 0.848129 0.460508 0.499424
O O12 0.123144 0.750000 0.771901
O O13 0.175678 0.968606 0.707400
O O14 0.071297 0.032536 0.780018
O O15 0.778936 0.750000 0.315353
O O16 0.692398 0.990421 0.327058
O O17 0.133762 0.250000 0.207494
O O18 0.065427 0.984121 0.215709
O O19 0.505316 0.750000 0.228566
O O20 0.609272 0.750000 0.074244
#
# Coordination Sequence:
#
# PCOD8252409 Si02
#       8
#     8   8   8   8   8   8   8   8
#     4  12  23  36  52  72 105 141 180 219 257 306
#     4   9  19  35  53  74 101 136 174 214 259 307
#     4  11  23  38  54  74 104 140 180 218 259 307
#     4  10  20  34  54  76 104 137 172 213 264 315
#     4  10  20  34  53  76 103 135 174 219 261 304
#     4  10  20  34  54  76 104 138 172 212 263 314
#     4  12  22  33  52  79 108 139 176 214 260 313
#     4  12  24  36  53  75 103 140 181 220 260 303
#
# _framework density 17.268131
#
# number of rings (size 3 to 8) (size 9 to 14) (size 15 to 20)
#    0.000    1.250    2.500    6.000    0.000    4.000 
#    0.000    0.000    0.000    0.000    0.000    0.875 
#    0.000    0.000    0.000    0.000    0.000    0.000 
#
# Total GULP energy -793952.823607 kJ/mol
# GULP energy per Si atom -12405.512869 kJ/mol
# Density = 1.722883 g / cm^3
# Si number density = 17.268131 Si / 1000 Ang^3
#
#
#
# Elastic Constant Matrix: (Units=GPa)
#
#
# Indices 1 2 3 4 5 6 
#
# 1 112.7377 25.8522 39.4822 0.0000 0.0000 0.0000
# 2 25.8522 66.0332 22.7984 0.0000 0.0000 0.0000
# 3 39.4822 22.7984 62.3488 0.0000 0.0000 0.0000
# 4 0.0000 0.0000 0.0000 25.3368 0.0000 0.0000
# 5 0.0000 0.0000 0.0000 0.0000 19.5394 0.0000
# 6 0.0000 0.0000 0.0000 0.0000 0.0000 28.9128
#
#
#
# Elastic Compliance Matrix: (Units=1/GPa)
#
#
# Indices 1 2 3 4 5 6 
#
# 1 0.011699 -0.002315 -0.006562 0.000000 0.000000 0.000000
# 2 -0.002315 0.017790 -0.005039 0.000000 0.000000 0.000000
# 3 -0.006562 -0.005039 0.022037 0.000000 0.000000 0.000000
# 4 0.000000 0.000000 0.000000 0.039468 0.000000 0.000000
# 5 0.000000 0.000000 0.000000 0.000000 0.051179 0.000000
# 6 0.000000 0.000000 0.000000 0.000000 0.000000 0.034587
#
#
# Mechanical properties :
#
#
# Convention : Reuss Voigt Hill
#
# Bulk Modulus (GPa) = 42.20496 46.37614 44.29055
# Shear Modulus (GPa) = 23.53059 24.95693 24.24376
#
# Velocity S-wave (km/s) = 3.69543 3.80578 3.75101
# Velocity P-wave (km/s) = 6.53470 6.79903 6.66817
#
# Compressibility (1/GPa) = 0.02369390
#
# Stress axis : x y z
#
# Youngs Moduli (GPa) = 85.47722 56.21148 45.37849
#
# Poissons Ratio (x) = 0.13011 0.29777
# Poissons Ratio (y) = 0.19785 0.22868
# Poissons Ratio (z) = 0.56090 0.28327
#
# Static dielectric constant tensor:
#      x y z
#    x 3.368010 0.000000 0.000000 
#    y 0.000000 3.280470 0.000000 
#    z 0.000000 0.000000 3.011700 
# 
# 
# High freq. dielectric constant tensor:
#      x y z
#    x 1.664270 0.000000 0.000000 
#    y 0.000000 1.683430 0.000000 
#    z 0.000000 0.000000 1.632030 
# 
# From -- ./inp_files/27775.got.cif
#   From: 2010.03.12/outbox.cif.g09.slc.cpg/sg62_14_cif.got.tgz:27775.got - 2010.04.10 19:12:36.
