data_PCOD8252441
_publ_section_title
;
Structure prediction by ZEFSAII (Michael W. Deem and Ramdas Pophale) SiO2 
 PCOD8252441
Probable space group: P N M A
;
_chemical_formula_sum "Si O2"
_cell_formula_units_Z 40
_cell_length_a 15.789017
_cell_length_b 9.328869
_cell_length_c 15.196137
_cell_angle_alpha 90.000000
_cell_angle_beta 90.000000
_cell_angle_gamma 90.000000
_cell_volume 2238.294807
_symmetry_space_group_name_H-M "P N M A"
_symmetry_group_IT_number 62
_symmetry_cell_setting 'orthorhombic'
loop_
_space_group_symop_operation_xyz
x,y,z
1/2-x,-y,1/2+z
1/2+x,1/2-y,1/2-z
-x,1/2+y,-z
-x,-y,-z
1/2+x,y,1/2-z
1/2-x,1/2+y,1/2+z
x,1/2-y,z
loop_
_atom_site_type_symbol
_atom_site_label
_atom_site_fract_x
_atom_site_fract_y
_atom_site_fract_z
Si Si1 0.617042 0.584834 0.048753
Si Si2 0.528150 0.583553 0.867567
Si Si3 0.933833 0.084686 0.941783
Si Si4 0.810637 0.916687 0.043056
Si Si5 0.437193 0.912512 0.300076
O O1 0.601201 0.750000 0.073310
O O2 0.562258 0.490137 0.115362
O O3 0.714204 0.540698 0.061796
O O4 0.591181 0.554130 0.948302
O O5 0.511942 0.750000 0.851573
O O6 0.572373 0.517776 0.781880
O O7 0.929435 0.250000 0.971480
O O8 0.968005 0.073157 0.841690
O O9 0.843116 0.009037 0.958667
O O10 0.000000 0.000000 0.000000
O O11 0.819587 0.750000 0.018185
O O12 0.865461 0.955074 0.129109
O O13 0.422246 0.750000 0.267996
#
# Coordination Sequence:
#
# PCOD8252441 Si02
#       5
#     8   8   8   8   8
#     4   9  19  37  56  73 102 139 173 211 258 309
#     4  10  20  34  54  77 101 136 175 213 256 302
#     4   9  17  30  50  75 103 136 171 206 253 307
#     4   9  18  34  55  77 104 137 171 212 262 307
#     4   9  18  33  52  75 104 137 170 207 257 311
#
# _framework density 17.870746
#
# number of rings (size 3 to 8) (size 9 to 14) (size 15 to 20)
#    0.000    2.800    0.000    2.400    0.000    5.600 
#    3.600    0.000    0.000    0.000    0.000    0.000 
#    0.000    0.000    0.000    0.000    0.000    0.000 
#
# Total GULP energy -495904.160723 kJ/mol
# GULP energy per Si atom -12397.604018 kJ/mol
# Density = 1.783007 g / cm^3
# Si number density = 17.870746 Si / 1000 Ang^3
#
#
#
# Elastic Constant Matrix: (Units=GPa)
#
#
# Indices 1 2 3 4 5 6 
#
# 1 119.2233 49.6806 41.0423 0.0000 0.0000 0.0000
# 2 49.6806 91.1064 44.0656 0.0000 0.0000 0.0000
# 3 41.0423 44.0656 72.4700 0.0000 0.0000 0.0000
# 4 0.0000 0.0000 0.0000 34.8553 0.0000 0.0000
# 5 0.0000 0.0000 0.0000 0.0000 14.9881 0.0000
# 6 0.0000 0.0000 0.0000 0.0000 0.0000 28.7704
#
#
#
# Elastic Compliance Matrix: (Units=1/GPa)
#
#
# Indices 1 2 3 4 5 6 
#
# 1 0.011564 -0.004446 -0.003846 0.000000 0.000000 0.000000
# 2 -0.004446 0.017258 -0.007976 0.000000 0.000000 0.000000
# 3 -0.003846 -0.007976 0.020827 0.000000 0.000000 0.000000
# 4 0.000000 0.000000 0.000000 0.028690 0.000000 0.000000
# 5 0.000000 0.000000 0.000000 0.000000 0.066719 0.000000
# 6 0.000000 0.000000 0.000000 0.000000 0.000000 0.034758
#
#
# Mechanical properties :
#
#
# Convention : Reuss Voigt Hill
#
# Bulk Modulus (GPa) = 58.43319 61.37517 59.90418
# Shear Modulus (GPa) = 22.92979 25.59019 24.25999
#
# Velocity S-wave (km/s) = 3.58591 3.78823 3.68846
# Velocity P-wave (km/s) = 7.06496 7.31797 7.19258
#
# Compressibility (1/GPa) = 0.01711356
#
# Stress axis : x y z
#
# Youngs Moduli (GPa) = 86.47420 57.94297 48.01503
#
# Poissons Ratio (x) = 0.25760 0.18466
# Poissons Ratio (y) = 0.38445 0.38298
# Poissons Ratio (z) = 0.33257 0.46216
#
# Static dielectric constant tensor:
#      x y z
#    x 3.488540 0.000000 0.000000 
#    y 0.000000 3.461140 0.000000 
#    z 0.000000 0.000000 3.225860 
# 
# 
# High freq. dielectric constant tensor:
#      x y z
#    x 1.683760 0.000000 0.000000 
#    y 0.000000 1.698440 0.000000 
#    z 0.000000 0.000000 1.675040 
# 
# From -- ./inp_files/18607.got.cif
#   From: 2010.03.12/outbox.cif.g09.slc.cpg/sg62_10_cif.got.tgz:18607.got - 2010.04.10 19:12:36.
