data_PCOD8252210
_publ_section_title
;
Structure prediction by ZEFSAII (Michael W. Deem and Ramdas Pophale) SiO2 
 PCOD8252210
Probable space group: P N M A
;
_chemical_formula_sum "Si O2"
_cell_formula_units_Z 48
_cell_length_a 28.810763
_cell_length_b 9.325797
_cell_length_c 9.927422
_cell_angle_alpha 90.000000
_cell_angle_beta 90.000000
_cell_angle_gamma 90.000000
_cell_volume 2667.332773
_symmetry_space_group_name_H-M "P N M A"
_symmetry_group_IT_number 62
_symmetry_cell_setting 'orthorhombic'
loop_
_space_group_symop_operation_xyz
x,y,z
1/2-x,-y,1/2+z
1/2+x,1/2-y,1/2-z
-x,1/2+y,-z
-x,-y,-z
1/2+x,y,1/2-z
1/2-x,1/2+y,1/2+z
x,1/2-y,z
loop_
_atom_site_type_symbol
_atom_site_label
_atom_site_fract_x
_atom_site_fract_y
_atom_site_fract_z
Si Si1 0.603208 0.084163 0.867734
Si Si2 0.373695 0.579838 0.838499
Si Si3 0.046017 0.916202 0.841173
Si Si4 0.271855 0.580610 0.890967
Si Si5 0.208975 0.414452 0.692740
Si Si6 0.439733 0.916409 0.603790
O O1 0.587883 0.250000 0.858086
O O2 0.653855 0.063451 0.803229
O O3 0.565926 0.986276 0.793176
O O4 0.603611 0.027984 0.021503
O O5 0.373700 0.750000 0.842377
O O6 0.320594 0.526202 0.826967
O O7 0.403580 0.522361 0.713435
O O8 0.059427 0.750000 0.846874
O O9 0.990977 0.939783 0.837982
O O10 0.068737 0.993328 0.969571
O O11 0.267034 0.750000 0.875643
O O12 0.229846 0.507514 0.812998
O O13 0.270404 0.536789 0.048337
O O14 0.221826 0.250000 0.719456
O O15 0.430600 0.750000 0.570340
#
# Coordination Sequence:
#
# PCOD8252210 Si02
#       6
#     8   8   8   8   8   8
#     4   9  18  34  53  70  94 129 163 196 238 289
#     4   8  16  33  54  72  92 125 167 201 234 285
#     4  10  20  32  48  74 103 127 158 202 244 283
#     4   9  18  33  52  73  97 125 160 202 241 281
#     4   9  19  34  50  71  98 127 160 196 238 289
#     4   9  18  34  53  71  96 131 166 198 237 289
#
# _framework density 17.995504
#
# number of rings (size 3 to 8) (size 9 to 14) (size 15 to 20)
#    0.000    3.000    0.000    2.500    0.000    4.000 
#    0.000    9.167    0.000    0.000    0.000    0.000 
#    0.000    0.000    0.000    0.000    0.000    0.000 
#
# Total GULP energy -595167.622724 kJ/mol
# GULP energy per Si atom -12399.325473 kJ/mol
# Density = 1.795455 g / cm^3
# Si number density = 17.995504 Si / 1000 Ang^3
#
#
#
# Elastic Constant Matrix: (Units=GPa)
#
#
# Indices 1 2 3 4 5 6 
#
# 1 23.5278 11.1748 3.2970 0.0000 0.0000 0.0000
# 2 11.1748 45.5893 12.9950 0.0000 0.0000 0.0000
# 3 3.2970 12.9950 33.4797 0.0000 0.0000 0.0000
# 4 0.0000 0.0000 0.0000 29.5054 0.0000 0.0000
# 5 0.0000 0.0000 0.0000 0.0000 38.7446 0.0000
# 6 0.0000 0.0000 0.0000 0.0000 0.0000 25.8296
#
#
#
# Elastic Compliance Matrix: (Units=1/GPa)
#
#
# Indices 1 2 3 4 5 6 
#
# 1 0.048104 -0.011740 -0.000180 0.000000 0.000000 0.000000
# 2 -0.011740 0.027529 -0.009529 0.000000 0.000000 0.000000
# 3 -0.000180 -0.009529 0.033585 0.000000 0.000000 0.000000
# 4 0.000000 0.000000 0.000000 0.033892 0.000000 0.000000
# 5 0.000000 0.000000 0.000000 0.000000 0.025810 0.000000
# 6 0.000000 0.000000 0.000000 0.000000 0.000000 0.038715
#
#
# Mechanical properties :
#
#
# Convention : Reuss Voigt Hill
#
# Bulk Modulus (GPa) = 15.07851 17.50338 16.29095
# Shear Modulus (GPa) = 18.33915 23.82461 21.08188
#
# Velocity S-wave (km/s) = 3.19579 3.64252 3.42644
# Velocity P-wave (km/s) = 4.69198 5.23815 4.97257
#
# Compressibility (1/GPa) = 0.06631955
#
# Stress axis : x y z
#
# Youngs Moduli (GPa) = 20.78824 36.32551 29.77499
#
# Poissons Ratio (x) = 0.42646 0.00537
# Poissons Ratio (y) = 0.24405 0.28373
# Poissons Ratio (z) = 0.00375 0.34615
#
# Static dielectric constant tensor:
#      x y z
#    x 3.327850 0.000000 0.000000 
#    y 0.000000 3.095010 0.000000 
#    z 0.000000 0.000000 3.401240 
# 
# 
# High freq. dielectric constant tensor:
#      x y z
#    x 1.693400 0.000000 0.000000 
#    y 0.000000 1.676350 0.000000 
#    z 0.000000 0.000000 1.701840 
# 
# From -- ./inp_files/10245.got.cif
#   From: 2010.03.12/outbox.cif.g09.slc.cpg/sg62_6_cif.got.tgz:10245.got - 2010.04.10 19:12:36.
