data_PCOD8252350
_publ_section_title
;
Structure prediction by ZEFSAII (Michael W. Deem and Ramdas Pophale) SiO2 
 PCOD8252350
Probable space group: P N M A
;
_chemical_formula_sum "Si O2"
_cell_formula_units_Z 64
_cell_length_a 12.032917
_cell_length_b 9.285682
_cell_length_c 28.881891
_cell_angle_alpha 90.000000
_cell_angle_beta 90.000000
_cell_angle_gamma 90.000000
_cell_volume 3227.084611
_symmetry_space_group_name_H-M "P N M A"
_symmetry_group_IT_number 62
_symmetry_cell_setting 'orthorhombic'
loop_
_space_group_symop_operation_xyz
x,y,z
1/2-x,-y,1/2+z
1/2+x,1/2-y,1/2-z
-x,1/2+y,-z
-x,-y,-z
1/2+x,y,1/2-z
1/2-x,1/2+y,1/2+z
x,1/2-y,z
loop_
_atom_site_type_symbol
_atom_site_label
_atom_site_fract_x
_atom_site_fract_y
_atom_site_fract_z
Si Si1 0.546610 0.088286 0.563578
Si Si2 0.237818 0.083490 0.158202
Si Si3 0.032727 0.081240 0.218924
Si Si4 0.702105 0.584712 0.433809
Si Si5 0.754941 0.582666 0.533849
Si Si6 0.133109 0.410416 0.837445
Si Si7 0.013953 0.584632 0.678636
Si Si8 0.358732 0.079321 0.885669
O O1 0.576155 0.250000 0.545680
O O2 0.422374 0.040992 0.550353
O O3 0.550668 0.086678 0.619103
O O4 0.630462 0.972693 0.542843
O O5 0.214200 0.250000 0.148811
O O6 0.140185 0.020618 0.191244
O O7 0.354393 0.059037 0.184075
O O8 0.245094 0.009439 0.108387
O O9 0.019978 0.250000 0.211852
O O10 0.045367 0.043256 0.273079
O O11 0.917645 0.012925 0.201423
O O12 0.703203 0.750000 0.417538
O O13 0.780253 0.561772 0.479022
O O14 0.761170 0.750000 0.547929
O O15 0.843807 0.492315 0.563730
O O16 0.142116 0.250000 0.816688
O O17 0.254534 0.464502 0.853441
O O18 0.988801 0.750000 0.665265
O O19 0.968948 0.481833 0.638136
O O20 0.367648 0.250000 0.892580
#
# Coordination Sequence:
#
# PCOD8252350 Si02
#       8
#     8   8   8   8   8   8   8   8
#     4   9  17  31  50  78 119 155 187 234 285 336
#     4  10  22  39  58  87 119 149 192 241 289 344
#     4  10  21  36  59  87 115 148 187 233 288 346
#     4  10  20  35  55  82 117 156 195 239 289 345
#     4  10  20  33  55  85 115 152 197 239 291 348
#     4   9  18  33  54  81 115 149 183 229 278 333
#     4  10  23  41  61  84 115 150 193 245 289 341
#     4  10  22  40  59  83 116 152 195 241 289 343
#
# _framework density 19.832142999999999
#
# number of rings (size 3 to 8) (size 9 to 14) (size 15 to 20)
#    0.000    2.250    1.250    1.875    1.750    5.000 
#    0.000    0.625    0.000    0.000    0.000    0.000 
#    0.000    0.000    0.000    0.000    0.000    0.000 
#
# Total GULP energy -793573.256096 kJ/mol
# GULP energy per Si atom -12399.582126 kJ/mol
# Density = 1.978700 g / cm^3
# Si number density = 19.832143 Si / 1000 Ang^3
#
#
#
# Elastic Constant Matrix: (Units=GPa)
#
#
# Indices 1 2 3 4 5 6 
#
# 1 52.9529 26.8187 29.7397 0.0000 0.0000 0.0000
# 2 26.8187 73.7682 45.8617 0.0000 0.0000 0.0000
# 3 29.7397 45.8617 97.4465 0.0000 0.0000 0.0000
# 4 0.0000 0.0000 0.0000 29.5860 0.0000 0.0000
# 5 0.0000 0.0000 0.0000 0.0000 21.8334 0.0000
# 6 0.0000 0.0000 0.0000 0.0000 0.0000 29.2789
#
#
#
# Elastic Compliance Matrix: (Units=1/GPa)
#
#
# Indices 1 2 3 4 5 6 
#
# 1 0.024554 -0.006033 -0.004654 0.000000 0.000000 0.000000
# 2 -0.006033 0.020645 -0.007875 0.000000 0.000000 0.000000
# 3 -0.004654 -0.007875 0.015389 0.000000 0.000000 0.000000
# 4 0.000000 0.000000 0.000000 0.033800 0.000000 0.000000
# 5 0.000000 0.000000 0.000000 0.000000 0.045801 0.000000
# 6 0.000000 0.000000 0.000000 0.000000 0.000000 0.034154
#
#
# Mechanical properties :
#
#
# Convention : Reuss Voigt Hill
#
# Bulk Modulus (GPa) = 42.62006 47.66755 45.14381
# Shear Modulus (GPa) = 22.80085 24.25617 23.52851
#
# Velocity S-wave (km/s) = 3.39439 3.50104 3.44813
# Velocity P-wave (km/s) = 6.07450 6.35852 6.21813
#
# Compressibility (1/GPa) = 0.02346313
#
# Stress axis : x y z
#
# Youngs Moduli (GPa) = 40.72611 48.43712 64.98241
#
# Poissons Ratio (x) = 0.29223 0.30245
# Poissons Ratio (y) = 0.24571 0.51174
# Poissons Ratio (z) = 0.18955 0.38145
#
# Static dielectric constant tensor:
#      x y z
#    x 3.420240 0.000000 0.000000 
#    y 0.000000 3.520880 0.000000 
#    z 0.000000 0.000000 3.572450 
# 
# 
# High freq. dielectric constant tensor:
#      x y z
#    x 1.755990 0.000000 0.000000 
#    y 0.000000 1.768840 0.000000 
#    z 0.000000 0.000000 1.771410 
# 
# From -- ./inp_files/32505.got.cif
#   From: 2010.03.12/outbox.cif.g09.slc.cpg/sg62_17_cif.got.tgz:32505.got - 2010.04.10 19:12:36.
