data_PCOD8252993
_publ_section_title
;
Structure prediction by ZEFSAII (Michael W. Deem and Ramdas Pophale) SiO2 
 PCOD8252993
Probable space group: P N M A
;
_chemical_formula_sum "Si O2"
_cell_formula_units_Z 64
_cell_length_a 11.889612
_cell_length_b 9.046522
_cell_length_c 30.370565
_cell_angle_alpha 90.000000
_cell_angle_beta 90.000000
_cell_angle_gamma 90.000000
_cell_volume 3266.646933
_symmetry_space_group_name_H-M "P N M A"
_symmetry_group_IT_number 62
_symmetry_cell_setting 'orthorhombic'
loop_
_space_group_symop_operation_xyz
x,y,z
1/2-x,-y,1/2+z
1/2+x,1/2-y,1/2-z
-x,1/2+y,-z
-x,-y,-z
1/2+x,y,1/2-z
1/2-x,1/2+y,1/2+z
x,1/2-y,z
loop_
_atom_site_type_symbol
_atom_site_label
_atom_site_fract_x
_atom_site_fract_y
_atom_site_fract_z
Si Si1 0.240549 0.425048 0.450315
Si Si2 0.500021 0.423406 0.172975
Si Si3 0.996392 0.423413 0.427034
Si Si4 0.226362 0.579464 0.301320
Si Si5 0.144715 0.077888 0.127551
Si Si6 0.787247 0.920175 0.298297
Si Si7 0.382624 0.077859 0.365698
Si Si8 0.762721 0.075177 0.461948
O O1 0.240250 0.250000 0.455898
O O2 0.115563 0.492513 0.441698
O O3 0.319905 0.473044 0.410155
O O4 0.288357 0.496978 0.495015
O O5 0.500804 0.250000 0.182463
O O6 0.466896 0.462572 0.123122
O O7 0.622644 0.484914 0.181864
O O8 0.407661 0.499682 0.203670
O O9 0.009025 0.250000 0.431849
O O10 0.892069 0.480722 0.456215
O O11 0.210906 0.750000 0.314391
O O12 0.232481 0.559758 0.249213
O O13 0.338108 0.516739 0.324583
O O14 0.172029 0.250000 0.134878
O O15 0.190572 0.025430 0.080241
O O16 0.013279 0.043482 0.128717
O O17 0.203916 0.989514 0.166308
O O18 0.807021 0.750000 0.310158
O O19 0.359663 0.250000 0.356302
O O20 0.756486 0.250000 0.468145
#
# Coordination Sequence:
#
# PCOD8252993 Si02
#       8
#     8   8   8   8   8   8   8   8
#     4  10  20  36  57  85 119 154 196 248 303 356
#     4  11  21  40  68  92 119 158 205 251 293 352
#     4   9  17  34  58  84 117 151 189 246 300 342
#     4  11  25  42  61  90 128 161 194 247 310 362
#     4  10  22  41  63  87 117 158 209 256 295 352
#     4  11  25  42  61  90 128 161 194 247 310 362
#     4  10  22  41  63  87 117 158 209 256 295 352
#     4  10  20  36  57  85 119 154 196 248 303 356
#
# _framework density 19.591954999999999
#
# number of rings (size 3 to 8) (size 9 to 14) (size 15 to 20)
#    0.000    1.750    2.500    1.500    1.750    4.000 
#    0.000    0.000    0.000    0.000    0.000    0.000 
#    0.000    0.000    0.000    0.000    0.000    0.000 
#
# Total GULP energy -793790.489376 kJ/mol
# GULP energy per Si atom -12402.976396 kJ/mol
# Density = 1.954736 g / cm^3
# Si number density = 19.591955 Si / 1000 Ang^3
#
#
#
# Elastic Constant Matrix: (Units=GPa)
#
#
# Indices 1 2 3 4 5 6 
#
# 1 102.4950 40.7803 38.3000 0.0000 0.0000 0.0000
# 2 40.7803 75.5811 54.3979 0.0000 0.0000 0.0000
# 3 38.3000 54.3979 79.4979 0.0000 0.0000 0.0000
# 4 0.0000 0.0000 0.0000 34.0092 0.0000 0.0000
# 5 0.0000 0.0000 0.0000 0.0000 28.5869 0.0000
# 6 0.0000 0.0000 0.0000 0.0000 0.0000 15.3513
#
#
#
# Elastic Compliance Matrix: (Units=1/GPa)
#
#
# Indices 1 2 3 4 5 6 
#
# 1 0.012738 -0.004839 -0.002825 0.000000 0.000000 0.000000
# 2 -0.004839 0.027908 -0.016765 0.000000 0.000000 0.000000
# 3 -0.002825 -0.016765 0.025412 0.000000 0.000000 0.000000
# 4 0.000000 0.000000 0.000000 0.029404 0.000000 0.000000
# 5 0.000000 0.000000 0.000000 0.000000 0.034981 0.000000
# 6 0.000000 0.000000 0.000000 0.000000 0.000000 0.065141
#
#
# Mechanical properties :
#
#
# Convention : Reuss Voigt Hill
#
# Bulk Modulus (GPa) = 58.14533 58.28114 58.21324
# Shear Modulus (GPa) = 19.98584 23.86255 21.92419
#
# Velocity S-wave (km/s) = 3.19737 3.49374 3.34884
# Velocity P-wave (km/s) = 6.58586 6.78874 6.68807
#
# Compressibility (1/GPa) = 0.01719828
#
# Stress axis : x y z
#
# Youngs Moduli (GPa) = 78.50667 35.83147 39.35119
#
# Poissons Ratio (x) = 0.17340 0.11118
# Poissons Ratio (y) = 0.37991 0.65974
# Poissons Ratio (z) = 0.22181 0.60073
#
# Static dielectric constant tensor:
#      x y z
#    x 3.739410 0.000000 0.000000 
#    y 0.000000 3.427970 0.000000 
#    z 0.000000 0.000000 3.170570 
# 
# 
# High freq. dielectric constant tensor:
#      x y z
#    x 1.771110 0.000000 0.000000 
#    y 0.000000 1.749050 0.000000 
#    z 0.000000 0.000000 1.772250 
# 
# From -- ./inp_files/32464.got.cif
#   From: 2010.03.12/outbox.cif.g09.slc.cpg/sg62_17_cif.got.tgz:32464.got - 2010.04.10 19:12:36.
