data_PCOD8252049
_publ_section_title
;
Structure prediction by ZEFSAII (Michael W. Deem and Ramdas Pophale) SiO2 
 PCOD8252049
Probable space group: P N M A
;
_chemical_formula_sum "Si O2"
_cell_formula_units_Z 64
_cell_length_a 9.281612
_cell_length_b 22.827911
_cell_length_c 15.280327
_cell_angle_alpha 90.000000
_cell_angle_beta 90.000000
_cell_angle_gamma 90.000000
_cell_volume 3237.592822
_symmetry_space_group_name_H-M "P N M A"
_symmetry_group_IT_number 62
_symmetry_cell_setting 'orthorhombic'
loop_
_space_group_symop_operation_xyz
x,y,z
1/2-x,-y,1/2+z
1/2+x,1/2-y,1/2-z
-x,1/2+y,-z
-x,-y,-z
1/2+x,y,1/2-z
1/2-x,1/2+y,1/2+z
x,1/2-y,z
loop_
_atom_site_type_symbol
_atom_site_label
_atom_site_fract_x
_atom_site_fract_y
_atom_site_fract_z
Si Si1 0.967678 0.985515 0.205220
Si Si2 0.465119 0.128748 0.487805
Si Si3 0.134001 0.181277 0.334823
Si Si4 0.215142 0.077094 0.932543
Si Si5 0.464417 0.916883 0.118613
Si Si6 0.682702 0.315318 0.967750
Si Si7 0.696486 0.521343 0.438481
Si Si8 0.425563 0.378925 0.292177
O O1 0.832822 0.963264 0.148236
O O2 0.982392 0.939781 0.283850
O O3 0.120535 0.979989 0.155948
O O4 0.937507 0.052382 0.233924
O O5 0.608186 0.132488 0.549918
O O6 0.355651 0.178237 0.522201
O O7 0.386048 0.065823 0.497327
O O8 0.502215 0.135816 0.385087
O O9 0.167108 0.250000 0.318453
O O10 0.110588 0.169575 0.438290
O O11 0.259874 0.139889 0.298219
O O12 0.992113 0.161049 0.283915
O O13 0.380244 0.094595 0.923835
O O14 0.189165 0.042750 0.022494
O O15 0.379502 0.855395 0.110417
O O16 0.365895 0.963266 0.066653
O O17 0.647319 0.250000 0.938251
#
# Coordination Sequence:
#
# PCOD8252049 Si02
#       8
#     8   8   8   8   8   8   8   8
#     4  11  22  36  56  89 126 162 194 241 303 364
#     4   9  18  36  61  82 109 160 198 239 285 355
#     4  10  23  39  58  83 119 158 205 250 294 352
#     4  11  20  37  58  86 127 156 196 238 301 358
#     4  11  24  33  59  91 124 152 198 258 301 352
#     4   9  21  44  62  79 111 163 206 247 306 362
#     4  10  19  37  55  82 128 163 189 227 302 361
#     4  11  21  35  59  84 118 158 200 241 298 356
#
# _framework density 19.767772999999998
#
# number of rings (size 3 to 8) (size 9 to 14) (size 15 to 20)
#    0.000    1.750    2.500    2.250    3.500    2.500 
#    0.000    0.625    0.000   12.000    0.000    0.000 
#    0.000    0.000    0.000    0.000    0.000    0.000 
#
# Total GULP energy -793408.821814 kJ/mol
# GULP energy per Si atom -12397.012841 kJ/mol
# Density = 1.972278 g / cm^3
# Si number density = 19.767773 Si / 1000 Ang^3
#
#
#
# Elastic Constant Matrix: (Units=GPa)
#
#
# Indices 1 2 3 4 5 6 
#
# 1 98.1950 15.3516 33.7075 0.0000 0.0000 0.0000
# 2 15.3516 83.4867 47.0760 0.0000 0.0000 0.0000
# 3 33.7075 47.0760 86.1672 0.0000 0.0000 0.0000
# 4 0.0000 0.0000 0.0000 22.0088 0.0000 0.0000
# 5 0.0000 0.0000 0.0000 0.0000 26.1000 0.0000
# 6 0.0000 0.0000 0.0000 0.0000 0.0000 18.4052
#
#
#
# Elastic Compliance Matrix: (Units=1/GPa)
#
#
# Indices 1 2 3 4 5 6 
#
# 1 0.011786 0.000625 -0.004952 0.000000 0.000000 0.000000
# 2 0.000625 0.017344 -0.009720 0.000000 0.000000 0.000000
# 3 -0.004952 -0.009720 0.018853 0.000000 0.000000 0.000000
# 4 0.000000 0.000000 0.000000 0.045436 0.000000 0.000000
# 5 0.000000 0.000000 0.000000 0.000000 0.038314 0.000000
# 6 0.000000 0.000000 0.000000 0.000000 0.000000 0.054333
#
#
# Mechanical properties :
#
#
# Convention : Reuss Voigt Hill
#
# Bulk Modulus (GPa) = 50.27961 51.12435 50.70198
# Shear Modulus (GPa) = 22.64599 24.75037 23.69818
#
# Velocity S-wave (km/s) = 3.38835 3.54228 3.46617
# Velocity P-wave (km/s) = 6.38735 6.53062 6.45938
#
# Compressibility (1/GPa) = 0.01988878
#
# Stress axis : x y z
#
# Youngs Moduli (GPa) = 84.84650 57.65714 53.04218
#
# Poissons Ratio (x) = -0.03604 0.26267
# Poissons Ratio (y) = -0.05304 0.51557
# Poissons Ratio (z) = 0.42016 0.56043
#
# Static dielectric constant tensor:
#      x y z
#    x 3.671000 0.000000 0.000000 
#    y 0.000000 3.432120 0.000000 
#    z 0.000000 0.000000 3.510900 
# 
# 
# High freq. dielectric constant tensor:
#      x y z
#    x 1.774200 0.000000 0.000000 
#    y 0.000000 1.749240 0.000000 
#    z 0.000000 0.000000 1.761720 
# 
# From -- ./inp_files/17365.got.cif
#   From: 2010.03.12/outbox.cif.g09.slc.cpg/sg62_9_cif.got.tgz:17365.got - 2010.04.10 19:12:36.
