data_PCOD8252899
_publ_section_title
;
Structure prediction by ZEFSAII (Michael W. Deem and Ramdas Pophale) SiO2 
 PCOD8252899
Probable space group: P N M A
;
_chemical_formula_sum "Si O2"
_cell_formula_units_Z 64
_cell_length_a 15.423639
_cell_length_b 9.119551
_cell_length_c 23.915039
_cell_angle_alpha 90.000000
_cell_angle_beta 90.000000
_cell_angle_gamma 90.000000
_cell_volume 3363.809568
_symmetry_space_group_name_H-M "P N M A"
_symmetry_group_IT_number 62
_symmetry_cell_setting 'orthorhombic'
loop_
_space_group_symop_operation_xyz
x,y,z
1/2-x,-y,1/2+z
1/2+x,1/2-y,1/2-z
-x,1/2+y,-z
-x,-y,-z
1/2+x,y,1/2-z
1/2-x,1/2+y,1/2+z
x,1/2-y,z
loop_
_atom_site_type_symbol
_atom_site_label
_atom_site_fract_x
_atom_site_fract_y
_atom_site_fract_z
Si Si1 0.339428 0.583617 0.367511
Si Si2 0.755012 0.576103 0.818856
Si Si3 0.246459 0.924551 0.552889
Si Si4 0.088960 0.417105 0.492888
Si Si5 0.328524 0.915644 0.876032
Si Si6 0.407637 0.923582 0.759597
Si Si7 0.899967 0.424375 0.241241
Si Si8 0.086106 0.415974 0.985850
O O1 0.331811 0.750000 0.345765
O O2 0.247516 0.528114 0.390097
O O3 0.370404 0.477955 0.318960
O O4 0.404316 0.572831 0.419363
O O5 0.756588 0.750000 0.815488
O O6 0.756590 0.523765 0.882871
O O7 0.840281 0.513822 0.786759
O O8 0.667470 0.518260 0.788345
O O9 0.234172 0.750000 0.547598
O O10 0.330850 0.980475 0.518973
O O11 0.162833 0.002328 0.527904
O O12 0.081886 0.250000 0.514366
O O13 0.105361 0.420182 0.426890
O O14 0.000000 0.500000 0.500000
O O15 0.292500 0.750000 0.867038
O O16 0.376443 0.972018 0.820629
O O17 0.412600 0.750000 0.754535
O O18 0.504018 0.989545 0.751784
O O19 0.900993 0.250000 0.240668
O O20 0.074032 0.250000 0.005898
O O21 0.000000 0.500000 0.000000
#
# Coordination Sequence:
#
# PCOD8252899 Si02
#       8
#     8   8   8   8   8   8   8   8
#     4  11  22  38  58  84 118 152 187 237 296 347
#     4   9  18  33  56  84 113 146 188 236 281 330
#     4  10  21  39  60  84 118 155 193 241 294 345
#     4  11  24  39  61  89 117 155 195 239 291 347
#     4  10  20  38  63  85 108 147 200 245 280 333
#     4   9  18  33  57  88 110 136 191 245 278 320
#     4  10  20  35  60  86 111 147 191 238 280 334
#     4  10  23  39  58  84 115 154 195 239 291 347
#
# _framework density 19.026046999999998
#
# number of rings (size 3 to 8) (size 9 to 14) (size 15 to 20)
#    0.000    2.000    2.500    0.750    3.500    2.000 
#    0.000    1.250    0.000    0.000    0.000    0.000 
#    0.000    0.000    0.000    0.000    0.000    0.000 
#
# Total GULP energy -793604.514487 kJ/mol
# GULP energy per Si atom -12400.070539 kJ/mol
# Density = 1.898274 g / cm^3
# Si number density = 19.026047 Si / 1000 Ang^3
#
#
#
# Elastic Constant Matrix: (Units=GPa)
#
#
# Indices 1 2 3 4 5 6 
#
# 1 153.1774 40.1950 49.6240 0.0000 0.0000 0.0000
# 2 40.1950 41.5174 25.5197 0.0000 0.0000 0.0000
# 3 49.6240 25.5197 120.4525 0.0000 0.0000 0.0000
# 4 0.0000 0.0000 0.0000 22.3224 0.0000 0.0000
# 5 0.0000 0.0000 0.0000 0.0000 28.7216 0.0000
# 6 0.0000 0.0000 0.0000 0.0000 0.0000 27.1133
#
#
#
# Elastic Compliance Matrix: (Units=1/GPa)
#
#
# Indices 1 2 3 4 5 6 
#
# 1 0.009231 -0.007587 -0.002195 0.000000 0.000000 0.000000
# 2 -0.007587 0.033929 -0.004063 0.000000 0.000000 0.000000
# 3 -0.002195 -0.004063 0.010067 0.000000 0.000000 0.000000
# 4 0.000000 0.000000 0.000000 0.044798 0.000000 0.000000
# 5 0.000000 0.000000 0.000000 0.000000 0.034817 0.000000
# 6 0.000000 0.000000 0.000000 0.000000 0.000000 0.036882
#
#
# Mechanical properties :
#
#
# Convention : Reuss Voigt Hill
#
# Bulk Modulus (GPa) = 39.15962 60.64719 49.90341
# Shear Modulus (GPa) = 24.28053 28.95202 26.61628
#
# Velocity S-wave (km/s) = 3.57623 3.90514 3.74430
# Velocity P-wave (km/s) = 6.13835 7.23039 6.70663
#
# Compressibility (1/GPa) = 0.02553651
#
# Stress axis : x y z
#
# Youngs Moduli (GPa) = 108.33647 29.47337 99.33250
#
# Poissons Ratio (x) = 0.22362 0.21807
# Poissons Ratio (y) = 0.82196 0.40355
# Poissons Ratio (z) = 0.23784 0.11974
#
# Static dielectric constant tensor:
#      x y z
#    x 4.109300 0.000000 0.000000 
#    y 0.000000 3.239410 0.000000 
#    z 0.000000 0.000000 3.704160 
# 
# 
# High freq. dielectric constant tensor:
#      x y z
#    x 1.749470 0.000000 0.000000 
#    y 0.000000 1.707210 0.000000 
#    z 0.000000 0.000000 1.752210 
# 
# From -- ./inp_files/29800.got.cif
#   From: 2010.03.12/outbox.cif.g09.slc.cpg/sg62_15_cif.got.tgz:29800.got - 2010.04.10 19:12:36.
