data_PCOD8252779
_publ_section_title
;
Structure prediction by ZEFSAII (Michael W. Deem and Ramdas Pophale) SiO2 
 PCOD8252779
Probable space group: P N M A
;
_chemical_formula_sum "Si O2"
_cell_formula_units_Z 64
_cell_length_a 23.815723
_cell_length_b 14.469942
_cell_length_c 9.410711
_cell_angle_alpha 90.000000
_cell_angle_beta 90.000000
_cell_angle_gamma 90.000000
_cell_volume 3243.045167
_symmetry_space_group_name_H-M "P N M A"
_symmetry_group_IT_number 62
_symmetry_cell_setting 'orthorhombic'
loop_
_space_group_symop_operation_xyz
x,y,z
1/2-x,-y,1/2+z
1/2+x,1/2-y,1/2-z
-x,1/2+y,-z
-x,-y,-z
1/2+x,y,1/2-z
1/2-x,1/2+y,1/2+z
x,1/2-y,z
loop_
_atom_site_type_symbol
_atom_site_label
_atom_site_fract_x
_atom_site_fract_y
_atom_site_fract_z
Si Si1 0.399996 0.033284 0.005114
Si Si2 0.802350 0.853800 0.132812
Si Si3 0.628859 0.856887 0.430233
Si Si4 0.592606 0.355371 0.823907
Si Si5 0.272645 0.647918 0.689889
Si Si6 0.533706 0.854911 0.215373
Si Si7 0.196123 0.962940 0.294317
Si Si8 0.856591 0.356049 0.252318
O O1 0.400641 0.086604 0.154126
O O2 0.403242 0.923704 0.039478
O O3 0.450480 0.069891 0.905833
O O4 0.342325 0.062895 0.927291
O O5 0.784868 0.750000 0.178362
O O6 0.862532 0.879854 0.200640
O O7 0.758878 0.926798 0.193282
O O8 0.801597 0.860651 0.963402
O O9 0.646835 0.750000 0.417137
O O10 0.567318 0.873779 0.361870
O O11 0.673776 0.919190 0.350173
O O12 0.632659 0.890297 0.592153
O O13 0.600998 0.250000 0.879200
O O14 0.531825 0.366763 0.750786
O O15 0.283153 0.750000 0.753609
O O16 0.303553 0.574020 0.788463
O O17 0.206288 0.626817 0.690469
O O18 0.547052 0.750000 0.161686
O O19 0.873514 0.250000 0.266715
#
# Coordination Sequence:
#
# PCOD8252779 Si02
#       8
#     8   8   8   8   8   8   8   8
#     4  11  21  35  60  87 116 150 192 242 290 343
#     4  10  21  37  57  84 115 154 193 231 289 350
#     4   9  20  36  59  87 114 144 191 244 292 341
#     4  10  22  38  60  84 117 157 197 238 283 348
#     4  10  22  36  53  80 119 154 187 231 289 353
#     4   9  19  39  62  86 115 151 193 240 293 345
#     4  11  22  34  58  84 116 150 190 236 290 343
#     4  10  20  35  56  86 115 144 184 240 294 341
#
# _framework density 19.734539000000002
#
# number of rings (size 3 to 8) (size 9 to 14) (size 15 to 20)
#    0.000    2.000    1.250    1.875    3.500    1.500 
#    0.000    3.125    2.750    0.000    0.000    0.000 
#    0.000    0.000    0.000    0.000    0.000    0.000 
#
# Total GULP energy -793453.829486 kJ/mol
# GULP energy per Si atom -12397.716086 kJ/mol
# Density = 1.968962 g / cm^3
# Si number density = 19.734539 Si / 1000 Ang^3
#
#
#
# Elastic Constant Matrix: (Units=GPa)
#
#
# Indices 1 2 3 4 5 6 
#
# 1 81.2519 27.3935 26.8417 0.0000 0.0000 0.0000
# 2 27.3935 89.4264 37.0203 0.0000 0.0000 0.0000
# 3 26.8417 37.0203 90.9119 0.0000 0.0000 0.0000
# 4 0.0000 0.0000 0.0000 29.9074 0.0000 0.0000
# 5 0.0000 0.0000 0.0000 0.0000 20.0150 0.0000
# 6 0.0000 0.0000 0.0000 0.0000 0.0000 19.9044
#
#
#
# Elastic Compliance Matrix: (Units=1/GPa)
#
#
# Indices 1 2 3 4 5 6 
#
# 1 0.014351 -0.003178 -0.002943 0.000000 0.000000 0.000000
# 2 -0.003178 0.014153 -0.004825 0.000000 0.000000 0.000000
# 3 -0.002943 -0.004825 0.013833 0.000000 0.000000 0.000000
# 4 0.000000 0.000000 0.000000 0.033437 0.000000 0.000000
# 5 0.000000 0.000000 0.000000 0.000000 0.049963 0.000000
# 6 0.000000 0.000000 0.000000 0.000000 0.000000 0.050240
#
#
# Mechanical properties :
#
#
# Convention : Reuss Voigt Hill
#
# Bulk Modulus (GPa) = 48.90980 49.34458 49.12719
# Shear Modulus (GPa) = 24.42788 25.32101 24.87444
#
# Velocity S-wave (km/s) = 3.52209 3.58590 3.55414
# Velocity P-wave (km/s) = 6.43256 6.49641 6.46456
#
# Compressibility (1/GPa) = 0.02044580
#
# Stress axis : x y z
#
# Youngs Moduli (GPa) = 69.68148 70.65505 72.28839
#
# Poissons Ratio (x) = 0.22452 0.21276
# Poissons Ratio (y) = 0.22143 0.34880
# Poissons Ratio (z) = 0.20508 0.34092
#
# Static dielectric constant tensor:
#      x y z
#    x 3.443710 0.000000 0.000000 
#    y 0.000000 3.808760 0.000000 
#    z 0.000000 0.000000 3.459890 
# 
# 
# High freq. dielectric constant tensor:
#      x y z
#    x 1.755300 0.000000 0.000000 
#    y 0.000000 1.783120 0.000000 
#    z 0.000000 0.000000 1.757400 
# 
# From -- ./inp_files/9475.got.cif
#   From: 2010.03.12/outbox.cif.g09.slc.cpg/sg62_5_cif.got.tgz:9475.got - 2010.04.10 19:12:36.
