data_PCOD8252576
_publ_section_title
;
Structure prediction by ZEFSAII (Michael W. Deem and Ramdas Pophale) SiO2 
 PCOD8252576
Probable space group: P N M A
;
_chemical_formula_sum "Si O2"
_cell_formula_units_Z 64
_cell_length_a 16.394962
_cell_length_b 8.585797
_cell_length_c 22.613424
_cell_angle_alpha 90.000000
_cell_angle_beta 90.000000
_cell_angle_gamma 90.000000
_cell_volume 3183.151845
_symmetry_space_group_name_H-M "P N M A"
_symmetry_group_IT_number 62
_symmetry_cell_setting 'orthorhombic'
loop_
_space_group_symop_operation_xyz
x,y,z
1/2-x,-y,1/2+z
1/2+x,1/2-y,1/2-z
-x,1/2+y,-z
-x,-y,-z
1/2+x,y,1/2-z
1/2-x,1/2+y,1/2+z
x,1/2-y,z
loop_
_atom_site_type_symbol
_atom_site_label
_atom_site_fract_x
_atom_site_fract_y
_atom_site_fract_z
Si Si1 0.621836 0.433467 0.230016
Si Si2 0.574840 0.936459 0.960630
Si Si3 0.754787 0.430932 0.514009
Si Si4 0.544013 0.930105 0.830166
Si Si5 0.751590 0.072705 0.137628
Si Si6 0.430683 0.428402 0.656141
Si Si7 0.418868 0.568077 0.530366
Si Si8 0.414415 0.073057 0.293860
O O1 0.620326 0.250000 0.241738
O O2 0.542460 0.490982 0.194182
O O3 0.697587 0.486837 0.191435
O O4 0.632288 0.519406 0.292918
O O5 0.572115 0.750000 0.964051
O O6 0.566982 0.005756 0.893468
O O7 0.663568 0.999582 0.982756
O O8 0.500000 0.000000 0.000000
O O9 0.751440 0.250000 0.499763
O O10 0.764031 0.460012 0.583313
O O11 0.667485 0.504706 0.493342
O O12 0.538030 0.750000 0.845169
O O13 0.607745 0.963173 0.775658
O O14 0.730111 0.250000 0.119292
O O15 0.842334 0.057759 0.160538
O O16 0.416896 0.250000 0.637959
O O17 0.419927 0.537218 0.599744
O O18 0.520239 0.450943 0.682862
O O19 0.500000 0.500000 0.500000
O O20 0.421034 0.750000 0.517034
O O21 0.450366 0.250000 0.295169
#
# Coordination Sequence:
#
# PCOD8252576 Si02
#       8
#     8   8   8   8   8   8   8   8
#     4   9  18  34  55  80 107 139 178 225 274 325
#     4  10  20  36  57  82 111 146 182 222 272 329
#     4  10  23  38  55  82 116 149 184 229 283 336
#     4   8  15  30  52  74 101 135 175 216 260 315
#     4  10  20  34  57  83 107 139 182 227 275 329
#     4  11  22  36  55  81 111 146 184 226 278 335
#     4  11  23  40  60  83 114 154 194 237 284 335
#     4   9  18  34  56  81 105 136 179 230 279 330
#
# _framework density 20.105858000000001
#
# number of rings (size 3 to 8) (size 9 to 14) (size 15 to 20)
#    0.000    2.250    0.000    3.750    0.000    6.500 
#    0.000    7.500    0.000    0.000    0.000    0.000 
#    0.000    0.000    0.000    0.000    0.000    0.000 
#
# Total GULP energy -793077.286144 kJ/mol
# GULP energy per Si atom -12391.832596 kJ/mol
# Density = 2.006010 g / cm^3
# Si number density = 20.105858 Si / 1000 Ang^3
#
#
#
# Elastic Constant Matrix: (Units=GPa)
#
#
# Indices 1 2 3 4 5 6 
#
# 1 98.7094 20.3513 34.9169 0.0000 0.0000 0.0000
# 2 20.3513 33.7922 14.3855 0.0000 0.0000 0.0000
# 3 34.9169 14.3855 106.5486 0.0000 0.0000 0.0000
# 4 0.0000 0.0000 0.0000 28.7206 0.0000 0.0000
# 5 0.0000 0.0000 0.0000 0.0000 31.4883 0.0000
# 6 0.0000 0.0000 0.0000 0.0000 0.0000 22.7821
#
#
#
# Elastic Compliance Matrix: (Units=1/GPa)
#
#
# Indices 1 2 3 4 5 6 
#
# 1 0.012564 -0.006169 -0.003285 0.000000 0.000000 0.000000
# 2 -0.006169 0.034426 -0.002626 0.000000 0.000000 0.000000
# 3 -0.003285 -0.002626 0.010816 0.000000 0.000000 0.000000
# 4 0.000000 0.000000 0.000000 0.034818 0.000000 0.000000
# 5 0.000000 0.000000 0.000000 0.000000 0.031758 0.000000
# 6 0.000000 0.000000 0.000000 0.000000 0.000000 0.043894
#
#
# Mechanical properties :
#
#
# Convention : Reuss Voigt Hill
#
# Bulk Modulus (GPa) = 29.72014 42.03973 35.87994
# Shear Modulus (GPa) = 24.55169 27.89128 26.22148
#
# Velocity S-wave (km/s) = 3.49825 3.72858 3.61525
# Velocity P-wave (km/s) = 5.57951 6.28419 5.94230
#
# Compressibility (1/GPa) = 0.03364721
#
# Stress axis : x y z
#
# Youngs Moduli (GPa) = 79.58965 29.04801 92.45218
#
# Poissons Ratio (x) = 0.17919 0.30367
# Poissons Ratio (y) = 0.49096 0.24282
# Poissons Ratio (z) = 0.26142 0.07629
#
# Static dielectric constant tensor:
#      x y z
#    x 3.831740 0.000000 0.000000 
#    y 0.000000 3.343270 0.000000 
#    z 0.000000 0.000000 3.904250 
# 
# 
# High freq. dielectric constant tensor:
#      x y z
#    x 1.782400 0.000000 0.000000 
#    y 0.000000 1.751490 0.000000 
#    z 0.000000 0.000000 1.803010 
# 
# From -- ./inp_files/27669.got.cif
#   From: 2010.03.12/outbox.cif.g09.slc.cpg/sg62_14_cif.got.tgz:27669.got - 2010.04.10 19:12:36.
