data_PCOD8252174
_publ_section_title
;
Structure prediction by ZEFSAII (Michael W. Deem and Ramdas Pophale) SiO2 
 PCOD8252174
Probable space group: P N M A
;
_chemical_formula_sum "Si O2"
_cell_formula_units_Z 44
_cell_length_a 5.023725
_cell_length_b 21.597492
_cell_length_c 25.182024
_cell_angle_alpha 90.000000
_cell_angle_beta 90.000000
_cell_angle_gamma 90.000000
_cell_volume 2732.246091
_symmetry_space_group_name_H-M "P N M A"
_symmetry_group_IT_number 62
_symmetry_cell_setting 'orthorhombic'
loop_
_space_group_symop_operation_xyz
x,y,z
1/2-x,-y,1/2+z
1/2+x,1/2-y,1/2-z
-x,1/2+y,-z
-x,-y,-z
1/2+x,y,1/2-z
1/2-x,1/2+y,1/2+z
x,1/2-y,z
loop_
_atom_site_type_symbol
_atom_site_label
_atom_site_fract_x
_atom_site_fract_y
_atom_site_fract_z
Si Si1 0.275985 0.750000 0.516926
Si Si2 0.215205 0.418235 0.906669
Si Si3 0.646269 0.114955 0.472482
Si Si4 0.770880 0.750000 0.452087
Si Si5 0.216539 0.250000 0.715074
Si Si6 0.294024 0.854207 0.130353
Si Si7 0.382511 0.960233 0.952108
O O1 0.355825 0.686540 0.547551
O O2 0.457515 0.750000 0.464177
O O3 0.962236 0.750000 0.503571
O O4 0.427684 0.389831 0.865539
O O5 0.268926 0.492354 0.908245
O O6 0.932238 0.405338 0.879611
O O7 0.236598 0.388853 0.965746
O O8 0.355917 0.084883 0.469258
O O9 0.863449 0.080983 0.434309
O O10 0.830843 0.688430 0.420507
O O11 0.414156 0.250000 0.764810
O O12 0.267598 0.187720 0.681498
O O13 0.500000 0.000000 0.000000
#
# Coordination Sequence:
#
# PCOD8252174 Si02
#       7
#     4   8   8   4   4   8   8
#     4  12  20  27  44  55  88 106 154 182 222 263
#     4  11  18  31  45  66  81 108 148 193 220 279
#     4  11  19  30  41  62  86 118 141 188 236 264
#     4  11  18  30  38  63  80 104 136 204 214 255
#     4  11  24  39  50  68  96 118 140 192 254 296
#     4  11  20  31  51  64  81 110 151 183 236 273
#     4  10  20  30  42  58  89 114 139 180 243 274
#
# _framework density 16.103966
#
# number of rings (size 3 to 8) (size 9 to 14) (size 15 to 20)
#    0.000    1.091    3.636    7.636    0.000    2.909 
#    0.000    0.000    0.000    0.000    0.000    0.000 
#    0.000    0.000    0.000    0.000    0.000    0.000 
#
# Total GULP energy -545280.452278 kJ/mol
# GULP energy per Si atom -12392.737552 kJ/mol
# Density = 1.606731 g / cm^3
# Si number density = 16.103966 Si / 1000 Ang^3
#
#
#
# Elastic Constant Matrix: (Units=GPa)
#
#
# Indices 1 2 3 4 5 6 
#
# 1 105.4123 37.1291 6.9562 0.0000 0.0000 0.0000
# 2 37.1291 118.8056 13.3739 0.0000 0.0000 0.0000
# 3 6.9562 13.3739 22.6453 0.0000 0.0000 0.0000
# 4 0.0000 0.0000 0.0000 19.1661 0.0000 0.0000
# 5 0.0000 0.0000 0.0000 0.0000 19.3538 0.0000
# 6 0.0000 0.0000 0.0000 0.0000 0.0000 35.3039
#
#
#
# Elastic Compliance Matrix: (Units=1/GPa)
#
#
# Indices 1 2 3 4 5 6 
#
# 1 0.010702 -0.003186 -0.001406 0.000000 0.000000 0.000000
# 2 -0.003186 0.009965 -0.004906 0.000000 0.000000 0.000000
# 3 -0.001406 -0.004906 0.047489 0.000000 0.000000 0.000000
# 4 0.000000 0.000000 0.000000 0.052175 0.000000 0.000000
# 5 0.000000 0.000000 0.000000 0.000000 0.051669 0.000000
# 6 0.000000 0.000000 0.000000 0.000000 0.000000 0.028325
#
#
# Mechanical properties :
#
#
# Convention : Reuss Voigt Hill
#
# Bulk Modulus (GPa) = 20.34224 40.19795 30.27009
# Shear Modulus (GPa) = 21.21264 27.39171 24.30217
#
# Velocity S-wave (km/s) = 3.63330 4.12871 3.88890
# Velocity P-wave (km/s) = 5.50095 6.90970 6.24518
#
# Compressibility (1/GPa) = 0.04915880
#
# Stress axis : x y z
#
# Youngs Moduli (GPa) = 93.44399 100.34927 21.05767
#
# Poissons Ratio (x) = 0.31974 0.02960
# Poissons Ratio (y) = 0.29773 0.10332
# Poissons Ratio (z) = 0.13134 0.49236
#
# Static dielectric constant tensor:
#      x y z
#    x 3.323880 0.000000 0.000000 
#    y 0.000000 3.579670 0.000000 
#    z 0.000000 0.000000 2.443820 
# 
# 
# High freq. dielectric constant tensor:
#      x y z
#    x 1.650490 0.000000 0.000000 
#    y 0.000000 1.633190 0.000000 
#    z 0.000000 0.000000 1.518630 
# 
# From -- ./inp_files/25292.got.cif
#   From: 2010.03.12/outbox.cif.g09.slc.cpg/sg62_13_cif.got.tgz:25292.got - 2010.04.10 19:12:36.
