data_PCOD8252337
_publ_section_title
;
Structure prediction by ZEFSAII (Michael W. Deem and Ramdas Pophale) SiO2 
 PCOD8252337
Probable space group: P N M A
;
_chemical_formula_sum "Si O2"
_cell_formula_units_Z 56
_cell_length_a 21.231049
_cell_length_b 8.708257
_cell_length_c 15.094091
_cell_angle_alpha 90.000000
_cell_angle_beta 90.000000
_cell_angle_gamma 90.000000
_cell_volume 2790.677521
_symmetry_space_group_name_H-M "P N M A"
_symmetry_group_IT_number 62
_symmetry_cell_setting 'orthorhombic'
loop_
_space_group_symop_operation_xyz
x,y,z
1/2-x,-y,1/2+z
1/2+x,1/2-y,1/2-z
-x,1/2+y,-z
-x,-y,-z
1/2+x,y,1/2-z
1/2-x,1/2+y,1/2+z
x,1/2-y,z
loop_
_atom_site_type_symbol
_atom_site_label
_atom_site_fract_x
_atom_site_fract_y
_atom_site_fract_z
Si Si1 0.097030 0.576117 0.034649
Si Si2 0.218304 0.072898 0.096306
Si Si3 0.393384 0.570333 0.212470
Si Si4 0.932092 0.567519 0.479187
Si Si5 0.312943 0.068405 0.943190
Si Si6 0.759013 0.930526 0.229670
Si Si7 0.528762 0.074691 0.622691
O O1 0.122840 0.750000 0.033785
O O2 0.153025 0.456538 0.046516
O O3 0.046294 0.553646 0.113652
O O4 0.064118 0.542249 0.941513
O O5 0.223744 0.250000 0.122240
O O6 0.217782 0.971233 0.184629
O O7 0.274795 0.023406 0.031564
O O8 0.382235 0.750000 0.200515
O O9 0.409887 0.501085 0.116460
O O10 0.329149 0.499024 0.254581
O O11 0.451780 0.533972 0.277153
O O12 0.936547 0.750000 0.480085
O O13 0.881360 0.511238 0.552033
O O14 0.000000 0.500000 0.500000
O O15 0.322334 0.250000 0.934500
O O16 0.274471 0.002061 0.858354
O O17 0.763370 0.750000 0.217280
O O18 0.548219 0.250000 0.598826
#
# Coordination Sequence:
#
# PCOD8252337 Si02
#       7
#     8   8   8   8   8   8   8
#     4  10  20  33  53  84 118 152 190 236 292 351
#     4  11  22  37  58  84 117 153 191 242 296 351
#     4   9  18  36  61  84 110 153 200 242 293 355
#     4  11  23  40  63  88 120 158 202 251 303 363
#     4  10  22  40  62  87 119 157 200 251 308 362
#     4  10  20  37  61  86 112 150 199 247 299 361
#     4   9  18  35  57  80 110 150 195 238 286 345
#
# _framework density 20.066811999999999
#
# number of rings (size 3 to 8) (size 9 to 14) (size 15 to 20)
#    0.000    2.000    1.429    2.143    0.000    5.143 
#    0.000    6.429    0.000    0.000    0.000    0.000 
#    0.000    0.000    0.000    0.000    0.000    0.000 
#
# Total GULP energy -694445.029173 kJ/mol
# GULP energy per Si atom -12400.804092 kJ/mol
# Density = 2.002114 g / cm^3
# Si number density = 20.066812 Si / 1000 Ang^3
#
#
#
# Elastic Constant Matrix: (Units=GPa)
#
#
# Indices 1 2 3 4 5 6 
#
# 1 138.4841 35.0043 55.0113 0.0000 0.0000 0.0000
# 2 35.0043 36.5007 27.4523 0.0000 0.0000 0.0000
# 3 55.0113 27.4523 114.2441 0.0000 0.0000 0.0000
# 4 0.0000 0.0000 0.0000 24.9446 0.0000 0.0000
# 5 0.0000 0.0000 0.0000 0.0000 35.3684 0.0000
# 6 0.0000 0.0000 0.0000 0.0000 0.0000 29.7847
#
#
#
# Elastic Compliance Matrix: (Units=1/GPa)
#
#
# Indices 1 2 3 4 5 6 
#
# 1 0.010403 -0.007579 -0.003188 0.000000 0.000000 0.000000
# 2 -0.007579 0.038961 -0.005713 0.000000 0.000000 0.000000
# 3 -0.003188 -0.005713 0.011661 0.000000 0.000000 0.000000
# 4 0.000000 0.000000 0.000000 0.040089 0.000000 0.000000
# 5 0.000000 0.000000 0.000000 0.000000 0.028274 0.000000
# 6 0.000000 0.000000 0.000000 0.000000 0.000000 0.033574
#
#
# Mechanical properties :
#
#
# Convention : Reuss Voigt Hill
#
# Bulk Modulus (GPa) = 35.63029 58.24053 46.93541
# Shear Modulus (GPa) = 24.35720 29.47027 26.91373
#
# Velocity S-wave (km/s) = 3.48775 3.83640 3.66622
# Velocity P-wave (km/s) = 5.83212 6.97927 6.43132
#
# Compressibility (1/GPa) = 0.02806601
#
# Stress axis : x y z
#
# Youngs Moduli (GPa) = 96.12394 25.66637 85.75460
#
# Poissons Ratio (x) = 0.19452 0.27341
# Poissons Ratio (y) = 0.72851 0.48990
# Poissons Ratio (z) = 0.30647 0.14663
#
# Static dielectric constant tensor:
#      x y z
#    x 3.730640 0.000000 0.000000 
#    y 0.000000 3.357150 0.000000 
#    z 0.000000 0.000000 3.700510 
# 
# 
# High freq. dielectric constant tensor:
#      x y z
#    x 1.789750 0.000000 0.000000 
#    y 0.000000 1.761530 0.000000 
#    z 0.000000 0.000000 1.782010 
# 
# From -- ./inp_files/20367.got.cif
#   From: 2010.03.12/outbox.cif.g09.slc.cpg/sg62_11_cif.got.tgz:20367.got - 2010.04.10 19:12:36.
