data_PCOD8252953
_publ_section_title
;
Structure prediction by ZEFSAII (Michael W. Deem and Ramdas Pophale) SiO2 
 PCOD8252953
Probable space group: P N M A
;
_chemical_formula_sum "Si O2"
_cell_formula_units_Z 56
_cell_length_a 12.763006
_cell_length_b 11.553953
_cell_length_c 18.774024
_cell_angle_alpha 90.000000
_cell_angle_beta 90.000000
_cell_angle_gamma 90.000000
_cell_volume 2768.477120
_symmetry_space_group_name_H-M "P N M A"
_symmetry_group_IT_number 62
_symmetry_cell_setting 'orthorhombic'
loop_
_space_group_symop_operation_xyz
x,y,z
1/2-x,-y,1/2+z
1/2+x,1/2-y,1/2-z
-x,1/2+y,-z
-x,-y,-z
1/2+x,y,1/2-z
1/2-x,1/2+y,1/2+z
x,1/2-y,z
loop_
_atom_site_type_symbol
_atom_site_label
_atom_site_fract_x
_atom_site_fract_y
_atom_site_fract_z
Si Si1 0.671408 0.881898 0.382676
Si Si2 0.776155 0.001362 0.028999
Si Si3 0.448275 0.123189 0.163944
Si Si4 0.575280 0.884411 0.991936
Si Si5 0.813330 0.620988 0.655732
Si Si6 0.935803 0.878940 0.122819
Si Si7 0.309375 0.543642 0.246904
O O1 0.669684 0.750000 0.408165
O O2 0.712693 0.958128 0.448016
O O3 0.554045 0.924351 0.361142
O O4 0.750458 0.888251 0.315673
O O5 0.746981 0.107251 0.081001
O O6 0.682005 0.906993 0.036094
O O7 0.885193 0.951063 0.058360
O O8 0.439507 0.250000 0.199842
O O9 0.566175 0.092752 0.142366
O O10 0.405690 0.030326 0.218125
O O11 0.386441 0.119975 0.089616
O O12 0.532091 0.750000 0.011549
O O13 0.500000 0.000000 0.000000
O O14 0.795093 0.750000 0.683662
O O15 0.776164 0.537693 0.717817
O O16 0.943784 0.750000 0.093719
O O17 0.863234 0.876352 0.193531
#
# Coordination Sequence:
#
# PCOD8252953 Si02
#       7
#     8   8   8   8   8   8   8
#     4  11  23  39  61  89 118 155 207 258 309 373
#     4  11  21  39  62  86 119 158 202 254 312 369
#     4  10  20  36  56  83 120 154 195 249 300 359
#     4  11  22  38  61  92 125 159 203 253 311 373
#     4  10  21  36  58  85 117 157 200 251 309 367
#     4  10  23  41  59  84 120 159 201 255 311 374
#     4  11  21  38  60  84 118 157 202 247 312 370
#
# _framework density 20.227726000000001
#
# number of rings (size 3 to 8) (size 9 to 14) (size 15 to 20)
#    0.000    1.429    2.857    3.000    0.000    0.571 
#    0.000    0.000    0.000    6.857    0.000    0.000 
#    0.000    0.000    0.000    0.000    0.000    0.000 
#
# Total GULP energy -693872.534277 kJ/mol
# GULP energy per Si atom -12390.580969 kJ/mol
# Density = 2.018169 g / cm^3
# Si number density = 20.227726 Si / 1000 Ang^3
#
#
#
# Elastic Constant Matrix: (Units=GPa)
#
#
# Indices 1 2 3 4 5 6 
#
# 1 94.7723 42.1053 22.0180 0.0000 0.0000 0.0000
# 2 42.1053 99.2892 23.2584 0.0000 0.0000 0.0000
# 3 22.0180 23.2584 87.1373 0.0000 0.0000 0.0000
# 4 0.0000 0.0000 0.0000 152.4258 0.0000 0.0000
# 5 0.0000 0.0000 0.0000 0.0000 33.6915 0.0000
# 6 0.0000 0.0000 0.0000 0.0000 0.0000 -35.2271
#
#
#
# Elastic Compliance Matrix: (Units=1/GPa)
#
#
# Indices 1 2 3 4 5 6 
#
# 1 0.013314 -0.005182 -0.001981 0.000000 0.000000 0.000000
# 2 -0.005182 0.012760 -0.002097 0.000000 0.000000 0.000000
# 3 -0.001981 -0.002097 0.012536 0.000000 0.000000 0.000000
# 4 0.000000 0.000000 0.000000 0.006561 0.000000 0.000000
# 5 0.000000 0.000000 0.000000 0.000000 0.029681 0.000000
# 6 0.000000 0.000000 0.000000 0.000000 0.000000 -0.028387
#
#
# Mechanical properties :
#
#
# Convention : Reuss Voigt Hill
#
# Bulk Modulus (GPa) = 49.77241 50.66247 50.21744
# Shear Modulus (GPa) = 69.75313 43.09920 56.42617
#
# Velocity S-wave (km/s) = 5.87867 4.62096 5.28734
# Velocity P-wave (km/s) = 8.41058 7.31925 7.88382
#
# Compressibility (1/GPa) = 0.02009145
#
# Stress axis : x y z
#
# Youngs Moduli (GPa) = 75.10821 78.36856 79.76828
#
# Poissons Ratio (x) = 0.40611 0.15803
# Poissons Ratio (y) = 0.38921 0.16724
# Poissons Ratio (z) = 0.14879 0.16430
#
# Static dielectric constant tensor:
#      x y z
#    x 3.728350 0.000000 0.000000 
#    y 0.000000 3.720420 0.000000 
#    z 0.000000 0.000000 3.860310 
# 
# 
# High freq. dielectric constant tensor:
#      x y z
#    x 1.794510 0.000000 0.000000 
#    y 0.000000 1.788700 0.000000 
#    z 0.000000 0.000000 1.785000 
# 
# From -- ./inp_files/26584.got.cif
#   From: 2010.03.12/outbox.cif.g09.slc.cpg/sg62_14_cif.got.tgz:26584.got - 2010.04.10 19:12:36.
