data_PCOD8252759
_publ_section_title
;
Structure prediction by ZEFSAII (Michael W. Deem and Ramdas Pophale) SiO2 
 PCOD8252759
Probable space group: P N M A
;
_chemical_formula_sum "Si O2"
_cell_formula_units_Z 64
_cell_length_a 12.687749
_cell_length_b 8.850450
_cell_length_c 29.263243
_cell_angle_alpha 90.000000
_cell_angle_beta 90.000000
_cell_angle_gamma 90.000000
_cell_volume 3286.036515
_symmetry_space_group_name_H-M "P N M A"
_symmetry_group_IT_number 62
_symmetry_cell_setting 'orthorhombic'
loop_
_space_group_symop_operation_xyz
x,y,z
1/2-x,-y,1/2+z
1/2+x,1/2-y,1/2-z
-x,1/2+y,-z
-x,-y,-z
1/2+x,y,1/2-z
1/2-x,1/2+y,1/2+z
x,1/2-y,z
loop_
_atom_site_type_symbol
_atom_site_label
_atom_site_fract_x
_atom_site_fract_y
_atom_site_fract_z
Si Si1 0.044600 0.922543 0.292747
Si Si2 0.369695 0.424312 0.694073
Si Si3 0.046410 0.572028 0.097407
Si Si4 0.730478 0.571511 0.469678
Si Si5 0.658239 0.919306 0.818323
Si Si6 0.409993 0.079828 0.081074
Si Si7 0.180922 0.429734 0.933627
Si Si8 0.131988 0.071387 0.378992
O O1 0.065500 0.750000 0.306690
O O2 0.064965 0.951179 0.239656
O O3 0.922844 0.961773 0.297850
O O4 0.115539 0.025699 0.326067
O O5 0.334061 0.250000 0.688237
O O6 0.437638 0.475850 0.650127
O O7 0.271003 0.532693 0.699537
O O8 0.043721 0.750000 0.092484
O O9 0.934382 0.506770 0.080447
O O10 0.142947 0.511235 0.066292
O O11 0.725701 0.750000 0.476278
O O12 0.849252 0.527873 0.454375
O O13 0.708014 0.491751 0.517038
O O14 0.631154 0.750000 0.801394
O O15 0.657540 0.925730 0.872850
O O16 0.412989 0.250000 0.061356
O O17 0.529288 0.022736 0.091051
O O18 0.183657 0.250000 0.933999
O O19 0.265267 0.488259 0.897153
O O20 0.147538 0.250000 0.381546
#
# Coordination Sequence:
#
# PCOD8252759 Si02
#       8
#     8   8   8   8   8   8   8   8
#     4  10  21  36  59  87 116 154 195 238 296 356
#     4  10  20  37  60  86 114 149 197 243 288 346
#     4   9  20  38  59  85 116 152 195 246 290 343
#     4  11  21  36  61  88 115 151 196 245 298 349
#     4  10  20  35  56  83 116 150 188 240 295 345
#     4   9  19  36  58  83 112 147 189 241 291 344
#     4  11  23  39  59  84 121 160 197 239 296 358
#     4  10  22  41  60  83 119 155 196 246 297 353
#
# _framework density 19.476351000000001
#
# number of rings (size 3 to 8) (size 9 to 14) (size 15 to 20)
#    0.000    2.000    1.250    3.000    0.000    5.000 
#    0.000    5.625    0.000    0.000    0.000    0.000 
#    0.000    0.000    0.000    0.000    0.000    0.000 
#
# Total GULP energy -793609.752937 kJ/mol
# GULP energy per Si atom -12400.152390 kJ/mol
# Density = 1.943202 g / cm^3
# Si number density = 19.476351 Si / 1000 Ang^3
#
#
#
# Elastic Constant Matrix: (Units=GPa)
#
#
# Indices 1 2 3 4 5 6 
#
# 1 35.5518 10.7576 0.7596 0.0000 0.0000 0.0000
# 2 10.7576 57.7428 22.9730 0.0000 0.0000 0.0000
# 3 0.7596 22.9730 79.4538 0.0000 0.0000 0.0000
# 4 0.0000 0.0000 0.0000 30.1661 0.0000 0.0000
# 5 0.0000 0.0000 0.0000 0.0000 24.2895 0.0000
# 6 0.0000 0.0000 0.0000 0.0000 0.0000 28.5902
#
#
#
# Elastic Compliance Matrix: (Units=1/GPa)
#
#
# Indices 1 2 3 4 5 6 
#
# 1 0.029966 -0.006180 0.001500 0.000000 0.000000 0.000000
# 2 -0.006180 0.020844 -0.005968 0.000000 0.000000 0.000000
# 3 0.001500 -0.005968 0.014297 0.000000 0.000000 0.000000
# 4 0.000000 0.000000 0.000000 0.033150 0.000000 0.000000
# 5 0.000000 0.000000 0.000000 0.000000 0.041170 0.000000
# 6 0.000000 0.000000 0.000000 0.000000 0.000000 0.034977
#
#
# Mechanical properties :
#
#
# Convention : Reuss Voigt Hill
#
# Bulk Modulus (GPa) = 22.82444 26.85878 24.84161
# Shear Modulus (GPa) = 23.77539 25.82636 24.80088
#
# Velocity S-wave (km/s) = 3.49769 3.64543 3.57232
# Velocity P-wave (km/s) = 5.29681 5.61598 5.45873
#
# Compressibility (1/GPa) = 0.04381268
#
# Stress axis : x y z
#
# Youngs Moduli (GPa) = 33.37135 47.97622 69.94458
#
# Poissons Ratio (x) = 0.29647 -0.10493
# Poissons Ratio (y) = 0.20622 0.41740
# Poissons Ratio (z) = -0.05007 0.28630
#
# Static dielectric constant tensor:
#      x y z
#    x 3.684820 0.000000 0.000000 
#    y 0.000000 3.536740 0.000000 
#    z 0.000000 0.000000 3.539870 
# 
# 
# High freq. dielectric constant tensor:
#      x y z
#    x 1.761740 0.000000 0.000000 
#    y 0.000000 1.752960 0.000000 
#    z 0.000000 0.000000 1.757350 
# 
# From -- ./inp_files/32552.got.cif
#   From: 2010.03.12/outbox.cif.g09.slc.cpg/sg62_17_cif.got.tgz:32552.got - 2010.04.10 19:12:36.
