data_PCOD8252767
_publ_section_title
;
Structure prediction by ZEFSAII (Michael W. Deem and Ramdas Pophale) SiO2 
 PCOD8252767
Probable space group: P N M A
;
_chemical_formula_sum "Si O2"
_cell_formula_units_Z 48
_cell_length_a 15.554879
_cell_length_b 10.704314
_cell_length_c 13.959946
_cell_angle_alpha 90.000000
_cell_angle_beta 90.000000
_cell_angle_gamma 90.000000
_cell_volume 2324.391163
_symmetry_space_group_name_H-M "P N M A"
_symmetry_group_IT_number 62
_symmetry_cell_setting 'orthorhombic'
loop_
_space_group_symop_operation_xyz
x,y,z
1/2-x,-y,1/2+z
1/2+x,1/2-y,1/2-z
-x,1/2+y,-z
-x,-y,-z
1/2+x,y,1/2-z
1/2-x,1/2+y,1/2+z
x,1/2-y,z
loop_
_atom_site_type_symbol
_atom_site_label
_atom_site_fract_x
_atom_site_fract_y
_atom_site_fract_z
Si Si1 0.918931 0.967021 0.257265
Si Si2 0.073115 0.109398 0.346240
Si Si3 0.764308 0.611229 0.959029
Si Si4 0.445466 0.890434 0.450235
Si Si5 0.865299 0.613412 0.457250
Si Si6 0.256423 0.609646 0.759331
O O1 0.953427 0.892426 0.165279
O O2 0.904115 0.881397 0.350577
O O3 0.830883 0.033444 0.227276
O O4 0.992016 0.062434 0.288285
O O5 0.082550 0.250000 0.310306
O O6 0.059966 0.099321 0.461577
O O7 0.165570 0.045997 0.319670
O O8 0.725467 0.750000 0.982992
O O9 0.697423 0.501256 0.977534
O O10 0.790864 0.607403 0.848748
O O11 0.847044 0.585405 0.023137
O O12 0.474628 0.750000 0.483199
O O13 0.500000 0.000000 0.500000
O O14 0.820125 0.750000 0.472566
O O15 0.235915 0.750000 0.794149
#
# Coordination Sequence:
#
# PCOD8252767 Si02
#       6
#     8   8   8   8   8   8
#     4  11  21  36  58  84 117 157 196 245 301 350
#     4  10  20  35  56  84 118 156 198 243 293 354
#     4   9  19  37  58  82 114 152 196 244 296 353
#     4  11  24  40  59  85 119 158 199 246 297 351
#     4  10  21  37  58  86 119 152 193 245 295 350
#     4   9  18  33  56  85 114 149 197 245 290 350
#
# _framework density 20.650568
#
# number of rings (size 3 to 8) (size 9 to 14) (size 15 to 20)
#    0.000    2.000    0.000    3.500    0.000    4.000 
#    0.000    1.667    0.000    5.000    0.000    0.000 
#    0.000    0.000    0.000    0.000    0.000    0.000 
#
# Total GULP energy -594693.499580 kJ/mol
# GULP energy per Si atom -12389.447908 kJ/mol
# Density = 2.060357 g / cm^3
# Si number density = 20.650568 Si / 1000 Ang^3
#
#
#
# Elastic Constant Matrix: (Units=GPa)
#
#
# Indices 1 2 3 4 5 6 
#
# 1 98.2651 51.0177 35.8030 0.0000 0.0000 0.0000
# 2 51.0177 114.3829 38.5382 0.0000 0.0000 0.0000
# 3 35.8030 38.5382 108.5135 0.0000 0.0000 0.0000
# 4 0.0000 0.0000 0.0000 26.1977 0.0000 0.0000
# 5 0.0000 0.0000 0.0000 0.0000 31.6991 0.0000
# 6 0.0000 0.0000 0.0000 0.0000 0.0000 24.2455
#
#
#
# Elastic Compliance Matrix: (Units=1/GPa)
#
#
# Indices 1 2 3 4 5 6 
#
# 1 0.013912 -0.005292 -0.002711 0.000000 0.000000 0.000000
# 2 -0.005292 0.011944 -0.002496 0.000000 0.000000 0.000000
# 3 -0.002711 -0.002496 0.010996 0.000000 0.000000 0.000000
# 4 0.000000 0.000000 0.000000 0.038171 0.000000 0.000000
# 5 0.000000 0.000000 0.000000 0.000000 0.031547 0.000000
# 6 0.000000 0.000000 0.000000 0.000000 0.000000 0.041245
#
#
# Mechanical properties :
#
#
# Convention : Reuss Voigt Hill
#
# Bulk Modulus (GPa) = 63.07106 63.54215 63.30660
# Shear Modulus (GPa) = 28.71991 29.48197 29.10094
#
# Velocity S-wave (km/s) = 3.73333 3.78254 3.75801
# Velocity P-wave (km/s) = 7.01370 7.06497 7.03938
#
# Compressibility (1/GPa) = 0.01585513
#
# Stress axis : x y z
#
# Youngs Moduli (GPa) = 71.88287 83.72643 90.94055
#
# Poissons Ratio (x) = 0.44305 0.24651
# Poissons Ratio (y) = 0.38038 0.22697
# Poissons Ratio (z) = 0.19485 0.20897
#
# Static dielectric constant tensor:
#      x y z
#    x 3.529240 0.000000 0.000000 
#    y 0.000000 3.910760 0.000000 
#    z 0.000000 0.000000 4.020570 
# 
# 
# High freq. dielectric constant tensor:
#      x y z
#    x 1.787570 0.000000 0.000000 
#    y 0.000000 1.804000 0.000000 
#    z 0.000000 0.000000 1.826390 
# 
# From -- ./inp_files/18878.got.cif
#   From: 2010.03.12/outbox.cif.g09.slc.cpg/sg62_10_cif.got.tgz:18878.got - 2010.04.10 19:12:36.
