data_PCOD8252091
_publ_section_title
;
Structure prediction by ZEFSAII (Michael W. Deem and Ramdas Pophale) SiO2 
 PCOD8252091
Probable space group: P N M A
;
_chemical_formula_sum "Si O2"
_cell_formula_units_Z 56
_cell_length_a 10.067017
_cell_length_b 14.040120
_cell_length_c 19.863548
_cell_angle_alpha 90.000000
_cell_angle_beta 90.000000
_cell_angle_gamma 90.000000
_cell_volume 2807.556119
_symmetry_space_group_name_H-M "P N M A"
_symmetry_group_IT_number 62
_symmetry_cell_setting 'orthorhombic'
loop_
_space_group_symop_operation_xyz
x,y,z
1/2-x,-y,1/2+z
1/2+x,1/2-y,1/2-z
-x,1/2+y,-z
-x,-y,-z
1/2+x,y,1/2-z
1/2-x,1/2+y,1/2+z
x,1/2-y,z
loop_
_atom_site_type_symbol
_atom_site_label
_atom_site_fract_x
_atom_site_fract_y
_atom_site_fract_z
Si Si1 0.837532 0.478100 0.226100
Si Si2 0.485161 0.534933 0.605473
Si Si3 0.266039 0.853268 0.668481
Si Si4 0.009123 0.644653 0.587902
Si Si5 0.426748 0.862276 0.472019
Si Si6 0.433008 0.026632 0.823643
Si Si7 0.377459 0.138002 0.951912
O O1 0.885087 0.453062 0.151171
O O2 0.808483 0.377402 0.261998
O O3 0.702727 0.539409 0.218382
O O4 0.943493 0.536738 0.272017
O O5 0.363052 0.557952 0.654900
O O6 0.481980 0.426145 0.578051
O O7 0.479556 0.614049 0.546719
O O8 0.337905 0.750000 0.675928
O O9 0.162860 0.846561 0.608132
O O10 0.942325 0.750000 0.590931
O O11 0.929500 0.575134 0.637427
O O12 0.021168 0.604536 0.511333
O O13 0.446337 0.750000 0.456901
O O14 0.274558 0.898116 0.462646
O O15 0.440873 0.106440 0.881184
O O16 0.370641 0.250000 0.952993
#
# Coordination Sequence:
#
# PCOD8252091 Si02
#       7
#     8   8   8   8   8   8   8
#     4  11  23  38  58  85 124 160 201 243 302 359
#     4  11  20  37  62  86 124 161 207 250 310 369
#     4  10  20  35  57  86 120 162 202 246 303 371
#     4   9  19  36  60  87 115 149 195 243 303 367
#     4  10  21  36  61  92 121 159 208 258 315 370
#     4  11  22  39  59  87 119 161 196 248 295 364
#     4  10  19  37  62  88 116 155 203 254 308 361
#
# _framework density 19.946172000000001
#
# number of rings (size 3 to 8) (size 9 to 14) (size 15 to 20)
#    0.000    1.714    4.286    0.857    0.000    1.714 
#    0.000    1.429    0.000    4.286    0.000    0.000 
#    0.000    0.000    0.000    0.000    0.000    0.000 
#
# Total GULP energy -693933.507461 kJ/mol
# GULP energy per Si atom -12391.669776 kJ/mol
# Density = 1.990077 g / cm^3
# Si number density = 19.946172 Si / 1000 Ang^3
#
#
#
# Elastic Constant Matrix: (Units=GPa)
#
#
# Indices 1 2 3 4 5 6 
#
# 1 76.9036 18.5040 41.2093 0.0000 0.0000 0.0000
# 2 18.5040 65.0098 31.2337 0.0000 0.0000 0.0000
# 3 41.2093 31.2337 108.0627 0.0000 0.0000 0.0000
# 4 0.0000 0.0000 0.0000 18.9270 0.0000 0.0000
# 5 0.0000 0.0000 0.0000 0.0000 35.1218 0.0000
# 6 0.0000 0.0000 0.0000 0.0000 0.0000 22.0892
#
#
#
# Elastic Compliance Matrix: (Units=1/GPa)
#
#
# Indices 1 2 3 4 5 6 
#
# 1 0.016553 -0.001949 -0.005749 0.000000 0.000000 0.000000
# 2 -0.001949 0.018092 -0.004486 0.000000 0.000000 0.000000
# 3 -0.005749 -0.004486 0.012743 0.000000 0.000000 0.000000
# 4 0.000000 0.000000 0.000000 0.052835 0.000000 0.000000
# 5 0.000000 0.000000 0.000000 0.000000 0.028472 0.000000
# 6 0.000000 0.000000 0.000000 0.000000 0.000000 0.045271
#
#
# Mechanical properties :
#
#
# Convention : Reuss Voigt Hill
#
# Bulk Modulus (GPa) = 43.44131 47.98557 45.71344
# Shear Modulus (GPa) = 24.27091 25.82953 25.05022
#
# Velocity S-wave (km/s) = 3.49208 3.60246 3.54770
# Velocity P-wave (km/s) = 6.17139 6.43532 6.30474
#
# Compressibility (1/GPa) = 0.02301956
#
# Stress axis : x y z
#
# Youngs Moduli (GPa) = 60.41209 55.27181 78.47577
#
# Poissons Ratio (x) = 0.10775 0.45115
# Poissons Ratio (y) = 0.11777 0.35203
# Poissons Ratio (z) = 0.34731 0.24794
#
# Static dielectric constant tensor:
#      x y z
#    x 3.576440 0.000000 0.000000 
#    y 0.000000 3.435890 0.000000 
#    z 0.000000 0.000000 3.950100 
# 
# 
# High freq. dielectric constant tensor:
#      x y z
#    x 1.760320 0.000000 0.000000 
#    y 0.000000 1.752480 0.000000 
#    z 0.000000 0.000000 1.796460 
# 
# From -- ./inp_files/25998.got.cif
#   From: 2010.03.12/outbox.cif.g09.slc.cpg/sg62_13_cif.got.tgz:25998.got - 2010.04.10 19:12:36.
