data_PCOD8252931
_publ_section_title
;
Structure prediction by ZEFSAII (Michael W. Deem and Ramdas Pophale) SiO2 
 PCOD8252931
Probable space group: P N M A
;
_chemical_formula_sum "Si O2"
_cell_formula_units_Z 56
_cell_length_a 9.491526
_cell_length_b 14.635272
_cell_length_c 19.347912
_cell_angle_alpha 90.000000
_cell_angle_beta 90.000000
_cell_angle_gamma 90.000000
_cell_volume 2687.639056
_symmetry_space_group_name_H-M "P N M A"
_symmetry_group_IT_number 62
_symmetry_cell_setting 'orthorhombic'
loop_
_space_group_symop_operation_xyz
x,y,z
1/2-x,-y,1/2+z
1/2+x,1/2-y,1/2-z
-x,1/2+y,-z
-x,-y,-z
1/2+x,y,1/2-z
1/2-x,1/2+y,1/2+z
x,1/2-y,z
loop_
_atom_site_type_symbol
_atom_site_label
_atom_site_fract_x
_atom_site_fract_y
_atom_site_fract_z
Si Si1 0.957134 0.848092 0.838038
Si Si2 0.743702 0.151024 0.217677
Si Si3 0.104856 0.970245 0.297504
Si Si4 0.574686 0.537665 0.366825
Si Si5 0.081246 0.642921 0.504048
Si Si6 0.380668 0.531594 0.089901
Si Si7 0.697456 0.353580 0.615719
O O1 0.968407 0.750000 0.877305
O O2 0.809225 0.851992 0.796857
O O3 0.086915 0.859506 0.783699
O O4 0.959485 0.932743 0.890869
O O5 0.701486 0.250000 0.184754
O O6 0.669159 0.067992 0.177710
O O7 0.077337 0.961090 0.216469
O O8 0.219473 0.895589 0.319595
O O9 0.958446 0.956218 0.336982
O O10 0.722230 0.566998 0.399436
O O11 0.454326 0.601589 0.396774
O O12 0.056814 0.750000 0.525493
O O13 0.112755 0.575778 0.568434
O O14 0.215049 0.635170 0.454157
O O15 0.944021 0.601277 0.466400
O O16 0.670129 0.250000 0.635827
#
# Coordination Sequence:
#
# PCOD8252931 Si02
#       7
#     8   8   8   8   8   8   8
#     4   9  18  30  46  73 111 153 186 219 270 339
#     4   9  17  29  47  71 107 153 188 217 265 335
#     4  10  20  36  55  86 124 156 184 231 290 362
#     4  11  21  34  57  90 122 152 185 237 296 360
#     4   9  21  44  64  81 109 151 204 253 288 329
#     4  10  22  37  63  89 113 153 199 237 288 345
#     4  10  21  38  58  79 112 155 197 246 295 335
#
# _framework density 20.836131000000002
#
# number of rings (size 3 to 8) (size 9 to 14) (size 15 to 20)
#    0.000    2.286    1.429    0.857    6.000    2.857 
#    0.000    2.857    0.000    0.000    0.000    0.000 
#    0.000    0.000    0.000    0.000    0.000    0.000 
#
# Total GULP energy -693999.421346 kJ/mol
# GULP energy per Si atom -12392.846810 kJ/mol
# Density = 2.078871 g / cm^3
# Si number density = 20.836131 Si / 1000 Ang^3
#
#
#
# Elastic Constant Matrix: (Units=GPa)
#
#
# Indices 1 2 3 4 5 6 
#
# 1 134.0325 60.4733 16.9688 0.0000 0.0000 0.0000
# 2 60.4733 149.2399 13.8554 0.0000 0.0000 0.0000
# 3 16.9688 13.8554 32.1503 0.0000 0.0000 0.0000
# 4 0.0000 0.0000 0.0000 19.7695 0.0000 0.0000
# 5 0.0000 0.0000 0.0000 0.0000 10.6465 0.0000
# 6 0.0000 0.0000 0.0000 0.0000 0.0000 27.8782
#
#
#
# Elastic Compliance Matrix: (Units=1/GPa)
#
#
# Indices 1 2 3 4 5 6 
#
# 1 0.009492 -0.003522 -0.003492 0.000000 0.000000 0.000000
# 2 -0.003522 0.008287 -0.001712 0.000000 0.000000 0.000000
# 3 -0.003492 -0.001712 0.033685 0.000000 0.000000 0.000000
# 4 0.000000 0.000000 0.000000 0.050583 0.000000 0.000000
# 5 0.000000 0.000000 0.000000 0.000000 0.093927 0.000000
# 6 0.000000 0.000000 0.000000 0.000000 0.000000 0.035870
#
#
# Mechanical properties :
#
#
# Convention : Reuss Voigt Hill
#
# Bulk Modulus (GPa) = 29.40229 55.33528 42.36879
# Shear Modulus (GPa) = 19.18401 26.60056 22.89228
#
# Velocity S-wave (km/s) = 3.03761 3.57691 3.31823
# Velocity P-wave (km/s) = 5.14243 6.60863 5.92109
#
# Compressibility (1/GPa) = 0.03401095
#
# Stress axis : x y z
#
# Youngs Moduli (GPa) = 105.35109 120.67442 29.68692
#
# Poissons Ratio (x) = 0.42502 0.10367
# Poissons Ratio (y) = 0.37105 0.05083
# Poissons Ratio (z) = 0.36789 0.20663
#
# Static dielectric constant tensor:
#      x y z
#    x 3.839480 0.000000 0.000000 
#    y 0.000000 4.245980 0.000000 
#    z 0.000000 0.000000 3.237290 
# 
# 
# High freq. dielectric constant tensor:
#      x y z
#    x 1.827820 0.000000 0.000000 
#    y 0.000000 1.829060 0.000000 
#    z 0.000000 0.000000 1.766640 
# 
# From -- ./inp_files/25990.got.cif
#   From: 2010.03.12/outbox.cif.g09.slc.cpg/sg62_13_cif.got.tgz:25990.got - 2010.04.10 19:12:36.
