data_PCOD8252440
_publ_section_title
;
Structure prediction by ZEFSAII (Michael W. Deem and Ramdas Pophale) SiO2 
 PCOD8252440
Probable space group: P N M A
;
_chemical_formula_sum "Si O2"
_cell_formula_units_Z 64
_cell_length_a 28.377860
_cell_length_b 14.185617
_cell_length_c 8.685649
_cell_angle_alpha 90.000000
_cell_angle_beta 90.000000
_cell_angle_gamma 90.000000
_cell_volume 3496.472741
_symmetry_space_group_name_H-M "P N M A"
_symmetry_group_IT_number 62
_symmetry_cell_setting 'orthorhombic'
loop_
_space_group_symop_operation_xyz
x,y,z
1/2-x,-y,1/2+z
1/2+x,1/2-y,1/2-z
-x,1/2+y,-z
-x,-y,-z
1/2+x,y,1/2-z
1/2-x,1/2+y,1/2+z
x,1/2-y,z
loop_
_atom_site_type_symbol
_atom_site_label
_atom_site_fract_x
_atom_site_fract_y
_atom_site_fract_z
Si Si1 0.570592 0.992618 0.182414
Si Si2 0.753144 0.644453 0.817849
Si Si3 0.246856 0.144453 0.817850
Si Si4 0.322366 0.505599 0.818277
Si Si5 0.503567 0.141115 0.318513
Si Si6 0.929408 0.492618 0.317586
Si Si7 0.322366 0.994401 0.181723
Si Si8 0.003567 0.141115 0.818513
O O1 0.624417 0.992034 0.238940
O O2 0.547014 0.090606 0.233816
O O3 0.545406 0.904313 0.263185
O O4 0.566064 0.981389 0.000000
O O5 0.747391 0.750000 0.752649
O O6 0.801501 0.600866 0.753920
O O7 0.708259 0.583791 0.760874
O O8 0.756083 0.644964 1.000000
O O9 0.252609 0.250000 0.752650
O O10 0.291741 0.083791 0.760875
O O11 0.198498 0.100866 0.753921
O O12 0.320286 0.516039 0.000000
O O13 0.503903 0.250000 0.270860
O O14 0.454594 0.095687 0.263184
O O15 0.508981 0.126794 0.500000
O O16 0.875583 0.492034 0.261059
O O17 0.952987 0.590606 0.266185
O O18 0.003903 0.250000 0.770860
#
# Coordination Sequence:
#
# PCOD8252440 Si02
#       8
#     8   8   8   8   8   8   8   8
#     4  10  20  34  54  77 101 132 168 208 252 296
#     4   9  18  33  52  73  99 132 167 202 243 292
#     4   9  18  33  52  73  99 132 167 202 243 292
#     4   9  19  34  51  74 102 130 163 205 249 291
#     4  10  21  36  53  74 102 134 167 206 251 299
#     4  10  20  34  54  77 101 132 168 208 252 296
#     4   9  19  34  51  74 102 130 163 205 249 291
#     4  10  21  36  53  74 102 134 167 206 251 299
#
# _framework density 18.30416
#
# number of rings (size 3 to 8) (size 9 to 14) (size 15 to 20)
#    0.000    2.500    0.000    3.000    0.000    6.500 
#    0.000    7.500    0.000    0.000    0.000    0.000 
#    0.000    0.000    0.000    0.000    0.000    0.000 
#
# Total GULP energy -793688.381622 kJ/mol
# GULP energy per Si atom -12401.380963 kJ/mol
# Density = 1.826250 g / cm^3
# Si number density = 18.304160 Si / 1000 Ang^3
#
#
#
# Elastic Constant Matrix: (Units=GPa)
#
#
# Indices 1 2 3 4 5 6 
#
# 1 137.2118 52.9556 15.4290 0.0000 0.0000 0.0000
# 2 52.9556 146.4148 16.3936 0.0000 0.0000 0.0000
# 3 15.4290 16.3936 22.6668 0.0000 0.0000 0.0000
# 4 0.0000 0.0000 0.0000 26.7620 0.0000 0.0000
# 5 0.0000 0.0000 0.0000 0.0000 27.8038 0.0000
# 6 0.0000 0.0000 0.0000 0.0000 0.0000 13.9160
#
#
#
# Elastic Compliance Matrix: (Units=1/GPa)
#
#
# Indices 1 2 3 4 5 6 
#
# 1 0.008793 -0.002731 -0.004010 0.000000 0.000000 0.000000
# 2 -0.002731 0.008280 -0.004129 0.000000 0.000000 0.000000
# 3 -0.004010 -0.004129 0.049833 0.000000 0.000000 0.000000
# 4 0.000000 0.000000 0.000000 0.037366 0.000000 0.000000
# 5 0.000000 0.000000 0.000000 0.000000 0.035966 0.000000
# 6 0.000000 0.000000 0.000000 0.000000 0.000000 0.071860
#
#
# Mechanical properties :
#
#
# Convention : Reuss Voigt Hill
#
# Bulk Modulus (GPa) = 22.14082 52.87220 37.50651
# Shear Modulus (GPa) = 20.08876 28.46405 24.27641
#
# Velocity S-wave (km/s) = 3.31644 3.94770 3.64576
# Velocity P-wave (km/s) = 5.17565 7.05175 6.18525
#
# Compressibility (1/GPa) = 0.04516545
#
# Stress axis : x y z
#
# Youngs Moduli (GPa) = 113.72662 120.77106 20.06682
#
# Poissons Ratio (x) = 0.32986 0.08047
# Poissons Ratio (y) = 0.31062 0.08286
# Poissons Ratio (z) = 0.45603 0.49871
#
# Static dielectric constant tensor:
#      x y z
#    x 3.517110 0.000000 0.000000 
#    y 0.000000 3.553410 0.000000 
#    z 0.000000 0.000000 3.307770 
# 
# 
# High freq. dielectric constant tensor:
#      x y z
#    x 1.711960 0.000000 0.000000 
#    y 0.000000 1.712560 0.000000 
#    z 0.000000 0.000000 1.709660 
# 
# From -- ./inp_files/10535.got.cif
#   From: 2010.03.12/outbox.cif.g09.slc.cpg/sg62_6_cif.got.tgz:10535.got - 2010.04.10 19:12:36.
