data_PCOD8252915
_publ_section_title
;
Structure prediction by ZEFSAII (Michael W. Deem and Ramdas Pophale) SiO2 
 PCOD8252915
Probable space group: P N M A
;
_chemical_formula_sum "Si O2"
_cell_formula_units_Z 40
_cell_length_a 10.058344
_cell_length_b 20.097857
_cell_length_c 8.620743
_cell_angle_alpha 90.000000
_cell_angle_beta 90.000000
_cell_angle_gamma 90.000000
_cell_volume 1742.693192
_symmetry_space_group_name_H-M "P N M A"
_symmetry_group_IT_number 62
_symmetry_cell_setting 'orthorhombic'
loop_
_space_group_symop_operation_xyz
x,y,z
1/2-x,-y,1/2+z
1/2+x,1/2-y,1/2-z
-x,1/2+y,-z
-x,-y,-z
1/2+x,y,1/2-z
1/2-x,1/2+y,1/2+z
x,1/2-y,z
loop_
_atom_site_type_symbol
_atom_site_label
_atom_site_fract_x
_atom_site_fract_y
_atom_site_fract_z
Si Si1 0.930682 0.950101 0.883936
Si Si2 0.851610 0.079288 0.348399
Si Si3 0.748499 0.822305 0.592383
Si Si4 0.981272 0.326822 0.573673
Si Si5 0.006505 0.175063 0.922094
O O1 0.012699 0.954196 0.719824
O O2 0.774185 0.971482 0.869172
O O3 0.927062 0.875190 0.954873
O O4 0.000000 0.000000 0.000000
O O5 0.797189 0.126673 0.217510
O O6 0.873830 0.120514 0.508102
O O7 0.737755 0.750000 0.670325
O O8 0.652941 0.826099 0.442803
O O9 0.897516 0.836333 0.542755
O O10 0.929261 0.250000 0.574369
O O11 0.029240 0.347686 0.744999
O O12 0.063122 0.250000 0.951177
#
# Coordination Sequence:
#
# PCOD8252915 Si02
#       5
#     8   8   8   8   8
#     4  11  26  46  67  94 128 170 217 265 323 385
#     4  11  22  43  64  90 124 169 218 259 321 376
#     4   9  18  35  58  92 130 163 208 259 310 375
#     4  10  20  35  62  98 131 170 212 262 321 378
#     4   9  21  39  64  94 131 167 211 265 320 378
#
# _framework density 22.952978999999999
#
# number of rings (size 3 to 8) (size 9 to 14) (size 15 to 20)
#    0.000    2.000    2.000    0.600    2.800    4.000 
#    3.600    2.000    0.000    0.000    0.000    0.000 
#    0.000    0.000    0.000    0.000    0.000    0.000 
#
# Total GULP energy -495672.342399 kJ/mol
# GULP energy per Si atom -12391.808560 kJ/mol
# Density = 2.290074 g / cm^3
# Si number density = 22.952979 Si / 1000 Ang^3
#
#
#
# Elastic Constant Matrix: (Units=GPa)
#
#
# Indices 1 2 3 4 5 6 
#
# 1 60.0755 -6.7914 -14.0060 0.0000 0.0000 0.0000
# 2 -6.7914 33.0272 -2.7514 0.0000 0.0000 0.0000
# 3 -14.0060 -2.7514 57.7119 0.0000 0.0000 0.0000
# 4 0.0000 0.0000 0.0000 32.8653 0.0000 0.0000
# 5 0.0000 0.0000 0.0000 0.0000 16.1955 0.0000
# 6 0.0000 0.0000 0.0000 0.0000 0.0000 22.4497
#
#
#
# Elastic Compliance Matrix: (Units=1/GPa)
#
#
# Indices 1 2 3 4 5 6 
#
# 1 0.018187 0.004124 0.004610 0.000000 0.000000 0.000000
# 2 0.004124 0.031334 0.002495 0.000000 0.000000 0.000000
# 3 0.004610 0.002495 0.018565 0.000000 0.000000 0.000000
# 4 0.000000 0.000000 0.000000 0.030427 0.000000 0.000000
# 5 0.000000 0.000000 0.000000 0.000000 0.061746 0.000000
# 6 0.000000 0.000000 0.000000 0.000000 0.000000 0.044544
#
#
# Mechanical properties :
#
#
# Convention : Reuss Voigt Hill
#
# Bulk Modulus (GPa) = 11.04445 11.52414 11.28429
# Shear Modulus (GPa) = 23.52650 25.92633 24.72641
#
# Velocity S-wave (km/s) = 3.20501 3.36451 3.28573
# Velocity P-wave (km/s) = 4.30330 4.48608 4.39564
#
# Compressibility (1/GPa) = 0.09054324
#
# Stress axis : x y z
#
# Youngs Moduli (GPa) = 54.98512 31.91435 53.86412
#
# Poissons Ratio (x) = -0.13161 -0.24833
# Poissons Ratio (y) = -0.22675 -0.13437
# Poissons Ratio (z) = -0.25350 -0.07961
#
# Static dielectric constant tensor:
#      x y z
#    x 5.334260 0.000000 0.000000 
#    y 0.000000 3.957740 0.000000 
#    z 0.000000 0.000000 3.914830 
# 
# 
# High freq. dielectric constant tensor:
#      x y z
#    x 1.911050 0.000000 0.000000 
#    y 0.000000 1.882390 0.000000 
#    z 0.000000 0.000000 1.903310 
# 
# From -- ./inp_files/4284.got.cif
#   From: 2010.03.12/outbox.cif.g09.slc.cpg/sg62_3_cif.got.tgz:4284.got - 2010.04.10 19:12:36.
