data_PCOD8252871
_publ_section_title
;
Structure prediction by ZEFSAII (Michael W. Deem and Ramdas Pophale) SiO2 
 PCOD8252871
Probable space group: P N M A
;
_chemical_formula_sum "Si O2"
_cell_formula_units_Z 48
_cell_length_a 14.854845
_cell_length_b 8.775145
_cell_length_c 19.628537
_cell_angle_alpha 90.000000
_cell_angle_beta 90.000000
_cell_angle_gamma 90.000000
_cell_volume 2558.646905
_symmetry_space_group_name_H-M "P N M A"
_symmetry_group_IT_number 62
_symmetry_cell_setting 'orthorhombic'
loop_
_space_group_symop_operation_xyz
x,y,z
1/2-x,-y,1/2+z
1/2+x,1/2-y,1/2-z
-x,1/2+y,-z
-x,-y,-z
1/2+x,y,1/2-z
1/2-x,1/2+y,1/2+z
x,1/2-y,z
loop_
_atom_site_type_symbol
_atom_site_label
_atom_site_fract_x
_atom_site_fract_y
_atom_site_fract_z
Si Si1 0.376790 0.426066 0.188105
Si Si2 0.913934 0.071492 0.465652
Si Si3 0.771036 0.428344 0.987938
Si Si4 0.991133 0.571676 0.809485
Si Si5 0.806942 0.427396 0.831655
Si Si6 0.565322 0.070246 0.555384
O O1 0.349107 0.250000 0.192452
O O2 0.416898 0.466662 0.114395
O O3 0.453439 0.469037 0.241860
O O4 0.286696 0.522453 0.202913
O O5 0.910556 0.250000 0.479902
O O6 0.827821 0.993852 0.500066
O O7 0.000000 0.000000 0.500000
O O8 0.770835 0.250000 0.002762
O O9 0.805604 0.465294 0.911967
O O10 0.834249 0.510798 0.042551
O O11 0.994659 0.750000 0.826701
O O12 0.888245 0.520802 0.797630
O O13 0.035031 0.476763 0.869926
O O14 0.822194 0.250000 0.818112
O O15 0.561225 0.250000 0.548425
O O16 0.500000 0.000000 0.500000
#
# Coordination Sequence:
#
# PCOD8252871 Si02
#       6
#     8   8   8   8   8   8
#     4   9  21  40  60  83 113 153 195 235 287 348
#     4  10  20  38  62  87 115 151 195 240 288 344
#     4  10  20  36  58  85 115 149 189 236 287 342
#     4  11  22  38  60  84 115 155 194 241 290 345
#     4  10  20  35  59  85 112 149 190 237 288 342
#     4  12  23  36  57  87 119 152 190 236 288 346
#
# _framework density 18.759916
#
# number of rings (size 3 to 8) (size 9 to 14) (size 15 to 20)
#    0.000    1.667    1.667    3.500    0.000    3.333 
#    3.000    0.000    0.000    0.000    0.000    0.000 
#    0.000    0.000    0.000    0.000    0.000    0.000 
#
# Total GULP energy -595460.943646 kJ/mol
# GULP energy per Si atom -12405.436326 kJ/mol
# Density = 1.871722 g / cm^3
# Si number density = 18.759916 Si / 1000 Ang^3
#
#
#
# Elastic Constant Matrix: (Units=GPa)
#
#
# Indices 1 2 3 4 5 6 
#
# 1 163.8703 72.3473 63.2180 0.0000 0.0000 0.0000
# 2 72.3473 117.3384 40.6320 0.0000 0.0000 0.0000
# 3 63.2180 40.6320 71.5995 0.0000 0.0000 0.0000
# 4 0.0000 0.0000 0.0000 27.8561 0.0000 0.0000
# 5 0.0000 0.0000 0.0000 0.0000 35.3383 0.0000
# 6 0.0000 0.0000 0.0000 0.0000 0.0000 40.9009
#
#
#
# Elastic Compliance Matrix: (Units=1/GPa)
#
#
# Indices 1 2 3 4 5 6 
#
# 1 0.010645 -0.004118 -0.007062 0.000000 0.000000 0.000000
# 2 -0.004118 0.012200 -0.003287 0.000000 0.000000 0.000000
# 3 -0.007062 -0.003287 0.022067 0.000000 0.000000 0.000000
# 4 0.000000 0.000000 0.000000 0.035899 0.000000 0.000000
# 5 0.000000 0.000000 0.000000 0.000000 0.028298 0.000000
# 6 0.000000 0.000000 0.000000 0.000000 0.000000 0.024449
#
#
# Mechanical properties :
#
#
# Convention : Reuss Voigt Hill
#
# Bulk Modulus (GPa) = 62.58762 78.35589 70.47176
# Shear Modulus (GPa) = 29.79427 32.59312 31.19370
#
# Velocity S-wave (km/s) = 3.98953 4.17271 4.08215
# Velocity P-wave (km/s) = 7.39301 8.06683 7.73726
#
# Compressibility (1/GPa) = 0.01597760
#
# Stress axis : x y z
#
# Youngs Moduli (GPa) = 93.94367 81.96958 45.31596
#
# Poissons Ratio (x) = 0.33754 0.32001
# Poissons Ratio (y) = 0.38684 0.14897
# Poissons Ratio (z) = 0.66341 0.26947
#
# Static dielectric constant tensor:
#      x y z
#    x 3.624180 0.000000 0.000000 
#    y 0.000000 3.646230 0.000000 
#    z 0.000000 0.000000 3.594120 
# 
# 
# High freq. dielectric constant tensor:
#      x y z
#    x 1.742000 0.000000 0.000000 
#    y 0.000000 1.743540 0.000000 
#    z 0.000000 0.000000 1.708240 
# 
# From -- ./inp_files/23766.got.cif
#   From: 2010.03.12/outbox.cif.g09.slc.cpg/sg62_12_cif.got.tgz:23766.got - 2010.04.10 19:12:36.
