data_PCOD8252401
_publ_section_title
;
Structure prediction by ZEFSAII (Michael W. Deem and Ramdas Pophale) SiO2 
 PCOD8252401
Probable space group: P N M A
;
_chemical_formula_sum "Si O2"
_cell_formula_units_Z 64
_cell_length_a 11.641878
_cell_length_b 8.807630
_cell_length_c 33.261223
_cell_angle_alpha 90.000000
_cell_angle_beta 90.000000
_cell_angle_gamma 90.000000
_cell_volume 3410.517795
_symmetry_space_group_name_H-M "P N M A"
_symmetry_group_IT_number 62
_symmetry_cell_setting 'orthorhombic'
loop_
_space_group_symop_operation_xyz
x,y,z
1/2-x,-y,1/2+z
1/2+x,1/2-y,1/2-z
-x,1/2+y,-z
-x,-y,-z
1/2+x,y,1/2-z
1/2-x,1/2+y,1/2+z
x,1/2-y,z
loop_
_atom_site_type_symbol
_atom_site_label
_atom_site_fract_x
_atom_site_fract_y
_atom_site_fract_z
Si Si1 0.560395 0.427197 0.802344
Si Si2 0.910884 0.925870 0.443181
Si Si3 0.139234 0.075966 0.468109
Si Si4 0.531330 0.428277 0.360892
Si Si5 0.714357 0.570208 0.868760
Si Si6 0.195865 0.573364 0.326212
Si Si7 0.305506 0.425843 0.400355
Si Si8 0.102674 0.570852 0.782289
O O1 0.587273 0.250000 0.803023
O O2 0.656200 0.510626 0.828407
O O3 0.437092 0.465288 0.820827
O O4 0.562081 0.485942 0.757182
O O5 0.904121 0.750000 0.431489
O O6 0.844793 0.963018 0.484911
O O7 0.852208 0.020696 0.408379
O O8 0.043804 0.970599 0.447648
O O9 0.098334 0.250000 0.463376
O O10 0.261200 0.048172 0.445866
O O11 0.546617 0.250000 0.359553
O O12 0.656074 0.499255 0.370142
O O13 0.439353 0.474711 0.395751
O O14 0.482561 0.483271 0.317910
O O15 0.715060 0.750000 0.867070
O O16 0.221868 0.750000 0.319466
O O17 0.226714 0.525887 0.371366
O O18 0.268204 0.477827 0.293739
O O19 0.292501 0.250000 0.387126
O O20 0.099187 0.750000 0.775203
#
# Coordination Sequence:
#
# PCOD8252401 Si02
#       8
#     8   8   8   8   8   8   8   8
#     4  11  24  38  54  80 110 141 177 225 279 326
#     4  10  20  34  52  81 117 147 178 226 279 325
#     4   9  18  33  57  83 109 144 184 225 275 331
#     4   8  18  36  56  78 104 138 181 227 268 313
#     4  11  22  37  56  79 108 147 187 221 268 331
#     4  10  21  36  53  78 110 138 171 220 273 324
#     4   9  17  34  58  80 102 137 184 228 268 320
#     4  10  21  38  59  80 104 138 183 227 269 323
#
# _framework density 18.765478999999999
#
# number of rings (size 3 to 8) (size 9 to 14) (size 15 to 20)
#    0.000    2.250    0.000    3.375    1.750    5.000 
#    0.000    6.250    0.000    0.000    0.000    0.000 
#    0.000    0.000    0.000    0.000    0.000    0.000 
#
# Total GULP energy -793592.985912 kJ/mol
# GULP energy per Si atom -12399.890405 kJ/mol
# Density = 1.872277 g / cm^3
# Si number density = 18.765479 Si / 1000 Ang^3
#
#
#
# Elastic Constant Matrix: (Units=GPa)
#
#
# Indices 1 2 3 4 5 6 
#
# 1 77.1947 32.7762 23.1110 0.0000 0.0000 0.0000
# 2 32.7762 48.6953 20.9519 0.0000 0.0000 0.0000
# 3 23.1110 20.9519 72.9114 0.0000 0.0000 0.0000
# 4 0.0000 0.0000 0.0000 24.0564 0.0000 0.0000
# 5 0.0000 0.0000 0.0000 0.0000 20.9995 0.0000
# 6 0.0000 0.0000 0.0000 0.0000 0.0000 20.5837
#
#
#
# Elastic Compliance Matrix: (Units=1/GPa)
#
#
# Indices 1 2 3 4 5 6 
#
# 1 0.018565 -0.011370 -0.002617 0.000000 0.000000 0.000000
# 2 -0.011370 0.030396 -0.005131 0.000000 0.000000 0.000000
# 3 -0.002617 -0.005131 0.016019 0.000000 0.000000 0.000000
# 4 0.000000 0.000000 0.000000 0.041569 0.000000 0.000000
# 5 0.000000 0.000000 0.000000 0.000000 0.047620 0.000000
# 6 0.000000 0.000000 0.000000 0.000000 0.000000 0.048582
#
#
# Mechanical properties :
#
#
# Convention : Reuss Voigt Hill
#
# Bulk Modulus (GPa) = 37.39043 39.16439 38.27741
# Shear Modulus (GPa) = 20.00768 21.25874 20.63321
#
# Velocity S-wave (km/s) = 3.26881 3.36946 3.31951
# Velocity P-wave (km/s) = 5.84937 6.00445 5.92742
#
# Compressibility (1/GPa) = 0.02674481
#
# Stress axis : x y z
#
# Youngs Moduli (GPa) = 53.86342 32.89859 62.42459
#
# Poissons Ratio (x) = 0.37406 0.16340
# Poissons Ratio (y) = 0.61243 0.32029
# Poissons Ratio (z) = 0.14099 0.16879
#
# Static dielectric constant tensor:
#      x y z
#    x 3.657010 0.000000 0.000000 
#    y 0.000000 3.412200 0.000000 
#    z 0.000000 0.000000 3.495810 
# 
# 
# High freq. dielectric constant tensor:
#      x y z
#    x 1.727290 0.000000 0.000000 
#    y 0.000000 1.725650 0.000000 
#    z 0.000000 0.000000 1.728670 
# 
# From -- ./inp_files/32511.got.cif
#   From: 2010.03.12/outbox.cif.g09.slc.cpg/sg62_17_cif.got.tgz:32511.got - 2010.04.10 19:12:36.
