data_PCOD8252335
_publ_section_title
;
Structure prediction by ZEFSAII (Michael W. Deem and Ramdas Pophale) SiO2 
 PCOD8252335
Probable space group: P N M A
;
_chemical_formula_sum "Si O2"
_cell_formula_units_Z 56
_cell_length_a 23.821640
_cell_length_b 9.102898
_cell_length_c 13.425652
_cell_angle_alpha 90.000000
_cell_angle_beta 90.000000
_cell_angle_gamma 90.000000
_cell_volume 2911.298385
_symmetry_space_group_name_H-M "P N M A"
_symmetry_group_IT_number 62
_symmetry_cell_setting 'orthorhombic'
loop_
_space_group_symop_operation_xyz
x,y,z
1/2-x,-y,1/2+z
1/2+x,1/2-y,1/2-z
-x,1/2+y,-z
-x,-y,-z
1/2+x,y,1/2-z
1/2-x,1/2+y,1/2+z
x,1/2-y,z
loop_
_atom_site_type_symbol
_atom_site_label
_atom_site_fract_x
_atom_site_fract_y
_atom_site_fract_z
Si Si1 0.128081 0.581865 0.703873
Si Si2 0.668902 0.420424 0.309478
Si Si3 0.273616 0.578264 0.107393
Si Si4 0.937247 0.079753 0.889135
Si Si5 0.050200 0.581238 0.882592
Si Si6 0.058577 0.919813 0.509294
Si Si7 0.342316 0.918428 0.915724
O O1 0.149065 0.750000 0.700559
O O2 0.181686 0.478707 0.688303
O O3 0.101446 0.541489 0.810019
O O4 0.081284 0.553428 0.620265
O O5 0.667891 0.250000 0.337781
O O6 0.714425 0.499687 0.378052
O O7 0.608220 0.487983 0.329139
O O8 0.683648 0.444792 0.193235
O O9 0.264768 0.750000 0.123176
O O10 0.294832 0.539120 0.996318
O O11 0.932129 0.250000 0.860685
O O12 0.927845 0.052899 0.006318
O O13 0.998240 0.023018 0.856239
O O14 0.031017 0.750000 0.868126
O O15 0.049651 0.750000 0.484970
O O16 0.102471 0.983165 0.429365
O O17 0.000000 0.000000 0.500000
O O18 0.360961 0.750000 0.930615
#
# Coordination Sequence:
#
# PCOD8252335 Si02
#       7
#     8   8   8   8   8   8   8
#     4   9  19  36  57  79 107 148 187 221 274 341
#     4  11  23  39  60  82 111 152 191 229 284 345
#     4  10  21  39  59  82 111 141 185 238 280 325
#     4  10  21  36  55  83 114 144 187 237 280 327
#     4   9  19  37  58  80 113 152 186 226 278 340
#     4  10  20  33  53  82 114 145 181 226 276 332
#     4   9  21  40  58  78 109 148 187 228 275 333
#
# _framework density 19.235405
#
# number of rings (size 3 to 8) (size 9 to 14) (size 15 to 20)
#    0.000    2.286    0.000    1.714    2.000    4.571 
#    0.000    5.714    0.000    0.000    0.000    0.000 
#    0.000    0.000    0.000    0.000    0.000    0.000 
#
# Total GULP energy -694661.414975 kJ/mol
# GULP energy per Si atom -12404.668125 kJ/mol
# Density = 1.919162 g / cm^3
# Si number density = 19.235405 Si / 1000 Ang^3
#
#
#
# Elastic Constant Matrix: (Units=GPa)
#
#
# Indices 1 2 3 4 5 6 
#
# 1 70.4164 48.2276 28.4634 0.0000 0.0000 0.0000
# 2 48.2276 105.8103 33.9368 0.0000 0.0000 0.0000
# 3 28.4634 33.9368 68.8018 0.0000 0.0000 0.0000
# 4 0.0000 0.0000 0.0000 27.1202 0.0000 0.0000
# 5 0.0000 0.0000 0.0000 0.0000 25.0961 0.0000
# 6 0.0000 0.0000 0.0000 0.0000 0.0000 42.9072
#
#
#
# Elastic Compliance Matrix: (Units=1/GPa)
#
#
# Indices 1 2 3 4 5 6 
#
# 1 0.021969 -0.008432 -0.004929 0.000000 0.000000 0.000000
# 2 -0.008432 0.014464 -0.003646 0.000000 0.000000 0.000000
# 3 -0.004929 -0.003646 0.018372 0.000000 0.000000 0.000000
# 4 0.000000 0.000000 0.000000 0.036873 0.000000 0.000000
# 5 0.000000 0.000000 0.000000 0.000000 0.039847 0.000000
# 6 0.000000 0.000000 0.000000 0.000000 0.000000 0.023306
#
#
# Mechanical properties :
#
#
# Convention : Reuss Voigt Hill
#
# Bulk Modulus (GPa) = 48.10048 51.80934 49.95491
# Shear Modulus (GPa) = 25.53951 27.98475 26.76213
#
# Velocity S-wave (km/s) = 3.64776 3.81840 3.73405
# Velocity P-wave (km/s) = 6.54233 6.81418 6.67964
#
# Compressibility (1/GPa) = 0.02078981
#
# Stress axis : x y z
#
# Youngs Moduli (GPa) = 45.51882 69.13924 54.43054
#
# Poissons Ratio (x) = 0.58300 0.26831
# Poissons Ratio (y) = 0.38383 0.19844
# Poissons Ratio (z) = 0.22438 0.25206
#
# Static dielectric constant tensor:
#      x y z
#    x 3.351820 0.000000 0.000000 
#    y 0.000000 3.656390 0.000000 
#    z 0.000000 0.000000 3.585510 
# 
# 
# High freq. dielectric constant tensor:
#      x y z
#    x 1.743720 0.000000 0.000000 
#    y 0.000000 1.756240 0.000000 
#    z 0.000000 0.000000 1.748680 
# 
# From -- ./inp_files/20323.got.cif
#   From: 2010.03.12/outbox.cif.g09.slc.cpg/sg62_11_cif.got.tgz:20323.got - 2010.04.10 19:12:36.
