data_PCOD8252298
_publ_section_title
;
Structure prediction by ZEFSAII (Michael W. Deem and Ramdas Pophale) SiO2 
 PCOD8252298
Probable space group: P N M A
;
_chemical_formula_sum "Si O2"
_cell_formula_units_Z 56
_cell_length_a 14.826265
_cell_length_b 9.104179
_cell_length_c 19.988341
_cell_angle_alpha 90.000000
_cell_angle_beta 90.000000
_cell_angle_gamma 90.000000
_cell_volume 2698.045666
_symmetry_space_group_name_H-M "P N M A"
_symmetry_group_IT_number 62
_symmetry_cell_setting 'orthorhombic'
loop_
_space_group_symop_operation_xyz
x,y,z
1/2-x,-y,1/2+z
1/2+x,1/2-y,1/2-z
-x,1/2+y,-z
-x,-y,-z
1/2+x,y,1/2-z
1/2-x,1/2+y,1/2+z
x,1/2-y,z
loop_
_atom_site_type_symbol
_atom_site_label
_atom_site_fract_x
_atom_site_fract_y
_atom_site_fract_z
Si Si1 0.093498 0.409023 0.936908
Si Si2 0.862421 0.422544 0.187473
Si Si3 0.500982 0.073997 0.073250
Si Si4 0.154560 0.420405 0.323740
Si Si5 0.390810 0.409410 0.552838
Si Si6 0.874697 0.922189 0.320865
Si Si7 0.663978 0.919241 0.306965
O O1 0.136658 0.250000 0.917608
O O2 0.082460 0.518672 0.875163
O O3 0.994326 0.381503 0.965767
O O4 0.152473 0.484350 0.996387
O O5 0.874684 0.250000 0.198093
O O6 0.759136 0.464947 0.168525
O O7 0.905586 0.505093 0.251117
O O8 0.489496 0.250000 0.066345
O O9 0.594846 0.033292 0.111708
O O10 0.419123 0.006516 0.116558
O O11 0.500000 0.000000 0.000000
O O12 0.143046 0.250000 0.310755
O O13 0.120400 0.498422 0.256215
O O14 0.340047 0.250000 0.551294
O O15 0.384274 0.479215 0.626477
O O16 0.900204 0.750000 0.323279
O O17 0.768448 0.949755 0.321271
O O18 0.643290 0.750000 0.293938
#
# Coordination Sequence:
#
# PCOD8252298 Si02
#       7
#     8   8   8   8   8   8   8
#     4  10  20  33  51  80 113 145 184 226 271 329
#     4  10  20  37  59  82 112 149 187 233 285 337
#     4  11  24  42  61  86 117 155 198 242 295 350
#     4   9  21  39  58  82 111 145 190 236 281 338
#     4   9  19  35  52  76 110 147 183 222 272 330
#     4  10  21  38  59  85 114 145 187 237 285 341
#     4   9  19  36  59  84 111 147 189 233 285 339
#
# _framework density 20.755766000000001
#
# number of rings (size 3 to 8) (size 9 to 14) (size 15 to 20)
#    0.000    2.286    0.000    1.714    2.000    4.571 
#    0.000    5.714    0.000    0.000    0.000    0.000 
#    0.000    0.000    0.000    0.000    0.000    0.000 
#
# Total GULP energy -693974.811936 kJ/mol
# GULP energy per Si atom -12392.407356 kJ/mol
# Density = 2.070852 g / cm^3
# Si number density = 20.755766 Si / 1000 Ang^3
#
#
#
# Elastic Constant Matrix: (Units=GPa)
#
#
# Indices 1 2 3 4 5 6 
#
# 1 35.0410 30.5795 34.2347 0.0000 0.0000 0.0000
# 2 30.5795 105.3001 76.2491 0.0000 0.0000 0.0000
# 3 34.2347 76.2491 183.2938 0.0000 0.0000 0.0000
# 4 0.0000 0.0000 0.0000 44.2500 0.0000 0.0000
# 5 0.0000 0.0000 0.0000 0.0000 22.8139 0.0000
# 6 0.0000 0.0000 0.0000 0.0000 0.0000 20.8681
#
#
#
# Elastic Compliance Matrix: (Units=1/GPa)
#
#
# Indices 1 2 3 4 5 6 
#
# 1 0.039970 -0.008875 -0.003773 0.000000 0.000000 0.000000
# 2 -0.008875 0.015561 -0.004816 0.000000 0.000000 0.000000
# 3 -0.003773 -0.004816 0.008164 0.000000 0.000000 0.000000
# 4 0.000000 0.000000 0.000000 0.022599 0.000000 0.000000
# 5 0.000000 0.000000 0.000000 0.000000 0.043833 0.000000
# 6 0.000000 0.000000 0.000000 0.000000 0.000000 0.047920
#
#
# Mechanical properties :
#
#
# Convention : Reuss Voigt Hill
#
# Bulk Modulus (GPa) = 34.76282 67.30683 51.03483
# Shear Modulus (GPa) = 22.46555 29.75784 26.11169
#
# Velocity S-wave (km/s) = 3.29352 3.79055 3.55074
# Velocity P-wave (km/s) = 5.58998 7.18722 6.43832
#
# Compressibility (1/GPa) = 0.02876637
#
# Stress axis : x y z
#
# Youngs Moduli (GPa) = 25.01907 64.26293 122.49200
#
# Poissons Ratio (x) = 0.57033 0.46221
# Poissons Ratio (y) = 0.22204 0.58988
# Poissons Ratio (z) = 0.09441 0.30947
#
# Static dielectric constant tensor:
#      x y z
#    x 3.582000 0.000000 0.000000 
#    y 0.000000 4.048620 0.000000 
#    z 0.000000 0.000000 3.863810 
# 
# 
# High freq. dielectric constant tensor:
#      x y z
#    x 1.787750 0.000000 0.000000 
#    y 0.000000 1.819310 0.000000 
#    z 0.000000 0.000000 1.821860 
# 
# From -- ./inp_files/27245.got.cif
#   From: 2010.03.12/outbox.cif.g09.slc.cpg/sg62_14_cif.got.tgz:27245.got - 2010.04.10 19:12:36.
