data_PCOD8252214
_publ_section_title
;
Structure prediction by ZEFSAII (Michael W. Deem and Ramdas Pophale) SiO2 
 PCOD8252214
Probable space group: P N M A
;
_chemical_formula_sum "Si O2"
_cell_formula_units_Z 64
_cell_length_a 30.186112
_cell_length_b 9.101539
_cell_length_c 14.207599
_cell_angle_alpha 90.000000
_cell_angle_beta 90.000000
_cell_angle_gamma 90.000000
_cell_volume 3903.396824
_symmetry_space_group_name_H-M "P N M A"
_symmetry_group_IT_number 62
_symmetry_cell_setting 'orthorhombic'
loop_
_space_group_symop_operation_xyz
x,y,z
1/2-x,-y,1/2+z
1/2+x,1/2-y,1/2-z
-x,1/2+y,-z
-x,-y,-z
1/2+x,y,1/2-z
1/2-x,1/2+y,1/2+z
x,1/2-y,z
loop_
_atom_site_type_symbol
_atom_site_label
_atom_site_fract_x
_atom_site_fract_y
_atom_site_fract_z
Si Si1 0.952170 0.920605 0.402589
Si Si2 0.230535 0.580025 0.022623
Si Si3 0.449533 0.077966 0.904101
Si Si4 0.213296 0.076523 0.214785
Si Si5 0.363987 0.577979 0.190416
Si Si6 0.196983 0.581629 0.821462
Si Si7 0.818013 0.084415 0.479764
Si Si8 0.138635 0.914460 0.323663
O O1 0.951231 0.750000 0.427693
O O2 0.916524 0.956032 0.320314
O O3 0.001326 0.968994 0.368300
O O4 0.938134 0.001288 0.497630
O O5 0.239182 0.750000 0.046843
O O6 0.211157 0.499274 0.113391
O O7 0.275159 0.504060 0.987433
O O8 0.197673 0.563522 0.934079
O O9 0.447112 0.250000 0.924422
O O10 0.413399 0.036993 0.822901
O O11 0.211637 0.250000 0.202418
O O12 0.257209 0.027095 0.271935
O O13 0.168921 0.028478 0.268752
O O14 0.354152 0.750000 0.184977
O O15 0.344887 0.514860 0.287961
O O16 0.337921 0.497770 0.108464
O O17 0.188940 0.750000 0.793249
O O18 0.804929 0.250000 0.449054
O O19 0.851498 0.086415 0.565639
O O20 0.145471 0.750000 0.281661
#
# Coordination Sequence:
#
# PCOD8252214 Si02
#       8
#     8   8   8   8   8   8   8   8
#     4   9  18  30  46  71 101 130 164 204 246 291
#     4  11  22  37  52  69  96 130 168 206 244 285
#     4   9  17  31  48  69  99 133 166 201 243 293
#     4  11  22  35  51  73 100 129 164 204 247 291
#     4  11  21  31  48  73 100 134 169 203 244 290
#     4  10  22  36  50  70  97 130 166 203 243 291
#     4  11  20  30  47  71 100 132 168 203 239 283
#     4  10  20  32  49  72  98 135 172 201 240 291
#
# _framework density 16.395976999999998
#
# number of rings (size 3 to 8) (size 9 to 14) (size 15 to 20)
#    0.000    1.750    3.750    1.500    0.000    3.000 
#    0.000    0.000    0.000    0.000    0.000    0.875 
#    0.000    0.000    0.000    0.000    0.000    0.000 
#
# Total GULP energy -793397.975471 kJ/mol
# GULP energy per Si atom -12396.843367 kJ/mol
# Density = 1.635866 g / cm^3
# Si number density = 16.395977 Si / 1000 Ang^3
#
#
#
# Elastic Constant Matrix: (Units=GPa)
#
#
# Indices 1 2 3 4 5 6 
#
# 1 102.8732 41.6341 32.2822 0.0000 0.0000 0.0000
# 2 41.6341 76.1563 31.8896 0.0000 0.0000 0.0000
# 3 32.2822 31.8896 66.7295 0.0000 0.0000 0.0000
# 4 0.0000 0.0000 0.0000 27.0140 0.0000 0.0000
# 5 0.0000 0.0000 0.0000 0.0000 21.3593 0.0000
# 6 0.0000 0.0000 0.0000 0.0000 0.0000 21.7852
#
#
#
# Elastic Compliance Matrix: (Units=1/GPa)
#
#
# Indices 1 2 3 4 5 6 
#
# 1 0.013161 -0.005662 -0.003661 0.000000 0.000000 0.000000
# 2 -0.005662 0.018852 -0.006270 0.000000 0.000000 0.000000
# 3 -0.003661 -0.006270 0.019753 0.000000 0.000000 0.000000
# 4 0.000000 0.000000 0.000000 0.037018 0.000000 0.000000
# 5 0.000000 0.000000 0.000000 0.000000 0.046818 0.000000
# 6 0.000000 0.000000 0.000000 0.000000 0.000000 0.045903
#
#
# Mechanical properties :
#
#
# Convention : Reuss Voigt Hill
#
# Bulk Modulus (GPa) = 48.59098 50.81896 49.70497
# Shear Modulus (GPa) = 22.77375 23.36192 23.06784
#
# Velocity S-wave (km/s) = 3.73095 3.77882 3.75496
# Velocity P-wave (km/s) = 6.94696 7.07823 7.01290
#
# Compressibility (1/GPa) = 0.02057995
#
# Stress axis : x y z
#
# Youngs Moduli (GPa) = 75.98149 53.04550 50.62402
#
# Poissons Ratio (x) = 0.30034 0.18535
# Poissons Ratio (y) = 0.43021 0.31741
# Poissons Ratio (z) = 0.27818 0.33259
#
# Static dielectric constant tensor:
#      x y z
#    x 3.410340 0.000000 0.000000 
#    y 0.000000 3.215550 0.000000 
#    z 0.000000 0.000000 2.876010 
# 
# 
# High freq. dielectric constant tensor:
#      x y z
#    x 1.626860 0.000000 0.000000 
#    y 0.000000 1.642010 0.000000 
#    z 0.000000 0.000000 1.600470 
# 
# From -- ./inp_files/21257.got.cif
#   From: 2010.03.12/outbox.cif.g09.slc.cpg/sg62_11_cif.got.tgz:21257.got - 2010.04.10 19:12:36.
