data_PCOD8252817
_publ_section_title
;
Structure prediction by ZEFSAII (Michael W. Deem and Ramdas Pophale) SiO2 
 PCOD8252817
Probable space group: P N M A
;
_chemical_formula_sum "Si O2"
_cell_formula_units_Z 48
_cell_length_a 30.081131
_cell_length_b 8.930523
_cell_length_c 8.990260
_cell_angle_alpha 90.000000
_cell_angle_beta 90.000000
_cell_angle_gamma 90.000000
_cell_volume 2415.145534
_symmetry_space_group_name_H-M "P N M A"
_symmetry_group_IT_number 62
_symmetry_cell_setting 'orthorhombic'
loop_
_space_group_symop_operation_xyz
x,y,z
1/2-x,-y,1/2+z
1/2+x,1/2-y,1/2-z
-x,1/2+y,-z
-x,-y,-z
1/2+x,y,1/2-z
1/2-x,1/2+y,1/2+z
x,1/2-y,z
loop_
_atom_site_type_symbol
_atom_site_label
_atom_site_fract_x
_atom_site_fract_y
_atom_site_fract_z
Si Si1 0.954395 0.923883 0.679093
Si Si2 0.700769 0.426214 0.182580
Si Si3 0.638146 0.923485 0.677515
Si Si4 0.718044 0.074397 0.843002
Si Si5 0.054242 0.922486 0.624709
Si Si6 0.120689 0.574254 0.160682
O O1 0.943839 0.750000 0.697369
O O2 0.006554 0.960044 0.697284
O O3 0.936893 0.974976 0.517779
O O4 0.928809 0.013835 0.807719
O O5 0.698087 0.250000 0.204699
O O6 0.738250 0.490124 0.290043
O O7 0.653678 0.497215 0.223168
O O8 0.711147 0.470554 0.013678
O O9 0.651512 0.750000 0.697147
O O10 0.591107 0.959002 0.752979
O O11 0.634487 0.968029 0.505852
O O12 0.675729 0.025839 0.748104
O O13 0.725681 0.250000 0.823239
O O14 0.055814 0.750000 0.572834
O O15 0.121747 0.750000 0.186926
#
# Coordination Sequence:
#
# PCOD8252817 Si02
#       6
#     8   8   8   8   8   8
#     4  10  20  35  57  85 114 147 190 235 282 338
#     4  11  24  41  61  86 115 147 186 230 277 333
#     4  10  22  39  58  82 113 150 191 232 277 332
#     4  11  24  40  60  87 115 145 184 229 278 332
#     4   9  19  37  59  82 112 150 190 235 285 334
#     4  11  23  38  57  83 115 150 189 232 279 332
#
# _framework density 19.874580000000002
#
# number of rings (size 3 to 8) (size 9 to 14) (size 15 to 20)
#    0.000    1.667    0.000    4.000    0.000   12.667 
#    0.000    0.000    0.000    0.000    0.000    0.000 
#    0.000    0.000    0.000    0.000    0.000    0.000 
#
# Total GULP energy -595514.605575 kJ/mol
# GULP energy per Si atom -12406.554283 kJ/mol
# Density = 1.982934 g / cm^3
# Si number density = 19.874580 Si / 1000 Ang^3
#
#
#
# Elastic Constant Matrix: (Units=GPa)
#
#
# Indices 1 2 3 4 5 6 
#
# 1 76.1398 10.3400 8.2714 0.0000 0.0000 0.0000
# 2 10.3400 36.6937 18.2587 0.0000 0.0000 0.0000
# 3 8.2714 18.2587 55.0738 0.0000 0.0000 0.0000
# 4 0.0000 0.0000 0.0000 32.4035 0.0000 0.0000
# 5 0.0000 0.0000 0.0000 0.0000 39.6264 0.0000
# 6 0.0000 0.0000 0.0000 0.0000 0.0000 36.1896
#
#
#
# Elastic Compliance Matrix: (Units=1/GPa)
#
#
# Indices 1 2 3 4 5 6 
#
# 1 0.013696 -0.003396 -0.000931 0.000000 0.000000 0.000000
# 2 -0.003396 0.033479 -0.010589 0.000000 0.000000 0.000000
# 3 -0.000931 -0.010589 0.021808 0.000000 0.000000 0.000000
# 4 0.000000 0.000000 0.000000 0.030861 0.000000 0.000000
# 5 0.000000 0.000000 0.000000 0.000000 0.025236 0.000000
# 6 0.000000 0.000000 0.000000 0.000000 0.000000 0.027632
#
#
# Mechanical properties :
#
#
# Convention : Reuss Voigt Hill
#
# Bulk Modulus (GPa) = 25.54277 26.84971 26.19624
# Shear Modulus (GPa) = 25.56310 30.37970 27.97140
#
# Velocity S-wave (km/s) = 3.59028 3.91394 3.75560
# Velocity P-wave (km/s) = 5.48331 5.82787 5.65822
#
# Compressibility (1/GPa) = 0.03915002
#
# Stress axis : x y z
#
# Youngs Moduli (GPa) = 73.01351 29.86967 45.85493
#
# Poissons Ratio (x) = 0.10144 0.04269
# Poissons Ratio (y) = 0.24796 0.48557
# Poissons Ratio (z) = 0.06798 0.31630
#
# Static dielectric constant tensor:
#      x y z
#    x 3.799790 0.000000 0.000000 
#    y 0.000000 3.653460 0.000000 
#    z 0.000000 0.000000 3.656070 
# 
# 
# High freq. dielectric constant tensor:
#      x y z
#    x 1.790700 0.000000 0.000000 
#    y 0.000000 1.781320 0.000000 
#    z 0.000000 0.000000 1.777100 
# 
# From -- ./inp_files/10260.got.cif
#   From: 2010.03.12/outbox.cif.g09.slc.cpg/sg62_6_cif.got.tgz:10260.got - 2010.04.10 19:12:36.
