data_PCOD8252032
_publ_section_title
;
Structure prediction by ZEFSAII (Michael W. Deem and Ramdas Pophale) SiO2 
 PCOD8252032
Probable space group: P N M A
;
_chemical_formula_sum "Si O2"
_cell_formula_units_Z 48
_cell_length_a 13.659957
_cell_length_b 14.078963
_cell_length_c 12.022878
_cell_angle_alpha 90.000000
_cell_angle_beta 90.000000
_cell_angle_gamma 90.000000
_cell_volume 2312.216202
_symmetry_space_group_name_H-M "P N M A"
_symmetry_group_IT_number 62
_symmetry_cell_setting 'orthorhombic'
loop_
_space_group_symop_operation_xyz
x,y,z
1/2-x,-y,1/2+z
1/2+x,1/2-y,1/2-z
-x,1/2+y,-z
-x,-y,-z
1/2+x,y,1/2-z
1/2-x,1/2+y,1/2+z
x,1/2-y,z
loop_
_atom_site_type_symbol
_atom_site_label
_atom_site_fract_x
_atom_site_fract_y
_atom_site_fract_z
Si Si1 0.875724 0.031891 0.585234
Si Si2 0.400684 0.640791 0.558168
Si Si3 0.584060 0.019698 0.851002
Si Si4 0.691050 0.363047 0.665714
Si Si5 0.689941 0.359536 0.212142
Si Si6 0.415906 0.142418 0.308642
O O1 0.802390 0.103858 0.646492
O O2 0.985725 0.072304 0.605253
O O3 0.853006 0.021829 0.453935
O O4 0.871996 0.924828 0.631252
O O5 0.376109 0.750000 0.541143
O O6 0.371794 0.595074 0.439147
O O7 0.331840 0.606439 0.660882
O O8 0.516710 0.624106 0.581771
O O9 0.649500 0.090915 0.778138
O O10 0.545344 0.929079 0.783226
O O11 0.687675 0.250000 0.679645
O O12 0.658471 0.250000 0.196714
O O13 0.801547 0.376703 0.173227
O O14 0.433417 0.250000 0.266805
#
# Coordination Sequence:
#
# PCOD8252032 Si02
#       6
#     8   8   8   8   8   8
#     4  11  24  41  64  94 128 172 216 257 320 386
#     4   9  19  37  62  89 119 160 204 254 315 372
#     4  11  24  41  64  95 129 169 214 263 320 384
#     4  11  25  45  65  91 131 172 214 265 323 385
#     4  10  19  36  62  93 125 158 206 263 314 370
#     4  10  19  36  63  94 120 153 205 262 315 370
#
# _framework density 20.759302999999999
#
# number of rings (size 3 to 8) (size 9 to 14) (size 15 to 20)
#    0.000    1.667    3.333    1.000    0.000    4.000 
#    3.000    3.333    0.000    0.000    0.000    0.000 
#    0.000    0.000    0.000    0.000    0.000    0.000 
#
# Total GULP energy -594840.491132 kJ/mol
# GULP energy per Si atom -12392.510232 kJ/mol
# Density = 2.071205 g / cm^3
# Si number density = 20.759303 Si / 1000 Ang^3
#
#
#
# Elastic Constant Matrix: (Units=GPa)
#
#
# Indices 1 2 3 4 5 6 
#
# 1 111.4703 17.5118 27.3479 0.0000 0.0000 0.0000
# 2 17.5118 72.2073 30.6951 0.0000 0.0000 0.0000
# 3 27.3479 30.6951 100.2393 0.0000 0.0000 0.0000
# 4 0.0000 0.0000 0.0000 18.1660 0.0000 0.0000
# 5 0.0000 0.0000 0.0000 0.0000 34.6703 0.0000
# 6 0.0000 0.0000 0.0000 0.0000 0.0000 18.8065
#
#
#
# Elastic Compliance Matrix: (Units=1/GPa)
#
#
# Indices 1 2 3 4 5 6 
#
# 1 0.009739 -0.001417 -0.002223 0.000000 0.000000 0.000000
# 2 -0.001417 0.016128 -0.004552 0.000000 0.000000 0.000000
# 3 -0.002223 -0.004552 0.011977 0.000000 0.000000 0.000000
# 4 0.000000 0.000000 0.000000 0.055048 0.000000 0.000000
# 5 0.000000 0.000000 0.000000 0.000000 0.028843 0.000000
# 6 0.000000 0.000000 0.000000 0.000000 0.000000 0.053173
#
#
# Mechanical properties :
#
#
# Convention : Reuss Voigt Hill
#
# Bulk Modulus (GPa) = 46.60019 48.33627 47.46823
# Shear Modulus (GPa) = 25.19594 28.21937 26.70765
#
# Velocity S-wave (km/s) = 3.48762 3.69095 3.59073
# Velocity P-wave (km/s) = 6.22211 6.44196 6.33299
#
# Compressibility (1/GPa) = 0.02145914
#
# Stress axis : x y z
#
# Youngs Moduli (GPa) = 102.67980 62.00518 83.49624
#
# Poissons Ratio (x) = 0.08785 0.18563
# Poissons Ratio (y) = 0.14548 0.38008
# Poissons Ratio (z) = 0.22828 0.28225
#
# Static dielectric constant tensor:
#      x y z
#    x 3.797150 0.000000 0.000000 
#    y 0.000000 3.617190 0.000000 
#    z 0.000000 0.000000 3.818810 
# 
# 
# High freq. dielectric constant tensor:
#      x y z
#    x 1.825580 0.000000 0.000000 
#    y 0.000000 1.798510 0.000000 
#    z 0.000000 0.000000 1.803620 
# 
# From -- ./inp_files/13285.got.cif
#   From: 2010.03.12/outbox.cif.g09.slc.cpg/sg62_7_cif.got.tgz:13285.got - 2010.04.10 19:12:36.
