data_PCOD8252559
_publ_section_title
;
Structure prediction by ZEFSAII (Michael W. Deem and Ramdas Pophale) SiO2 
 PCOD8252559
Probable space group: P N M A
;
_chemical_formula_sum "Si O2"
_cell_formula_units_Z 56
_cell_length_a 20.023069
_cell_length_b 8.842166
_cell_length_c 16.337099
_cell_angle_alpha 90.000000
_cell_angle_beta 90.000000
_cell_angle_gamma 90.000000
_cell_volume 2892.439267
_symmetry_space_group_name_H-M "P N M A"
_symmetry_group_IT_number 62
_symmetry_cell_setting 'orthorhombic'
loop_
_space_group_symop_operation_xyz
x,y,z
1/2-x,-y,1/2+z
1/2+x,1/2-y,1/2-z
-x,1/2+y,-z
-x,-y,-z
1/2+x,y,1/2-z
1/2-x,1/2+y,1/2+z
x,1/2-y,z
loop_
_atom_site_type_symbol
_atom_site_label
_atom_site_fract_x
_atom_site_fract_y
_atom_site_fract_z
Si Si1 0.660807 0.071554 0.840719
Si Si2 0.102503 0.428466 0.317892
Si Si3 0.800510 0.571445 0.828087
Si Si4 0.548996 0.071785 0.565581
Si Si5 0.674268 0.427902 0.023621
Si Si6 0.472296 0.573149 0.249226
Si Si7 0.677045 0.929519 0.498126
O O1 0.675394 0.250000 0.834139
O O2 0.598938 0.018851 0.785696
O O3 0.725659 0.983329 0.808881
O O4 0.645369 0.025749 0.934977
O O5 0.096009 0.250000 0.322705
O O6 0.154098 0.477281 0.247980
O O7 0.129434 0.498285 0.403832
O O8 0.029635 0.492619 0.301572
O O9 0.800957 0.750000 0.843347
O O10 0.832379 0.487951 0.905872
O O11 0.551861 0.250000 0.551933
O O12 0.522477 0.029542 0.655536
O O13 0.500000 0.000000 0.500000
O O14 0.622670 0.004012 0.556901
O O15 0.673890 0.250000 0.034317
O O16 0.750921 0.482920 0.031424
O O17 0.480252 0.750000 0.235288
O O18 0.668344 0.750000 0.498023
#
# Coordination Sequence:
#
# PCOD8252559 Si02
#       7
#     8   8   8   8   8   8   8
#     4   9  19  38  59  79 110 149 187 229 284 338
#     4  10  21  36  55  81 111 145 185 229 276 334
#     4  10  20  34  56  84 115 145 184 233 278 330
#     4  11  23  38  56  81 115 149 190 235 284 343
#     4   8  17  35  57  80 107 142 183 226 275 331
#     4  10  23  39  55  81 114 149 187 233 285 337
#     4  10  20  36  59  82 110 147 186 229 284 339
#
# _framework density 19.360821999999999
#
# number of rings (size 3 to 8) (size 9 to 14) (size 15 to 20)
#    0.000    2.286    0.000    3.000    2.000    5.714 
#    0.000    3.571    0.000    0.000    0.000    0.000 
#    0.000    0.000    0.000    0.000    0.000    0.000 
#
# Total GULP energy -694479.231284 kJ/mol
# GULP energy per Si atom -12401.414844 kJ/mol
# Density = 1.931676 g / cm^3
# Si number density = 19.360822 Si / 1000 Ang^3
#
#
#
# Elastic Constant Matrix: (Units=GPa)
#
#
# Indices 1 2 3 4 5 6 
#
# 1 88.4908 24.9186 30.4996 0.0000 0.0000 0.0000
# 2 24.9186 46.7241 23.8680 0.0000 0.0000 0.0000
# 3 30.4996 23.8680 62.4675 0.0000 0.0000 0.0000
# 4 0.0000 0.0000 0.0000 24.3287 0.0000 0.0000
# 5 0.0000 0.0000 0.0000 0.0000 38.5669 0.0000
# 6 0.0000 0.0000 0.0000 0.0000 0.0000 36.4136
#
#
#
# Elastic Compliance Matrix: (Units=1/GPa)
#
#
# Indices 1 2 3 4 5 6 
#
# 1 0.014510 -0.005118 -0.005129 0.000000 0.000000 0.000000
# 2 -0.005118 0.028398 -0.008352 0.000000 0.000000 0.000000
# 3 -0.005129 -0.008352 0.021703 0.000000 0.000000 0.000000
# 4 0.000000 0.000000 0.000000 0.041104 0.000000 0.000000
# 5 0.000000 0.000000 0.000000 0.000000 0.025929 0.000000
# 6 0.000000 0.000000 0.000000 0.000000 0.000000 0.027462
#
#
# Mechanical properties :
#
#
# Convention : Reuss Voigt Hill
#
# Bulk Modulus (GPa) = 36.47756 39.58386 38.03071
# Shear Modulus (GPa) = 24.33790 27.75492 26.04641
#
# Velocity S-wave (km/s) = 3.54936 3.79035 3.67183
# Velocity P-wave (km/s) = 5.97320 6.29646 6.13696
#
# Compressibility (1/GPa) = 0.02741411
#
# Stress axis : x y z
#
# Youngs Moduli (GPa) = 68.92023 35.21358 46.07578
#
# Poissons Ratio (x) = 0.18023 0.23630
# Poissons Ratio (y) = 0.35275 0.38481
# Poissons Ratio (z) = 0.35346 0.29409
#
# Static dielectric constant tensor:
#      x y z
#    x 3.650850 0.000000 0.000000 
#    y 0.000000 3.377550 0.000000 
#    z 0.000000 0.000000 3.719370 
# 
# 
# High freq. dielectric constant tensor:
#      x y z
#    x 1.760990 0.000000 0.000000 
#    y 0.000000 1.739470 0.000000 
#    z 0.000000 0.000000 1.760900 
# 
# From -- ./inp_files/20342.got.cif
#   From: 2010.03.12/outbox.cif.g09.slc.cpg/sg62_11_cif.got.tgz:20342.got - 2010.04.10 19:12:36.
