data_PCOD8252419
_publ_section_title
;
Structure prediction by ZEFSAII (Michael W. Deem and Ramdas Pophale) SiO2 
 PCOD8252419
Probable space group: P N M A
;
_chemical_formula_sum "Si O2"
_cell_formula_units_Z 64
_cell_length_a 15.199820
_cell_length_b 8.976080
_cell_length_c 24.373284
_cell_angle_alpha 90.000000
_cell_angle_beta 90.000000
_cell_angle_gamma 90.000000
_cell_volume 3325.364135
_symmetry_space_group_name_H-M "P N M A"
_symmetry_group_IT_number 62
_symmetry_cell_setting 'orthorhombic'
loop_
_space_group_symop_operation_xyz
x,y,z
1/2-x,-y,1/2+z
1/2+x,1/2-y,1/2-z
-x,1/2+y,-z
-x,-y,-z
1/2+x,y,1/2-z
1/2-x,1/2+y,1/2+z
x,1/2-y,z
loop_
_atom_site_type_symbol
_atom_site_label
_atom_site_fract_x
_atom_site_fract_y
_atom_site_fract_z
Si Si1 0.630863 0.073562 0.692438
Si Si2 0.460164 0.576453 0.098869
Si Si3 0.191648 0.922357 0.537577
Si Si4 0.484924 0.422473 0.778881
Si Si5 0.609614 0.079621 0.461072
Si Si6 0.132901 0.075065 0.431084
Si Si7 0.188170 0.424395 0.308665
Si Si8 0.948334 0.574733 0.079455
O O1 0.644538 0.250000 0.694862
O O2 0.552471 0.022344 0.732604
O O3 0.606015 0.014816 0.631676
O O4 0.721438 0.997933 0.711742
O O5 0.469364 0.750000 0.084236
O O6 0.366326 0.516199 0.079726
O O7 0.468118 0.546538 0.163305
O O8 0.533528 0.485016 0.065743
O O9 0.162637 0.750000 0.536359
O O10 0.290962 0.939821 0.559002
O O11 0.188616 0.988695 0.476480
O O12 0.461237 0.250000 0.771623
O O13 0.393734 0.512320 0.773831
O O14 0.578935 0.250000 0.459154
O O15 0.600008 0.021384 0.523896
O O16 0.547589 0.988298 0.419920
O O17 0.132697 0.250000 0.443443
O O18 0.175065 0.035853 0.372566
O O19 0.192919 0.250000 0.298201
O O20 0.955452 0.750000 0.084593
#
# Coordination Sequence:
#
# PCOD8252419 Si02
#       8
#     8   8   8   8   8   8   8   8
#     4  10  20  37  61  85 108 142 187 230 273 324
#     4  10  20  35  53  74 104 141 180 223 271 319
#     4  11  21  33  51  77 108 144 180 216 265 325
#     4   9  20  39  59  79 107 145 186 231 275 322
#     4   9  19  34  51  75 109 142 171 210 265 320
#     4  10  20  34  53  78 108 140 179 223 268 322
#     4  10  21  36  57  85 112 142 179 227 282 329
#     4   9  18  34  56  79 103 135 176 221 263 310
#
# _framework density 19.246013000000001
#
# number of rings (size 3 to 8) (size 9 to 14) (size 15 to 20)
#    0.000    2.250    0.000    2.625    0.000    5.000 
#    2.250    2.500    0.000    0.000    0.000    0.000 
#    0.000    0.000    0.000    0.000    0.000    0.000 
#
# Total GULP energy -793790.562559 kJ/mol
# GULP energy per Si atom -12402.977540 kJ/mol
# Density = 1.920221 g / cm^3
# Si number density = 19.246013 Si / 1000 Ang^3
#
#
#
# Elastic Constant Matrix: (Units=GPa)
#
#
# Indices 1 2 3 4 5 6 
#
# 1 134.2635 42.1778 42.8927 0.0000 0.0000 0.0000
# 2 42.1778 54.9734 24.5303 0.0000 0.0000 0.0000
# 3 42.8927 24.5303 53.0764 0.0000 0.0000 0.0000
# 4 0.0000 0.0000 0.0000 23.5399 0.0000 0.0000
# 5 0.0000 0.0000 0.0000 0.0000 28.1632 0.0000
# 6 0.0000 0.0000 0.0000 0.0000 0.0000 37.3614
#
#
#
# Elastic Compliance Matrix: (Units=1/GPa)
#
#
# Indices 1 2 3 4 5 6 
#
# 1 0.011344 -0.005812 -0.006482 0.000000 0.000000 0.000000
# 2 -0.005812 0.025894 -0.007271 0.000000 0.000000 0.000000
# 3 -0.006482 -0.007271 0.027439 0.000000 0.000000 0.000000
# 4 0.000000 0.000000 0.000000 0.042481 0.000000 0.000000
# 5 0.000000 0.000000 0.000000 0.000000 0.035507 0.000000
# 6 0.000000 0.000000 0.000000 0.000000 0.000000 0.026766
#
#
# Mechanical properties :
#
#
# Convention : Reuss Voigt Hill
#
# Bulk Modulus (GPa) = 39.14036 51.27942 45.20989
# Shear Modulus (GPa) = 23.03335 26.66039 24.84687
#
# Velocity S-wave (km/s) = 3.46321 3.72592 3.59697
# Velocity P-wave (km/s) = 6.03099 6.72399 6.38689
#
# Compressibility (1/GPa) = 0.02554907
#
# Stress axis : x y z
#
# Youngs Moduli (GPa) = 88.14899 38.61918 36.44404
#
# Poissons Ratio (x) = 0.22444 0.23623
# Poissons Ratio (y) = 0.51228 0.26498
# Poissons Ratio (z) = 0.57137 0.28079
#
# Static dielectric constant tensor:
#      x y z
#    x 3.511580 0.000000 0.000000 
#    y 0.000000 3.456220 0.000000 
#    z 0.000000 0.000000 3.434680 
# 
# 
# High freq. dielectric constant tensor:
#      x y z
#    x 1.755270 0.000000 0.000000 
#    y 0.000000 1.748670 0.000000 
#    z 0.000000 0.000000 1.732060 
# 
# From -- ./inp_files/29850.got.cif
#   From: 2010.03.12/outbox.cif.g09.slc.cpg/sg62_15_cif.got.tgz:29850.got - 2010.04.10 19:12:36.
