data_PCOD8252394
_publ_section_title
;
Structure prediction by ZEFSAII (Michael W. Deem and Ramdas Pophale) SiO2 
 PCOD8252394
Probable space group: P N M A
;
_chemical_formula_sum "Si O2"
_cell_formula_units_Z 64
_cell_length_a 20.174930
_cell_length_b 8.469534
_cell_length_c 19.850138
_cell_angle_alpha 90.000000
_cell_angle_beta 90.000000
_cell_angle_gamma 90.000000
_cell_volume 3391.837854
_symmetry_space_group_name_H-M "P N M A"
_symmetry_group_IT_number 62
_symmetry_cell_setting 'orthorhombic'
loop_
_space_group_symop_operation_xyz
x,y,z
1/2-x,-y,1/2+z
1/2+x,1/2-y,1/2-z
-x,1/2+y,-z
-x,-y,-z
1/2+x,y,1/2-z
1/2-x,1/2+y,1/2+z
x,1/2-y,z
loop_
_atom_site_type_symbol
_atom_site_label
_atom_site_fract_x
_atom_site_fract_y
_atom_site_fract_z
Si Si1 0.174501 0.564035 0.927141
Si Si2 0.685623 0.565811 0.423239
Si Si3 0.564896 0.936750 0.827033
Si Si4 0.175603 0.934516 0.567411
Si Si5 0.324263 0.566559 0.921960
Si Si6 0.919908 0.933266 0.824568
Si Si7 0.430776 0.063386 0.323547
Si Si8 0.074575 0.567823 0.319466
O O1 0.165289 0.750000 0.925229
O O2 0.248696 0.518556 0.904356
O O3 0.121288 0.485172 0.876025
O O4 0.161390 0.504112 0.003345
O O5 0.703308 0.750000 0.426945
O O6 0.752017 0.472678 0.402410
O O7 0.629097 0.537096 0.368924
O O8 0.553409 0.750000 0.827460
O O9 0.622203 0.989814 0.877617
O O10 0.584754 0.996205 0.752084
O O11 0.496525 0.018239 0.849596
O O12 0.169405 0.750000 0.551649
O O13 0.161442 0.032608 0.500091
O O14 0.337842 0.750000 0.907519
O O15 0.370975 0.460087 0.876389
O O16 0.907058 0.750000 0.839435
O O17 0.994581 0.984864 0.844119
O O18 0.907217 0.964847 0.745920
O O19 0.423640 0.250000 0.325033
O O20 0.073993 0.750000 0.298734
#
# Coordination Sequence:
#
# PCOD8252394 Si02
#       8
#     8   8   8   8   8   8   8   8
#     4   8  16  31  52  77 105 138 173 214 262 310
#     4  10  20  34  52  77 110 143 177 219 266 317
#     4   9  19  35  55  78 104 136 175 219 265 318
#     4  10  20  35  55  79 107 140 180 222 265 315
#     4  10  20  35  55  78 107 141 176 217 266 320
#     4  10  20  35  55  77 104 139 178 221 265 314
#     4   8  15  31  53  76 101 131 172 216 259 309
#     4  11  22  36  55  78 106 138 173 218 268 321
#
# _framework density 18.868825999999999
#
# number of rings (size 3 to 8) (size 9 to 14) (size 15 to 20)
#    0.000    2.500    0.000    4.125    0.000    3.000 
#    0.000    2.500    0.000   21.750    0.000    0.000 
#    0.000    0.000    0.000    0.000    0.000    0.000 
#
# Total GULP energy -793624.360304 kJ/mol
# GULP energy per Si atom -12400.380630 kJ/mol
# Density = 1.882588 g / cm^3
# Si number density = 18.868826 Si / 1000 Ang^3
#
#
#
# Elastic Constant Matrix: (Units=GPa)
#
#
# Indices 1 2 3 4 5 6 
#
# 1 128.8531 17.0495 78.0608 0.0000 0.0000 0.0000
# 2 17.0495 37.5343 11.5920 0.0000 0.0000 0.0000
# 3 78.0608 11.5920 86.7407 0.0000 0.0000 0.0000
# 4 0.0000 0.0000 0.0000 24.2368 0.0000 0.0000
# 5 0.0000 0.0000 0.0000 0.0000 40.9706 0.0000
# 6 0.0000 0.0000 0.0000 0.0000 0.0000 23.8834
#
#
#
# Elastic Compliance Matrix: (Units=1/GPa)
#
#
# Indices 1 2 3 4 5 6 
#
# 1 0.017426 -0.003205 -0.015254 0.000000 0.000000 0.000000
# 2 -0.003205 0.028379 -0.000909 0.000000 0.000000 0.000000
# 3 -0.015254 -0.000909 0.025377 0.000000 0.000000 0.000000
# 4 0.000000 0.000000 0.000000 0.041260 0.000000 0.000000
# 5 0.000000 0.000000 0.000000 0.000000 0.024408 0.000000
# 6 0.000000 0.000000 0.000000 0.000000 0.000000 0.041870
#
#
# Mechanical properties :
#
#
# Convention : Reuss Voigt Hill
#
# Bulk Modulus (GPa) = 30.81868 51.83697 41.32782
# Shear Modulus (GPa) = 21.90406 27.57990 24.74198
#
# Velocity S-wave (km/s) = 3.41084 3.82732 3.62506
# Velocity P-wave (km/s) = 5.64626 6.86025 6.28265
#
# Compressibility (1/GPa) = 0.03244785
#
# Stress axis : x y z
#
# Youngs Moduli (GPa) = 57.38676 35.23792 39.40534
#
# Poissons Ratio (x) = 0.11292 0.60107
# Poissons Ratio (y) = 0.18390 0.03581
# Poissons Ratio (z) = 0.87536 0.03202
#
# Static dielectric constant tensor:
#      x y z
#    x 3.587310 0.000000 0.000000 
#    y 0.000000 3.221600 0.000000 
#    z 0.000000 0.000000 3.581670 
# 
# 
# High freq. dielectric constant tensor:
#      x y z
#    x 1.737050 0.000000 0.000000 
#    y 0.000000 1.716780 0.000000 
#    z 0.000000 0.000000 1.732100 
# 
# From -- ./inp_files/24695.got.cif
#   From: 2010.03.12/outbox.cif.g09.slc.cpg/sg62_13_cif.got.tgz:24695.got - 2010.04.10 19:12:36.
