data_PCOD8252311
_publ_section_title
;
Structure prediction by ZEFSAII (Michael W. Deem and Ramdas Pophale) SiO2 
 PCOD8252311
Probable space group: P N M A
;
_chemical_formula_sum "Si O2"
_cell_formula_units_Z 48
_cell_length_a 16.267599
_cell_length_b 9.163027
_cell_length_c 18.033506
_cell_angle_alpha 90.000000
_cell_angle_beta 90.000000
_cell_angle_gamma 90.000000
_cell_volume 2688.082499
_symmetry_space_group_name_H-M "P N M A"
_symmetry_group_IT_number 62
_symmetry_cell_setting 'orthorhombic'
loop_
_space_group_symop_operation_xyz
x,y,z
1/2-x,-y,1/2+z
1/2+x,1/2-y,1/2-z
-x,1/2+y,-z
-x,-y,-z
1/2+x,y,1/2-z
1/2-x,1/2+y,1/2+z
x,1/2-y,z
loop_
_atom_site_type_symbol
_atom_site_label
_atom_site_fract_x
_atom_site_fract_y
_atom_site_fract_z
Si Si1 0.076083 0.418207 0.534688
Si Si2 0.501240 0.578939 0.672678
Si Si3 0.014167 0.915138 0.322442
Si Si4 0.171695 0.919775 0.423029
Si Si5 0.432053 0.081958 0.546451
Si Si6 0.668975 0.915954 0.590453
O O1 0.075640 0.250000 0.509773
O O2 0.065552 0.430864 0.623644
O O3 0.157047 0.496131 0.501527
O O4 0.000000 0.500000 0.500000
O O5 0.484645 0.750000 0.666914
O O6 0.497255 0.529851 0.757273
O O7 0.428637 0.496337 0.626788
O O8 0.589941 0.536935 0.638821
O O9 0.018446 0.750000 0.291298
O O10 0.098104 0.952028 0.365973
O O11 0.179759 0.750000 0.440596
O O12 0.256033 0.978953 0.387490
O O13 0.457122 0.250000 0.557300
O O14 0.348634 0.069366 0.498250
O O15 0.500000 0.000000 0.500000
O O16 0.693125 0.750000 0.609692
#
# Coordination Sequence:
#
# PCOD8252311 Si02
#       6
#     8   8   8   8   8   8
#     4   9  17  31  51  73  98 129 165 203 244 293
#     4  10  20  33  52  77 102 133 171 208 251 301
#     4   9  19  34  51  74 102 133 168 204 248 302
#     4  10  20  33  52  77 101 130 169 210 255 303
#     4   9  17  31  51  73  98 128 164 204 244 293
#     4   9  19  34  51  74 101 129 165 209 254 298
#
# _framework density 17.856594999999999
#
# number of rings (size 3 to 8) (size 9 to 14) (size 15 to 20)
#    0.000    2.667    0.000    4.000    0.000    8.000 
#    0.000    1.667    0.000    2.000    0.000    0.000 
#    0.000    0.000    0.000    0.000    0.000    0.000 
#
# Total GULP energy -594892.898350 kJ/mol
# GULP energy per Si atom -12393.602049 kJ/mol
# Density = 1.781595 g / cm^3
# Si number density = 17.856595 Si / 1000 Ang^3
#
#
#
# Elastic Constant Matrix: (Units=GPa)
#
#
# Indices 1 2 3 4 5 6 
#
# 1 66.7959 43.6834 29.0525 0.0000 0.0000 0.0000
# 2 43.6834 122.6704 54.8689 0.0000 0.0000 0.0000
# 3 29.0525 54.8689 93.2353 0.0000 0.0000 0.0000
# 4 0.0000 0.0000 0.0000 35.6375 0.0000 0.0000
# 5 0.0000 0.0000 0.0000 0.0000 16.0146 0.0000
# 6 0.0000 0.0000 0.0000 0.0000 0.0000 30.7811
#
#
#
# Elastic Compliance Matrix: (Units=1/GPa)
#
#
# Indices 1 2 3 4 5 6 
#
# 1 0.020031 -0.005892 -0.002774 0.000000 0.000000 0.000000
# 2 -0.005892 0.012798 -0.005695 0.000000 0.000000 0.000000
# 3 -0.002774 -0.005695 0.014942 0.000000 0.000000 0.000000
# 4 0.000000 0.000000 0.000000 0.028060 0.000000 0.000000
# 5 0.000000 0.000000 0.000000 0.000000 0.062443 0.000000
# 6 0.000000 0.000000 0.000000 0.000000 0.000000 0.032487
#
#
# Mechanical properties :
#
#
# Convention : Reuss Voigt Hill
#
# Bulk Modulus (GPa) = 52.50220 59.76791 56.13506
# Shear Modulus (GPa) = 24.29145 26.82642 25.55893
#
# Velocity S-wave (km/s) = 3.69231 3.88019 3.78742
# Velocity P-wave (km/s) = 6.90243 7.32245 7.11554
#
# Compressibility (1/GPa) = 0.01904682
#
# Stress axis : x y z
#
# Youngs Moduli (GPa) = 49.92247 78.13937 66.92688
#
# Poissons Ratio (x) = 0.46042 0.18567
# Poissons Ratio (y) = 0.29416 0.38117
# Poissons Ratio (z) = 0.13849 0.44503
#
# Static dielectric constant tensor:
#      x y z
#    x 2.931510 0.000000 0.000000 
#    y 0.000000 3.481200 0.000000 
#    z 0.000000 0.000000 3.808660 
# 
# 
# High freq. dielectric constant tensor:
#      x y z
#    x 1.664550 0.000000 0.000000 
#    y 0.000000 1.707060 0.000000 
#    z 0.000000 0.000000 1.679160 
# 
# From -- ./inp_files/23754.got.cif
#   From: 2010.03.12/outbox.cif.g09.slc.cpg/sg62_12_cif.got.tgz:23754.got - 2010.04.10 19:12:36.
