data_PCOD8252040
_publ_section_title
;
Structure prediction by ZEFSAII (Michael W. Deem and Ramdas Pophale) SiO2 
 PCOD8252040
Probable space group: P N M A
;
_chemical_formula_sum "Si O2"
_cell_formula_units_Z 64
_cell_length_a 15.260854
_cell_length_b 8.602059
_cell_length_c 23.466149
_cell_angle_alpha 90.000000
_cell_angle_beta 90.000000
_cell_angle_gamma 90.000000
_cell_volume 3080.513231
_symmetry_space_group_name_H-M "P N M A"
_symmetry_group_IT_number 62
_symmetry_cell_setting 'orthorhombic'
loop_
_space_group_symop_operation_xyz
x,y,z
1/2-x,-y,1/2+z
1/2+x,1/2-y,1/2-z
-x,1/2+y,-z
-x,-y,-z
1/2+x,y,1/2-z
1/2-x,1/2+y,1/2+z
x,1/2-y,z
loop_
_atom_site_type_symbol
_atom_site_label
_atom_site_fract_x
_atom_site_fract_y
_atom_site_fract_z
Si Si1 0.595098 0.927616 0.125095
Si Si2 0.652411 0.571365 0.749332
Si Si3 0.898496 0.570766 0.366326
Si Si4 0.250494 0.071056 0.440513
Si Si5 0.837653 0.072276 0.747825
Si Si6 0.094658 0.927987 0.129818
Si Si7 0.748355 0.070928 0.438452
Si Si8 0.602691 0.071031 0.635526
O O1 0.621476 0.750000 0.111784
O O2 0.494741 0.961121 0.107778
O O3 0.604259 0.962595 0.192322
O O4 0.656999 0.038246 0.088337
O O5 0.634177 0.750000 0.734942
O O6 0.614911 0.534298 0.811241
O O7 0.755885 0.542245 0.748607
O O8 0.604590 0.465643 0.702574
O O9 0.888031 0.750000 0.348309
O O10 0.827540 0.531658 0.414314
O O11 0.254199 0.250000 0.458628
O O12 0.264731 0.965204 0.495451
O O13 0.328080 0.036977 0.396360
O O14 0.803388 0.250000 0.747866
O O15 0.896626 0.038078 0.802954
O O16 0.119771 0.750000 0.116303
O O17 0.994661 0.962533 0.111857
O O18 0.157795 0.038159 0.093977
O O19 0.772766 0.250000 0.430247
O O20 0.628880 0.250000 0.626241
#
# Coordination Sequence:
#
# PCOD8252040 Si02
#       8
#     8   8   8   8   8   8   8   8
#     4  10  22  41  67  96 126 166 211 257 313 373
#     4  12  23  36  60  97 133 169 207 253 311 372
#     4  11  23  42  67  95 128 167 209 257 315 376
#     4  12  26  44  66  92 125 166 212 263 316 371
#     4  10  19  36  64  93 127 167 205 251 309 374
#     4  10  22  41  67  96 126 166 211 257 313 373
#     4  12  26  44  66  92 125 166 212 263 316 371
#     4  11  23  42  67  95 128 167 209 257 315 376
#
# _framework density 20.775758
#
# number of rings (size 3 to 8) (size 9 to 14) (size 15 to 20)
#    0.000    1.000    2.500    4.875    0.000    5.000 
#    0.000    1.250    0.000    0.000    0.000    0.000 
#    0.000    0.000    0.000    0.000    0.000    0.000 
#
# Total GULP energy -794035.660597 kJ/mol
# GULP energy per Si atom -12406.807197 kJ/mol
# Density = 2.072847 g / cm^3
# Si number density = 20.775758 Si / 1000 Ang^3
#
#
#
# Elastic Constant Matrix: (Units=GPa)
#
#
# Indices 1 2 3 4 5 6 
#
# 1 110.4456 47.5428 16.9981 0.0000 0.0000 0.0000
# 2 47.5428 70.3114 20.0738 0.0000 0.0000 0.0000
# 3 16.9981 20.0738 80.9410 0.0000 0.0000 0.0000
# 4 0.0000 0.0000 0.0000 33.0813 0.0000 0.0000
# 5 0.0000 0.0000 0.0000 0.0000 7.4516 0.0000
# 6 0.0000 0.0000 0.0000 0.0000 0.0000 18.8494
#
#
#
# Elastic Compliance Matrix: (Units=1/GPa)
#
#
# Indices 1 2 3 4 5 6 
#
# 1 0.012797 -0.008487 -0.000583 0.000000 0.000000 0.000000
# 2 -0.008487 0.020934 -0.003410 0.000000 0.000000 0.000000
# 3 -0.000583 -0.003410 0.013323 0.000000 0.000000 0.000000
# 4 0.000000 0.000000 0.000000 0.030229 0.000000 0.000000
# 5 0.000000 0.000000 0.000000 0.000000 0.134199 0.000000
# 6 0.000000 0.000000 0.000000 0.000000 0.000000 0.053052
#
#
# Mechanical properties :
#
#
# Convention : Reuss Voigt Hill
#
# Bulk Modulus (GPa) = 45.25682 47.88081 46.56881
# Shear Modulus (GPa) = 16.84311 23.68201 20.26256
#
# Velocity S-wave (km/s) = 2.85039 3.37988 3.12636
# Velocity P-wave (km/s) = 5.71522 6.19096 5.95784
#
# Compressibility (1/GPa) = 0.02209612
#
# Stress axis : x y z
#
# Youngs Moduli (GPa) = 78.14247 47.76834 75.06014
#
# Poissons Ratio (x) = 0.40540 0.04374
# Poissons Ratio (y) = 0.66317 0.25592
# Poissons Ratio (z) = 0.04554 0.16287
#
# Static dielectric constant tensor:
#      x y z
#    x 3.786080 0.000000 0.000000 
#    y 0.000000 3.651320 0.000000 
#    z 0.000000 0.000000 3.671390 
# 
# 
# High freq. dielectric constant tensor:
#      x y z
#    x 1.821810 0.000000 0.000000 
#    y 0.000000 1.810720 0.000000 
#    z 0.000000 0.000000 1.809280 
# 
# From -- ./inp_files/29911.got.cif
#   From: 2010.03.12/outbox.cif.g09.slc.cpg/sg62_15_cif.got.tgz:29911.got - 2010.04.10 19:12:36.
