data_PCOD8252968
_publ_section_title
;
Structure prediction by ZEFSAII (Michael W. Deem and Ramdas Pophale) SiO2 
 PCOD8252968
Probable space group: P N M A
;
_chemical_formula_sum "Si O2"
_cell_formula_units_Z 56
_cell_length_a 10.837003
_cell_length_b 13.288754
_cell_length_c 20.929428
_cell_angle_alpha 90.000000
_cell_angle_beta 90.000000
_cell_angle_gamma 90.000000
_cell_volume 3014.052514
_symmetry_space_group_name_H-M "P N M A"
_symmetry_group_IT_number 62
_symmetry_cell_setting 'orthorhombic'
loop_
_space_group_symop_operation_xyz
x,y,z
1/2-x,-y,1/2+z
1/2+x,1/2-y,1/2-z
-x,1/2+y,-z
-x,-y,-z
1/2+x,y,1/2-z
1/2-x,1/2+y,1/2+z
x,1/2-y,z
loop_
_atom_site_type_symbol
_atom_site_label
_atom_site_fract_x
_atom_site_fract_y
_atom_site_fract_z
Si Si1 0.070229 0.021979 0.259521
Si Si2 0.657542 0.994051 0.592792
Si Si3 0.676991 0.869733 0.715813
Si Si4 0.430481 0.031253 0.904108
Si Si5 0.843754 0.361111 0.982712
Si Si6 0.056657 0.141941 0.493737
Si Si7 0.044260 0.631806 0.148215
O O1 0.196260 0.086807 0.253165
O O2 0.948381 0.088912 0.248071
O O3 0.052351 0.972278 0.328588
O O4 0.084782 0.929122 0.210750
O O5 0.788395 0.042451 0.576088
O O6 0.583143 0.087038 0.621787
O O7 0.675215 0.901961 0.642120
O O8 0.593799 0.944310 0.529692
O O9 0.679516 0.750000 0.722026
O O10 0.501128 0.124743 0.935427
O O11 0.490211 0.933679 0.939030
O O12 0.902954 0.250000 0.994204
O O13 0.702378 0.360618 0.001001
O O14 0.856861 0.388209 0.907961
O O15 0.011083 0.250000 0.469844
O O16 0.029559 0.750000 0.165046
#
# Coordination Sequence:
#
# PCOD8252968 Si02
#       7
#     8   8   8   8   8   8   8
#     4  10  22  36  55  80 112 149 179 226 274 326
#     4   9  18  34  54  77 104 142 178 227 268 322
#     4  10  20  36  57  81 107 140 186 229 280 330
#     4   9  19  34  52  75 105 137 175 217 273 320
#     4   9  17  31  54  78 103 136 179 225 270 316
#     4   9  18  32  53  79 101 131 176 222 268 320
#     4  10  21  35  51  78 111 147 184 219 264 324
#
# _framework density 18.579637000000002
#
# number of rings (size 3 to 8) (size 9 to 14) (size 15 to 20)
#    0.000    2.571    0.000    1.286    2.000    5.143 
#    0.000    5.714    0.000    0.857    0.000    0.000 
#    0.000    0.000    0.000    0.000    0.000    0.000 
#
# Total GULP energy -693956.969051 kJ/mol
# GULP energy per Si atom -12392.088733 kJ/mol
# Density = 1.853735 g / cm^3
# Si number density = 18.579637 Si / 1000 Ang^3
#
#
#
# Elastic Constant Matrix: (Units=GPa)
#
#
# Indices 1 2 3 4 5 6 
#
# 1 63.5107 33.8632 22.5172 0.0000 0.0000 0.0000
# 2 33.8632 113.5377 53.9862 0.0000 0.0000 0.0000
# 3 22.5172 53.9862 114.5748 0.0000 0.0000 0.0000
# 4 0.0000 0.0000 0.0000 23.1744 0.0000 0.0000
# 5 0.0000 0.0000 0.0000 0.0000 28.7309 0.0000
# 6 0.0000 0.0000 0.0000 0.0000 0.0000 23.6106
#
#
#
# Elastic Compliance Matrix: (Units=1/GPa)
#
#
# Indices 1 2 3 4 5 6 
#
# 1 0.018887 -0.004985 -0.001363 0.000000 0.000000 0.000000
# 2 -0.004985 0.012666 -0.004989 0.000000 0.000000 0.000000
# 3 -0.001363 -0.004989 0.011346 0.000000 0.000000 0.000000
# 4 0.000000 0.000000 0.000000 0.043151 0.000000 0.000000
# 5 0.000000 0.000000 0.000000 0.000000 0.034806 0.000000
# 6 0.000000 0.000000 0.000000 0.000000 0.000000 0.042354
#
#
# Mechanical properties :
#
#
# Convention : Reuss Voigt Hill
#
# Bulk Modulus (GPa) = 49.44026 56.92849 53.18437
# Shear Modulus (GPa) = 25.95717 27.18695 26.57206
#
# Velocity S-wave (km/s) = 3.74180 3.82942 3.78586
# Velocity P-wave (km/s) = 6.73319 7.08938 6.91358
#
# Compressibility (1/GPa) = 0.02022643
#
# Stress axis : x y z
#
# Youngs Moduli (GPa) = 52.94785 78.94857 88.13424
#
# Poissons Ratio (x) = 0.39356 0.12012
# Poissons Ratio (y) = 0.26394 0.43967
# Poissons Ratio (z) = 0.07216 0.39384
#
# Static dielectric constant tensor:
#      x y z
#    x 3.398800 0.000000 0.000000 
#    y 0.000000 3.592280 0.000000 
#    z 0.000000 0.000000 3.518390 
# 
# 
# High freq. dielectric constant tensor:
#      x y z
#    x 1.712410 0.000000 0.000000 
#    y 0.000000 1.720780 0.000000 
#    z 0.000000 0.000000 1.725560 
# 
# From -- ./inp_files/25995.got.cif
#   From: 2010.03.12/outbox.cif.g09.slc.cpg/sg62_13_cif.got.tgz:25995.got - 2010.04.10 19:12:36.
