data_PCOD8252579
_publ_section_title
;
Structure prediction by ZEFSAII (Michael W. Deem and Ramdas Pophale) SiO2 
 PCOD8252579
Probable space group: P N M A
;
_chemical_formula_sum "Si O2"
_cell_formula_units_Z 48
_cell_length_a 14.972240
_cell_length_b 9.219527
_cell_length_c 18.502288
_cell_angle_alpha 90.000000
_cell_angle_beta 90.000000
_cell_angle_gamma 90.000000
_cell_volume 2553.999791
_symmetry_space_group_name_H-M "P N M A"
_symmetry_group_IT_number 62
_symmetry_cell_setting 'orthorhombic'
loop_
_space_group_symop_operation_xyz
x,y,z
1/2-x,-y,1/2+z
1/2+x,1/2-y,1/2-z
-x,1/2+y,-z
-x,-y,-z
1/2+x,y,1/2-z
1/2-x,1/2+y,1/2+z
x,1/2-y,z
loop_
_atom_site_type_symbol
_atom_site_label
_atom_site_fract_x
_atom_site_fract_y
_atom_site_fract_z
Si Si1 0.006499 0.083248 0.322582
Si Si2 0.859741 0.082345 0.437207
Si Si3 0.826752 0.917594 0.580248
Si Si4 0.841937 0.584511 0.910933
Si Si5 0.984886 0.079050 0.824590
Si Si6 0.149100 0.080753 0.924231
O O1 0.988697 0.250000 0.301354
O O2 0.105689 0.062869 0.353436
O O3 0.934651 0.030438 0.381432
O O4 0.993286 0.983969 0.253359
O O5 0.872572 0.250000 0.459170
O O6 0.763360 0.058276 0.400647
O O7 0.869916 0.988606 0.509317
O O8 0.808415 0.750000 0.563234
O O9 0.734713 0.992948 0.603844
O O10 0.867857 0.750000 0.893562
O O11 0.892126 0.482639 0.854526
O O12 0.870490 0.543023 0.992360
O O13 0.975910 0.250000 0.818586
O O14 0.064071 0.032028 0.878244
O O15 0.171386 0.250000 0.915468
#
# Coordination Sequence:
#
# PCOD8252579 Si02
#       6
#     8   8   8   8   8   8
#     4  10  22  38  54  77 111 147 178 211 262 323
#     4   9  19  37  59  80 106 141 177 217 265 315
#     4  10  20  34  57  85 107 135 178 222 263 312
#     4   9  18  35  58  80 105 138 174 216 267 320
#     4  11  23  36  53  79 109 142 180 222 265 310
#     4   9  20  38  57  79 107 139 177 220 267 316
#
# _framework density 18.794051
#
# number of rings (size 3 to 8) (size 9 to 14) (size 15 to 20)
#    0.000    2.333    0.000    3.000    0.000    7.333 
#    0.000    5.000    0.000    0.000    0.000    0.000 
#    0.000    0.000    0.000    0.000    0.000    0.000 
#
# Total GULP energy -595409.592412 kJ/mol
# GULP energy per Si atom -12404.366509 kJ/mol
# Density = 1.875128 g / cm^3
# Si number density = 18.794051 Si / 1000 Ang^3
#
#
#
# Elastic Constant Matrix: (Units=GPa)
#
#
# Indices 1 2 3 4 5 6 
#
# 1 66.8193 31.4300 21.9725 0.0000 0.0000 0.0000
# 2 31.4300 70.7006 32.0478 0.0000 0.0000 0.0000
# 3 21.9725 32.0478 55.7503 0.0000 0.0000 0.0000
# 4 0.0000 0.0000 0.0000 35.4080 0.0000 0.0000
# 5 0.0000 0.0000 0.0000 0.0000 16.4909 0.0000
# 6 0.0000 0.0000 0.0000 0.0000 0.0000 30.2627
#
#
#
# Elastic Compliance Matrix: (Units=1/GPa)
#
#
# Indices 1 2 3 4 5 6 
#
# 1 0.019456 -0.006996 -0.003646 0.000000 0.000000 0.000000
# 2 -0.006996 0.021644 -0.009685 0.000000 0.000000 0.000000
# 3 -0.003646 -0.009685 0.024941 0.000000 0.000000 0.000000
# 4 0.000000 0.000000 0.000000 0.028242 0.000000 0.000000
# 5 0.000000 0.000000 0.000000 0.000000 0.060639 0.000000
# 6 0.000000 0.000000 0.000000 0.000000 0.000000 0.033044
#
#
# Mechanical properties :
#
#
# Convention : Reuss Voigt Hill
#
# Bulk Modulus (GPa) = 39.39020 40.46340 39.92680
# Shear Modulus (GPa) = 21.08963 23.62033 22.35498
#
# Velocity S-wave (km/s) = 3.35348 3.54898 3.45261
# Velocity P-wave (km/s) = 5.99990 6.19438 6.09791
#
# Compressibility (1/GPa) = 0.02538703
#
# Stress axis : x y z
#
# Youngs Moduli (GPa) = 51.39929 46.20153 40.09397
#
# Poissons Ratio (x) = 0.32324 0.14619
# Poissons Ratio (y) = 0.35960 0.38830
# Poissons Ratio (z) = 0.18741 0.44745
#
# Static dielectric constant tensor:
#      x y z
#    x 3.511790 0.000000 0.000000 
#    y 0.000000 3.419900 0.000000 
#    z 0.000000 0.000000 3.328100 
# 
# 
# High freq. dielectric constant tensor:
#      x y z
#    x 1.739540 0.000000 0.000000 
#    y 0.000000 1.730450 0.000000 
#    z 0.000000 0.000000 1.721850 
# 
# From -- ./inp_files/23700.got.cif
#   From: 2010.03.12/outbox.cif.g09.slc.cpg/sg62_12_cif.got.tgz:23700.got - 2010.04.10 19:12:36.
