data_PCOD8252730
_publ_section_title
;
Structure prediction by ZEFSAII (Michael W. Deem and Ramdas Pophale) SiO2 
 PCOD8252730
Probable space group: P N M A
;
_chemical_formula_sum "Si O2"
_cell_formula_units_Z 48
_cell_length_a 9.705798
_cell_length_b 12.303189
_cell_length_c 22.867318
_cell_angle_alpha 90.000000
_cell_angle_beta 90.000000
_cell_angle_gamma 90.000000
_cell_volume 2730.638287
_symmetry_space_group_name_H-M "P N M A"
_symmetry_group_IT_number 62
_symmetry_cell_setting 'orthorhombic'
loop_
_space_group_symop_operation_xyz
x,y,z
1/2-x,-y,1/2+z
1/2+x,1/2-y,1/2-z
-x,1/2+y,-z
-x,-y,-z
1/2+x,y,1/2-z
1/2-x,1/2+y,1/2+z
x,1/2-y,z
loop_
_atom_site_type_symbol
_atom_site_label
_atom_site_fract_x
_atom_site_fract_y
_atom_site_fract_z
Si Si1 0.536496 0.375816 0.686551
Si Si2 0.166133 0.625451 0.637686
Si Si3 0.644600 0.123928 0.468420
Si Si4 0.724810 0.979624 0.258433
Si Si5 0.120651 0.516821 0.921694
Si Si6 0.147148 0.374359 0.348349
O O1 0.543658 0.250000 0.669914
O O2 0.390953 0.400828 0.716173
O O3 0.658900 0.403648 0.730871
O O4 0.548569 0.444244 0.627499
O O5 0.204938 0.750000 0.652447
O O6 0.246454 0.585697 0.580296
O O7 0.208375 0.552990 0.692044
O O8 0.004571 0.612486 0.624880
O O9 0.660609 0.250000 0.482870
O O10 0.490137 0.101425 0.446552
O O11 0.679326 0.058719 0.527073
O O12 0.656798 0.058206 0.210990
O O13 0.247190 0.584907 0.896911
O O14 0.180726 0.250000 0.332785
#
# Coordination Sequence:
#
# PCOD8252730 Si02
#       6
#     8   8   8   8   8   8
#     4  11  22  36  56  78 110 148 184 225 273 330
#     4  10  20  35  56  82 111 143 180 228 281 329
#     4  10  20  36  58  82 109 144 186 230 276 321
#     4  11  20  37  54  82 112 142 182 226 278 331
#     4  10  21  36  57  82 111 145 183 231 270 328
#     4  10  21  36  56  82 113 145 180 224 278 332
#
# _framework density 17.578306999999999
#
# number of rings (size 3 to 8) (size 9 to 14) (size 15 to 20)
#    0.000    1.667    3.333    2.000    0.000    0.667 
#    0.000    0.000    0.000    0.000    0.000    0.000 
#    0.000    0.000    0.000    0.000    0.000    0.000 
#
# Total GULP energy -595421.973151 kJ/mol
# GULP energy per Si atom -12404.624441 kJ/mol
# Density = 1.753830 g / cm^3
# Si number density = 17.578307 Si / 1000 Ang^3
#
#
#
# Elastic Constant Matrix: (Units=GPa)
#
#
# Indices 1 2 3 4 5 6 
#
# 1 67.3768 8.8508 12.8836 0.0000 0.0000 0.0000
# 2 8.8508 42.5514 -2.4354 0.0000 0.0000 0.0000
# 3 12.8836 -2.4354 60.8806 0.0000 0.0000 0.0000
# 4 0.0000 0.0000 0.0000 93.9749 0.0000 0.0000
# 5 0.0000 0.0000 0.0000 0.0000 7.1593 0.0000
# 6 0.0000 0.0000 0.0000 0.0000 0.0000 28.1397
#
#
#
# Elastic Compliance Matrix: (Units=1/GPa)
#
#
# Indices 1 2 3 4 5 6 
#
# 1 0.015979 -0.003525 -0.003522 0.000000 0.000000 0.000000
# 2 -0.003525 0.024333 0.001719 0.000000 0.000000 0.000000
# 3 -0.003522 0.001719 0.017240 0.000000 0.000000 0.000000
# 4 0.000000 0.000000 0.000000 0.010641 0.000000 0.000000
# 5 0.000000 0.000000 0.000000 0.000000 0.139679 0.000000
# 6 0.000000 0.000000 0.000000 0.000000 0.000000 0.035537
#
#
# Mechanical properties :
#
#
# Convention : Reuss Voigt Hill
#
# Bulk Modulus (GPa) = 21.32443 23.26741 22.29592
# Shear Modulus (GPa) = 18.53943 35.95544 27.24743
#
# Velocity S-wave (km/s) = 3.25110 4.52756 3.94135
# Velocity P-wave (km/s) = 5.12351 6.37157 5.78132
#
# Compressibility (1/GPa) = 0.04689456
#
# Stress axis : x y z
#
# Youngs Moduli (GPa) = 62.58405 41.09705 58.00542
#
# Poissons Ratio (x) = 0.14487 0.20432
# Poissons Ratio (y) = 0.22062 -0.09973
# Poissons Ratio (z) = 0.22045 -0.07066
#
# Static dielectric constant tensor:
#      x y z
#    x 3.326160 0.000000 0.000000 
#    y 0.000000 3.223950 0.000000 
#    z 0.000000 0.000000 3.294310 
# 
# 
# High freq. dielectric constant tensor:
#      x y z
#    x 1.688720 0.000000 0.000000 
#    y 0.000000 1.683490 0.000000 
#    z 0.000000 0.000000 1.684280 
# 
# From -- ./inp_files/26532.got.cif
#   From: 2010.03.12/outbox.cif.g09.slc.cpg/sg62_14_cif.got.tgz:26532.got - 2010.04.10 19:12:36.
