data_PCOD8252128
_publ_section_title
;
Structure prediction by ZEFSAII (Michael W. Deem and Ramdas Pophale) SiO2 
 PCOD8252128
Probable space group: P N M A
;
_chemical_formula_sum "Si O2"
_cell_formula_units_Z 64
_cell_length_a 18.506287
_cell_length_b 18.767964
_cell_length_c 9.187183
_cell_angle_alpha 90.000000
_cell_angle_beta 90.000000
_cell_angle_gamma 90.000000
_cell_volume 3190.941351
_symmetry_space_group_name_H-M "P N M A"
_symmetry_group_IT_number 62
_symmetry_cell_setting 'orthorhombic'
loop_
_space_group_symop_operation_xyz
x,y,z
1/2-x,-y,1/2+z
1/2+x,1/2-y,1/2-z
-x,1/2+y,-z
-x,-y,-z
1/2+x,y,1/2-z
1/2-x,1/2+y,1/2+z
x,1/2-y,z
loop_
_atom_site_type_symbol
_atom_site_label
_atom_site_fract_x
_atom_site_fract_y
_atom_site_fract_z
Si Si1 0.864724 0.831117 0.472601
Si Si2 0.490995 0.917689 0.656455
Si Si3 0.363589 0.830296 0.685001
Si Si4 0.514573 0.669276 0.163451
Si Si5 0.773949 0.419786 0.304765
Si Si6 0.586626 0.667995 0.865398
Si Si7 0.081198 0.939676 0.121709
Si Si8 0.743286 0.557173 0.467285
O O1 0.847356 0.750000 0.428535
O O2 0.880518 0.835750 0.643788
O O3 0.936225 0.859332 0.389569
O O4 0.794848 0.876719 0.427488
O O5 0.433009 0.859958 0.596536
O O6 0.527303 0.883712 0.796941
O O7 0.552951 0.937997 0.543152
O O8 0.445051 0.988000 0.700799
O O9 0.347600 0.750000 0.635324
O O10 0.297298 0.879701 0.642788
O O11 0.505663 0.750000 0.216258
O O12 0.545208 0.626155 0.298042
O O13 0.574397 0.664458 0.037217
O O14 0.835664 0.361253 0.322268
O O15 0.784626 0.486433 0.412638
O O16 0.770132 0.447629 0.139455
O O17 0.578973 0.750000 0.809289
O O18 0.167948 0.934305 0.119819
#
# Coordination Sequence:
#
# PCOD8252128 Si02
#       8
#     8   8   8   8   8   8   8   8
#     4   9  20  39  62  88 116 156 206 249 298 368
#     4  11  22  40  63  89 123 160 203 257 308 369
#     4  10  19  38  64  88 117 155 205 253 298 358
#     4  10  23  41  62  91 125 160 205 258 312 372
#     4  11  24  41  62  93 124 163 206 255 306 368
#     4  11  23  41  65  92 123 163 211 258 307 369
#     4  11  25  41  59  93 131 160 205 256 315 372
#     4  11  24  41  63  89 123 164 202 254 308 370
#
# _framework density 20.056777
#
# number of rings (size 3 to 8) (size 9 to 14) (size 15 to 20)
#    0.000    1.500    3.750    0.750    3.500    2.500 
#    0.000    0.000    0.000    0.000    0.000    0.000 
#    0.000    0.000    0.000    0.000    0.000    0.000 
#
# Total GULP energy -793630.023378 kJ/mol
# GULP energy per Si atom -12400.469115 kJ/mol
# Density = 2.001113 g / cm^3
# Si number density = 20.056777 Si / 1000 Ang^3
#
#
#
# Elastic Constant Matrix: (Units=GPa)
#
#
# Indices 1 2 3 4 5 6 
#
# 1 95.5919 32.3203 11.4490 0.0000 0.0000 0.0000
# 2 32.3203 99.6454 23.9754 0.0000 0.0000 0.0000
# 3 11.4490 23.9754 32.3162 0.0000 0.0000 0.0000
# 4 0.0000 0.0000 0.0000 30.8408 0.0000 0.0000
# 5 0.0000 0.0000 0.0000 0.0000 26.7816 0.0000
# 6 0.0000 0.0000 0.0000 0.0000 0.0000 39.5068
#
#
#
# Elastic Compliance Matrix: (Units=1/GPa)
#
#
# Indices 1 2 3 4 5 6 
#
# 1 0.011820 -0.003441 -0.001635 0.000000 0.000000 0.000000
# 2 -0.003441 0.013218 -0.008587 0.000000 0.000000 0.000000
# 3 -0.001635 -0.008587 0.037895 0.000000 0.000000 0.000000
# 4 0.000000 0.000000 0.000000 0.032425 0.000000 0.000000
# 5 0.000000 0.000000 0.000000 0.000000 0.037339 0.000000
# 6 0.000000 0.000000 0.000000 0.000000 0.000000 0.025312
#
#
# Mechanical properties :
#
#
# Convention : Reuss Voigt Hill
#
# Bulk Modulus (GPa) = 28.08479 40.33810 34.21145
# Shear Modulus (GPa) = 25.35458 30.07974 27.71716
#
# Velocity S-wave (km/s) = 3.55933 3.87684 3.72147
# Velocity P-wave (km/s) = 5.56101 6.33999 5.96323
#
# Compressibility (1/GPa) = 0.03560646
#
# Stress axis : x y z
#
# Youngs Moduli (GPa) = 84.60061 75.65616 26.38904
#
# Poissons Ratio (x) = 0.26030 0.04315
# Poissons Ratio (y) = 0.29107 0.22661
# Poissons Ratio (z) = 0.13834 0.64968
#
# Static dielectric constant tensor:
#      x y z
#    x 3.834280 0.000000 0.000000 
#    y 0.000000 3.827470 0.000000 
#    z 0.000000 0.000000 3.315280 
# 
# 
# High freq. dielectric constant tensor:
#      x y z
#    x 1.798340 0.000000 0.000000 
#    y 0.000000 1.794110 0.000000 
#    z 0.000000 0.000000 1.755400 
# 
# From -- ./inp_files/8110.got.cif
#   From: 2010.03.12/outbox.cif.g09.slc.cpg/sg62_5_cif.got.tgz:8110.got - 2010.04.10 19:12:36.
