data_PCOD8252736
_publ_section_title
;
Structure prediction by ZEFSAII (Michael W. Deem and Ramdas Pophale) SiO2 
 PCOD8252736
Probable space group: P N M A
;
_chemical_formula_sum "Si O2"
_cell_formula_units_Z 48
_cell_length_a 9.854648
_cell_length_b 23.617859
_cell_length_c 11.694996
_cell_angle_alpha 90.000000
_cell_angle_beta 90.000000
_cell_angle_gamma 90.000000
_cell_volume 2721.959878
_symmetry_space_group_name_H-M "P N M A"
_symmetry_group_IT_number 62
_symmetry_cell_setting 'orthorhombic'
loop_
_space_group_symop_operation_xyz
x,y,z
1/2-x,-y,1/2+z
1/2+x,1/2-y,1/2-z
-x,1/2+y,-z
-x,-y,-z
1/2+x,y,1/2-z
1/2-x,1/2+y,1/2+z
x,1/2-y,z
loop_
_atom_site_type_symbol
_atom_site_label
_atom_site_fract_x
_atom_site_fract_y
_atom_site_fract_z
Si Si1 0.760336 0.594835 0.010165
Si Si2 0.850329 0.523920 0.809140
Si Si3 0.292760 0.315771 0.167977
Si Si4 0.385428 0.956059 0.283369
Si Si5 0.533254 0.435867 0.962598
Si Si6 0.412270 0.869423 0.823573
O O1 0.853948 0.592359 0.122893
O O2 0.608017 0.595787 0.055470
O O3 0.784645 0.538438 0.932304
O O4 0.783728 0.651607 0.935735
O O5 0.733238 0.503972 0.719609
O O6 0.926425 0.579521 0.765233
O O7 0.967069 0.477537 0.820493
O O8 0.286945 0.250000 0.140082
O O9 0.447591 0.335204 0.179659
O O10 0.212542 0.328979 0.286378
O O11 0.384781 0.931240 0.155358
O O12 0.500000 0.500000 0.000000
O O13 0.617940 0.399142 0.054564
#
# Coordination Sequence:
#
# PCOD8252736 Si02
#       6
#     8   8   8   8   8   8
#     4  10  21  34  50  80 103 143 185 215 265 317
#     4  11  20  32  53  78 116 144 172 213 255 331
#     4  10  21  39  60  77 102 136 182 239 277 307
#     4  12  20  33  51  77 118 149 173 206 262 326
#     4  11  18  33  51  76 117 148 171 206 259 333
#     4  10  20  35  56  83 107 139 180 218 270 320
#
# _framework density 17.634353000000001
#
# number of rings (size 3 to 8) (size 9 to 14) (size 15 to 20)
#    0.000    1.333    5.000    3.000    0.000    0.000 
#    6.000    0.000    0.000    5.000    0.000    0.000 
#    0.000    0.000    0.000    0.000    0.000    0.000 
#
# Total GULP energy -594944.091939 kJ/mol
# GULP energy per Si atom -12394.668582 kJ/mol
# Density = 1.759422 g / cm^3
# Si number density = 17.634353 Si / 1000 Ang^3
#
#
#
# Elastic Constant Matrix: (Units=GPa)
#
#
# Indices 1 2 3 4 5 6 
#
# 1 70.1525 37.9811 31.6510 0.0000 0.0000 0.0000
# 2 37.9811 88.2463 48.2658 0.0000 0.0000 0.0000
# 3 31.6510 48.2658 111.6449 0.0000 0.0000 0.0000
# 4 0.0000 0.0000 0.0000 17.9078 0.0000 0.0000
# 5 0.0000 0.0000 0.0000 0.0000 32.1770 0.0000
# 6 0.0000 0.0000 0.0000 0.0000 0.0000 23.2899
#
#
#
# Elastic Compliance Matrix: (Units=1/GPa)
#
#
# Indices 1 2 3 4 5 6 
#
# 1 0.019078 -0.006880 -0.002434 0.000000 0.000000 0.000000
# 2 -0.006880 0.017322 -0.005538 0.000000 0.000000 0.000000
# 3 -0.002434 -0.005538 0.012041 0.000000 0.000000 0.000000
# 4 0.000000 0.000000 0.000000 0.055842 0.000000 0.000000
# 5 0.000000 0.000000 0.000000 0.000000 0.031078 0.000000
# 6 0.000000 0.000000 0.000000 0.000000 0.000000 0.042937
#
#
# Mechanical properties :
#
#
# Convention : Reuss Voigt Hill
#
# Bulk Modulus (GPa) = 53.37101 56.20437 54.78769
# Shear Modulus (GPa) = 23.33753 24.81802 24.07777
#
# Velocity S-wave (km/s) = 3.64182 3.75556 3.69913
# Velocity P-wave (km/s) = 6.92928 7.12369 7.02715
#
# Compressibility (1/GPa) = 0.01873676
#
# Stress axis : x y z
#
# Youngs Moduli (GPa) = 52.41754 57.73024 83.04724
#
# Poissons Ratio (x) = 0.39716 0.20216
# Poissons Ratio (y) = 0.36061 0.45993
# Poissons Ratio (z) = 0.12760 0.31972
#
# Static dielectric constant tensor:
#      x y z
#    x 3.388290 0.000000 0.000000 
#    y 0.000000 3.012230 0.000000 
#    z 0.000000 0.000000 3.430730 
# 
# 
# High freq. dielectric constant tensor:
#      x y z
#    x 1.690680 0.000000 0.000000 
#    y 0.000000 1.641150 0.000000 
#    z 0.000000 0.000000 1.681000 
# 
# From -- ./inp_files/11281.got.cif
#   From: 2010.03.12/outbox.cif.g09.slc.cpg/sg62_6_cif.got.tgz:11281.got - 2010.04.10 19:12:36.
