data_PCOD8252805
_publ_section_title
;
Structure prediction by ZEFSAII (Michael W. Deem and Ramdas Pophale) SiO2 
 PCOD8252805
Probable space group: P N M A
;
_chemical_formula_sum "Si O2"
_cell_formula_units_Z 64
_cell_length_a 9.137239
_cell_length_b 16.785436
_cell_length_c 20.438214
_cell_angle_alpha 90.000000
_cell_angle_beta 90.000000
_cell_angle_gamma 90.000000
_cell_volume 3134.660803
_symmetry_space_group_name_H-M "P N M A"
_symmetry_group_IT_number 62
_symmetry_cell_setting 'orthorhombic'
loop_
_space_group_symop_operation_xyz
x,y,z
1/2-x,-y,1/2+z
1/2+x,1/2-y,1/2-z
-x,1/2+y,-z
-x,-y,-z
1/2+x,y,1/2-z
1/2-x,1/2+y,1/2+z
x,1/2-y,z
loop_
_atom_site_type_symbol
_atom_site_label
_atom_site_fract_x
_atom_site_fract_y
_atom_site_fract_z
Si Si1 0.525880 0.656534 0.061891
Si Si2 0.533823 0.844795 0.573486
Si Si3 0.648710 0.158422 0.691274
Si Si4 0.459181 0.412099 0.801666
Si Si5 0.977406 0.406815 0.309440
Si Si6 0.842059 0.841679 0.804953
Si Si7 0.863846 0.656277 0.568787
Si Si8 0.148083 0.342512 0.953844
O O1 0.534586 0.750000 0.077268
O O2 0.473969 0.613213 0.128207
O O3 0.686269 0.623972 0.041152
O O4 0.410564 0.636786 0.005331
O O5 0.541846 0.750000 0.570363
O O6 0.443951 0.874114 0.636505
O O7 0.699637 0.876851 0.578452
O O8 0.456684 0.881841 0.508706
O O9 0.700959 0.250000 0.695634
O O10 0.786376 0.101331 0.701924
O O11 0.526910 0.141360 0.744589
O O12 0.583047 0.141842 0.618636
O O13 0.492587 0.503519 0.787648
O O14 0.805429 0.392186 0.302462
O O15 0.069232 0.348859 0.262364
O O16 0.028178 0.391050 0.383414
O O17 0.799457 0.750000 0.816541
O O18 0.877974 0.750000 0.583365
O O19 0.154517 0.250000 0.970931
#
# Coordination Sequence:
#
# PCOD8252805 Si02
#       8
#     8   8   8   8   8   8   8   8
#     4   9  18  35  59  83 110 148 193 235 279 341
#     4   9  18  33  56  85 110 136 182 241 288 330
#     4  10  20  37  61  85 113 152 195 236 284 348
#     4  11  23  38  57  85 120 153 190 240 298 348
#     4  12  24  38  57  83 118 153 189 241 300 349
#     4  11  22  38  60  82 109 150 197 240 288 350
#     4  10  20  35  57  84 112 147 194 241 285 342
#     4   8  15  30  53  81 108 137 178 230 282 329
#
# _framework density 20.416882999999999
#
# number of rings (size 3 to 8) (size 9 to 14) (size 15 to 20)
#    0.000    2.000    0.000    5.250    0.000    4.500 
#    0.000    2.500    0.000    4.500    0.000    0.000 
#    0.000    0.000    0.000    0.000    0.000    0.000 
#
# Total GULP energy -793750.624545 kJ/mol
# GULP energy per Si atom -12402.353509 kJ/mol
# Density = 2.037041 g / cm^3
# Si number density = 20.416883 Si / 1000 Ang^3
#
#
#
# Elastic Constant Matrix: (Units=GPa)
#
#
# Indices 1 2 3 4 5 6 
#
# 1 92.8282 9.1013 41.7183 0.0000 0.0000 0.0000
# 2 9.1013 37.0589 16.9262 0.0000 0.0000 0.0000
# 3 41.7183 16.9262 114.1784 0.0000 0.0000 0.0000
# 4 0.0000 0.0000 0.0000 8.9064 0.0000 0.0000
# 5 0.0000 0.0000 0.0000 0.0000 43.2173 0.0000
# 6 0.0000 0.0000 0.0000 0.0000 0.0000 22.0067
#
#
#
# Elastic Compliance Matrix: (Units=1/GPa)
#
#
# Indices 1 2 3 4 5 6 
#
# 1 0.012930 -0.001092 -0.004563 0.000000 0.000000 0.000000
# 2 -0.001092 0.029036 -0.003906 0.000000 0.000000 0.000000
# 3 -0.004563 -0.003906 0.011004 0.000000 0.000000 0.000000
# 4 0.000000 0.000000 0.000000 0.112278 0.000000 0.000000
# 5 0.000000 0.000000 0.000000 0.000000 0.023139 0.000000
# 6 0.000000 0.000000 0.000000 0.000000 0.000000 0.045441
#
#
# Mechanical properties :
#
#
# Convention : Reuss Voigt Hill
#
# Bulk Modulus (GPa) = 29.54130 42.17301 35.85716
# Shear Modulus (GPa) = 18.92281 26.58074 22.75177
#
# Velocity S-wave (km/s) = 3.04768 3.61210 3.34183
# Velocity P-wave (km/s) = 5.18507 6.17229 5.70009
#
# Compressibility (1/GPa) = 0.03385091
#
# Stress axis : x y z
#
# Youngs Moduli (GPa) = 77.33907 34.44004 90.87400
#
# Poissons Ratio (x) = 0.03759 0.41462
# Poissons Ratio (y) = 0.08442 0.35491
# Poissons Ratio (z) = 0.35286 0.13451
#
# Static dielectric constant tensor:
#      x y z
#    x 3.696940 0.000000 0.000000 
#    y 0.000000 3.322920 0.000000 
#    z 0.000000 0.000000 3.864280 
# 
# 
# High freq. dielectric constant tensor:
#      x y z
#    x 1.796970 0.000000 0.000000 
#    y 0.000000 1.765220 0.000000 
#    z 0.000000 0.000000 1.813650 
# 
# From -- ./inp_files/26194.got.cif
#   From: 2010.03.12/outbox.cif.g09.slc.cpg/sg62_14_cif.got.tgz:26194.got - 2010.04.10 19:12:36.
