data_PCOD8252116
_publ_section_title
;
Structure prediction by ZEFSAII (Michael W. Deem and Ramdas Pophale) SiO2 
 PCOD8252116
Probable space group: P N M A
;
_chemical_formula_sum "Si O2"
_cell_formula_units_Z 64
_cell_length_a 12.506769
_cell_length_b 13.929885
_cell_length_c 17.723895
_cell_angle_alpha 90.000000
_cell_angle_beta 90.000000
_cell_angle_gamma 90.000000
_cell_volume 3087.818949
_symmetry_space_group_name_H-M "P N M A"
_symmetry_group_IT_number 62
_symmetry_cell_setting 'orthorhombic'
loop_
_space_group_symop_operation_xyz
x,y,z
1/2-x,-y,1/2+z
1/2+x,1/2-y,1/2-z
-x,1/2+y,-z
-x,-y,-z
1/2+x,y,1/2-z
1/2-x,1/2+y,1/2+z
x,1/2-y,z
loop_
_atom_site_type_symbol
_atom_site_label
_atom_site_fract_x
_atom_site_fract_y
_atom_site_fract_z
Si Si1 0.755767 0.430146 0.826295
Si Si2 0.527923 0.363193 0.075216
Si Si3 0.892942 0.140446 0.701567
Si Si4 0.257309 0.860202 0.013619
Si Si5 0.129480 0.452360 0.984174
Si Si6 0.046251 0.526750 0.717974
Si Si7 0.520698 0.480762 0.372994
Si Si8 0.348686 0.361849 0.964057
O O1 0.786431 0.365593 0.753721
O O2 0.711615 0.368897 0.897284
O O3 0.669821 0.512046 0.803891
O O4 0.865626 0.478812 0.849107
O O5 0.514623 0.250000 0.086075
O O6 0.517609 0.410334 0.157500
O O7 0.640552 0.388850 0.037116
O O8 0.434451 0.406747 0.021935
O O9 0.931837 0.250000 0.698033
O O10 0.865486 0.096628 0.619523
O O11 0.992921 0.078190 0.730924
O O12 0.222097 0.750000 0.997603
O O13 0.164739 0.935064 0.992257
O O14 0.230123 0.383498 0.991594
O O15 0.066945 0.441223 0.904237
O O16 0.048498 0.419198 0.051488
O O17 0.032741 0.575505 0.801642
O O18 0.367906 0.250000 0.961352
#
# Coordination Sequence:
#
# PCOD8252116 Si02
#       8
#     8   8   8   8   8   8   8   8
#     4  10  20  35  57  80 111 146 178 223 283 340
#     4  10  21  36  55  83 114 146 192 239 272 318
#     4  10  21  34  52  83 115 141 178 227 276 335
#     4  10  20  34  56  83 111 147 185 222 273 331
#     4  10  19  38  58  76 109 144 179 227 275 324
#     4  11  21  36  57  80 110 148 184 224 281 334
#     4   9  21  37  56  82 107 138 184 229 271 330
#     4  10  20  35  56  81 109 145 185 223 272 329
#
# _framework density 20.726603000000001
#
# number of rings (size 3 to 8) (size 9 to 14) (size 15 to 20)
#    0.000    2.000    0.000    4.125    0.000    4.500 
#    0.000   10.625    0.000    6.750    0.000    0.000 
#    0.000    0.000    0.000    0.000    0.000    0.000 
#
# Total GULP energy -793002.703406 kJ/mol
# GULP energy per Si atom -12390.667241 kJ/mol
# Density = 2.067943 g / cm^3
# Si number density = 20.726603 Si / 1000 Ang^3
#
#
#
# Elastic Constant Matrix: (Units=GPa)
#
#
# Indices 1 2 3 4 5 6 
#
# 1 108.8829 17.4207 50.3323 0.0000 0.0000 0.0000
# 2 17.4207 27.4449 18.5841 0.0000 0.0000 0.0000
# 3 50.3323 18.5841 168.3244 0.0000 0.0000 0.0000
# 4 0.0000 0.0000 0.0000 20.0611 0.0000 0.0000
# 5 0.0000 0.0000 0.0000 0.0000 36.8957 0.0000
# 6 0.0000 0.0000 0.0000 0.0000 0.0000 23.0851
#
#
#
# Elastic Compliance Matrix: (Units=1/GPa)
#
#
# Indices 1 2 3 4 5 6 
#
# 1 0.011326 -0.005292 -0.002803 0.000000 0.000000 0.000000
# 2 -0.005292 0.041853 -0.003039 0.000000 0.000000 0.000000
# 3 -0.002803 -0.003039 0.007114 0.000000 0.000000 0.000000
# 4 0.000000 0.000000 0.000000 0.049848 0.000000 0.000000
# 5 0.000000 0.000000 0.000000 0.000000 0.027103 0.000000
# 6 0.000000 0.000000 0.000000 0.000000 0.000000 0.043318
#
#
# Mechanical properties :
#
#
# Convention : Reuss Voigt Hill
#
# Bulk Modulus (GPa) = 26.29622 53.03626 39.66624
# Shear Modulus (GPa) = 23.20137 30.56273 26.88205
#
# Velocity S-wave (km/s) = 3.34937 3.84417 3.60527
# Velocity P-wave (km/s) = 5.26046 6.73406 6.04235
#
# Compressibility (1/GPa) = 0.03802828
#
# Stress axis : x y z
#
# Youngs Moduli (GPa) = 88.28981 23.89311 140.55991
#
# Poissons Ratio (x) = 0.12643 0.39393
# Poissons Ratio (y) = 0.46720 0.42710
# Poissons Ratio (z) = 0.24744 0.07260
#
# Static dielectric constant tensor:
#      x y z
#    x 3.770660 0.000000 0.000000 
#    y 0.000000 3.306570 0.000000 
#    z 0.000000 0.000000 4.532880 
# 
# 
# High freq. dielectric constant tensor:
#      x y z
#    x 1.819580 0.000000 0.000000 
#    y 0.000000 1.765550 0.000000 
#    z 0.000000 0.000000 1.833620 
# 
# From -- ./inp_files/23233.got.cif
#   From: 2010.03.12/outbox.cif.g09.slc.cpg/sg62_12_cif.got.tgz:23233.got - 2010.04.10 19:12:36.
