data_PCOD8252870
_publ_section_title
;
Structure prediction by ZEFSAII (Michael W. Deem and Ramdas Pophale) SiO2 
 PCOD8252870
Probable space group: P N M A
;
_chemical_formula_sum "Si O2"
_cell_formula_units_Z 48
_cell_length_a 16.265639
_cell_length_b 8.835549
_cell_length_c 17.979734
_cell_angle_alpha 90.000000
_cell_angle_beta 90.000000
_cell_angle_gamma 90.000000
_cell_volume 2583.972762
_symmetry_space_group_name_H-M "P N M A"
_symmetry_group_IT_number 62
_symmetry_cell_setting 'orthorhombic'
loop_
_space_group_symop_operation_xyz
x,y,z
1/2-x,-y,1/2+z
1/2+x,1/2-y,1/2-z
-x,1/2+y,-z
-x,-y,-z
1/2+x,y,1/2-z
1/2-x,1/2+y,1/2+z
x,1/2-y,z
loop_
_atom_site_type_symbol
_atom_site_label
_atom_site_fract_x
_atom_site_fract_y
_atom_site_fract_z
Si Si1 0.654440 0.428002 0.670879
Si Si2 0.336675 0.426846 0.170530
Si Si3 0.749121 0.426241 0.048080
Si Si4 0.669859 0.425686 0.409524
Si Si5 0.418036 0.927041 0.030992
Si Si6 0.993267 0.072311 0.919560
O O1 0.670074 0.250000 0.670951
O O2 0.646280 0.486632 0.753969
O O3 0.731328 0.508704 0.629887
O O4 0.570642 0.474534 0.629983
O O5 0.355259 0.250000 0.179541
O O6 0.242345 0.457132 0.148539
O O7 0.397049 0.493559 0.108574
O O8 0.770204 0.250000 0.044467
O O9 0.807797 0.511829 0.990588
O O10 0.653883 0.456757 0.029059
O O11 0.650975 0.250000 0.419286
O O12 0.588581 0.508880 0.379178
O O13 0.430938 0.750000 0.045439
O O14 0.500000 0.000000 0.000000
O O15 0.985970 0.250000 0.928279
O O16 0.000000 0.000000 0.000000
#
# Coordination Sequence:
#
# PCOD8252870 Si02
#       6
#     8   8   8   8   8   8
#     4  11  23  38  57  85 119 153 192 238 290 344
#     4  10  22  40  61  84 115 154 193 240 293 342
#     4  10  20  35  59  85 112 149 190 232 282 342
#     4  10  20  36  58  84 112 148 191 231 281 342
#     4  10  21  39  63  89 115 150 197 243 289 344
#     4  11  22  35  57  87 118 152 192 236 284 342
#
# _framework density 18.576046999999999
#
# number of rings (size 3 to 8) (size 9 to 14) (size 15 to 20)
#    0.000    1.667    1.667    3.000    0.000    6.000 
#    3.000    0.000    0.000    0.000    0.000    0.000 
#    0.000    0.000    0.000    0.000    0.000    0.000 
#
# Total GULP energy -595413.275968 kJ/mol
# GULP energy per Si atom -12404.443249 kJ/mol
# Density = 1.853377 g / cm^3
# Si number density = 18.576047 Si / 1000 Ang^3
#
#
#
# Elastic Constant Matrix: (Units=GPa)
#
#
# Indices 1 2 3 4 5 6 
#
# 1 117.7013 54.2849 57.2215 0.0000 0.0000 0.0000
# 2 54.2849 76.7914 44.1630 0.0000 0.0000 0.0000
# 3 57.2215 44.1630 112.5539 0.0000 0.0000 0.0000
# 4 0.0000 0.0000 0.0000 35.5373 0.0000 0.0000
# 5 0.0000 0.0000 0.0000 0.0000 22.8585 0.0000
# 6 0.0000 0.0000 0.0000 0.0000 0.0000 35.5873
#
#
#
# Elastic Compliance Matrix: (Units=1/GPa)
#
#
# Indices 1 2 3 4 5 6 
#
# 1 0.013973 -0.007480 -0.004169 0.000000 0.000000 0.000000
# 2 -0.007480 0.020821 -0.004367 0.000000 0.000000 0.000000
# 3 -0.004169 -0.004367 0.012717 0.000000 0.000000 0.000000
# 4 0.000000 0.000000 0.000000 0.028139 0.000000 0.000000
# 5 0.000000 0.000000 0.000000 0.000000 0.043747 0.000000
# 6 0.000000 0.000000 0.000000 0.000000 0.000000 0.028100
#
#
# Mechanical properties :
#
#
# Convention : Reuss Voigt Hill
#
# Bulk Modulus (GPa) = 64.59844 68.70948 66.65396
# Shear Modulus (GPa) = 27.07249 28.88843 27.98046
#
# Velocity S-wave (km/s) = 3.82172 3.94781 3.88527
# Velocity P-wave (km/s) = 7.37052 7.60584 7.48911
#
# Compressibility (1/GPa) = 0.01548025
#
# Stress axis : x y z
#
# Youngs Moduli (GPa) = 71.56912 48.02732 78.63248
#
# Poissons Ratio (x) = 0.35924 0.32778
# Poissons Ratio (y) = 0.53534 0.34339
# Poissons Ratio (z) = 0.29834 0.20974
#
# Static dielectric constant tensor:
#      x y z
#    x 3.387380 0.000000 0.000000 
#    y 0.000000 3.583350 0.000000 
#    z 0.000000 0.000000 3.288180 
# 
# 
# High freq. dielectric constant tensor:
#      x y z
#    x 1.727210 0.000000 0.000000 
#    y 0.000000 1.741420 0.000000 
#    z 0.000000 0.000000 1.708350 
# 
# From -- ./inp_files/23678.got.cif
#   From: 2010.03.12/outbox.cif.g09.slc.cpg/sg62_12_cif.got.tgz:23678.got - 2010.04.10 19:12:36.
