data_PCOD8252562
_publ_section_title
;
Structure prediction by ZEFSAII (Michael W. Deem and Ramdas Pophale) SiO2 
 PCOD8252562
Probable space group: P N M A
;
_chemical_formula_sum "Si O2"
_cell_formula_units_Z 56
_cell_length_a 14.746142
_cell_length_b 9.571310
_cell_length_c 18.932819
_cell_angle_alpha 90.000000
_cell_angle_beta 90.000000
_cell_angle_gamma 90.000000
_cell_volume 2672.176112
_symmetry_space_group_name_H-M "P N M A"
_symmetry_group_IT_number 62
_symmetry_cell_setting 'orthorhombic'
loop_
_space_group_symop_operation_xyz
x,y,z
1/2-x,-y,1/2+z
1/2+x,1/2-y,1/2-z
-x,1/2+y,-z
-x,-y,-z
1/2+x,y,1/2-z
1/2-x,1/2+y,1/2+z
x,1/2-y,z
loop_
_atom_site_type_symbol
_atom_site_label
_atom_site_fract_x
_atom_site_fract_y
_atom_site_fract_z
Si Si1 0.955311 0.600285 0.594585
Si Si2 0.627711 0.597862 0.998662
Si Si3 0.251909 0.404696 0.588909
Si Si4 0.087587 0.591424 0.987705
Si Si5 0.021583 0.088290 0.249400
Si Si6 0.342188 0.414188 0.335558
Si Si7 0.200716 0.912081 0.246984
O O1 0.904483 0.750000 0.601880
O O2 0.879531 0.486275 0.572693
O O3 0.003251 0.563661 0.668379
O O4 0.028283 0.613707 0.533199
O O5 0.669517 0.750000 0.015069
O O6 0.687398 0.521290 0.941446
O O7 0.217212 0.250000 0.566822
O O8 0.352011 0.427423 0.557484
O O9 0.247991 0.419524 0.672700
O O10 0.054475 0.750000 0.977605
O O11 0.144813 0.547028 0.918133
O O12 0.000000 0.500000 0.000000
O O13 0.047075 0.250000 0.233240
O O14 0.934821 0.042572 0.204108
O O15 0.105203 0.987313 0.232872
O O16 0.320767 0.250000 0.324191
O O17 0.258856 0.505104 0.305600
O O18 0.186717 0.750000 0.269992
#
# Coordination Sequence:
#
# PCOD8252562 Si02
#       7
#     8   8   8   8   8   8   8
#     4   9  19  35  54  79 114 151 184 231 295 352
#     4  10  20  34  56  85 112 145 192 239 282 345
#     4  10  22  39  57  81 118 158 193 238 303 360
#     4  10  22  40  63  88 118 158 203 252 305 361
#     4  10  21  38  61  84 115 157 202 251 303 365
#     4  10  22  41  64  91 122 162 211 258 309 371
#     4  11  24  39  59  89 124 161 204 256 312 368
#
# _framework density 20.956703999999998
#
# number of rings (size 3 to 8) (size 9 to 14) (size 15 to 20)
#    0.000    2.000    0.000    2.571    2.000    5.143 
#    0.000    0.000    0.000    0.000    0.000    0.000 
#    0.000    0.000    0.000    0.000    0.000    0.000 
#
# Total GULP energy -694285.756148 kJ/mol
# GULP energy per Si atom -12397.959931 kJ/mol
# Density = 2.090901 g / cm^3
# Si number density = 20.956704 Si / 1000 Ang^3
#
#
#
# Elastic Constant Matrix: (Units=GPa)
#
#
# Indices 1 2 3 4 5 6 
#
# 1 46.2231 30.9018 -0.6036 0.0000 0.0000 0.0000
# 2 30.9018 114.5853 21.9485 0.0000 0.0000 0.0000
# 3 -0.6036 21.9485 74.3591 0.0000 0.0000 0.0000
# 4 0.0000 0.0000 0.0000 25.5021 0.0000 0.0000
# 5 0.0000 0.0000 0.0000 0.0000 28.4156 0.0000
# 6 0.0000 0.0000 0.0000 0.0000 0.0000 22.5226
#
#
#
# Elastic Compliance Matrix: (Units=1/GPa)
#
#
# Indices 1 2 3 4 5 6 
#
# 1 0.026822 -0.007711 0.002494 0.000000 0.000000 0.000000
# 2 -0.007711 0.011467 -0.003447 0.000000 0.000000 0.000000
# 3 0.002494 -0.003447 0.014486 0.000000 0.000000 0.000000
# 4 0.000000 0.000000 0.000000 0.039212 0.000000 0.000000
# 5 0.000000 0.000000 0.000000 0.000000 0.035192 0.000000
# 6 0.000000 0.000000 0.000000 0.000000 0.000000 0.044400
#
#
# Mechanical properties :
#
#
# Convention : Reuss Voigt Hill
#
# Bulk Modulus (GPa) = 28.21214 37.74011 32.97612
# Shear Modulus (GPa) = 24.90986 27.48277 26.19631
#
# Velocity S-wave (km/s) = 3.45140 3.62526 3.53940
# Velocity P-wave (km/s) = 5.41980 5.96415 5.69848
#
# Compressibility (1/GPa) = 0.03544573
#
# Stress axis : x y z
#
# Youngs Moduli (GPa) = 37.28293 87.20668 69.03200
#
# Poissons Ratio (x) = 0.67246 -0.17215
# Poissons Ratio (y) = 0.28749 0.23797
# Poissons Ratio (z) = -0.09298 0.30063
#
# Static dielectric constant tensor:
#      x y z
#    x 3.496990 0.000000 0.000000 
#    y 0.000000 4.162090 0.000000 
#    z 0.000000 0.000000 3.947300 
# 
# 
# High freq. dielectric constant tensor:
#      x y z
#    x 1.805340 0.000000 0.000000 
#    y 0.000000 1.826020 0.000000 
#    z 0.000000 0.000000 1.831970 
# 
# From -- ./inp_files/27289.got.cif
#   From: 2010.03.12/outbox.cif.g09.slc.cpg/sg62_14_cif.got.tgz:27289.got - 2010.04.10 19:12:36.
