data_PCOD8252206
_publ_section_title
;
Structure prediction by ZEFSAII (Michael W. Deem and Ramdas Pophale) SiO2 
 PCOD8252206
Probable space group: P N M A
;
_chemical_formula_sum "Si O2"
_cell_formula_units_Z 64
_cell_length_a 18.851723
_cell_length_b 8.868714
_cell_length_c 23.478767
_cell_angle_alpha 90.000000
_cell_angle_beta 90.000000
_cell_angle_gamma 90.000000
_cell_volume 3925.427726
_symmetry_space_group_name_H-M "P N M A"
_symmetry_group_IT_number 62
_symmetry_cell_setting 'orthorhombic'
loop_
_space_group_symop_operation_xyz
x,y,z
1/2-x,-y,1/2+z
1/2+x,1/2-y,1/2-z
-x,1/2+y,-z
-x,-y,-z
1/2+x,y,1/2-z
1/2-x,1/2+y,1/2+z
x,1/2-y,z
loop_
_atom_site_type_symbol
_atom_site_label
_atom_site_fract_x
_atom_site_fract_y
_atom_site_fract_z
Si Si1 0.736106 0.924988 0.658377
Si Si2 0.858785 0.422759 0.268025
Si Si3 0.862017 0.927556 0.938637
Si Si4 0.004882 0.076932 0.762188
Si Si5 0.851131 0.423077 0.727454
Si Si6 0.854063 0.571011 0.065778
Si Si7 0.778472 0.926050 0.831126
Si Si8 0.493563 0.428510 0.382488
O O1 0.741677 0.750000 0.644333
O O2 0.679658 0.957438 0.708213
O O3 0.813395 0.983102 0.677420
O O4 0.712416 0.011089 0.601665
O O5 0.883660 0.250000 0.270450
O O6 0.926780 0.529640 0.275045
O O7 0.804403 0.459898 0.319483
O O8 0.868822 0.750000 0.942171
O O9 0.798277 0.972727 0.895648
O O10 0.936943 0.989542 0.915260
O O11 0.845418 0.991587 0.001288
O O12 0.012225 0.250000 0.782090
O O13 0.935802 0.055406 0.722572
O O14 0.999779 0.969160 0.816485
O O15 0.828592 0.250000 0.720734
O O16 0.827946 0.478685 0.789575
O O17 0.854643 0.750000 0.068196
O O18 0.926975 0.510217 0.090434
O O19 0.794575 0.750000 0.819028
O O20 0.483325 0.250000 0.387838
#
# Coordination Sequence:
#
# PCOD8252206 Si02
#       8
#     8   8   8   8   8   8   8   8
#     4  10  20  34  50  70  94 128 165 200 242 291
#     4   9  18  30  49  70  93 124 160 197 240 290
#     4   9  19  33  50  70  95 132 170 204 243 285
#     4  11  21  31  47  72 101 130 160 198 246 292
#     4  10  20  32  48  72  97 124 159 201 248 291
#     4  11  21  33  49  70  98 131 167 207 245 282
#     4   9  17  33  51  69  94 126 163 201 240 290
#     4  11  20  32  48  67  97 136 173 202 233 282
#
# _framework density 16.303955999999999
#
# number of rings (size 3 to 8) (size 9 to 14) (size 15 to 20)
#    0.000    2.000    2.500    3.000    0.000    3.500 
#    0.000    3.125    0.000    0.000    0.000    0.875 
#    0.000    0.000    0.000    0.000    0.000    0.000 
#
# Total GULP energy -793619.117431 kJ/mol
# GULP energy per Si atom -12400.298710 kJ/mol
# Density = 1.626685 g / cm^3
# Si number density = 16.303956 Si / 1000 Ang^3
#
#
#
# Elastic Constant Matrix: (Units=GPa)
#
#
# Indices 1 2 3 4 5 6 
#
# 1 98.5428 36.9839 47.8083 0.0000 0.0000 0.0000
# 2 36.9839 63.3081 22.1858 0.0000 0.0000 0.0000
# 3 47.8083 22.1858 86.1200 0.0000 0.0000 0.0000
# 4 0.0000 0.0000 0.0000 17.4486 0.0000 0.0000
# 5 0.0000 0.0000 0.0000 0.0000 19.3732 0.0000
# 6 0.0000 0.0000 0.0000 0.0000 0.0000 25.7376
#
#
#
# Elastic Compliance Matrix: (Units=1/GPa)
#
#
# Indices 1 2 3 4 5 6 
#
# 1 0.016277 -0.006972 -0.007240 0.000000 0.000000 0.000000
# 2 -0.006972 0.020349 -0.001372 0.000000 0.000000 0.000000
# 3 -0.007240 -0.001372 0.015984 0.000000 0.000000 0.000000
# 4 0.000000 0.000000 0.000000 0.057311 0.000000 0.000000
# 5 0.000000 0.000000 0.000000 0.000000 0.051618 0.000000
# 6 0.000000 0.000000 0.000000 0.000000 0.000000 0.038854
#
#
# Mechanical properties :
#
#
# Convention : Reuss Voigt Hill
#
# Bulk Modulus (GPa) = 46.63457 51.32520 48.97989
# Shear Modulus (GPa) = 20.94609 21.91139 21.42874
#
# Velocity S-wave (km/s) = 3.58819 3.66994 3.62930
# Velocity P-wave (km/s) = 6.76995 7.03609 6.90430
#
# Compressibility (1/GPa) = 0.02144332
#
# Stress axis : x y z
#
# Youngs Moduli (GPa) = 61.43725 49.14167 62.56150
#
# Poissons Ratio (x) = 0.34259 0.45293
# Poissons Ratio (y) = 0.42831 0.08584
# Poissons Ratio (z) = 0.44480 0.06743
#
# Static dielectric constant tensor:
#      x y z
#    x 3.164040 0.000000 0.000000 
#    y 0.000000 3.072220 0.000000 
#    z 0.000000 0.000000 3.129640 
# 
# 
# High freq. dielectric constant tensor:
#      x y z
#    x 1.622780 0.000000 0.000000 
#    y 0.000000 1.630580 0.000000 
#    z 0.000000 0.000000 1.600730 
# 
# From -- ./inp_files/30062.got.cif
#   From: 2010.03.12/outbox.cif.g09.slc.cpg/sg62_16_cif.got.tgz:30062.got - 2010.04.10 19:12:36.
