data_PCOD8252592
_publ_section_title
;
Structure prediction by ZEFSAII (Michael W. Deem and Ramdas Pophale) SiO2 
 PCOD8252592
Probable space group: P N M A
;
_chemical_formula_sum "Si O2"
_cell_formula_units_Z 56
_cell_length_a 8.506232
_cell_length_b 20.028608
_cell_length_c 15.017669
_cell_angle_alpha 90.000000
_cell_angle_beta 90.000000
_cell_angle_gamma 90.000000
_cell_volume 2558.530026
_symmetry_space_group_name_H-M "P N M A"
_symmetry_group_IT_number 62
_symmetry_cell_setting 'orthorhombic'
loop_
_space_group_symop_operation_xyz
x,y,z
1/2-x,-y,1/2+z
1/2+x,1/2-y,1/2-z
-x,1/2+y,-z
-x,-y,-z
1/2+x,y,1/2-z
1/2-x,1/2+y,1/2+z
x,1/2-y,z
loop_
_atom_site_type_symbol
_atom_site_label
_atom_site_fract_x
_atom_site_fract_y
_atom_site_fract_z
Si Si1 0.966412 0.676671 0.725968
Si Si2 0.841711 0.041949 0.005425
Si Si3 0.793025 0.517227 0.330474
Si Si4 0.090211 0.826283 0.462365
Si Si5 0.237911 0.175575 0.438833
Si Si6 0.744269 0.372578 0.366137
Si Si7 0.644660 0.955973 0.143259
O O1 0.041163 0.750000 0.716134
O O2 0.813009 0.669731 0.663730
O O3 0.906736 0.665425 0.826307
O O4 0.103653 0.627224 0.698370
O O5 0.718254 0.998544 0.062874
O O6 0.771517 0.064532 0.909048
O O7 0.865807 0.116267 0.047404
O O8 0.000000 0.000000 0.000000
O O9 0.704099 0.450518 0.365151
O O10 0.749700 0.541584 0.231967
O O11 0.979900 0.510027 0.333902
O O12 0.113121 0.750000 0.428434
O O13 0.219145 0.841262 0.538379
O O14 0.121801 0.878102 0.382359
O O15 0.916414 0.836650 0.500775
O O16 0.307858 0.250000 0.458048
#
# Coordination Sequence:
#
# PCOD8252592 Si02
#       7
#     8   8   8   8   8   8   8
#     4  10  20  34  57  90 127 163 206 258 324 398
#     4  12  24  42  66 100 136 175 225 279 335 404
#     4  12  24  40  69  97 129 178 221 279 348 395
#     4  10  20  40  68  93 127 180 229 281 347 411
#     4   9  19  38  64  92 125 173 220 273 342 401
#     4  11  20  36  59  92 126 169 217 267 331 403
#     4  12  24  45  66  98 137 171 228 284 341 412
#
# _framework density 21.887566
#
# number of rings (size 3 to 8) (size 9 to 14) (size 15 to 20)
#    0.000    1.143    2.857    6.857    0.000    1.143 
#    0.000    2.143    0.000    0.000    0.000    0.000 
#    0.000    0.000    0.000    0.000    0.000    0.000 
#
# Total GULP energy -694146.168819 kJ/mol
# GULP energy per Si atom -12395.467300 kJ/mol
# Density = 2.183775 g / cm^3
# Si number density = 21.887566 Si / 1000 Ang^3
#
#
#
# Elastic Constant Matrix: (Units=GPa)
#
#
# Indices 1 2 3 4 5 6 
#
# 1 48.9409 7.1186 27.5369 0.0000 0.0000 0.0000
# 2 7.1186 136.1561 23.1686 0.0000 0.0000 0.0000
# 3 27.5369 23.1686 105.2250 0.0000 0.0000 0.0000
# 4 0.0000 0.0000 0.0000 31.5559 0.0000 0.0000
# 5 0.0000 0.0000 0.0000 0.0000 39.3113 0.0000
# 6 0.0000 0.0000 0.0000 0.0000 0.0000 30.1078
#
#
#
# Elastic Compliance Matrix: (Units=1/GPa)
#
#
# Indices 1 2 3 4 5 6 
#
# 1 0.023966 -0.000193 -0.006229 0.000000 0.000000 0.000000
# 2 -0.000193 0.007632 -0.001630 0.000000 0.000000 0.000000
# 3 -0.006229 -0.001630 0.011492 0.000000 0.000000 0.000000
# 4 0.000000 0.000000 0.000000 0.031690 0.000000 0.000000
# 5 0.000000 0.000000 0.000000 0.000000 0.025438 0.000000
# 6 0.000000 0.000000 0.000000 0.000000 0.000000 0.033214
#
#
# Mechanical properties :
#
#
# Convention : Reuss Voigt Hill
#
# Bulk Modulus (GPa) = 37.05635 45.10780 41.08208
# Shear Modulus (GPa) = 31.53943 35.69485 33.61714
#
# Velocity S-wave (km/s) = 3.80014 4.04273 3.92331
# Velocity P-wave (km/s) = 6.01845 6.51500 6.27164
#
# Compressibility (1/GPa) = 0.02698593
#
# Stress axis : x y z
#
# Youngs Moduli (GPa) = 41.72606 131.02807 87.01337
#
# Poissons Ratio (x) = 0.02529 0.54203
# Poissons Ratio (y) = 0.00805 0.14182
# Poissons Ratio (z) = 0.25992 0.21356
#
# Static dielectric constant tensor:
#      x y z
#    x 3.709210 0.000000 0.000000 
#    y 0.000000 4.067610 0.000000 
#    z 0.000000 0.000000 3.944700 
# 
# 
# High freq. dielectric constant tensor:
#      x y z
#    x 1.853790 0.000000 0.000000 
#    y 0.000000 1.864780 0.000000 
#    z 0.000000 0.000000 1.850470 
# 
# From -- ./inp_files/17221.got.cif
#   From: 2010.03.12/outbox.cif.g09.slc.cpg/sg62_9_cif.got.tgz:17221.got - 2010.04.10 19:12:36.
