data_PCOD8252473
_publ_section_title
;
Structure prediction by ZEFSAII (Michael W. Deem and Ramdas Pophale) SiO2 
 PCOD8252473
Probable space group: P N M A
;
_chemical_formula_sum "Si O2"
_cell_formula_units_Z 64
_cell_length_a 19.505212
_cell_length_b 8.912738
_cell_length_c 19.925039
_cell_angle_alpha 90.000000
_cell_angle_beta 90.000000
_cell_angle_gamma 90.000000
_cell_volume 3463.865300
_symmetry_space_group_name_H-M "P N M A"
_symmetry_group_IT_number 62
_symmetry_cell_setting 'orthorhombic'
loop_
_space_group_symop_operation_xyz
x,y,z
1/2-x,-y,1/2+z
1/2+x,1/2-y,1/2-z
-x,1/2+y,-z
-x,-y,-z
1/2+x,y,1/2-z
1/2-x,1/2+y,1/2+z
x,1/2-y,z
loop_
_atom_site_type_symbol
_atom_site_label
_atom_site_fract_x
_atom_site_fract_y
_atom_site_fract_z
Si Si1 0.788659 0.074010 0.518513
Si Si2 0.226706 0.571827 0.851551
Si Si3 0.246814 0.427027 0.714538
Si Si4 0.470359 0.926806 0.565550
Si Si5 0.606221 0.926207 0.819258
Si Si6 0.317238 0.574723 0.597691
Si Si7 0.936158 0.074492 0.464271
Si Si8 0.425717 0.426238 0.326152
O O1 0.784491 0.250000 0.534295
O O2 0.738235 0.030541 0.458170
O O3 0.865161 0.023048 0.498460
O O4 0.767048 0.982426 0.583603
O O5 0.230615 0.750000 0.846604
O O6 0.262521 0.502359 0.786092
O O7 0.147806 0.513464 0.852685
O O8 0.245635 0.250000 0.723418
O O9 0.176451 0.483068 0.681536
O O10 0.306718 0.477485 0.664426
O O11 0.479777 0.750000 0.560243
O O12 0.391444 0.971839 0.570709
O O13 0.512513 0.993121 0.629478
O O14 0.500000 0.000000 0.500000
O O15 0.625573 0.750000 0.820811
O O16 0.563698 0.971263 0.885483
O O17 0.562943 0.968134 0.752392
O O18 0.312908 0.750000 0.615935
O O19 0.945187 0.250000 0.472178
O O20 0.000000 0.000000 0.500000
O O21 0.425401 0.250000 0.334447
#
# Coordination Sequence:
#
# PCOD8252473 Si02
#       8
#     8   8   8   8   8   8   8   8
#     4  10  20  36  56  80 111 146 183 231 282 330
#     4  10  20  35  57  82 112 147 183 228 277 335
#     4  11  21  34  56  83 110 140 184 235 276 330
#     4  10  20  34  54  81 113 148 185 228 272 328
#     4   9  17  36  60  78 106 147 184 226 279 332
#     4  10  20  36  57  80 113 153 188 224 279 337
#     4  10  21  37  57  79 112 147 183 234 286 339
#     4   8  16  32  55  81 108 140 184 225 264 317
#
# _framework density 18.476469999999999
#
# number of rings (size 3 to 8) (size 9 to 14) (size 15 to 20)
#    0.000    2.250    1.250    3.000    0.000    2.000 
#    2.250    2.500    0.000    0.000    0.000    0.000 
#    0.000    0.000    0.000    0.000    0.000    0.000 
#
# Total GULP energy -793563.616578 kJ/mol
# GULP energy per Si atom -12399.431509 kJ/mol
# Density = 1.843442 g / cm^3
# Si number density = 18.476470 Si / 1000 Ang^3
#
#
#
# Elastic Constant Matrix: (Units=GPa)
#
#
# Indices 1 2 3 4 5 6 
#
# 1 128.6676 39.6201 80.4235 0.0000 0.0000 0.0000
# 2 39.6201 60.0269 51.8820 0.0000 0.0000 0.0000
# 3 80.4235 51.8820 154.6178 0.0000 0.0000 0.0000
# 4 0.0000 0.0000 0.0000 31.9369 0.0000 0.0000
# 5 0.0000 0.0000 0.0000 0.0000 33.9978 0.0000
# 6 0.0000 0.0000 0.0000 0.0000 0.0000 24.4445
#
#
#
# Elastic Compliance Matrix: (Units=1/GPa)
#
#
# Indices 1 2 3 4 5 6 
#
# 1 0.012035 -0.003568 -0.005063 0.000000 0.000000 0.000000
# 2 -0.003568 0.024522 -0.006373 0.000000 0.000000 0.000000
# 3 -0.005063 -0.006373 0.011239 0.000000 0.000000 0.000000
# 4 0.000000 0.000000 0.000000 0.031312 0.000000 0.000000
# 5 0.000000 0.000000 0.000000 0.000000 0.029414 0.000000
# 6 0.000000 0.000000 0.000000 0.000000 0.000000 0.040909
#
#
# Mechanical properties :
#
#
# Convention : Reuss Voigt Hill
#
# Bulk Modulus (GPa) = 56.21143 76.35150 66.28147
# Shear Modulus (GPa) = 26.97351 29.50163 28.23757
#
# Velocity S-wave (km/s) = 3.82499 4.00022 3.91359
# Velocity P-wave (km/s) = 7.07083 7.92143 7.50819
#
# Compressibility (1/GPa) = 0.01778998
#
# Stress axis : x y z
#
# Youngs Moduli (GPa) = 83.09046 40.77980 88.97376
#
# Poissons Ratio (x) = 0.14549 0.45046
# Poissons Ratio (y) = 0.29645 0.56699
# Poissons Ratio (z) = 0.42067 0.25987
#
# Static dielectric constant tensor:
#      x y z
#    x 3.527470 0.000000 0.000000 
#    y 0.000000 3.206070 0.000000 
#    z 0.000000 0.000000 3.692160 
# 
# 
# High freq. dielectric constant tensor:
#      x y z
#    x 1.706570 0.000000 0.000000 
#    y 0.000000 1.698140 0.000000 
#    z 0.000000 0.000000 1.732790 
# 
# From -- ./inp_files/24806.got.cif
#   From: 2010.03.12/outbox.cif.g09.slc.cpg/sg62_13_cif.got.tgz:24806.got - 2010.04.10 19:12:36.
