data_PCOD8252740
_publ_section_title
;
Structure prediction by ZEFSAII (Michael W. Deem and Ramdas Pophale) SiO2 
 PCOD8252740
Probable space group: P N M A
;
_chemical_formula_sum "Si O2"
_cell_formula_units_Z 64
_cell_length_a 14.130818
_cell_length_b 13.945387
_cell_length_c 16.741161
_cell_angle_alpha 90.000000
_cell_angle_beta 90.000000
_cell_angle_gamma 90.000000
_cell_volume 3299.008593
_symmetry_space_group_name_H-M "P N M A"
_symmetry_group_IT_number 62
_symmetry_cell_setting 'orthorhombic'
loop_
_space_group_symop_operation_xyz
x,y,z
1/2-x,-y,1/2+z
1/2+x,1/2-y,1/2-z
-x,1/2+y,-z
-x,-y,-z
1/2+x,y,1/2-z
1/2-x,1/2+y,1/2+z
x,1/2-y,z
loop_
_atom_site_type_symbol
_atom_site_label
_atom_site_fract_x
_atom_site_fract_y
_atom_site_fract_z
Si Si1 0.071926 0.360922 0.290612
Si Si2 0.199751 0.641264 0.356789
Si Si3 0.389572 0.140408 0.314996
Si Si4 0.932829 0.362067 0.003468
Si Si5 0.140785 0.357274 0.976172
Si Si6 0.266939 0.985564 0.735934
Si Si7 0.761666 0.478983 0.941056
Si Si8 0.592398 0.015304 0.051995
O O1 0.101018 0.250000 0.299651
O O2 0.143590 0.414484 0.230701
O O3 0.072621 0.409058 0.377890
O O4 0.969770 0.371310 0.251306
O O5 0.163869 0.750000 0.344781
O O6 0.307182 0.640115 0.390711
O O7 0.202046 0.586982 0.272940
O O8 0.125292 0.587779 0.414505
O O9 0.351711 0.250000 0.314972
O O10 0.425056 0.111592 0.403025
O O11 0.307532 0.066556 0.293381
O O12 0.924644 0.250000 0.988585
O O13 0.850021 0.408436 0.951451
O O14 0.034490 0.400479 0.970782
O O15 0.134294 0.250000 0.010971
O O16 0.205652 0.414366 0.037539
O O17 0.226010 0.012867 0.649751
O O18 0.675451 0.442136 0.995845
O O19 0.500000 0.000000 0.000000
#
# Coordination Sequence:
#
# PCOD8252740 Si02
#       8
#     8   8   8   8   8   8   8   8
#     4  10  21  37  58  83 112 145 179 224 283 339
#     4   9  20  38  57  77 106 147 189 229 272 323
#     4  10  20  35  57  84 112 140 174 222 279 334
#     4  10  20  35  56  83 111 136 170 219 276 334
#     4   9  18  34  57  82 105 132 171 221 277 330
#     4  11  22  35  54  79 111 146 184 225 267 325
#     4  11  22  34  54  80 109 145 180 222 269 320
#     4  10  21  38  57  80 110 145 190 234 274 325
#
# _framework density 19.399767000000001
#
# number of rings (size 3 to 8) (size 9 to 14) (size 15 to 20)
#    0.000    2.000    0.000    4.500    0.000    5.500 
#    0.000    2.500    0.000    7.500    0.000    0.000 
#    0.000    0.000    0.000    0.000    0.000    0.000 
#
# Total GULP energy -793584.801588 kJ/mol
# GULP energy per Si atom -12399.762525 kJ/mol
# Density = 1.935561 g / cm^3
# Si number density = 19.399767 Si / 1000 Ang^3
#
#
#
# Elastic Constant Matrix: (Units=GPa)
#
#
# Indices 1 2 3 4 5 6 
#
# 1 76.2455 23.9609 9.6549 0.0000 0.0000 0.0000
# 2 23.9609 93.1307 31.2241 0.0000 0.0000 0.0000
# 3 9.6549 31.2241 68.4388 0.0000 0.0000 0.0000
# 4 0.0000 0.0000 0.0000 19.4669 0.0000 0.0000
# 5 0.0000 0.0000 0.0000 0.0000 28.9118 0.0000
# 6 0.0000 0.0000 0.0000 0.0000 0.0000 27.6052
#
#
#
# Elastic Compliance Matrix: (Units=1/GPa)
#
#
# Indices 1 2 3 4 5 6 
#
# 1 0.014279 -0.003540 -0.000399 0.000000 0.000000 0.000000
# 2 -0.003540 0.013554 -0.005685 0.000000 0.000000 0.000000
# 3 -0.000399 -0.005685 0.017261 0.000000 0.000000 0.000000
# 4 0.000000 0.000000 0.000000 0.051369 0.000000 0.000000
# 5 0.000000 0.000000 0.000000 0.000000 0.034588 0.000000
# 6 0.000000 0.000000 0.000000 0.000000 0.000000 0.036225
#
#
# Mechanical properties :
#
#
# Convention : Reuss Voigt Hill
#
# Bulk Modulus (GPa) = 38.68944 40.83278 39.76111
# Shear Modulus (GPa) = 25.62277 26.72847 26.17562
#
# Velocity S-wave (km/s) = 3.63819 3.71586 3.67723
# Velocity P-wave (km/s) = 6.13475 6.28522 6.21044
#
# Compressibility (1/GPa) = 0.02584685
#
# Stress axis : x y z
#
# Youngs Moduli (GPa) = 70.03536 73.77804 57.93274
#
# Poissons Ratio (x) = 0.26115 0.02314
# Poissons Ratio (y) = 0.24791 0.32932
# Poissons Ratio (z) = 0.02797 0.41939
#
# Static dielectric constant tensor:
#      x y z
#    x 3.600140 0.000000 0.000000 
#    y 0.000000 3.648440 0.000000 
#    z 0.000000 0.000000 3.401950 
# 
# 
# High freq. dielectric constant tensor:
#      x y z
#    x 1.756470 0.000000 0.000000 
#    y 0.000000 1.760800 0.000000 
#    z 0.000000 0.000000 1.748260 
# 
# From -- ./inp_files/23244.got.cif
#   From: 2010.03.12/outbox.cif.g09.slc.cpg/sg62_12_cif.got.tgz:23244.got - 2010.04.10 19:12:36.
