data_PCOD8252988
_publ_section_title
;
Structure prediction by ZEFSAII (Michael W. Deem and Ramdas Pophale) SiO2 
 PCOD8252988
Probable space group: P N M A
;
_chemical_formula_sum "Si O2"
_cell_formula_units_Z 64
_cell_length_a 16.936737
_cell_length_b 9.005123
_cell_length_c 21.733462
_cell_angle_alpha 90.000000
_cell_angle_beta 90.000000
_cell_angle_gamma 90.000000
_cell_volume 3314.731115
_symmetry_space_group_name_H-M "P N M A"
_symmetry_group_IT_number 62
_symmetry_cell_setting 'orthorhombic'
loop_
_space_group_symop_operation_xyz
x,y,z
1/2-x,-y,1/2+z
1/2+x,1/2-y,1/2-z
-x,1/2+y,-z
-x,-y,-z
1/2+x,y,1/2-z
1/2-x,1/2+y,1/2+z
x,1/2-y,z
loop_
_atom_site_type_symbol
_atom_site_label
_atom_site_fract_x
_atom_site_fract_y
_atom_site_fract_z
Si Si1 0.163547 0.924501 0.222582
Si Si2 0.933755 0.419964 0.425299
Si Si3 0.639717 0.077513 0.469774
Si Si4 0.964615 0.422022 0.875019
Si Si5 0.142902 0.424037 0.890856
Si Si6 0.731424 0.921451 0.871161
Si Si7 0.293294 0.925979 0.845671
Si Si8 0.089758 0.921531 0.432725
O O1 0.167838 0.750000 0.235353
O O2 0.084765 0.971221 0.185160
O O3 0.240203 0.973909 0.183953
O O4 0.161293 0.010830 0.286522
O O5 0.961153 0.250000 0.417771
O O6 0.860234 0.457335 0.381644
O O7 0.907407 0.450321 0.494865
O O8 0.005741 0.525224 0.405464
O O9 0.620192 0.250000 0.472640
O O10 0.648470 0.016794 0.539017
O O11 0.720511 0.042908 0.433479
O O12 0.565485 0.003551 0.436074
O O13 0.950984 0.250000 0.888105
O O14 0.056235 0.458447 0.863778
O O15 0.163537 0.250000 0.887207
O O16 0.203926 0.513780 0.848518
O O17 0.744307 0.750000 0.852439
O O18 0.292456 0.750000 0.842940
O O19 0.339411 0.982081 0.905585
O O20 0.102444 0.750000 0.415532
#
# Coordination Sequence:
#
# PCOD8252988 Si02
#       8
#     8   8   8   8   8   8   8   8
#     4  10  21  39  58  77 106 145 187 231 277 327
#     4   9  18  34  57  86 117 146 183 227 274 331
#     4   9  17  30  54  85 119 153 179 212 270 327
#     4   9  19  35  57  84 113 145 183 225 271 326
#     4  10  20  36  57  84 115 146 180 225 276 331
#     4   9  17  32  54  81 112 147 184 223 267 323
#     4  12  25  40  57  79 107 146 191 236 285 333
#     4  10  20  36  58  83 114 149 182 226 282 334
#
# _framework density 19.307749000000001
#
# number of rings (size 3 to 8) (size 9 to 14) (size 15 to 20)
#    0.000    2.250    0.000    3.000    0.000    4.500 
#    2.250    2.500    0.000    0.000    0.000    0.000 
#    0.000    0.000    0.000    0.000    0.000    0.000 
#
# Total GULP energy -793814.108628 kJ/mol
# GULP energy per Si atom -12403.345447 kJ/mol
# Density = 1.926380 g / cm^3
# Si number density = 19.307749 Si / 1000 Ang^3
#
#
#
# Elastic Constant Matrix: (Units=GPa)
#
#
# Indices 1 2 3 4 5 6 
#
# 1 98.8786 41.2064 26.5498 0.0000 0.0000 0.0000
# 2 41.2064 83.8039 33.6598 0.0000 0.0000 0.0000
# 3 26.5498 33.6598 63.4093 0.0000 0.0000 0.0000
# 4 0.0000 0.0000 0.0000 29.2108 0.0000 0.0000
# 5 0.0000 0.0000 0.0000 0.0000 18.9523 0.0000
# 6 0.0000 0.0000 0.0000 0.0000 0.0000 32.6241
#
#
#
# Elastic Compliance Matrix: (Units=1/GPa)
#
#
# Indices 1 2 3 4 5 6 
#
# 1 0.013053 -0.005367 -0.002616 0.000000 0.000000 0.000000
# 2 -0.005367 0.017373 -0.006975 0.000000 0.000000 0.000000
# 3 -0.002616 -0.006975 0.020569 0.000000 0.000000 0.000000
# 4 0.000000 0.000000 0.000000 0.034234 0.000000 0.000000
# 5 0.000000 0.000000 0.000000 0.000000 0.052764 0.000000
# 6 0.000000 0.000000 0.000000 0.000000 0.000000 0.030652
#
#
# Mechanical properties :
#
#
# Convention : Reuss Voigt Hill
#
# Bulk Modulus (GPa) = 47.44359 49.88045 48.66202
# Shear Modulus (GPa) = 24.32062 25.80249 25.06155
#
# Velocity S-wave (km/s) = 3.55298 3.65962 3.60669
# Velocity P-wave (km/s) = 6.43872 6.61420 6.52705
#
# Compressibility (1/GPa) = 0.02107766
#
# Stress axis : x y z
#
# Youngs Moduli (GPa) = 76.61326 57.56000 48.61800
#
# Poissons Ratio (x) = 0.30894 0.12719
# Poissons Ratio (y) = 0.41120 0.33911
# Poissons Ratio (z) = 0.20043 0.40148
#
# Static dielectric constant tensor:
#      x y z
#    x 3.609930 0.000000 0.000000 
#    y 0.000000 3.480460 0.000000 
#    z 0.000000 0.000000 3.425820 
# 
# 
# High freq. dielectric constant tensor:
#      x y z
#    x 1.756960 0.000000 0.000000 
#    y 0.000000 1.746910 0.000000 
#    z 0.000000 0.000000 1.738860 
# 
# From -- ./inp_files/27691.got.cif
#   From: 2010.03.12/outbox.cif.g09.slc.cpg/sg62_14_cif.got.tgz:27691.got - 2010.04.10 19:12:36.
