data_PCOD8252484
_publ_section_title
;
Structure prediction by ZEFSAII (Michael W. Deem and Ramdas Pophale) SiO2 
 PCOD8252484
Probable space group: P N M A
;
_chemical_formula_sum "Si O2"
_cell_formula_units_Z 56
_cell_length_a 22.567886
_cell_length_b 8.937635
_cell_length_c 14.237383
_cell_angle_alpha 90.000000
_cell_angle_beta 90.000000
_cell_angle_gamma 90.000000
_cell_volume 2871.730378
_symmetry_space_group_name_H-M "P N M A"
_symmetry_group_IT_number 62
_symmetry_cell_setting 'orthorhombic'
loop_
_space_group_symop_operation_xyz
x,y,z
1/2-x,-y,1/2+z
1/2+x,1/2-y,1/2-z
-x,1/2+y,-z
-x,-y,-z
1/2+x,y,1/2-z
1/2-x,1/2+y,1/2+z
x,1/2-y,z
loop_
_atom_site_type_symbol
_atom_site_label
_atom_site_fract_x
_atom_site_fract_y
_atom_site_fract_z
Si Si1 0.219871 0.920935 0.099437
Si Si2 0.892866 0.424158 0.794528
Si Si3 0.225804 0.578428 0.886579
Si Si4 0.653072 0.921876 0.095692
Si Si5 0.500422 0.573077 0.601778
Si Si6 0.388898 0.074177 0.274316
Si Si7 0.351736 0.927822 0.094974
O O1 0.225469 0.750000 0.129761
O O2 0.168489 0.992920 0.163399
O O3 0.285165 0.992267 0.114541
O O4 0.200608 0.939659 0.991563
O O5 0.900225 0.250000 0.823845
O O6 0.892389 0.442564 0.682011
O O7 0.945708 0.520101 0.836051
O O8 0.244467 0.750000 0.868682
O O9 0.282538 0.475575 0.869439
O O10 0.173865 0.525479 0.817884
O O11 0.658177 0.750000 0.065535
O O12 0.628104 0.015367 0.007658
O O13 0.500000 0.500000 0.500000
O O14 0.498183 0.750000 0.589232
O O15 0.559493 0.521167 0.656026
O O16 0.392609 0.250000 0.256744
O O17 0.395693 0.990699 0.174436
O O18 0.353704 0.750000 0.093092
#
# Coordination Sequence:
#
# PCOD8252484 Si02
#       7
#     8   8   8   8   8   8   8
#     4   8  15  30  52  79 111 143 173 213 268 321
#     4  10  20  36  57  79 108 146 184 222 269 321
#     4   9  17  31  53  80 111 145 178 216 268 328
#     4  10  20  34  54  82 115 146 178 222 274 324
#     4  11  24  41  60  82 110 142 179 223 268 318
#     4  10  21  37  56  79 109 144 180 225 278 321
#     4  10  20  35  56  81 110 144 183 225 269 325
#
# _framework density 19.500439
#
# number of rings (size 3 to 8) (size 9 to 14) (size 15 to 20)
#    0.000    2.286    0.000    3.857    0.000    6.286 
#    0.000    7.143    0.000    0.000    0.000    0.000 
#    0.000    0.000    0.000    0.000    0.000    0.000 
#
# Total GULP energy -694383.451731 kJ/mol
# GULP energy per Si atom -12399.704495 kJ/mol
# Density = 1.945605 g / cm^3
# Si number density = 19.500439 Si / 1000 Ang^3
#
#
#
# Elastic Constant Matrix: (Units=GPa)
#
#
# Indices 1 2 3 4 5 6 
#
# 1 68.7294 39.3262 61.2338 0.0000 0.0000 0.0000
# 2 39.3262 66.4574 51.5499 0.0000 0.0000 0.0000
# 3 61.2338 51.5499 132.7611 0.0000 0.0000 0.0000
# 4 0.0000 0.0000 0.0000 33.6707 0.0000 0.0000
# 5 0.0000 0.0000 0.0000 0.0000 31.8079 0.0000
# 6 0.0000 0.0000 0.0000 0.0000 0.0000 28.8098
#
#
#
# Elastic Compliance Matrix: (Units=1/GPa)
#
#
# Indices 1 2 3 4 5 6 
#
# 1 0.028345 -0.009491 -0.009388 0.000000 0.000000 0.000000
# 2 -0.009491 0.024710 -0.005217 0.000000 0.000000 0.000000
# 3 -0.009388 -0.005217 0.013888 0.000000 0.000000 0.000000
# 4 0.000000 0.000000 0.000000 0.029699 0.000000 0.000000
# 5 0.000000 0.000000 0.000000 0.000000 0.031439 0.000000
# 6 0.000000 0.000000 0.000000 0.000000 0.000000 0.034710
#
#
# Mechanical properties :
#
#
# Convention : Reuss Voigt Hill
#
# Bulk Modulus (GPa) = 53.33138 63.57419 58.45279
# Shear Modulus (GPa) = 23.01654 26.58022 24.79838
#
# Velocity S-wave (km/s) = 3.43929 3.69597 3.56994
# Velocity P-wave (km/s) = 6.57113 7.13342 6.85804
#
# Compressibility (1/GPa) = 0.01875069
#
# Stress axis : x y z
#
# Youngs Moduli (GPa) = 35.27998 40.46890 72.00229
#
# Poissons Ratio (x) = 0.38407 0.67599
# Poissons Ratio (y) = 0.33483 0.37567
# Poissons Ratio (z) = 0.33122 0.21114
#
# Static dielectric constant tensor:
#      x y z
#    x 3.539920 0.000000 0.000000 
#    y 0.000000 3.362240 0.000000 
#    z 0.000000 0.000000 3.665140 
# 
# 
# High freq. dielectric constant tensor:
#      x y z
#    x 1.739200 0.000000 0.000000 
#    y 0.000000 1.744940 0.000000 
#    z 0.000000 0.000000 1.774670 
# 
# From -- ./inp_files/20230.got.cif
#   From: 2010.03.12/outbox.cif.g09.slc.cpg/sg62_11_cif.got.tgz:20230.got - 2010.04.10 19:12:36.
