data_PCOD8252568
_publ_section_title
;
Structure prediction by ZEFSAII (Michael W. Deem and Ramdas Pophale) SiO2 
 PCOD8252568
Probable space group: P N M A
;
_chemical_formula_sum "Si O2"
_cell_formula_units_Z 64
_cell_length_a 24.698370
_cell_length_b 8.899714
_cell_length_c 15.005495
_cell_angle_alpha 90.000000
_cell_angle_beta 90.000000
_cell_angle_gamma 90.000000
_cell_volume 3298.334286
_symmetry_space_group_name_H-M "P N M A"
_symmetry_group_IT_number 62
_symmetry_cell_setting 'orthorhombic'
loop_
_space_group_symop_operation_xyz
x,y,z
1/2-x,-y,1/2+z
1/2+x,1/2-y,1/2-z
-x,1/2+y,-z
-x,-y,-z
1/2+x,y,1/2-z
1/2-x,1/2+y,1/2+z
x,1/2-y,z
loop_
_atom_site_type_symbol
_atom_site_label
_atom_site_fract_x
_atom_site_fract_y
_atom_site_fract_z
Si Si1 0.855693 0.073419 0.327631
Si Si2 0.833073 0.574100 0.499262
Si Si3 0.443220 0.073637 0.319012
Si Si4 0.352215 0.573384 0.799439
Si Si5 0.557333 0.575433 0.314234
Si Si6 0.886260 0.423702 0.998388
Si Si7 0.723110 0.076170 0.529143
Si Si8 0.257963 0.924266 0.266488
O O1 0.849793 0.250000 0.332886
O O2 0.901916 0.026287 0.258466
O O3 0.870317 0.007537 0.425139
O O4 0.798110 0.005942 0.300283
O O5 0.835428 0.750000 0.482703
O O6 0.855469 0.529452 0.596361
O O7 0.771526 0.519070 0.487053
O O8 0.457109 0.250000 0.316805
O O9 0.417984 0.025844 0.413375
O O10 0.496267 0.977086 0.302254
O O11 0.344455 0.750000 0.787071
O O12 0.407041 0.519404 0.754243
O O13 0.301753 0.491463 0.752955
O O14 0.562536 0.750000 0.290039
O O15 0.575044 0.543580 0.415318
O O16 0.869030 0.250000 0.005360
O O17 0.832661 0.522238 0.985439
O O18 0.732870 0.250000 0.506813
O O19 0.720277 0.046406 0.634417
O O20 0.255503 0.750000 0.242204
#
# Coordination Sequence:
#
# PCOD8252568 Si02
#       8
#     8   8   8   8   8   8   8   8
#     4  11  22  37  61  89 118 157 199 243 298 356
#     4  10  22  39  60  85 119 158 196 248 302 353
#     4  10  22  41  62  85 119 158 199 245 295 359
#     4  10  22  41  62  84 117 159 200 246 301 355
#     4  11  24  39  61  88 117 156 201 252 300 351
#     4  10  21  38  58  85 121 159 196 240 295 351
#     4  10  20  34  56  87 120 156 196 238 287 351
#     4  10  20  35  57  86 120 155 193 242 293 348
#
# _framework density 19.403732999999999
#
# number of rings (size 3 to 8) (size 9 to 14) (size 15 to 20)
#    0.000    1.750    1.250    2.625    1.750    5.000 
#    0.000    0.625    0.000    0.000    0.000    0.000 
#    0.000    0.000    0.000    0.000    0.000    0.000 
#
# Total GULP energy -793983.723031 kJ/mol
# GULP energy per Si atom -12405.995672 kJ/mol
# Density = 1.935957 g / cm^3
# Si number density = 19.403733 Si / 1000 Ang^3
#
#
#
# Elastic Constant Matrix: (Units=GPa)
#
#
# Indices 1 2 3 4 5 6 
#
# 1 100.8520 40.9905 62.3828 0.0000 0.0000 0.0000
# 2 40.9905 75.5593 46.1675 0.0000 0.0000 0.0000
# 3 62.3828 46.1675 102.1569 0.0000 0.0000 0.0000
# 4 0.0000 0.0000 0.0000 32.3256 0.0000 0.0000
# 5 0.0000 0.0000 0.0000 0.0000 23.7131 0.0000
# 6 0.0000 0.0000 0.0000 0.0000 0.0000 35.8444
#
#
#
# Elastic Compliance Matrix: (Units=1/GPa)
#
#
# Indices 1 2 3 4 5 6 
#
# 1 0.016733 -0.003915 -0.008449 0.000000 0.000000 0.000000
# 2 -0.003915 0.019199 -0.006286 0.000000 0.000000 0.000000
# 3 -0.008449 -0.006286 0.017789 0.000000 0.000000 0.000000
# 4 0.000000 0.000000 0.000000 0.030935 0.000000 0.000000
# 5 0.000000 0.000000 0.000000 0.000000 0.042171 0.000000
# 6 0.000000 0.000000 0.000000 0.000000 0.000000 0.027898
#
#
# Mechanical properties :
#
#
# Convention : Reuss Voigt Hill
#
# Bulk Modulus (GPa) = 60.89550 64.18332 62.53941
# Shear Modulus (GPa) = 25.31666 26.97845 26.14755
#
# Velocity S-wave (km/s) = 3.61602 3.73282 3.67489
# Velocity P-wave (km/s) = 6.99183 7.19223 7.09274
#
# Compressibility (1/GPa) = 0.01642158
#
# Stress axis : x y z
#
# Youngs Moduli (GPa) = 59.76288 52.08510 56.21519
#
# Poissons Ratio (x) = 0.20393 0.47494
# Poissons Ratio (y) = 0.23399 0.35336
# Poissons Ratio (z) = 0.50491 0.32740
#
# Static dielectric constant tensor:
#      x y z
#    x 3.370400 0.000000 0.000000 
#    y 0.000000 3.546750 0.000000 
#    z 0.000000 0.000000 3.725800 
# 
# 
# High freq. dielectric constant tensor:
#      x y z
#    x 1.743410 0.000000 0.000000 
#    y 0.000000 1.763950 0.000000 
#    z 0.000000 0.000000 1.764210 
# 
# From -- ./inp_files/20773.got.cif
#   From: 2010.03.12/outbox.cif.g09.slc.cpg/sg62_11_cif.got.tgz:20773.got - 2010.04.10 19:12:36.
