data_PCOD8252218
_publ_section_title
;
Structure prediction by ZEFSAII (Michael W. Deem and Ramdas Pophale) SiO2 
 PCOD8252218
Probable space group: P N M A
;
_chemical_formula_sum "Si O2"
_cell_formula_units_Z 48
_cell_length_a 16.236177
_cell_length_b 9.353293
_cell_length_c 18.084273
_cell_angle_alpha 90.000000
_cell_angle_beta 90.000000
_cell_angle_gamma 90.000000
_cell_volume 2746.308815
_symmetry_space_group_name_H-M "P N M A"
_symmetry_group_IT_number 62
_symmetry_cell_setting 'orthorhombic'
loop_
_space_group_symop_operation_xyz
x,y,z
1/2-x,-y,1/2+z
1/2+x,1/2-y,1/2-z
-x,1/2+y,-z
-x,-y,-z
1/2+x,y,1/2-z
1/2-x,1/2+y,1/2+z
x,1/2-y,z
loop_
_atom_site_type_symbol
_atom_site_label
_atom_site_fract_x
_atom_site_fract_y
_atom_site_fract_z
Si Si1 0.418036 0.908029 0.805418
Si Si2 0.998271 0.916272 0.423842
Si Si3 0.175117 0.082086 0.163288
Si Si4 0.484995 0.582473 0.574604
Si Si5 0.416316 0.092389 0.287248
Si Si6 0.334761 0.584761 0.169401
O O1 0.399356 0.750000 0.838873
O O2 0.345493 0.955329 0.749253
O O3 0.499642 0.897892 0.757391
O O4 0.429269 0.021644 0.871414
O O5 0.016608 0.750000 0.437459
O O6 0.909422 0.940661 0.387077
O O7 0.000000 0.000000 0.500000
O O8 0.191719 0.250000 0.154591
O O9 0.101078 0.032100 0.110264
O O10 0.255296 0.995585 0.137225
O O11 0.500000 0.500000 0.500000
O O12 0.482450 0.750000 0.558411
O O13 0.560994 0.545415 0.629451
O O14 0.374318 0.250000 0.286651
O O15 0.355457 0.978387 0.250381
O O16 0.314269 0.750000 0.179466
#
# Coordination Sequence:
#
# PCOD8252218 Si02
#       6
#     8   8   8   8   8   8
#     4   8  15  30  51  71  91 120 160 199 234 282
#     4  10  20  33  50  73 100 130 164 201 243 292
#     4   9  18  33  52  73  98 129 163 199 244 296
#     4   9  18  32  51  75 100 129 165 200 239 290
#     4   8  15  30  50  69  92 125 160 192 234 287
#     4  10  20  32  49  75 100 123 160 207 247 285
#
# _framework density 17.478006000000001
#
# number of rings (size 3 to 8) (size 9 to 14) (size 15 to 20)
#    0.000    3.000    0.000    3.000    0.000    4.000 
#    0.000    5.000    0.000    2.000    0.000    0.000 
#    0.000    0.000    0.000    0.000    0.000    0.000 
#
# Total GULP energy -595009.837909 kJ/mol
# GULP energy per Si atom -12396.038290 kJ/mol
# Density = 1.743823 g / cm^3
# Si number density = 17.478006 Si / 1000 Ang^3
#
#
#
# Elastic Constant Matrix: (Units=GPa)
#
#
# Indices 1 2 3 4 5 6 
#
# 1 66.4792 45.8149 29.4177 0.0000 0.0000 0.0000
# 2 45.8149 105.9476 67.7845 0.0000 0.0000 0.0000
# 3 29.4177 67.7845 117.8844 0.0000 0.0000 0.0000
# 4 0.0000 0.0000 0.0000 35.1794 0.0000 0.0000
# 5 0.0000 0.0000 0.0000 0.0000 16.2903 0.0000
# 6 0.0000 0.0000 0.0000 0.0000 0.0000 28.2870
#
#
#
# Elastic Compliance Matrix: (Units=1/GPa)
#
#
# Indices 1 2 3 4 5 6 
#
# 1 0.021428 -0.009247 -0.000030 0.000000 0.000000 0.000000
# 2 -0.009247 0.018922 -0.008573 0.000000 0.000000 0.000000
# 3 -0.000030 -0.008573 0.013420 0.000000 0.000000 0.000000
# 4 0.000000 0.000000 0.000000 0.028426 0.000000 0.000000
# 5 0.000000 0.000000 0.000000 0.000000 0.061386 0.000000
# 6 0.000000 0.000000 0.000000 0.000000 0.000000 0.035352
#
#
# Mechanical properties :
#
#
# Convention : Reuss Voigt Hill
#
# Bulk Modulus (GPa) = 55.33960 64.03838 59.68899
# Shear Modulus (GPa) = 22.65956 25.77097 24.21527
#
# Velocity S-wave (km/s) = 3.60455 3.84406 3.72623
# Velocity P-wave (km/s) = 7.00392 7.51142 7.26210
#
# Compressibility (1/GPa) = 0.01807024
#
# Stress axis : x y z
#
# Youngs Moduli (GPa) = 46.66735 52.84834 74.51606
#
# Poissons Ratio (x) = 0.48868 0.00226
# Poissons Ratio (y) = 0.43152 0.63881
# Poissons Ratio (z) = 0.00142 0.45306
#
# Static dielectric constant tensor:
#      x y z
#    x 3.176390 0.000000 0.000000 
#    y 0.000000 3.323440 0.000000 
#    z 0.000000 0.000000 3.240010 
# 
# 
# High freq. dielectric constant tensor:
#      x y z
#    x 1.657400 0.000000 0.000000 
#    y 0.000000 1.676330 0.000000 
#    z 0.000000 0.000000 1.664660 
# 
# From -- ./inp_files/23673.got.cif
#   From: 2010.03.12/outbox.cif.g09.slc.cpg/sg62_12_cif.got.tgz:23673.got - 2010.04.10 19:12:36.
