data_PCOD8252172
_publ_section_title
;
Structure prediction by ZEFSAII (Michael W. Deem and Ramdas Pophale) SiO2 
 PCOD8252172
Probable space group: P N M A
;
_chemical_formula_sum "Si O2"
_cell_formula_units_Z 56
_cell_length_a 9.481165
_cell_length_b 14.144603
_cell_length_c 26.491102
_cell_angle_alpha 90.000000
_cell_angle_beta 90.000000
_cell_angle_gamma 90.000000
_cell_volume 3552.650558
_symmetry_space_group_name_H-M "P N M A"
_symmetry_group_IT_number 62
_symmetry_cell_setting 'orthorhombic'
loop_
_space_group_symop_operation_xyz
x,y,z
1/2-x,-y,1/2+z
1/2+x,1/2-y,1/2-z
-x,1/2+y,-z
-x,-y,-z
1/2+x,y,1/2-z
1/2-x,1/2+y,1/2+z
x,1/2-y,z
loop_
_atom_site_type_symbol
_atom_site_label
_atom_site_fract_x
_atom_site_fract_y
_atom_site_fract_z
Si Si1 0.753054 0.861963 0.313225
Si Si2 0.269054 0.355920 0.033287
Si Si3 0.985198 0.859464 0.459941
Si Si4 0.945305 0.138497 0.726430
Si Si5 0.724024 0.954767 0.421575
Si Si6 0.438611 0.642007 0.439380
Si Si7 0.688916 0.862485 0.126163
O O1 0.752206 0.750000 0.324873
O O2 0.617543 0.894931 0.280242
O O3 0.750902 0.917761 0.365387
O O4 0.892278 0.890900 0.281274
O O5 0.260302 0.250000 0.056115
O O6 0.235758 0.431090 0.077349
O O7 0.425962 0.374287 0.011178
O O8 0.154843 0.367397 0.989167
O O9 0.950819 0.750000 0.451484
O O10 0.072484 0.901511 0.412706
O O11 0.837338 0.914441 0.461658
O O12 0.930187 0.250000 0.724198
O O13 0.847694 0.096659 0.681390
O O14 0.572481 0.925265 0.442671
O O15 0.489194 0.750000 0.431625
O O16 0.345826 0.607625 0.391146
O O17 0.680772 0.750000 0.123810
#
# Coordination Sequence:
#
# PCOD8252172 Si02
#       7
#     8   8   8   8   8   8   8
#     4  10  20  29  43  68  96 122 148 179 220 271
#     4   9  20  35  46  61  91 128 156 187 232 271
#     4   9  16  29  47  67  91 118 148 182 225 272
#     4   9  17  29  41  60  96 129 145 170 218 274
#     4  12  19  28  47  72  91 117 160 196 218 259
#     4   9  18  29  45  68  94 121 149 182 227 275
#     4   8  14  27  43  59  91 129 145 164 215 277
#
# _framework density 15.762879
#
# number of rings (size 3 to 8) (size 9 to 14) (size 15 to 20)
#    0.000    2.571    1.429    3.857    2.000    0.000 
#    0.000    0.000    0.000    0.000    0.000    1.000 
#    0.000    0.000    0.000    0.000    0.000    0.000 
#
# Total GULP energy -694061.967134 kJ/mol
# GULP energy per Si atom -12393.963699 kJ/mol
# Density = 1.572700 g / cm^3
# Si number density = 15.762879 Si / 1000 Ang^3
#
#
#
# Elastic Constant Matrix: (Units=GPa)
#
#
# Indices 1 2 3 4 5 6 
#
# 1 87.4338 25.1881 19.7780 0.0000 0.0000 0.0000
# 2 25.1881 54.5252 28.4154 0.0000 0.0000 0.0000
# 3 19.7780 28.4154 55.6754 0.0000 0.0000 0.0000
# 4 0.0000 0.0000 0.0000 16.9527 0.0000 0.0000
# 5 0.0000 0.0000 0.0000 0.0000 15.2946 0.0000
# 6 0.0000 0.0000 0.0000 0.0000 0.0000 12.3714
#
#
#
# Elastic Compliance Matrix: (Units=1/GPa)
#
#
# Indices 1 2 3 4 5 6 
#
# 1 0.013384 -0.005048 -0.002178 0.000000 0.000000 0.000000
# 2 -0.005048 0.026889 -0.011931 0.000000 0.000000 0.000000
# 3 -0.002178 -0.011931 0.024824 0.000000 0.000000 0.000000
# 4 0.000000 0.000000 0.000000 0.058988 0.000000 0.000000
# 5 0.000000 0.000000 0.000000 0.000000 0.065383 0.000000
# 6 0.000000 0.000000 0.000000 0.000000 0.000000 0.080831
#
#
# Mechanical properties :
#
#
# Convention : Reuss Voigt Hill
#
# Bulk Modulus (GPa) = 37.33492 38.26636 37.80064
# Shear Modulus (GPa) = 15.74600 17.20726 16.47663
#
# Velocity S-wave (km/s) = 3.16401 3.30757 3.23659
# Velocity P-wave (km/s) = 6.08972 6.23824 6.16443
#
# Compressibility (1/GPa) = 0.02678458
#
# Stress axis : x y z
#
# Youngs Moduli (GPa) = 74.71550 37.18934 40.28327
#
# Poissons Ratio (x) = 0.18772 0.08775
# Poissons Ratio (y) = 0.37713 0.48060
# Poissons Ratio (z) = 0.16276 0.44369
#
# Static dielectric constant tensor:
#      x y z
#    x 3.206320 0.000000 0.000000 
#    y 0.000000 2.658520 0.000000 
#    z 0.000000 0.000000 2.992960 
# 
# 
# High freq. dielectric constant tensor:
#      x y z
#    x 1.622470 0.000000 0.000000 
#    y 0.000000 1.549900 0.000000 
#    z 0.000000 0.000000 1.587040 
# 
# From -- ./inp_files/32280.got.cif
#   From: 2010.03.12/outbox.cif.g09.slc.cpg/sg62_17_cif.got.tgz:32280.got - 2010.04.10 19:12:36.
