data_PCOD8252137
_publ_section_title
;
Structure prediction by ZEFSAII (Michael W. Deem and Ramdas Pophale) SiO2 
 PCOD8252137
Probable space group: P N M A
;
_chemical_formula_sum "Si O2"
_cell_formula_units_Z 64
_cell_length_a 10.917376
_cell_length_b 25.166096
_cell_length_c 9.816224
_cell_angle_alpha 90.000000
_cell_angle_beta 90.000000
_cell_angle_gamma 90.000000
_cell_volume 2696.985286
_symmetry_space_group_name_H-M "P N M A"
_symmetry_group_IT_number 62
_symmetry_cell_setting 'orthorhombic'
loop_
_space_group_symop_operation_xyz
x,y,z
1/2-x,-y,1/2+z
1/2+x,1/2-y,1/2-z
-x,1/2+y,-z
-x,-y,-z
1/2+x,y,1/2-z
1/2-x,1/2+y,1/2+z
x,1/2-y,z
loop_
_atom_site_type_symbol
_atom_site_label
_atom_site_fract_x
_atom_site_fract_y
_atom_site_fract_z
Si Si1 0.933018 0.591607 0.550359
Si Si2 0.218659 0.380069 0.217534
Si Si3 0.914382 0.868433 0.260516
Si Si4 0.396988 0.310093 0.097214
Si Si5 0.326760 0.018366 0.443901
Si Si6 0.641967 0.522133 0.864709
Si Si7 0.167765 0.690227 0.293804
Si Si8 0.455664 0.581748 0.522215
O O1 0.924296 0.590001 0.386220
O O2 0.989316 0.649396 0.593125
O O3 0.001932 0.538767 0.605210
O O4 0.800585 0.594839 0.630212
O O5 0.296703 0.325665 0.214437
O O6 0.292303 0.420775 0.120495
O O7 0.086004 0.377047 0.141505
O O8 0.035144 0.832138 0.250739
O O9 0.785511 0.837535 0.275556
O O10 0.910330 0.901098 0.123973
O O11 0.445013 0.250000 0.124846
O O12 0.320853 0.312872 0.956650
O O13 0.331680 0.998936 0.286164
O O14 0.397640 0.074810 0.460703
O O15 0.189923 0.018955 0.515034
O O16 0.395400 0.976544 0.543710
O O17 0.171030 0.750000 0.239708
#
# Coordination Sequence:
#
# PCOD8252137 Si02
#       8
#     8   8   8   8   8   8   8   8
#     4  10  22  38  58  86 124 153 199 256 316 356
#     4  10  19  39  59  81 115 156 195 245 307 369
#     4  11  23  39  66  92 124 166 207 257 306 376
#     4   9  19  37  61  84 114 159 198 241 307 377
#     4  10  22  38  57  83 117 157 204 260 299 374
#     4  10  22  37  59  83 117 158 201 254 316 360
#     4  10  21  40  64  94 125 162 204 254 310 367
#     4  10  21  38  59  83 115 157 208 243 307 364
#
# _framework density 23.730201000000001
#
# number of rings (size 3 to 8) (size 9 to 14) (size 15 to 20)
#    0.000    2.000    2.500    0.375    3.500    3.000 
#    0.000    1.250    0.000    0.000    0.000    0.000 
#    0.000    0.000    0.000    0.000    0.000    0.000 
#
# Total GULP energy -793207.155161 kJ/mol
# GULP energy per Si atom -12393.861799 kJ/mol
# Density = 2.367619 g / cm^3
# Si number density = 23.730201 Si / 1000 Ang^3
#
#
#
# Elastic Constant Matrix: (Units=GPa)
#
#
# Indices 1 2 3 4 5 6 
#
# 1 117.6407 9.6348 9.2585 0.0000 0.0000 0.0000
# 2 9.6348 31.9680 6.3100 0.0000 0.0000 0.0000
# 3 9.2585 6.3100 99.9113 0.0000 0.0000 0.0000
# 4 0.0000 0.0000 0.0000 27.7804 0.0000 0.0000
# 5 0.0000 0.0000 0.0000 0.0000 39.6250 0.0000
# 6 0.0000 0.0000 0.0000 0.0000 0.0000 30.9823
#
#
#
# Elastic Compliance Matrix: (Units=1/GPa)
#
#
# Indices 1 2 3 4 5 6 
#
# 1 0.008757 -0.002511 -0.000653 0.000000 0.000000 0.000000
# 2 -0.002511 0.032396 -0.001813 0.000000 0.000000 0.000000
# 3 -0.000653 -0.001813 0.010184 0.000000 0.000000 0.000000
# 4 0.000000 0.000000 0.000000 0.035997 0.000000 0.000000
# 5 0.000000 0.000000 0.000000 0.000000 0.025237 0.000000
# 6 0.000000 0.000000 0.000000 0.000000 0.000000 0.032277
#
#
# Mechanical properties :
#
#
# Convention : Reuss Voigt Hill
#
# Bulk Modulus (GPa) = 24.16419 33.32518 28.74468
# Shear Modulus (GPa) = 29.65684 34.63199 32.14442
#
# Velocity S-wave (km/s) = 3.53902 3.82436 3.68445
# Velocity P-wave (km/s) = 5.18696 5.79438 5.49906
#
# Compressibility (1/GPa) = 0.04138355
#
# Stress axis : x y z
#
# Youngs Moduli (GPa) = 114.18830 30.86811 98.19411
#
# Poissons Ratio (x) = 0.07750 0.06412
# Poissons Ratio (y) = 0.28667 0.17806
# Poissons Ratio (z) = 0.07456 0.05598
#
# Static dielectric constant tensor:
#      x y z
#    x 4.660340 0.000000 0.000000 
#    y 0.000000 4.264470 0.000000 
#    z 0.000000 0.000000 4.096420 
# 
# 
# High freq. dielectric constant tensor:
#      x y z
#    x 1.959670 0.000000 0.000000 
#    y 0.000000 1.925350 0.000000 
#    z 0.000000 0.000000 1.936460 
# 
# From -- ./inp_files/5514.got.cif
#   From: 2010.03.12/outbox.cif.g09.slc.cpg/sg62_3_cif.got.tgz:5514.got - 2010.04.10 19:12:36.
