data_PCOD8252912
_publ_section_title
;
Structure prediction by ZEFSAII (Michael W. Deem and Ramdas Pophale) SiO2 
 PCOD8252912
Probable space group: P N M A
;
_chemical_formula_sum "Si O2"
_cell_formula_units_Z 36
_cell_length_a 15.170275
_cell_length_b 10.160847
_cell_length_c 10.902830
_cell_angle_alpha 90.000000
_cell_angle_beta 90.000000
_cell_angle_gamma 90.000000
_cell_volume 1680.593215
_symmetry_space_group_name_H-M "P N M A"
_symmetry_group_IT_number 62
_symmetry_cell_setting 'orthorhombic'
loop_
_space_group_symop_operation_xyz
x,y,z
1/2-x,-y,1/2+z
1/2+x,1/2-y,1/2-z
-x,1/2+y,-z
-x,-y,-z
1/2+x,y,1/2-z
1/2-x,1/2+y,1/2+z
x,1/2-y,z
loop_
_atom_site_type_symbol
_atom_site_label
_atom_site_fract_x
_atom_site_fract_y
_atom_site_fract_z
Si Si1 0.761372 0.535481 0.138190
Si Si2 0.921779 0.750000 0.749042
Si Si3 0.874283 0.750000 0.023322
Si Si4 0.521698 0.250000 0.766471
Si Si5 0.712730 0.250000 0.838239
Si Si6 0.058579 0.996079 0.379670
Si Si7 0.262991 0.250000 0.382405
O O1 0.813835 0.619853 0.036881
O O2 0.759265 0.617278 0.265244
O O3 0.662646 0.507587 0.087543
O O4 0.809000 0.390549 0.153586
O O5 0.971010 0.621737 0.699431
O O6 0.824428 0.750000 0.696866
O O7 0.923037 0.750000 0.895126
O O8 0.950374 0.750000 0.125161
O O9 0.607154 0.250000 0.854510
O O10 0.461246 0.126288 0.793532
O O11 0.754818 0.250000 0.970710
O O12 0.000000 0.000000 0.500000
#
# Coordination Sequence:
#
# PCOD8252912 Si02
#       7
#     8   4   4   4   4   8   4
#     4   9  21  38  63  90 125 167 206 264 320 372
#     4  10  24  39  60  94 127 161 217 267 319 381
#     4  10  23  43  60  90 136 168 212 269 321 388
#     4  10  20  38  63  86 126 172 203 256 322 371
#     4  10  21  39  60  93 126 161 214 259 317 374
#     4  11  21  40  66  94 123 168 216 265 316 382
#     4  10  20  35  61  91 119 162 204 261 307 376
#
# _framework density 21.421009000000002
#
# number of rings (size 3 to 8) (size 9 to 14) (size 15 to 20)
#    0.000    2.222    0.000    4.667    6.222    0.889 
#    0.000    4.444    0.000    0.000    0.000    0.000 
#    0.000    0.000    0.000    0.000    0.000    0.000 
#
# Total GULP energy -446168.640973 kJ/mol
# GULP energy per Si atom -12393.573360 kJ/mol
# Density = 2.137225 g / cm^3
# Si number density = 21.421009 Si / 1000 Ang^3
#
#
#
# Elastic Constant Matrix: (Units=GPa)
#
#
# Indices 1 2 3 4 5 6 
#
# 1 47.1637 23.7478 8.2613 0.0000 0.0000 0.0000
# 2 23.7478 235.9215 57.9547 0.0000 0.0000 0.0000
# 3 8.2613 57.9547 133.2904 0.0000 0.0000 0.0000
# 4 0.0000 0.0000 0.0000 33.1439 0.0000 0.0000
# 5 0.0000 0.0000 0.0000 0.0000 33.8374 0.0000
# 6 0.0000 0.0000 0.0000 0.0000 0.0000 -31.7262
#
#
#
# Elastic Compliance Matrix: (Units=1/GPa)
#
#
# Indices 1 2 3 4 5 6 
#
# 1 0.022359 -0.002139 -0.000456 0.000000 0.000000 0.000000
# 2 -0.002139 0.004950 -0.002020 0.000000 0.000000 0.000000
# 3 -0.000456 -0.002020 0.008409 0.000000 0.000000 0.000000
# 4 0.000000 0.000000 0.000000 0.030171 0.000000 0.000000
# 5 0.000000 0.000000 0.000000 0.000000 0.029553 0.000000
# 6 0.000000 0.000000 0.000000 0.000000 0.000000 -0.031520
#
#
# Mechanical properties :
#
#
# Convention : Reuss Voigt Hill
#
# Bulk Modulus (GPa) = 37.75048 66.25588 52.00318
# Shear Modulus (GPa) = 60.98901 28.81182 44.90042
#
# Velocity S-wave (km/s) = 5.34167 3.67144 4.58328
# Velocity P-wave (km/s) = 7.46364 6.99786 7.23450
#
# Compressibility (1/GPa) = 0.02648973
#
# Stress axis : x y z
#
# Youngs Moduli (GPa) = 44.72373 202.01450 118.92204
#
# Poissons Ratio (x) = 0.43205 0.05422
# Poissons Ratio (y) = 0.09565 0.24019
# Poissons Ratio (z) = 0.02039 0.40802
#
# Static dielectric constant tensor:
#      x y z
#    x 3.614150 0.000000 0.000000 
#    y 0.000000 4.696560 0.000000 
#    z 0.000000 0.000000 3.631520 
# 
# 
# High freq. dielectric constant tensor:
#      x y z
#    x 1.810340 0.000000 0.000000 
#    y 0.000000 1.873240 0.000000 
#    z 0.000000 0.000000 1.830730 
# 
# From -- ./inp_files/12963.got.cif
#   From: 2010.03.12/outbox.cif.g09.slc.cpg/sg62_7_cif.got.tgz:12963.got - 2010.04.10 19:12:36.
