data_PCOD8252175
_publ_section_title
;
Structure prediction by ZEFSAII (Michael W. Deem and Ramdas Pophale) SiO2 
 PCOD8252175
Probable space group: P N M A
;
_chemical_formula_sum "Si O2"
_cell_formula_units_Z 56
_cell_length_a 9.503315
_cell_length_b 14.019856
_cell_length_c 26.616672
_cell_angle_alpha 90.000000
_cell_angle_beta 90.000000
_cell_angle_gamma 90.000000
_cell_volume 3546.275164
_symmetry_space_group_name_H-M "P N M A"
_symmetry_group_IT_number 62
_symmetry_cell_setting 'orthorhombic'
loop_
_space_group_symop_operation_xyz
x,y,z
1/2-x,-y,1/2+z
1/2+x,1/2-y,1/2-z
-x,1/2+y,-z
-x,-y,-z
1/2+x,y,1/2-z
1/2-x,1/2+y,1/2+z
x,1/2-y,z
loop_
_atom_site_type_symbol
_atom_site_label
_atom_site_fract_x
_atom_site_fract_y
_atom_site_fract_z
Si Si1 0.763070 0.863898 0.310658
Si Si2 0.261735 0.353338 0.035555
Si Si3 0.992237 0.092957 0.532343
Si Si4 0.928857 0.137566 0.721548
Si Si5 0.734521 0.946087 0.420398
Si Si6 0.451356 0.641608 0.446712
Si Si7 0.695935 0.861137 0.118848
O O1 0.761057 0.750000 0.319486
O O2 0.639510 0.899870 0.273310
O O3 0.736228 0.917680 0.362466
O O4 0.911771 0.897919 0.286880
O O5 0.232551 0.250000 0.062008
O O6 0.270711 0.440386 0.075101
O O7 0.405938 0.335136 0.003489
O O8 0.137699 0.379067 0.996611
O O9 0.906958 0.076627 0.583963
O O10 0.151916 0.118748 0.548779
O O11 0.000000 0.000000 0.500000
O O12 0.928498 0.250000 0.724438
O O13 0.828005 0.104512 0.675781
O O14 0.583582 0.928252 0.445138
O O15 0.506101 0.750000 0.445726
O O16 0.357297 0.622136 0.396966
O O17 0.653536 0.750000 0.111787
#
# Coordination Sequence:
#
# PCOD8252175 Si02
#       7
#     8   8   8   8   8   8   8
#     4  10  20  30  44  68  96 121 149 187 228 276
#     4   9  19  34  47  63  93 129 158 189 233 277
#     4   9  17  28  45  67  90 115 150 192 226 270
#     4   9  18  30  43  62  94 126 149 178 223 280
#     4  11  19  29  47  72  93 119 162 197 225 269
#     4   9  18  28  44  68  96 125 152 184 227 274
#     4   9  16  29  44  60  92 131 149 169 224 284
#
# _framework density 15.791216
#
# number of rings (size 3 to 8) (size 9 to 14) (size 15 to 20)
#    0.000    2.571    1.429    2.143    2.000    1.714 
#    0.000    0.000    0.000    0.000    0.000    1.000 
#    0.000    0.000    0.000    0.000    0.000    0.000 
#
# Total GULP energy -693761.666840 kJ/mol
# GULP energy per Si atom -12388.601194 kJ/mol
# Density = 1.575527 g / cm^3
# Si number density = 15.791216 Si / 1000 Ang^3
#
#
#
# Elastic Constant Matrix: (Units=GPa)
#
#
# Indices 1 2 3 4 5 6 
#
# 1 96.5055 29.9423 37.0682 0.0000 0.0000 0.0000
# 2 29.9423 54.8757 34.4893 0.0000 0.0000 0.0000
# 3 37.0682 34.4893 87.9696 0.0000 0.0000 0.0000
# 4 0.0000 0.0000 0.0000 20.7545 0.0000 0.0000
# 5 0.0000 0.0000 0.0000 0.0000 24.1693 0.0000
# 6 0.0000 0.0000 0.0000 0.0000 0.0000 15.3742
#
#
#
# Elastic Compliance Matrix: (Units=1/GPa)
#
#
# Indices 1 2 3 4 5 6 
#
# 1 0.013308 -0.004959 -0.003663 0.000000 0.000000 0.000000
# 2 -0.004959 0.026029 -0.008116 0.000000 0.000000 0.000000
# 3 -0.003663 -0.008116 0.016093 0.000000 0.000000 0.000000
# 4 0.000000 0.000000 0.000000 0.048182 0.000000 0.000000
# 5 0.000000 0.000000 0.000000 0.000000 0.041375 0.000000
# 6 0.000000 0.000000 0.000000 0.000000 0.000000 0.065044
#
#
# Mechanical properties :
#
#
# Convention : Reuss Voigt Hill
#
# Bulk Modulus (GPa) = 45.54849 49.15005 47.34927
# Shear Modulus (GPa) = 19.93422 21.24966 20.59194
#
# Velocity S-wave (km/s) = 3.55683 3.67231 3.61503
# Velocity P-wave (km/s) = 6.76571 7.01239 6.89015
#
# Compressibility (1/GPa) = 0.02195462
#
# Stress axis : x y z
#
# Youngs Moduli (GPa) = 75.14399 38.41826 62.13883
#
# Poissons Ratio (x) = 0.19051 0.22764
# Poissons Ratio (y) = 0.37262 0.50429
# Poissons Ratio (z) = 0.27529 0.31178
#
# Static dielectric constant tensor:
#      x y z
#    x 3.638260 0.000000 0.000000 
#    y 0.000000 2.791120 0.000000 
#    z 0.000000 0.000000 3.064310 
# 
# 
# High freq. dielectric constant tensor:
#      x y z
#    x 1.621590 0.000000 0.000000 
#    y 0.000000 1.559060 0.000000 
#    z 0.000000 0.000000 1.597140 
# 
# From -- ./inp_files/32293.got.cif
#   From: 2010.03.12/outbox.cif.g09.slc.cpg/sg62_17_cif.got.tgz:32293.got - 2010.04.10 19:12:36.
