data_PCOD8252336
_publ_section_title
;
Structure prediction by ZEFSAII (Michael W. Deem and Ramdas Pophale) SiO2 
 PCOD8252336
Probable space group: P N M A
;
_chemical_formula_sum "Si O2"
_cell_formula_units_Z 56
_cell_length_a 15.507356
_cell_length_b 9.462259
_cell_length_c 18.808105
_cell_angle_alpha 90.000000
_cell_angle_beta 90.000000
_cell_angle_gamma 90.000000
_cell_volume 2759.800119
_symmetry_space_group_name_H-M "P N M A"
_symmetry_group_IT_number 62
_symmetry_cell_setting 'orthorhombic'
loop_
_space_group_symop_operation_xyz
x,y,z
1/2-x,-y,1/2+z
1/2+x,1/2-y,1/2-z
-x,1/2+y,-z
-x,-y,-z
1/2+x,y,1/2-z
1/2-x,1/2+y,1/2+z
x,1/2-y,z
loop_
_atom_site_type_symbol
_atom_site_label
_atom_site_fract_x
_atom_site_fract_y
_atom_site_fract_z
Si Si1 0.737734 0.093125 0.571753
Si Si2 0.264235 0.583106 0.265645
Si Si3 0.036263 0.088669 0.760958
Si Si4 0.579292 0.093566 0.480951
Si Si5 0.994800 0.405848 0.599967
Si Si6 0.119009 0.417986 0.175895
Si Si7 0.128930 0.409872 0.488449
O O1 0.774277 0.250000 0.559967
O O2 0.756967 0.047486 0.652463
O O3 0.637718 0.086522 0.551650
O O4 0.781423 0.990532 0.514735
O O5 0.252476 0.750000 0.249048
O O6 0.364318 0.537336 0.255547
O O7 0.198761 0.494215 0.216338
O O8 0.032951 0.250000 0.791325
O O9 0.996006 0.083983 0.683402
O O10 0.975100 0.984151 0.805659
O O11 0.542743 0.250000 0.469459
O O12 0.630168 0.051818 0.408476
O O13 0.500000 0.000000 0.500000
O O14 0.961503 0.250000 0.576204
O O15 0.090329 0.427756 0.567309
O O16 0.933230 0.526156 0.571244
O O17 0.120314 0.250000 0.193688
O O18 0.145551 0.250000 0.467016
#
# Coordination Sequence:
#
# PCOD8252336 Si02
#       7
#     8   8   8   8   8   8   8
#     4  10  21  38  58  81 113 152 195 240 290 349
#     4  10  22  39  62  88 116 158 209 252 296 358
#     4  10  21  39  62  84 113 157 207 249 291 354
#     4  10  23  42  63  88 119 158 203 250 302 357
#     4   9  19  35  54  79 112 147 187 233 282 343
#     4  11  24  40  60  92 129 160 197 253 317 370
#     4  10  20  33  53  83 112 143 185 232 286 343
#
# _framework density 20.291325000000001
#
# number of rings (size 3 to 8) (size 9 to 14) (size 15 to 20)
#    0.000    2.000    0.000    2.571    2.000    8.571 
#    0.000    0.000    0.000    0.000    0.000    0.000 
#    0.000    0.000    0.000    0.000    0.000    0.000 
#
# Total GULP energy -694072.718946 kJ/mol
# GULP energy per Si atom -12394.155695 kJ/mol
# Density = 2.024514 g / cm^3
# Si number density = 20.291325 Si / 1000 Ang^3
#
#
#
# Elastic Constant Matrix: (Units=GPa)
#
#
# Indices 1 2 3 4 5 6 
#
# 1 101.6304 48.4249 24.4907 0.0000 0.0000 0.0000
# 2 48.4249 96.1995 42.4121 0.0000 0.0000 0.0000
# 3 24.4907 42.4121 79.7888 0.0000 0.0000 0.0000
# 4 0.0000 0.0000 0.0000 24.5069 0.0000 0.0000
# 5 0.0000 0.0000 0.0000 0.0000 30.3429 0.0000
# 6 0.0000 0.0000 0.0000 0.0000 0.0000 39.5410
#
#
#
# Elastic Compliance Matrix: (Units=1/GPa)
#
#
# Indices 1 2 3 4 5 6 
#
# 1 0.012971 -0.006235 -0.000667 0.000000 0.000000 0.000000
# 2 -0.006235 0.016574 -0.006896 0.000000 0.000000 0.000000
# 3 -0.000667 -0.006896 0.016404 0.000000 0.000000 0.000000
# 4 0.000000 0.000000 0.000000 0.040805 0.000000 0.000000
# 5 0.000000 0.000000 0.000000 0.000000 0.032957 0.000000
# 6 0.000000 0.000000 0.000000 0.000000 0.000000 0.025290
#
#
# Mechanical properties :
#
#
# Convention : Reuss Voigt Hill
#
# Bulk Modulus (GPa) = 54.49040 56.47489 55.48265
# Shear Modulus (GPa) = 27.97744 29.69756 28.83750
#
# Velocity S-wave (km/s) = 3.71723 3.82980 3.77394
# Velocity P-wave (km/s) = 6.73321 6.88832 6.81121
#
# Compressibility (1/GPa) = 0.01835185
#
# Stress axis : x y z
#
# Youngs Moduli (GPa) = 77.09278 60.33456 60.96254
#
# Poissons Ratio (x) = 0.37621 0.04066
# Poissons Ratio (y) = 0.48071 0.42041
# Poissons Ratio (z) = 0.05142 0.41608
#
# Static dielectric constant tensor:
#      x y z
#    x 3.722300 0.000000 0.000000 
#    y 0.000000 3.778210 0.000000 
#    z 0.000000 0.000000 3.926320 
# 
# 
# High freq. dielectric constant tensor:
#      x y z
#    x 1.795710 0.000000 0.000000 
#    y 0.000000 1.789780 0.000000 
#    z 0.000000 0.000000 1.797320 
# 
# From -- ./inp_files/27237.got.cif
#   From: 2010.03.12/outbox.cif.g09.slc.cpg/sg62_14_cif.got.tgz:27237.got - 2010.04.10 19:12:36.
