data_PCOD8252526
_publ_section_title
;
Structure prediction by ZEFSAII (Michael W. Deem and Ramdas Pophale) SiO2 
 PCOD8252526
Probable space group: P N M A
;
_chemical_formula_sum "Si O2"
_cell_formula_units_Z 48
_cell_length_a 9.035533
_cell_length_b 8.445064
_cell_length_c 30.368354
_cell_angle_alpha 90.000000
_cell_angle_beta 90.000000
_cell_angle_gamma 90.000000
_cell_volume 2317.277127
_symmetry_space_group_name_H-M "P N M A"
_symmetry_group_IT_number 62
_symmetry_cell_setting 'orthorhombic'
loop_
_space_group_symop_operation_xyz
x,y,z
1/2-x,-y,1/2+z
1/2+x,1/2-y,1/2-z
-x,1/2+y,-z
-x,-y,-z
1/2+x,y,1/2-z
1/2-x,1/2+y,1/2+z
x,1/2-y,z
loop_
_atom_site_type_symbol
_atom_site_label
_atom_site_fract_x
_atom_site_fract_y
_atom_site_fract_z
Si Si1 0.333520 0.062201 0.366915
Si Si2 0.842951 0.932471 0.296023
Si Si3 0.159860 0.434885 0.281436
Si Si4 0.334244 0.565631 0.625885
Si Si5 0.820478 0.932495 0.453514
Si Si6 0.861077 0.936108 0.552501
O O1 0.334015 0.250000 0.367707
O O2 0.246018 0.999635 0.324250
O O3 0.500989 0.998346 0.365716
O O4 0.253547 0.000740 0.411062
O O5 0.888701 0.750000 0.293486
O O6 0.715774 0.970739 0.260893
O O7 0.780984 0.970242 0.344275
O O8 0.985708 0.038851 0.286612
O O9 0.190168 0.250000 0.274184
O O10 0.325083 0.750000 0.637802
O O11 0.291682 0.538244 0.575023
O O12 0.787177 0.750000 0.443883
O O13 0.792913 0.974741 0.504660
O O14 0.988294 0.969386 0.440041
O O15 0.895628 0.750000 0.557325
#
# Coordination Sequence:
#
# PCOD8252526 Si02
#       6
#     8   8   8   8   8   8
#     4   9  20  37  59  84 110 147 196 241 280 338
#     4  12  25  41  61  89 122 153 192 245 299 346
#     4  11  22  40  65  90 117 154 198 240 290 353
#     4  11  22  38  59  83 114 154 198 240 289 352
#     4  10  20  34  55  85 117 149 190 241 295 349
#     4   9  18  36  59  82 112 151 194 240 291 348
#
# _framework density 20.713965999999999
#
# number of rings (size 3 to 8) (size 9 to 14) (size 15 to 20)
#    0.000    1.667    0.000    5.000    0.000    4.000 
#    0.000    5.000    0.000    0.000    0.000    0.000 
#    0.000    0.000    0.000    0.000    0.000    0.000 
#
# Total GULP energy -595485.842680 kJ/mol
# GULP energy per Si atom -12405.955056 kJ/mol
# Density = 2.066682 g / cm^3
# Si number density = 20.713966 Si / 1000 Ang^3
#
#
#
# Elastic Constant Matrix: (Units=GPa)
#
#
# Indices 1 2 3 4 5 6 
#
# 1 87.0364 12.2144 30.2197 0.0000 0.0000 0.0000
# 2 12.2144 51.0093 21.4107 0.0000 0.0000 0.0000
# 3 30.2197 21.4107 102.4160 0.0000 0.0000 0.0000
# 4 0.0000 0.0000 0.0000 31.4207 0.0000 0.0000
# 5 0.0000 0.0000 0.0000 0.0000 42.5471 0.0000
# 6 0.0000 0.0000 0.0000 0.0000 0.0000 24.5880
#
#
#
# Elastic Compliance Matrix: (Units=1/GPa)
#
#
# Indices 1 2 3 4 5 6 
#
# 1 0.012925 -0.001638 -0.003471 0.000000 0.000000 0.000000
# 2 -0.001638 0.021698 -0.004053 0.000000 0.000000 0.000000
# 3 -0.003471 -0.004053 0.011636 0.000000 0.000000 0.000000
# 4 0.000000 0.000000 0.000000 0.031826 0.000000 0.000000
# 5 0.000000 0.000000 0.000000 0.000000 0.023503 0.000000
# 6 0.000000 0.000000 0.000000 0.000000 0.000000 0.040670
#
#
# Mechanical properties :
#
#
# Convention : Reuss Voigt Hill
#
# Bulk Modulus (GPa) = 35.79850 40.90569 38.35210
# Shear Modulus (GPa) = 29.43040 31.48563 30.45802
#
# Velocity S-wave (km/s) = 3.77344 3.90297 3.83875
# Velocity P-wave (km/s) = 6.02536 6.33259 6.18088
#
# Compressibility (1/GPa) = 0.02793413
#
# Stress axis : x y z
#
# Youngs Moduli (GPa) = 77.37232 46.08817 85.94319
#
# Poissons Ratio (x) = 0.07548 0.29833
# Poissons Ratio (y) = 0.12672 0.34830
# Poissons Ratio (z) = 0.26858 0.18678
#
# Static dielectric constant tensor:
#      x y z
#    x 3.732730 0.000000 0.000000 
#    y 0.000000 3.499730 0.000000 
#    z 0.000000 0.000000 3.951600 
# 
# 
# High freq. dielectric constant tensor:
#      x y z
#    x 1.810710 0.000000 0.000000 
#    y 0.000000 1.794290 0.000000 
#    z 0.000000 0.000000 1.825780 
# 
# From -- ./inp_files/31994.got.cif
#   From: 2010.03.12/outbox.cif.g09.slc.cpg/sg62_16_cif.got.tgz:31994.got - 2010.04.10 19:12:36.
