data_PCOD8252847
_publ_section_title
;
Structure prediction by ZEFSAII (Michael W. Deem and Ramdas Pophale) SiO2 
 PCOD8252847
Probable space group: P N M A
;
_chemical_formula_sum "Si O2"
_cell_formula_units_Z 48
_cell_length_a 11.908482
_cell_length_b 8.808644
_cell_length_c 23.081526
_cell_angle_alpha 90.000000
_cell_angle_beta 90.000000
_cell_angle_gamma 90.000000
_cell_volume 2421.196186
_symmetry_space_group_name_H-M "P N M A"
_symmetry_group_IT_number 62
_symmetry_cell_setting 'orthorhombic'
loop_
_space_group_symop_operation_xyz
x,y,z
1/2-x,-y,1/2+z
1/2+x,1/2-y,1/2-z
-x,1/2+y,-z
-x,-y,-z
1/2+x,y,1/2-z
1/2-x,1/2+y,1/2+z
x,1/2-y,z
loop_
_atom_site_type_symbol
_atom_site_label
_atom_site_fract_x
_atom_site_fract_y
_atom_site_fract_z
Si Si1 0.068974 0.916500 0.548112
Si Si2 0.258031 0.070867 0.618186
Si Si3 0.374527 0.429762 0.219645
Si Si4 0.505706 0.929455 0.436162
Si Si5 0.828304 0.429501 0.149025
Si Si6 0.416291 0.915545 0.842951
O O1 0.110541 0.750000 0.527094
O O2 0.980541 0.893979 0.598149
O O3 0.175402 0.014353 0.567721
O O4 0.000000 0.000000 0.500000
O O5 0.247754 0.250000 0.623511
O O6 0.382459 0.019976 0.598654
O O7 0.226015 0.000217 0.680889
O O8 0.371301 0.250000 0.207516
O O9 0.366866 0.471176 0.286487
O O10 0.496543 0.498268 0.200771
O O11 0.501501 0.750000 0.443351
O O12 0.500000 0.000000 0.500000
O O13 0.400351 0.984619 0.398754
O O14 0.834936 0.250000 0.136022
O O15 0.701813 0.498776 0.145661
O O16 0.384124 0.750000 0.816479
#
# Coordination Sequence:
#
# PCOD8252847 Si02
#       6
#     8   8   8   8   8   8
#     4  10  20  35  58  85 117 152 193 241 293 351
#     4  10  22  40  60  84 119 157 196 248 301 353
#     4   9  19  36  62  92 119 153 195 241 299 362
#     4  11  26  44  61  86 121 162 208 254 304 364
#     4  10  21  37  63  90 119 157 194 244 300 358
#     4   8  17  34  53  83 118 146 185 237 288 343
#
# _framework density 19.824911
#
# number of rings (size 3 to 8) (size 9 to 14) (size 15 to 20)
#    0.000    2.333    0.000    2.500    4.667    3.333 
#    0.000    3.333    0.000    0.000    0.000    0.000 
#    0.000    0.000    0.000    0.000    0.000    0.000 
#
# Total GULP energy -594861.045788 kJ/mol
# GULP energy per Si atom -12392.938454 kJ/mol
# Density = 1.977979 g / cm^3
# Si number density = 19.824911 Si / 1000 Ang^3
#
#
#
# Elastic Constant Matrix: (Units=GPa)
#
#
# Indices 1 2 3 4 5 6 
#
# 1 160.5383 36.1027 59.9173 0.0000 0.0000 0.0000
# 2 36.1027 62.0965 38.0727 0.0000 0.0000 0.0000
# 3 59.9173 38.0727 89.0196 0.0000 0.0000 0.0000
# 4 0.0000 0.0000 0.0000 29.4294 0.0000 0.0000
# 5 0.0000 0.0000 0.0000 0.0000 13.9698 0.0000
# 6 0.0000 0.0000 0.0000 0.0000 0.0000 27.6458
#
#
#
# Elastic Compliance Matrix: (Units=1/GPa)
#
#
# Indices 1 2 3 4 5 6 
#
# 1 0.008488 -0.001941 -0.004883 0.000000 0.000000 0.000000
# 2 -0.001941 0.022272 -0.008219 0.000000 0.000000 0.000000
# 3 -0.004883 -0.008219 0.018035 0.000000 0.000000 0.000000
# 4 0.000000 0.000000 0.000000 0.033980 0.000000 0.000000
# 5 0.000000 0.000000 0.000000 0.000000 0.071583 0.000000
# 6 0.000000 0.000000 0.000000 0.000000 0.000000 0.036172
#
#
# Mechanical properties :
#
#
# Convention : Reuss Voigt Hill
#
# Bulk Modulus (GPa) = 53.44977 64.42666 58.93821
# Shear Modulus (GPa) = 22.04088 26.04646 24.04367
#
# Velocity S-wave (km/s) = 3.33795 3.62860 3.48631
# Velocity P-wave (km/s) = 6.47111 7.07984 6.78231
#
# Compressibility (1/GPa) = 0.01870915
#
# Stress axis : x y z
#
# Youngs Moduli (GPa) = 117.81333 44.90019 55.44720
#
# Poissons Ratio (x) = 0.08715 0.27074
# Poissons Ratio (y) = 0.22868 0.45571
# Poissons Ratio (z) = 0.57527 0.36903
#
# Static dielectric constant tensor:
#      x y z
#    x 3.899670 0.000000 0.000000 
#    y 0.000000 3.447670 0.000000 
#    z 0.000000 0.000000 3.503740 
# 
# 
# High freq. dielectric constant tensor:
#      x y z
#    x 1.787420 0.000000 0.000000 
#    y 0.000000 1.753780 0.000000 
#    z 0.000000 0.000000 1.776490 
# 
# From -- ./inp_files/29242.got.cif
#   From: 2010.03.12/outbox.cif.g09.slc.cpg/sg62_15_cif.got.tgz:29242.got - 2010.04.10 19:12:36.
