data_PCOD8252119
_publ_section_title
;
Structure prediction by ZEFSAII (Michael W. Deem and Ramdas Pophale) SiO2 
 PCOD8252119
Probable space group: P N M A
;
_chemical_formula_sum "Si O2"
_cell_formula_units_Z 48
_cell_length_a 11.247509
_cell_length_b 16.731435
_cell_length_c 13.620044
_cell_angle_alpha 90.000000
_cell_angle_beta 90.000000
_cell_angle_gamma 90.000000
_cell_volume 2563.114754
_symmetry_space_group_name_H-M "P N M A"
_symmetry_group_IT_number 62
_symmetry_cell_setting 'orthorhombic'
loop_
_space_group_symop_operation_xyz
x,y,z
1/2-x,-y,1/2+z
1/2+x,1/2-y,1/2-z
-x,1/2+y,-z
-x,-y,-z
1/2+x,y,1/2-z
1/2-x,1/2+y,1/2+z
x,1/2-y,z
loop_
_atom_site_type_symbol
_atom_site_label
_atom_site_fract_x
_atom_site_fract_y
_atom_site_fract_z
Si Si1 0.988917 0.340183 0.043719
Si Si2 0.946915 0.840145 0.363628
Si Si3 0.580377 0.476103 0.333124
Si Si4 0.396075 0.608872 0.350165
Si Si5 0.242783 0.575073 0.031138
Si Si6 0.353191 0.464137 0.872343
O O1 0.971003 0.250000 0.079728
O O2 0.058584 0.385807 0.130939
O O3 0.068881 0.339939 0.945426
O O4 0.860516 0.379371 0.026617
O O5 0.984191 0.750000 0.392440
O O6 0.939007 0.844100 0.245687
O O7 0.820153 0.859238 0.412021
O O8 0.042455 0.903590 0.403740
O O9 0.460708 0.523708 0.359811
O O10 0.691746 0.513099 0.390119
O O11 0.607214 0.479613 0.217913
O O12 0.256394 0.592802 0.344260
O O13 0.326153 0.524327 0.959672
#
# Coordination Sequence:
#
# PCOD8252119 Si02
#       6
#     8   8   8   8   8   8
#     4  11  21  36  61  87 114 147 192 247 284 328
#     4  11  24  36  54  91 121 144 186 243 299 335
#     4  10  20  37  62  82 111 152 201 230 277 349
#     4  10  19  38  60  85 114 150 188 232 288 356
#     4  11  20  40  60  83 115 158 193 229 283 354
#     4  11  21  38  63  82 115 159 194 232 279 350
#
# _framework density 18.727214
#
# number of rings (size 3 to 8) (size 9 to 14) (size 15 to 20)
#    0.000    1.333    5.000    2.500    0.000    1.333 
#    0.000    1.667    0.000    0.000    0.000    0.000 
#    0.000    0.000    0.000    0.000    0.000    0.000 
#
# Total GULP energy -595356.816769 kJ/mol
# GULP energy per Si atom -12403.267016 kJ/mol
# Density = 1.868459 g / cm^3
# Si number density = 18.727214 Si / 1000 Ang^3
#
#
#
# Elastic Constant Matrix: (Units=GPa)
#
#
# Indices 1 2 3 4 5 6 
#
# 1 88.7062 33.8599 29.7318 0.0000 0.0000 0.0000
# 2 33.8599 125.2751 47.6071 0.0000 0.0000 0.0000
# 3 29.7318 47.6071 67.3514 0.0000 0.0000 0.0000
# 4 0.0000 0.0000 0.0000 21.1767 0.0000 0.0000
# 5 0.0000 0.0000 0.0000 0.0000 29.0802 0.0000
# 6 0.0000 0.0000 0.0000 0.0000 0.0000 21.3145
#
#
#
# Elastic Compliance Matrix: (Units=1/GPa)
#
#
# Indices 1 2 3 4 5 6 
#
# 1 0.013554 -0.001900 -0.004640 0.000000 0.000000 0.000000
# 2 -0.001900 0.011180 -0.007064 0.000000 0.000000 0.000000
# 3 -0.004640 -0.007064 0.021889 0.000000 0.000000 0.000000
# 4 0.000000 0.000000 0.000000 0.047222 0.000000 0.000000
# 5 0.000000 0.000000 0.000000 0.000000 0.034388 0.000000
# 6 0.000000 0.000000 0.000000 0.000000 0.000000 0.046916
#
#
# Mechanical properties :
#
#
# Convention : Reuss Voigt Hill
#
# Bulk Modulus (GPa) = 51.50743 55.97003 53.73873
# Shear Modulus (GPa) = 23.94301 25.65655 24.79978
#
# Velocity S-wave (km/s) = 3.57951 3.70539 3.64299
# Velocity P-wave (km/s) = 6.68189 6.94683 6.81564
#
# Compressibility (1/GPa) = 0.01941468
#
# Stress axis : x y z
#
# Youngs Moduli (GPa) = 73.78082 89.44150 45.68473
#
# Poissons Ratio (x) = 0.16994 0.21199
# Poissons Ratio (y) = 0.14018 0.32272
# Poissons Ratio (z) = 0.34236 0.63183
#
# Static dielectric constant tensor:
#      x y z
#    x 3.482990 0.000000 0.000000 
#    y 0.000000 3.263430 0.000000 
#    z 0.000000 0.000000 3.375240 
# 
# 
# High freq. dielectric constant tensor:
#      x y z
#    x 1.735100 0.000000 0.000000 
#    y 0.000000 1.714900 0.000000 
#    z 0.000000 0.000000 1.719680 
# 
# From -- ./inp_files/12259.got.cif
#   From: 2010.03.12/outbox.cif.g09.slc.cpg/sg62_7_cif.got.tgz:12259.got - 2010.04.10 19:12:36.
