data_PCOD8252448
_publ_section_title
;
Structure prediction by ZEFSAII (Michael W. Deem and Ramdas Pophale) SiO2 
 PCOD8252448
Probable space group: P N M A
;
_chemical_formula_sum "Si O2"
_cell_formula_units_Z 56
_cell_length_a 18.992937
_cell_length_b 8.796084
_cell_length_c 18.997421
_cell_angle_alpha 90.000000
_cell_angle_beta 90.000000
_cell_angle_gamma 90.000000
_cell_volume 3173.775059
_symmetry_space_group_name_H-M "P N M A"
_symmetry_group_IT_number 62
_symmetry_cell_setting 'orthorhombic'
loop_
_space_group_symop_operation_xyz
x,y,z
1/2-x,-y,1/2+z
1/2+x,1/2-y,1/2-z
-x,1/2+y,-z
-x,-y,-z
1/2+x,y,1/2-z
1/2-x,1/2+y,1/2+z
x,1/2-y,z
loop_
_atom_site_type_symbol
_atom_site_label
_atom_site_fract_x
_atom_site_fract_y
_atom_site_fract_z
Si Si1 0.978000 0.075700 0.797213
Si Si2 0.551512 0.070919 0.443271
Si Si3 0.199287 0.928721 0.018807
Si Si4 0.267965 0.072547 0.361144
Si Si5 0.826759 0.074956 0.744706
Si Si6 0.386311 0.425048 0.249687
Si Si7 0.230656 0.926741 0.641731
O O1 0.983714 0.250000 0.821610
O O2 0.910439 0.050832 0.747501
O O3 0.975493 0.971668 0.866051
O O4 0.045308 0.030381 0.750782
O O5 0.549748 0.250000 0.451953
O O6 0.500000 0.000000 0.500000
O O7 0.629960 0.012014 0.454472
O O8 0.185928 0.750000 0.022605
O O9 0.263437 0.977277 0.069779
O O10 0.218417 0.981414 0.940416
O O11 0.249771 0.250000 0.356483
O O12 0.337166 0.033844 0.316040
O O13 0.201219 0.979989 0.331220
O O14 0.805988 0.250000 0.757328
O O15 0.792704 0.973668 0.805567
O O16 0.409443 0.250000 0.253279
O O17 0.344739 0.459820 0.177380
O O18 0.239999 0.750000 0.624527
#
# Coordination Sequence:
#
# PCOD8252448 Si02
#       7
#     8   8   8   8   8   8   8
#     4  11  22  35  53  80 110 141 179 223 271 323
#     4  12  24  36  53  77 111 150 181 217 266 327
#     4  11  21  35  55  81 111 142 179 224 271 324
#     4   9  20  36  54  77 107 140 178 222 269 322
#     4  10  20  34  54  78 106 139 180 226 267 320
#     4   9  19  35  54  77 106 142 183 223 268 322
#     4  10  20  35  55  78 105 142 184 223 267 323
#
# _framework density 17.644603
#
# number of rings (size 3 to 8) (size 9 to 14) (size 15 to 20)
#    0.000    1.714    1.429    4.714    0.000    6.857 
#    0.000    0.000    0.000    0.857    0.000    0.000 
#    0.000    0.000    0.000    0.000    0.000    0.000 
#
# Total GULP energy -694617.929089 kJ/mol
# GULP energy per Si atom -12403.891591 kJ/mol
# Density = 1.760444 g / cm^3
# Si number density = 17.644603 Si / 1000 Ang^3
#
#
#
# Elastic Constant Matrix: (Units=GPa)
#
#
# Indices 1 2 3 4 5 6 
#
# 1 95.9733 39.3634 33.8120 0.0000 0.0000 0.0000
# 2 39.3634 80.1082 19.5545 0.0000 0.0000 0.0000
# 3 33.8120 19.5545 57.7355 0.0000 0.0000 0.0000
# 4 0.0000 0.0000 0.0000 31.1601 0.0000 0.0000
# 5 0.0000 0.0000 0.0000 0.0000 25.5946 0.0000
# 6 0.0000 0.0000 0.0000 0.0000 0.0000 32.5336
#
#
#
# Elastic Compliance Matrix: (Units=1/GPa)
#
#
# Indices 1 2 3 4 5 6 
#
# 1 0.015251 -0.005793 -0.006970 0.000000 0.000000 0.000000
# 2 -0.005793 0.015808 -0.001962 0.000000 0.000000 0.000000
# 3 -0.006970 -0.001962 0.022066 0.000000 0.000000 0.000000
# 4 0.000000 0.000000 0.000000 0.032092 0.000000 0.000000
# 5 0.000000 0.000000 0.000000 0.000000 0.039071 0.000000
# 6 0.000000 0.000000 0.000000 0.000000 0.000000 0.030737
#
#
# Mechanical properties :
#
#
# Convention : Reuss Voigt Hill
#
# Bulk Modulus (GPa) = 42.23378 46.58631 44.41004
# Shear Modulus (GPa) = 25.99203 27.26345 26.62774
#
# Velocity S-wave (km/s) = 3.84224 3.93510 3.88895
# Velocity P-wave (km/s) = 6.60845 6.86342 6.73714
#
# Compressibility (1/GPa) = 0.02367773
#
# Stress axis : x y z
#
# Youngs Moduli (GPa) = 65.57016 63.25758 45.31775
#
# Poissons Ratio (x) = 0.36643 0.31584
# Poissons Ratio (y) = 0.37983 0.08890
# Poissons Ratio (z) = 0.45699 0.12410
#
# Static dielectric constant tensor:
#      x y z
#    x 3.438940 0.000000 0.000000 
#    y 0.000000 3.418430 0.000000 
#    z 0.000000 0.000000 3.512990 
# 
# 
# High freq. dielectric constant tensor:
#      x y z
#    x 1.672480 0.000000 0.000000 
#    y 0.000000 1.694860 0.000000 
#    z 0.000000 0.000000 1.672700 
# 
# From -- ./inp_files/27546.got.cif
#   From: 2010.03.12/outbox.cif.g09.slc.cpg/sg62_14_cif.got.tgz:27546.got - 2010.04.10 19:12:36.
