data_PCOD8252447
_publ_section_title
;
Structure prediction by ZEFSAII (Michael W. Deem and Ramdas Pophale) SiO2 
 PCOD8252447
Probable space group: P N M A
;
_chemical_formula_sum "Si O2"
_cell_formula_units_Z 64
_cell_length_a 19.869914
_cell_length_b 8.888858
_cell_length_c 19.984269
_cell_angle_alpha 90.000000
_cell_angle_beta 90.000000
_cell_angle_gamma 90.000000
_cell_volume 3529.638458
_symmetry_space_group_name_H-M "P N M A"
_symmetry_group_IT_number 62
_symmetry_cell_setting 'orthorhombic'
loop_
_space_group_symop_operation_xyz
x,y,z
1/2-x,-y,1/2+z
1/2+x,1/2-y,1/2-z
-x,1/2+y,-z
-x,-y,-z
1/2+x,y,1/2-z
1/2-x,1/2+y,1/2+z
x,1/2-y,z
loop_
_atom_site_type_symbol
_atom_site_label
_atom_site_fract_x
_atom_site_fract_y
_atom_site_fract_z
Si Si1 0.180594 0.573211 0.926254
Si Si2 0.674935 0.579167 0.421119
Si Si3 0.568577 0.927285 0.825442
Si Si4 0.169013 0.075613 0.572675
Si Si5 0.320512 0.425425 0.933867
Si Si6 0.919788 0.927170 0.818435
Si Si7 0.430418 0.073525 0.325807
Si Si8 0.072122 0.925479 0.319800
O O1 0.194157 0.750000 0.915075
O O2 0.248743 0.486056 0.909304
O O3 0.123142 0.504090 0.877777
O O4 0.157181 0.543075 0.002078
O O5 0.655205 0.750000 0.403089
O O6 0.753455 0.551098 0.408131
O O7 0.633445 0.466111 0.375326
O O8 0.561614 0.750000 0.834194
O O9 0.589496 0.970823 0.749769
O O10 0.625804 0.988344 0.873274
O O11 0.497066 0.999119 0.843684
O O12 0.149241 0.250000 0.572782
O O13 0.153637 0.010833 0.499578
O O14 0.314719 0.250000 0.950490
O O15 0.373006 0.459577 0.875757
O O16 0.920353 0.750000 0.805390
O O17 0.993963 0.984183 0.841164
O O18 0.899778 0.006104 0.749157
O O19 0.428267 0.250000 0.336314
O O20 0.059445 0.750000 0.309682
#
# Coordination Sequence:
#
# PCOD8252447 Si02
#       8
#     8   8   8   8   8   8   8   8
#     4   9  18  35  56  76 104 139 172 211 261 314
#     4   9  19  34  52  76 106 139 173 212 259 311
#     4  10  20  35  56  81 108 137 174 219 260 307
#     4  10  21  37  56  77 105 141 176 212 260 315
#     4  10  21  36  54  78 105 133 172 219 261 306
#     4  10  20  34  54  78 105 139 178 219 260 307
#     4   8  17  34  53  76 105 136 172 213 258 307
#     4  10  21  37  55  76 106 140 173 215 265 316
#
# _framework density 18.132169999999999
#
# number of rings (size 3 to 8) (size 9 to 14) (size 15 to 20)
#    0.000    2.500    0.000    3.375    0.000    6.500 
#    0.000    6.250    0.000    0.000    0.000    0.000 
#    0.000    0.000    0.000    0.000    0.000    0.000 
#
# Total GULP energy -793683.072801 kJ/mol
# GULP energy per Si atom -12401.298013 kJ/mol
# Density = 1.809090 g / cm^3
# Si number density = 18.132170 Si / 1000 Ang^3
#
#
#
# Elastic Constant Matrix: (Units=GPa)
#
#
# Indices 1 2 3 4 5 6 
#
# 1 101.8064 52.3459 83.7857 0.0000 0.0000 0.0000
# 2 52.3459 77.9853 54.2192 0.0000 0.0000 0.0000
# 3 83.7857 54.2192 115.3298 0.0000 0.0000 0.0000
# 4 0.0000 0.0000 0.0000 30.1226 0.0000 0.0000
# 5 0.0000 0.0000 0.0000 0.0000 41.1189 0.0000
# 6 0.0000 0.0000 0.0000 0.0000 0.0000 32.0528
#
#
#
# Elastic Compliance Matrix: (Units=1/GPa)
#
#
# Indices 1 2 3 4 5 6 
#
# 1 0.026497 -0.006540 -0.016176 0.000000 0.000000 0.000000
# 2 -0.006540 0.020663 -0.004963 0.000000 0.000000 0.000000
# 3 -0.016176 -0.004963 0.022756 0.000000 0.000000 0.000000
# 4 0.000000 0.000000 0.000000 0.033198 0.000000 0.000000
# 5 0.000000 0.000000 0.000000 0.000000 0.024320 0.000000
# 6 0.000000 0.000000 0.000000 0.000000 0.000000 0.031199
#
#
# Mechanical properties :
#
#
# Convention : Reuss Voigt Hill
#
# Bulk Modulus (GPa) = 68.68573 75.09147 71.88860
# Shear Modulus (GPa) = 22.84748 27.64356 25.24552
#
# Velocity S-wave (km/s) = 3.55357 3.90880 3.73541
# Velocity P-wave (km/s) = 7.40270 7.86606 7.63789
#
# Compressibility (1/GPa) = 0.01455907
#
# Stress axis : x y z
#
# Youngs Moduli (GPa) = 37.73941 48.39502 43.94537
#
# Poissons Ratio (x) = 0.31649 0.71084
# Poissons Ratio (y) = 0.24681 0.21811
# Poissons Ratio (z) = 0.61046 0.24020
#
# Static dielectric constant tensor:
#      x y z
#    x 3.432650 0.000000 0.000000 
#    y 0.000000 3.332910 0.000000 
#    z 0.000000 0.000000 3.405740 
# 
# 
# High freq. dielectric constant tensor:
#      x y z
#    x 1.704350 0.000000 0.000000 
#    y 0.000000 1.702480 0.000000 
#    z 0.000000 0.000000 1.706030 
# 
# From -- ./inp_files/24693.got.cif
#   From: 2010.03.12/outbox.cif.g09.slc.cpg/sg62_13_cif.got.tgz:24693.got - 2010.04.10 19:12:36.
