data_PCOD8252519
_publ_section_title
;
Structure prediction by ZEFSAII (Michael W. Deem and Ramdas Pophale) SiO2 
 PCOD8252519
Probable space group: P N M A
;
_chemical_formula_sum "Si O2"
_cell_formula_units_Z 64
_cell_length_a 28.825179
_cell_length_b 9.388734
_cell_length_c 11.985019
_cell_angle_alpha 90.000000
_cell_angle_beta 90.000000
_cell_angle_gamma 90.000000
_cell_volume 3243.528921
_symmetry_space_group_name_H-M "P N M A"
_symmetry_group_IT_number 62
_symmetry_cell_setting 'orthorhombic'
loop_
_space_group_symop_operation_xyz
x,y,z
1/2-x,-y,1/2+z
1/2+x,1/2-y,1/2-z
-x,1/2+y,-z
-x,-y,-z
1/2+x,y,1/2-z
1/2-x,1/2+y,1/2+z
x,1/2-y,z
loop_
_atom_site_type_symbol
_atom_site_label
_atom_site_fract_x
_atom_site_fract_y
_atom_site_fract_z
Si Si1 0.428942 0.908611 0.036479
Si Si2 0.315983 0.086734 0.516522
Si Si3 0.658031 0.584014 0.234752
Si Si4 0.728423 0.585207 0.039748
Si Si5 0.106941 0.915504 0.848658
Si Si6 0.150879 0.913669 0.619526
Si Si7 0.936537 0.585847 0.713047
Si Si8 0.477517 0.582942 0.263123
O O1 0.409938 0.750000 0.056818
O O2 0.464963 0.946764 0.134113
O O3 0.384737 0.009683 0.037518
O O4 0.452888 0.922151 0.916071
O O5 0.304237 0.250000 0.491965
O O6 0.317789 0.053364 0.646973
O O7 0.365999 0.049164 0.462433
O O8 0.276180 0.998839 0.455043
O O9 0.643420 0.750000 0.223486
O O10 0.695114 0.539165 0.141319
O O11 0.613469 0.484296 0.226675
O O12 0.741130 0.750000 0.049666
O O13 0.702807 0.549464 0.921869
O O14 0.091743 0.750000 0.841477
O O15 0.142448 0.955261 0.747989
O O16 0.061518 0.014261 0.843075
O O17 0.140638 0.750000 0.597574
O O18 0.934893 0.750000 0.753849
O O19 0.973893 0.497300 0.785854
O O20 0.482617 0.750000 0.290922
#
# Coordination Sequence:
#
# PCOD8252519 Si02
#       8
#     8   8   8   8   8   8   8   8
#     4   9  18  31  49  79 115 147 182 224 274 329
#     4  10  23  40  60  82 110 149 190 234 281 332
#     4  10  22  41  59  82 115 150 189 233 283 335
#     4  10  21  36  57  84 113 145 183 229 283 340
#     4   9  19  37  57  80 111 146 189 235 278 329
#     4   9  17  31  53  79 108 144 179 221 276 328
#     4  11  21  34  55  84 115 151 191 235 283 335
#     4  10  20  34  55  83 115 152 189 231 284 340
#
# _framework density 19.731594999999999
#
# number of rings (size 3 to 8) (size 9 to 14) (size 15 to 20)
#    0.000    2.250    1.250    1.125    1.750    3.000 
#    0.000    0.625    0.000    0.000    0.000    0.000 
#    0.000    0.000    0.000    0.000    0.000    0.000 
#
# Total GULP energy -793545.248392 kJ/mol
# GULP energy per Si atom -12399.144506 kJ/mol
# Density = 1.968669 g / cm^3
# Si number density = 19.731595 Si / 1000 Ang^3
#
#
#
# Elastic Constant Matrix: (Units=GPa)
#
#
# Indices 1 2 3 4 5 6 
#
# 1 109.5593 65.2203 25.4839 0.0000 0.0000 0.0000
# 2 65.2203 91.7490 22.5541 0.0000 0.0000 0.0000
# 3 25.4839 22.5541 51.9198 0.0000 0.0000 0.0000
# 4 0.0000 0.0000 0.0000 19.7335 0.0000 0.0000
# 5 0.0000 0.0000 0.0000 0.0000 16.6039 0.0000
# 6 0.0000 0.0000 0.0000 0.0000 0.0000 40.6180
#
#
#
# Elastic Compliance Matrix: (Units=1/GPa)
#
#
# Indices 1 2 3 4 5 6 
#
# 1 0.016321 -0.010784 -0.003326 0.000000 0.000000 0.000000
# 2 -0.010784 0.019328 -0.003103 0.000000 0.000000 0.000000
# 3 -0.003326 -0.003103 0.022241 0.000000 0.000000 0.000000
# 4 0.000000 0.000000 0.000000 0.050675 0.000000 0.000000
# 5 0.000000 0.000000 0.000000 0.000000 0.060227 0.000000
# 6 0.000000 0.000000 0.000000 0.000000 0.000000 0.024620
#
#
# Mechanical properties :
#
#
# Convention : Reuss Voigt Hill
#
# Bulk Modulus (GPa) = 42.61953 53.30498 47.96225
# Shear Modulus (GPa) = 21.21705 24.72240 22.96973
#
# Velocity S-wave (km/s) = 3.28271 3.54352 3.41561
# Velocity P-wave (km/s) = 6.00123 6.61935 6.31785
#
# Compressibility (1/GPa) = 0.02346342
#
# Stress axis : x y z
#
# Youngs Moduli (GPa) = 61.27097 51.73818 44.96202
#
# Poissons Ratio (x) = 0.55795 0.14955
# Poissons Ratio (y) = 0.66076 0.13952
# Poissons Ratio (z) = 0.20380 0.16054
#
# Static dielectric constant tensor:
#      x y z
#    x 3.366910 0.000000 0.000000 
#    y 0.000000 3.581760 0.000000 
#    z 0.000000 0.000000 3.561360 
# 
# 
# High freq. dielectric constant tensor:
#      x y z
#    x 1.760940 0.000000 0.000000 
#    y 0.000000 1.768750 0.000000 
#    z 0.000000 0.000000 1.757270 
# 
# From -- ./inp_files/15881.got.cif
#   From: 2010.03.12/outbox.cif.g09.slc.cpg/sg62_8_cif.got.tgz:15881.got - 2010.04.10 19:12:36.
