data_PCOD8252241
_publ_section_title
;
Structure prediction by ZEFSAII (Michael W. Deem and Ramdas Pophale) SiO2 
 PCOD8252241
Probable space group: P N M A
;
_chemical_formula_sum "Si O2"
_cell_formula_units_Z 64
_cell_length_a 11.873178
_cell_length_b 9.399459
_cell_length_c 28.895255
_cell_angle_alpha 90.000000
_cell_angle_beta 90.000000
_cell_angle_gamma 90.000000
_cell_volume 3224.752351
_symmetry_space_group_name_H-M "P N M A"
_symmetry_group_IT_number 62
_symmetry_cell_setting 'orthorhombic'
loop_
_space_group_symop_operation_xyz
x,y,z
1/2-x,-y,1/2+z
1/2+x,1/2-y,1/2-z
-x,1/2+y,-z
-x,-y,-z
1/2+x,y,1/2-z
1/2-x,1/2+y,1/2+z
x,1/2-y,z
loop_
_atom_site_type_symbol
_atom_site_label
_atom_site_fract_x
_atom_site_fract_y
_atom_site_fract_z
Si Si1 0.554007 0.587737 0.278956
Si Si2 0.963164 0.090756 0.069206
Si Si3 0.240466 0.418679 0.166302
Si Si4 0.729523 0.415697 0.023371
Si Si5 0.620300 0.088328 0.647978
Si Si6 0.787016 0.587703 0.940214
Si Si7 0.852658 0.084083 0.607992
Si Si8 0.537257 0.085610 0.818917
O O1 0.594853 0.750000 0.287376
O O2 0.641547 0.481710 0.302352
O O3 0.428015 0.565716 0.300403
O O4 0.544183 0.555283 0.224635
O O5 0.951720 0.250000 0.088493
O O6 0.860168 0.056426 0.035263
O O7 0.082646 0.071175 0.043791
O O8 0.963418 0.992605 0.113932
O O9 0.240566 0.250000 0.172785
O O10 0.225121 0.462023 0.112752
O O11 0.357338 0.482059 0.184154
O O12 0.697784 0.250000 0.020676
O O13 0.649957 0.490882 0.061294
O O14 0.710572 0.487831 0.973161
O O15 0.612874 0.250000 0.632298
O O16 0.749493 0.037410 0.641945
O O17 0.746143 0.750000 0.946316
O O18 0.844430 0.250000 0.594628
O O19 0.967740 0.050547 0.634655
O O20 0.577005 0.250000 0.818398
#
# Coordination Sequence:
#
# PCOD8252241 Si02
#       8
#     8   8   8   8   8   8   8   8
#     4  10  21  37  62  90 117 150 192 241 292 349
#     4   9  17  31  49  76 116 152 183 227 286 343
#     4  11  24  41  61  87 122 158 195 241 295 353
#     4  10  20  32  54  85 114 150 195 244 293 348
#     4   9  17  30  53  84 113 146 186 230 280 338
#     4  10  20  35  54  78 115 158 194 237 291 350
#     4   9  19  37  58  82 115 154 194 238 294 349
#     4  10  23  41  64  87 115 155 200 249 292 345
#
# _framework density 19.846485999999999
#
# number of rings (size 3 to 8) (size 9 to 14) (size 15 to 20)
#    0.000    2.250    1.250    1.125    1.750    3.000 
#    0.000    0.625    0.000    0.000    0.000    0.000 
#    0.000    0.000    0.000    0.000    0.000    0.000 
#
# Total GULP energy -793486.499105 kJ/mol
# GULP energy per Si atom -12398.226549 kJ/mol
# Density = 1.980131 g / cm^3
# Si number density = 19.846486 Si / 1000 Ang^3
#
#
#
# Elastic Constant Matrix: (Units=GPa)
#
#
# Indices 1 2 3 4 5 6 
#
# 1 62.5004 32.1917 22.9877 0.0000 0.0000 0.0000
# 2 32.1917 80.0407 48.2747 0.0000 0.0000 0.0000
# 3 22.9877 48.2747 90.8263 0.0000 0.0000 0.0000
# 4 0.0000 0.0000 0.0000 29.6843 0.0000 0.0000
# 5 0.0000 0.0000 0.0000 0.0000 17.0954 0.0000
# 6 0.0000 0.0000 0.0000 0.0000 0.0000 27.2437
#
#
#
# Elastic Compliance Matrix: (Units=1/GPa)
#
#
# Indices 1 2 3 4 5 6 
#
# 1 0.020265 -0.007443 -0.001173 0.000000 0.000000 0.000000
# 2 -0.007443 0.021122 -0.009343 0.000000 0.000000 0.000000
# 3 -0.001173 -0.009343 0.016273 0.000000 0.000000 0.000000
# 4 0.000000 0.000000 0.000000 0.033688 0.000000 0.000000
# 5 0.000000 0.000000 0.000000 0.000000 0.058495 0.000000
# 6 0.000000 0.000000 0.000000 0.000000 0.000000 0.036706
#
#
# Mechanical properties :
#
#
# Convention : Reuss Voigt Hill
#
# Bulk Modulus (GPa) = 45.99336 48.91952 47.45644
# Shear Modulus (GPa) = 21.76629 23.46556 22.61592
#
# Velocity S-wave (km/s) = 3.31529 3.44227 3.37937
# Velocity P-wave (km/s) = 6.15465 6.36407 6.26024
#
# Compressibility (1/GPa) = 0.02174227
#
# Stress axis : x y z
#
# Youngs Moduli (GPa) = 49.34639 47.34410 61.45299
#
# Poissons Ratio (x) = 0.35238 0.07208
# Poissons Ratio (y) = 0.36728 0.57414
# Poissons Ratio (z) = 0.05788 0.44232
#
# Static dielectric constant tensor:
#      x y z
#    x 3.435530 0.000000 0.000000 
#    y 0.000000 3.564110 0.000000 
#    z 0.000000 0.000000 3.534280 
# 
# 
# High freq. dielectric constant tensor:
#      x y z
#    x 1.757930 0.000000 0.000000 
#    y 0.000000 1.770640 0.000000 
#    z 0.000000 0.000000 1.771330 
# 
# From -- ./inp_files/32442.got.cif
#   From: 2010.03.12/outbox.cif.g09.slc.cpg/sg62_17_cif.got.tgz:32442.got - 2010.04.10 19:12:36.
