data_PCOD8252743
_publ_section_title
;
Structure prediction by ZEFSAII (Michael W. Deem and Ramdas Pophale) SiO2 
 PCOD8252743
Probable space group: P N M A
;
_chemical_formula_sum "Si O2"
_cell_formula_units_Z 40
_cell_length_a 15.255072
_cell_length_b 9.021616
_cell_length_c 15.615949
_cell_angle_alpha 90.000000
_cell_angle_beta 90.000000
_cell_angle_gamma 90.000000
_cell_volume 2149.151253
_symmetry_space_group_name_H-M "P N M A"
_symmetry_group_IT_number 62
_symmetry_cell_setting 'orthorhombic'
loop_
_space_group_symop_operation_xyz
x,y,z
1/2-x,-y,1/2+z
1/2+x,1/2-y,1/2-z
-x,1/2+y,-z
-x,-y,-z
1/2+x,y,1/2-z
1/2-x,1/2+y,1/2+z
x,1/2-y,z
loop_
_atom_site_type_symbol
_atom_site_label
_atom_site_fract_x
_atom_site_fract_y
_atom_site_fract_z
Si Si1 0.699985 0.418494 0.062806
Si Si2 0.047005 0.076766 0.303461
Si Si3 0.128326 0.078727 0.968991
Si Si4 0.939924 0.921151 0.431644
Si Si5 0.451505 0.421851 0.626352
O O1 0.732091 0.250000 0.075854
O O2 0.628341 0.459218 0.134493
O O3 0.781184 0.528680 0.074588
O O4 0.659442 0.437406 0.966720
O O5 0.028400 0.250000 0.296333
O O6 0.069642 0.011804 0.211483
O O7 0.957983 0.999691 0.340294
O O8 0.132683 0.250000 0.995830
O O9 0.052044 0.050865 0.900133
O O10 0.112970 0.980796 0.053054
O O11 0.966822 0.750000 0.424454
O O12 0.000000 0.000000 0.500000
O O13 0.431224 0.250000 0.641629
#
# Coordination Sequence:
#
# PCOD8252743 Si02
#       5
#     8   8   8   8   8
#     4   9  19  35  55  81 112 143 178 223 271 321
#     4  10  20  35  56  83 112 144 183 226 271 323
#     4  10  21  37  58  81 106 142 185 223 270 327
#     4   9  17  31  52  78 109 144 178 217 268 323
#     4  10  21  38  58  79 107 145 183 225 273 323
#
# _framework density 18.611998
#
# number of rings (size 3 to 8) (size 9 to 14) (size 15 to 20)
#    0.000    2.400    0.000    3.600    0.000    7.200 
#    3.600    0.000    0.000    0.000    0.000    0.000 
#    0.000    0.000    0.000    0.000    0.000    0.000 
#
# Total GULP energy -495961.577419 kJ/mol
# GULP energy per Si atom -12399.039435 kJ/mol
# Density = 1.856964 g / cm^3
# Si number density = 18.611998 Si / 1000 Ang^3
#
#
#
# Elastic Constant Matrix: (Units=GPa)
#
#
# Indices 1 2 3 4 5 6 
#
# 1 78.2234 49.3278 28.6355 0.0000 0.0000 0.0000
# 2 49.3278 123.6814 51.8311 0.0000 0.0000 0.0000
# 3 28.6355 51.8311 94.9903 0.0000 0.0000 0.0000
# 4 0.0000 0.0000 0.0000 36.6716 0.0000 0.0000
# 5 0.0000 0.0000 0.0000 0.0000 13.0239 0.0000
# 6 0.0000 0.0000 0.0000 0.0000 0.0000 31.9439
#
#
#
# Elastic Compliance Matrix: (Units=1/GPa)
#
#
# Indices 1 2 3 4 5 6 
#
# 1 0.017336 -0.006124 -0.001884 0.000000 0.000000 0.000000
# 2 -0.006124 0.012646 -0.005054 0.000000 0.000000 0.000000
# 3 -0.001884 -0.005054 0.013853 0.000000 0.000000 0.000000
# 4 0.000000 0.000000 0.000000 0.027269 0.000000 0.000000
# 5 0.000000 0.000000 0.000000 0.000000 0.076782 0.000000
# 6 0.000000 0.000000 0.000000 0.000000 0.000000 0.031305
#
#
# Mechanical properties :
#
#
# Convention : Reuss Voigt Hill
#
# Bulk Modulus (GPa) = 56.46672 61.83154 59.14913
# Shear Modulus (GPa) = 23.67214 27.46792 25.57003
#
# Velocity S-wave (km/s) = 3.57021 3.84581 3.71056
# Velocity P-wave (km/s) = 6.88476 7.28105 7.08568
#
# Compressibility (1/GPa) = 0.01770954
#
# Stress axis : x y z
#
# Youngs Moduli (GPa) = 57.68447 79.07766 72.18630
#
# Poissons Ratio (x) = 0.48430 0.13602
# Poissons Ratio (y) = 0.35328 0.36482
# Poissons Ratio (z) = 0.10869 0.39965
#
# Static dielectric constant tensor:
#      x y z
#    x 3.351420 0.000000 0.000000 
#    y 0.000000 3.588660 0.000000 
#    z 0.000000 0.000000 3.416820 
# 
# 
# High freq. dielectric constant tensor:
#      x y z
#    x 1.706520 0.000000 0.000000 
#    y 0.000000 1.738540 0.000000 
#    z 0.000000 0.000000 1.713490 
# 
# From -- ./inp_files/18616.got.cif
#   From: 2010.03.12/outbox.cif.g09.slc.cpg/sg62_10_cif.got.tgz:18616.got - 2010.04.10 19:12:36.
