data_PCOD8252750
_publ_section_title
;
Structure prediction by ZEFSAII (Michael W. Deem and Ramdas Pophale) SiO2 
 PCOD8252750
Probable space group: P N M A
;
_chemical_formula_sum "Si O2"
_cell_formula_units_Z 64
_cell_length_a 18.335191
_cell_length_b 9.306421
_cell_length_c 19.643351
_cell_angle_alpha 90.000000
_cell_angle_beta 90.000000
_cell_angle_gamma 90.000000
_cell_volume 3351.843327
_symmetry_space_group_name_H-M "P N M A"
_symmetry_group_IT_number 62
_symmetry_cell_setting 'orthorhombic'
loop_
_space_group_symop_operation_xyz
x,y,z
1/2-x,-y,1/2+z
1/2+x,1/2-y,1/2-z
-x,1/2+y,-z
-x,-y,-z
1/2+x,y,1/2-z
1/2-x,1/2+y,1/2+z
x,1/2-y,z
loop_
_atom_site_type_symbol
_atom_site_label
_atom_site_fract_x
_atom_site_fract_y
_atom_site_fract_z
Si Si1 0.008962 0.084703 0.297345
Si Si2 0.389593 0.584882 0.675226
Si Si3 0.446904 0.580980 0.949580
Si Si4 0.252500 0.084133 0.627947
Si Si5 0.365968 0.583356 0.238831
Si Si6 0.284543 0.579375 0.978915
Si Si7 0.667528 0.580812 0.630899
Si Si8 0.511835 0.582216 0.569144
O O1 0.982641 0.250000 0.291574
O O2 0.080360 0.060605 0.251258
O O3 0.030239 0.041857 0.373328
O O4 0.945129 0.984503 0.270255
O O5 0.369931 0.750000 0.662458
O O6 0.316743 0.495109 0.667015
O O7 0.450338 0.532257 0.621899
O O8 0.452188 0.750000 0.963815
O O9 0.365230 0.522843 0.961758
O O10 0.500000 0.500000 0.000000
O O11 0.274669 0.250000 0.623743
O O12 0.177750 0.062224 0.668887
O O13 0.240787 0.019190 0.552389
O O14 0.374724 0.750000 0.257706
O O15 0.321923 0.503993 0.298817
O O16 0.284584 0.750000 0.981469
O O17 0.229074 0.524925 0.921213
O O18 0.674957 0.750000 0.645415
O O19 0.589579 0.540509 0.599905
O O20 0.500000 0.500000 0.500000
O O21 0.507713 0.750000 0.553696
#
# Coordination Sequence:
#
# PCOD8252750 Si02
#       8
#     8   8   8   8   8   8   8   8
#     4  10  21  39  61  86 116 152 199 243 285 348
#     4  10  21  37  57  86 116 148 194 242 281 337
#     4  10  21  38  62  89 116 153 197 243 295 349
#     4  10  22  39  58  83 116 152 191 236 294 355
#     4  11  23  38  59  87 119 154 192 242 298 349
#     4   9  19  37  61  85 112 151 197 237 286 353
#     4  10  20  37  60  83 112 154 195 235 284 344
#     4  10  20  35  56  83 114 148 188 232 281 340
#
# _framework density 19.093971
#
# number of rings (size 3 to 8) (size 9 to 14) (size 15 to 20)
#    0.000    2.000    1.250    1.875    1.750    5.000 
#    0.000    1.875    0.000    0.000    0.000    0.000 
#    0.000    0.000    0.000    0.000    0.000    0.000 
#
# Total GULP energy -793855.350653 kJ/mol
# GULP energy per Si atom -12403.989854 kJ/mol
# Density = 1.905051 g / cm^3
# Si number density = 19.093971 Si / 1000 Ang^3
#
#
#
# Elastic Constant Matrix: (Units=GPa)
#
#
# Indices 1 2 3 4 5 6 
#
# 1 102.4600 38.0445 37.7506 0.0000 0.0000 0.0000
# 2 38.0445 52.3994 46.4508 0.0000 0.0000 0.0000
# 3 37.7506 46.4508 140.2255 0.0000 0.0000 0.0000
# 4 0.0000 0.0000 0.0000 30.5123 0.0000 0.0000
# 5 0.0000 0.0000 0.0000 0.0000 33.1237 0.0000
# 6 0.0000 0.0000 0.0000 0.0000 0.0000 27.7870
#
#
#
# Elastic Compliance Matrix: (Units=1/GPa)
#
#
# Indices 1 2 3 4 5 6 
#
# 1 0.013392 -0.009240 -0.000544 0.000000 0.000000 0.000000
# 2 -0.009240 0.033394 -0.008574 0.000000 0.000000 0.000000
# 3 -0.000544 -0.008574 0.010118 0.000000 0.000000 0.000000
# 4 0.000000 0.000000 0.000000 0.032774 0.000000 0.000000
# 5 0.000000 0.000000 0.000000 0.000000 0.030190 0.000000
# 6 0.000000 0.000000 0.000000 0.000000 0.000000 0.035988
#
#
# Mechanical properties :
#
#
# Convention : Reuss Voigt Hill
#
# Bulk Modulus (GPa) = 49.53989 59.95298 54.74643
# Shear Modulus (GPa) = 25.08750 29.80720 27.44735
#
# Velocity S-wave (km/s) = 3.62870 3.95534 3.79553
# Velocity P-wave (km/s) = 6.59987 7.23372 6.92405
#
# Compressibility (1/GPa) = 0.02018575
#
# Stress axis : x y z
#
# Youngs Moduli (GPa) = 74.67422 29.94524 98.83143
#
# Poissons Ratio (x) = 0.27671 0.05378
# Poissons Ratio (y) = 0.69003 0.84743
# Poissons Ratio (z) = 0.04064 0.25676
#
# Static dielectric constant tensor:
#      x y z
#    x 3.524200 0.000000 0.000000 
#    y 0.000000 3.312760 0.000000 
#    z 0.000000 0.000000 3.700080 
# 
# 
# High freq. dielectric constant tensor:
#      x y z
#    x 1.750070 0.000000 0.000000 
#    y 0.000000 1.720790 0.000000 
#    z 0.000000 0.000000 1.760050 
# 
# From -- ./inp_files/27773.got.cif
#   From: 2010.03.12/outbox.cif.g09.slc.cpg/sg62_14_cif.got.tgz:27773.got - 2010.04.10 19:12:36.
