data_PCOD8252969
_publ_section_title
;
Structure prediction by ZEFSAII (Michael W. Deem and Ramdas Pophale) SiO2 
 PCOD8252969
Probable space group: P N M A
;
_chemical_formula_sum "Si O2"
_cell_formula_units_Z 64
_cell_length_a 12.775319
_cell_length_b 9.107531
_cell_length_c 29.460175
_cell_angle_alpha 90.000000
_cell_angle_beta 90.000000
_cell_angle_gamma 90.000000
_cell_volume 3427.738905
_symmetry_space_group_name_H-M "P N M A"
_symmetry_group_IT_number 62
_symmetry_cell_setting 'orthorhombic'
loop_
_space_group_symop_operation_xyz
x,y,z
1/2-x,-y,1/2+z
1/2+x,1/2-y,1/2-z
-x,1/2+y,-z
-x,-y,-z
1/2+x,y,1/2-z
1/2-x,1/2+y,1/2+z
x,1/2-y,z
loop_
_atom_site_type_symbol
_atom_site_label
_atom_site_fract_x
_atom_site_fract_y
_atom_site_fract_z
Si Si1 0.734642 0.075562 0.370321
Si Si2 0.505195 0.422317 0.353785
Si Si3 0.623580 0.078985 0.042893
Si Si4 0.222108 0.577313 0.876892
Si Si5 0.851051 0.586297 0.292570
Si Si6 0.291740 0.085904 0.788460
Si Si7 0.886684 0.077839 0.450190
Si Si8 0.524490 0.076576 0.251978
O O1 0.744435 0.250000 0.364005
O O2 0.613080 0.025806 0.378446
O O3 0.808873 0.019642 0.411086
O O4 0.770200 0.998069 0.324430
O O5 0.512183 0.250000 0.349296
O O6 0.401144 0.466576 0.382369
O O7 0.495581 0.482872 0.302318
O O8 0.627411 0.250000 0.031816
O O9 0.713855 0.034403 0.078211
O O10 0.507528 0.036510 0.061635
O O11 0.649282 0.994809 0.996878
O O12 0.234083 0.750000 0.865672
O O13 0.271727 0.482616 0.837241
O O14 0.870839 0.750000 0.312065
O O15 0.813303 0.596669 0.240648
O O16 0.957487 0.494754 0.288802
O O17 0.340648 0.250000 0.794097
O O18 0.359575 0.974804 0.758704
O O19 0.873255 0.250000 0.456253
O O20 0.513315 0.250000 0.248406
#
# Coordination Sequence:
#
# PCOD8252969 Si02
#       8
#     8   8   8   8   8   8   8   8
#     4  10  20  36  57  81 107 143 191 230 269 327
#     4   9  18  33  54  78 106 143 186 231 269 312
#     4   9  19  36  58  82 107 136 174 224 280 334
#     4  10  20  36  57  81 107 143 191 230 269 327
#     4  11  23  36  51  78 115 149 183 228 280 325
#     4  11  23  36  51  78 115 149 183 228 280 325
#     4   9  19  36  58  82 107 136 174 224 280 334
#     4  11  21  35  55  76 105 149 195 230 268 323
#
# _framework density 18.671199000000001
#
# number of rings (size 3 to 8) (size 9 to 14) (size 15 to 20)
#    0.000    2.000    2.500    1.125    1.750    2.000 
#    0.000    1.250    0.000    0.000    0.000    0.000 
#    0.000    0.000    0.000    0.000    0.000    0.000 
#
# Total GULP energy -793260.247275 kJ/mol
# GULP energy per Si atom -12394.691364 kJ/mol
# Density = 1.862870 g / cm^3
# Si number density = 18.671199 Si / 1000 Ang^3
#
#
#
# Elastic Constant Matrix: (Units=GPa)
#
#
# Indices 1 2 3 4 5 6 
#
# 1 127.5821 32.8699 66.9268 0.0000 0.0000 0.0000
# 2 32.8699 54.8019 35.5760 0.0000 0.0000 0.0000
# 3 66.9268 35.5760 101.1981 0.0000 0.0000 0.0000
# 4 0.0000 0.0000 0.0000 28.6968 0.0000 0.0000
# 5 0.0000 0.0000 0.0000 0.0000 37.2973 0.0000
# 6 0.0000 0.0000 0.0000 0.0000 0.0000 14.1197
#
#
#
# Elastic Compliance Matrix: (Units=1/GPa)
#
#
# Indices 1 2 3 4 5 6 
#
# 1 0.012307 -0.002718 -0.007183 0.000000 0.000000 0.000000
# 2 -0.002718 0.024244 -0.006725 0.000000 0.000000 0.000000
# 3 -0.007183 -0.006725 0.016996 0.000000 0.000000 0.000000
# 4 0.000000 0.000000 0.000000 0.034847 0.000000 0.000000
# 5 0.000000 0.000000 0.000000 0.000000 0.026812 0.000000
# 6 0.000000 0.000000 0.000000 0.000000 0.000000 0.070823
#
#
# Mechanical properties :
#
#
# Convention : Reuss Voigt Hill
#
# Bulk Modulus (GPa) = 49.27712 61.59197 55.43455
# Shear Modulus (GPa) = 22.11936 25.90337 24.01136
#
# Velocity S-wave (km/s) = 3.44565 3.72875 3.58999
# Velocity P-wave (km/s) = 6.50226 7.18313 6.85116
#
# Compressibility (1/GPa) = 0.02029339
#
# Stress axis : x y z
#
# Youngs Moduli (GPa) = 81.25698 41.24782 58.83568
#
# Poissons Ratio (x) = 0.11212 0.42264
# Poissons Ratio (y) = 0.22087 0.39568
# Poissons Ratio (z) = 0.58370 0.27740
#
# Static dielectric constant tensor:
#      x y z
#    x 3.743740 0.000000 0.000000 
#    y 0.000000 3.342940 0.000000 
#    z 0.000000 0.000000 3.247880 
# 
# 
# High freq. dielectric constant tensor:
#      x y z
#    x 1.734240 0.000000 0.000000 
#    y 0.000000 1.714680 0.000000 
#    z 0.000000 0.000000 1.704220 
# 
# From -- ./inp_files/32527.got.cif
#   From: 2010.03.12/outbox.cif.g09.slc.cpg/sg62_17_cif.got.tgz:32527.got - 2010.04.10 19:12:36.
