data_PCOD8252505
_publ_section_title
;
Structure prediction by ZEFSAII (Michael W. Deem and Ramdas Pophale) SiO2 
 PCOD8252505
Probable space group: P N M A
;
_chemical_formula_sum "Si O2"
_cell_formula_units_Z 64
_cell_length_a 18.753302
_cell_length_b 8.872897
_cell_length_c 20.159194
_cell_angle_alpha 90.000000
_cell_angle_beta 90.000000
_cell_angle_gamma 90.000000
_cell_volume 3354.411605
_symmetry_space_group_name_H-M "P N M A"
_symmetry_group_IT_number 62
_symmetry_cell_setting 'orthorhombic'
loop_
_space_group_symop_operation_xyz
x,y,z
1/2-x,-y,1/2+z
1/2+x,1/2-y,1/2-z
-x,1/2+y,-z
-x,-y,-z
1/2+x,y,1/2-z
1/2-x,1/2+y,1/2+z
x,1/2-y,z
loop_
_atom_site_type_symbol
_atom_site_label
_atom_site_fract_x
_atom_site_fract_y
_atom_site_fract_z
Si Si1 0.707690 0.428898 0.932719
Si Si2 0.549907 0.572303 0.327810
Si Si3 0.541308 0.570575 0.561045
Si Si4 0.551731 0.924964 0.176452
Si Si5 0.199061 0.071902 0.175259
Si Si6 0.297106 0.071342 0.441003
Si Si7 0.454264 0.573579 0.057394
Si Si8 0.302258 0.927105 0.826167
O O1 0.712217 0.250000 0.921853
O O2 0.734951 0.512657 0.867217
O O3 0.626975 0.483125 0.945293
O O4 0.755135 0.485389 0.994244
O O5 0.547741 0.750000 0.341863
O O6 0.490354 0.488377 0.370237
O O7 0.532436 0.530249 0.251758
O O8 0.627383 0.511075 0.348896
O O9 0.500000 0.500000 0.500000
O O10 0.536257 0.750000 0.557803
O O11 0.622376 0.511504 0.557004
O O12 0.569755 0.750000 0.172284
O O13 0.486127 0.970402 0.129303
O O14 0.621570 0.010410 0.151136
O O15 0.188781 0.250000 0.167026
O O16 0.216126 0.025933 0.251055
O O17 0.296660 0.250000 0.439273
O O18 0.258330 0.007232 0.375088
O O19 0.457604 0.750000 0.045409
O O20 0.500000 0.500000 0.000000
O O21 0.307164 0.750000 0.834017
#
# Coordination Sequence:
#
# PCOD8252505 Si02
#       8
#     8   8   8   8   8   8   8   8
#     4  10  20  35  55  77 105 142 178 213 263 323
#     4  10  20  36  56  77 107 144 177 215 266 321
#     4  11  22  36  55  79 107 140 181 226 271 321
#     4   9  19  35  54  79 110 141 175 217 265 317
#     4  10  20  34  55  82 108 135 173 220 264 313
#     4   9  19  35  54  75 101 136 175 215 260 310
#     4  10  21  36  55  80 109 143 183 225 270 322
#     4   9  18  35  57  79 104 137 177 217 261 315
#
# _framework density 19.079352
#
# number of rings (size 3 to 8) (size 9 to 14) (size 15 to 20)
#    0.000    2.250    0.000    2.625    0.000    5.000 
#    0.000    2.500    0.000    0.000    0.000    0.000 
#    0.000    0.000    0.000    0.000    0.000    0.000 
#
# Total GULP energy -793763.529955 kJ/mol
# GULP energy per Si atom -12402.555156 kJ/mol
# Density = 1.903593 g / cm^3
# Si number density = 19.079352 Si / 1000 Ang^3
#
#
#
# Elastic Constant Matrix: (Units=GPa)
#
#
# Indices 1 2 3 4 5 6 
#
# 1 174.5071 41.9360 90.2483 0.0000 0.0000 0.0000
# 2 41.9360 46.8238 34.9014 0.0000 0.0000 0.0000
# 3 90.2483 34.9014 121.0211 0.0000 0.0000 0.0000
# 4 0.0000 0.0000 0.0000 27.4567 0.0000 0.0000
# 5 0.0000 0.0000 0.0000 0.0000 42.2508 0.0000
# 6 0.0000 0.0000 0.0000 0.0000 0.0000 28.3188
#
#
#
# Elastic Compliance Matrix: (Units=1/GPa)
#
#
# Indices 1 2 3 4 5 6 
#
# 1 0.009968 -0.004314 -0.006189 0.000000 0.000000 0.000000
# 2 -0.004314 0.029072 -0.005167 0.000000 0.000000 0.000000
# 3 -0.006189 -0.005167 0.014369 0.000000 0.000000 0.000000
# 4 0.000000 0.000000 0.000000 0.036421 0.000000 0.000000
# 5 0.000000 0.000000 0.000000 0.000000 0.023668 0.000000
# 6 0.000000 0.000000 0.000000 0.000000 0.000000 0.035312
#
#
# Mechanical properties :
#
#
# Convention : Reuss Voigt Hill
#
# Bulk Modulus (GPa) = 45.31489 75.16928 60.24208
# Shear Modulus (GPa) = 26.66583 31.28969 28.97776
#
# Velocity S-wave (km/s) = 3.74254 4.05406 3.90141
# Velocity P-wave (km/s) = 6.51750 7.83566 7.20678
#
# Compressibility (1/GPa) = 0.02206780
#
# Stress axis : x y z
#
# Youngs Moduli (GPa) = 100.32134 34.39768 69.59657
#
# Poissons Ratio (x) = 0.14840 0.43075
# Poissons Ratio (y) = 0.43280 0.35960
# Poissons Ratio (z) = 0.62091 0.17773
#
# Static dielectric constant tensor:
#      x y z
#    x 3.699770 0.000000 0.000000 
#    y 0.000000 3.335180 0.000000 
#    z 0.000000 0.000000 3.820790 
# 
# 
# High freq. dielectric constant tensor:
#      x y z
#    x 1.745250 0.000000 0.000000 
#    y 0.000000 1.728110 0.000000 
#    z 0.000000 0.000000 1.755000 
# 
# From -- ./inp_files/27762.got.cif
#   From: 2010.03.12/outbox.cif.g09.slc.cpg/sg62_14_cif.got.tgz:27762.got - 2010.04.10 19:12:36.
