data_PCOD8252297
_publ_section_title
;
Structure prediction by ZEFSAII (Michael W. Deem and Ramdas Pophale) SiO2 
 PCOD8252297
Probable space group: P N M A
;
_chemical_formula_sum "Si O2"
_cell_formula_units_Z 56
_cell_length_a 23.907960
_cell_length_b 9.024314
_cell_length_c 13.794174
_cell_angle_alpha 90.000000
_cell_angle_beta 90.000000
_cell_angle_gamma 90.000000
_cell_volume 2976.133570
_symmetry_space_group_name_H-M "P N M A"
_symmetry_group_IT_number 62
_symmetry_cell_setting 'orthorhombic'
loop_
_space_group_symop_operation_xyz
x,y,z
1/2-x,-y,1/2+z
1/2+x,1/2-y,1/2-z
-x,1/2+y,-z
-x,-y,-z
1/2+x,y,1/2-z
1/2-x,1/2+y,1/2+z
x,1/2-y,z
loop_
_atom_site_type_symbol
_atom_site_label
_atom_site_fract_x
_atom_site_fract_y
_atom_site_fract_z
Si Si1 0.446126 0.923563 0.043153
Si Si2 0.556112 0.078277 0.616244
Si Si3 0.110275 0.576199 0.715561
Si Si4 0.777227 0.076656 0.392973
Si Si5 0.167493 0.077246 0.435114
Si Si6 0.831458 0.926383 0.783221
Si Si7 0.441704 0.922242 0.608042
O O1 0.456755 0.750000 0.056402
O O2 0.434544 0.995619 0.147147
O O3 0.394927 0.956814 0.971183
O O4 0.500000 0.000000 0.000000
O O5 0.557961 0.250000 0.644196
O O6 0.571387 0.051346 0.504655
O O7 0.602663 0.989535 0.677070
O O8 0.494852 0.016226 0.641661
O O9 0.097988 0.750000 0.714827
O O10 0.172841 0.539407 0.681195
O O11 0.772575 0.250000 0.412458
O O12 0.720620 0.012527 0.345633
O O13 0.786968 0.001053 0.496713
O O14 0.180940 0.250000 0.438212
O O15 0.172994 0.013145 0.326455
O O16 0.830320 0.750000 0.782347
O O17 0.888916 0.981999 0.831375
O O18 0.454178 0.750000 0.629084
#
# Coordination Sequence:
#
# PCOD8252297 Si02
#       7
#     8   8   8   8   8   8   8
#     4  10  20  33  51  79 109 139 175 221 270 325
#     4  10  20  34  52  79 110 139 177 227 270 320
#     4  10  20  34  53  75 103 144 181 217 269 325
#     4   9  19  36  55  77 106 138 180 223 262 314
#     4   9  19  35  54  77 107 139 176 218 265 318
#     4   9  18  35  58  80 104 142 182 219 267 326
#     4   9  19  35  55  77 106 142 178 219 274 332
#
# _framework density 18.816361000000001
#
# number of rings (size 3 to 8) (size 9 to 14) (size 15 to 20)
#    0.000    2.571    0.000    1.286    2.000    2.857 
#    0.000    2.143    0.000    0.000    0.000    0.000 
#    0.000    0.000    0.000    0.000    0.000    0.000 
#
# Total GULP energy -694542.911143 kJ/mol
# GULP energy per Si atom -12402.551985 kJ/mol
# Density = 1.877353 g / cm^3
# Si number density = 18.816361 Si / 1000 Ang^3
#
#
#
# Elastic Constant Matrix: (Units=GPa)
#
#
# Indices 1 2 3 4 5 6 
#
# 1 84.9789 31.4092 61.1539 0.0000 0.0000 0.0000
# 2 31.4092 60.0806 38.1919 0.0000 0.0000 0.0000
# 3 61.1539 38.1919 126.1147 0.0000 0.0000 0.0000
# 4 0.0000 0.0000 0.0000 32.6295 0.0000 0.0000
# 5 0.0000 0.0000 0.0000 0.0000 28.9536 0.0000
# 6 0.0000 0.0000 0.0000 0.0000 0.0000 22.0188
#
#
#
# Elastic Compliance Matrix: (Units=1/GPa)
#
#
# Indices 1 2 3 4 5 6 
#
# 1 0.019268 -0.005119 -0.007793 0.000000 0.000000 0.000000
# 2 -0.005119 0.021972 -0.004172 0.000000 0.000000 0.000000
# 3 -0.007793 -0.004172 0.012971 0.000000 0.000000 0.000000
# 4 0.000000 0.000000 0.000000 0.030647 0.000000 0.000000
# 5 0.000000 0.000000 0.000000 0.000000 0.034538 0.000000
# 6 0.000000 0.000000 0.000000 0.000000 0.000000 0.045416
#
#
# Mechanical properties :
#
#
# Convention : Reuss Voigt Hill
#
# Bulk Modulus (GPa) = 49.88970 59.18714 54.53842
# Shear Modulus (GPa) = 24.31183 26.08163 25.19673
#
# Velocity S-wave (km/s) = 3.59842 3.72709 3.66332
# Velocity P-wave (km/s) = 6.62091 7.07425 6.85133
#
# Compressibility (1/GPa) = 0.02004422
#
# Stress axis : x y z
#
# Youngs Moduli (GPa) = 51.90038 45.51168 77.09272
#
# Poissons Ratio (x) = 0.23298 0.60077
# Poissons Ratio (y) = 0.26569 0.32161
# Poissons Ratio (z) = 0.40445 0.18986
#
# Static dielectric constant tensor:
#      x y z
#    x 3.483130 0.000000 0.000000 
#    y 0.000000 3.336580 0.000000 
#    z 0.000000 0.000000 3.812260 
# 
# 
# High freq. dielectric constant tensor:
#      x y z
#    x 1.727960 0.000000 0.000000 
#    y 0.000000 1.718010 0.000000 
#    z 0.000000 0.000000 1.738500 
# 
# From -- ./inp_files/20335.got.cif
#   From: 2010.03.12/outbox.cif.g09.slc.cpg/sg62_11_cif.got.tgz:20335.got - 2010.04.10 19:12:36.
