data_PCOD8252984
_publ_section_title
;
Structure prediction by ZEFSAII (Michael W. Deem and Ramdas Pophale) SiO2 
 PCOD8252984
Probable space group: P N M A
;
_chemical_formula_sum "Si O2"
_cell_formula_units_Z 56
_cell_length_a 17.357784
_cell_length_b 8.862776
_cell_length_c 19.485432
_cell_angle_alpha 90.000000
_cell_angle_beta 90.000000
_cell_angle_gamma 90.000000
_cell_volume 2997.602839
_symmetry_space_group_name_H-M "P N M A"
_symmetry_group_IT_number 62
_symmetry_cell_setting 'orthorhombic'
loop_
_space_group_symop_operation_xyz
x,y,z
1/2-x,-y,1/2+z
1/2+x,1/2-y,1/2-z
-x,1/2+y,-z
-x,-y,-z
1/2+x,y,1/2-z
1/2-x,1/2+y,1/2+z
x,1/2-y,z
loop_
_atom_site_type_symbol
_atom_site_label
_atom_site_fract_x
_atom_site_fract_y
_atom_site_fract_z
Si Si1 0.641475 0.077682 0.557894
Si Si2 0.814565 0.074688 0.532093
Si Si3 0.536282 0.072703 0.067096
Si Si4 0.469524 0.427704 0.337344
Si Si5 0.372622 0.928290 0.598904
Si Si6 0.579291 0.572465 0.811928
Si Si7 0.286114 0.928641 0.112656
O O1 0.618723 0.250000 0.571990
O O2 0.732542 0.051473 0.568506
O O3 0.617685 0.030333 0.481107
O O4 0.597763 0.974378 0.611404
O O5 0.833679 0.250000 0.521399
O O6 0.878936 0.996879 0.579584
O O7 0.816973 0.999966 0.457492
O O8 0.543046 0.250000 0.056123
O O9 0.485623 0.031056 0.132815
O O10 0.500000 0.000000 0.000000
O O11 0.474430 0.250000 0.338507
O O12 0.552256 0.490579 0.361864
O O13 0.451526 0.486405 0.261232
O O14 0.358916 0.750000 0.607549
O O15 0.299434 0.013967 0.630515
O O16 0.597431 0.750000 0.811258
O O17 0.657587 0.482236 0.826783
O O18 0.286438 0.750000 0.106325
#
# Coordination Sequence:
#
# PCOD8252984 Si02
#       7
#     8   8   8   8   8   8   8
#     4   9  19  35  57  84 115 149 180 232 288 327
#     4  10  20  36  57  83 115 146 182 230 284 331
#     4  11  21  34  57  83 111 146 189 234 280 332
#     4  10  21  38  59  83 111 150 192 230 278 339
#     4   9  19  37  60  84 114 147 184 231 283 332
#     4  10  22  39  56  78 113 152 187 229 283 337
#     4  11  21  34  57  85 110 143 187 230 278 334
#
# _framework density 18.681594
#
# number of rings (size 3 to 8) (size 9 to 14) (size 15 to 20)
#    0.000    2.000    1.429    3.429    0.000    4.571 
#    2.571    0.000    0.000    0.000    0.000    0.000 
#    0.000    0.000    0.000    0.000    0.000    0.000 
#
# Total GULP energy -694578.286264 kJ/mol
# GULP energy per Si atom -12403.183683 kJ/mol
# Density = 1.863907 g / cm^3
# Si number density = 18.681594 Si / 1000 Ang^3
#
#
#
# Elastic Constant Matrix: (Units=GPa)
#
#
# Indices 1 2 3 4 5 6 
#
# 1 148.3618 51.9867 79.6911 0.0000 0.0000 0.0000
# 2 51.9867 69.6020 42.3301 0.0000 0.0000 0.0000
# 3 79.6911 42.3301 113.6033 0.0000 0.0000 0.0000
# 4 0.0000 0.0000 0.0000 23.7021 0.0000 0.0000
# 5 0.0000 0.0000 0.0000 0.0000 23.4037 0.0000
# 6 0.0000 0.0000 0.0000 0.0000 0.0000 36.1220
#
#
#
# Elastic Compliance Matrix: (Units=1/GPa)
#
#
# Indices 1 2 3 4 5 6 
#
# 1 0.012015 -0.004976 -0.006574 0.000000 0.000000 0.000000
# 2 -0.004976 0.020638 -0.004199 0.000000 0.000000 0.000000
# 3 -0.006574 -0.004199 0.014979 0.000000 0.000000 0.000000
# 4 0.000000 0.000000 0.000000 0.042190 0.000000 0.000000
# 5 0.000000 0.000000 0.000000 0.000000 0.042728 0.000000
# 6 0.000000 0.000000 0.000000 0.000000 0.000000 0.027684
#
#
# Mechanical properties :
#
#
# Convention : Reuss Voigt Hill
#
# Bulk Modulus (GPa) = 61.98543 75.50921 68.74732
# Shear Modulus (GPa) = 25.36625 27.14951 26.25788
#
# Velocity S-wave (km/s) = 3.68886 3.81632 3.75313
# Velocity P-wave (km/s) = 7.16907 7.74118 7.46061
#
# Compressibility (1/GPa) = 0.01613282
#
# Stress axis : x y z
#
# Youngs Moduli (GPa) = 83.22732 48.45424 66.75924
#
# Poissons Ratio (x) = 0.24111 0.43890
# Poissons Ratio (y) = 0.41414 0.28035
# Poissons Ratio (z) = 0.54717 0.20348
#
# Static dielectric constant tensor:
#      x y z
#    x 3.682770 0.000000 0.000000 
#    y 0.000000 3.366750 0.000000 
#    z 0.000000 0.000000 3.350030 
# 
# 
# High freq. dielectric constant tensor:
#      x y z
#    x 1.741840 0.000000 0.000000 
#    y 0.000000 1.723100 0.000000 
#    z 0.000000 0.000000 1.705600 
# 
# From -- ./inp_files/27565.got.cif
#   From: 2010.03.12/outbox.cif.g09.slc.cpg/sg62_14_cif.got.tgz:27565.got - 2010.04.10 19:12:36.
