data_PCOD8252913
_publ_section_title
;
Structure prediction by ZEFSAII (Michael W. Deem and Ramdas Pophale) SiO2 
 PCOD8252913
Probable space group: P N M A
;
_chemical_formula_sum "Si O2"
_cell_formula_units_Z 64
_cell_length_a 10.853774
_cell_length_b 8.616961
_cell_length_c 31.892481
_cell_angle_alpha 90.000000
_cell_angle_beta 90.000000
_cell_angle_gamma 90.000000
_cell_volume 2982.793632
_symmetry_space_group_name_H-M "P N M A"
_symmetry_group_IT_number 62
_symmetry_cell_setting 'orthorhombic'
loop_
_space_group_symop_operation_xyz
x,y,z
1/2-x,-y,1/2+z
1/2+x,1/2-y,1/2-z
-x,1/2+y,-z
-x,-y,-z
1/2+x,y,1/2-z
1/2-x,1/2+y,1/2+z
x,1/2-y,z
loop_
_atom_site_type_symbol
_atom_site_label
_atom_site_fract_x
_atom_site_fract_y
_atom_site_fract_z
Si Si1 0.551697 0.926756 0.579074
Si Si2 0.581945 0.068647 0.075228
Si Si3 0.276444 0.429584 0.493628
Si Si4 0.069099 0.432230 0.220475
Si Si5 0.750230 0.428932 0.635482
Si Si6 0.304582 0.071402 0.075759
Si Si7 0.864748 0.072706 0.865656
Si Si8 0.802665 0.568642 0.230937
O O1 0.505451 0.750000 0.583645
O O2 0.596780 0.960133 0.531712
O O3 0.663849 0.952340 0.610884
O O4 0.444541 0.044938 0.592130
O O5 0.600499 0.250000 0.085165
O O6 0.663116 0.015806 0.035615
O O7 0.442725 0.027172 0.063606
O O8 0.614870 0.968325 0.116940
O O9 0.260952 0.250000 0.505733
O O10 0.280444 0.529724 0.535851
O O11 0.066405 0.250000 0.227887
O O12 0.076412 0.470949 0.171224
O O13 0.195264 0.499060 0.240020
O O14 0.940312 0.499644 0.239278
O O15 0.713193 0.250000 0.627335
O O16 0.742623 0.467614 0.684260
O O17 0.287208 0.250000 0.086520
O O18 0.270249 0.979804 0.118831
O O19 0.866270 0.250000 0.851065
O O20 0.812136 0.750000 0.240547
#
# Coordination Sequence:
#
# PCOD8252913 Si02
#       8
#     8   8   8   8   8   8   8   8
#     4  10  20  37  62  88 119 156 202 253 304 366
#     4   9  20  37  58  85 122 163 207 258 310 370
#     4   9  19  36  58  87 119 157 203 259 318 372
#     4  12  26  45  71 101 133 173 220 270 328 393
#     4  10  20  35  62  93 120 157 203 245 302 368
#     4  11  23  38  57  85 121 164 210 260 315 373
#     4  12  25  42  63  87 121 164 206 256 318 380
#     4  11  24  44  69 100 137 173 214 268 326 392
#
# _framework density 21.456396000000002
#
# number of rings (size 3 to 8) (size 9 to 14) (size 15 to 20)
#    0.000    1.500    1.250    4.875    0.000    6.500 
#    0.000    2.500    0.000    0.000    0.000    0.000 
#    0.000    0.000    0.000    0.000    0.000    0.000 
#
# Total GULP energy -793458.514556 kJ/mol
# GULP energy per Si atom -12397.789290 kJ/mol
# Density = 2.140756 g / cm^3
# Si number density = 21.456396 Si / 1000 Ang^3
#
#
#
# Elastic Constant Matrix: (Units=GPa)
#
#
# Indices 1 2 3 4 5 6 
#
# 1 97.7949 32.2220 43.3447 0.0000 0.0000 0.0000
# 2 32.2220 90.8780 27.8318 0.0000 0.0000 0.0000
# 3 43.3447 27.8318 66.2196 0.0000 0.0000 0.0000
# 4 0.0000 0.0000 0.0000 35.8164 0.0000 0.0000
# 5 0.0000 0.0000 0.0000 0.0000 32.9588 0.0000
# 6 0.0000 0.0000 0.0000 0.0000 0.0000 34.3139
#
#
#
# Elastic Compliance Matrix: (Units=1/GPa)
#
#
# Indices 1 2 3 4 5 6 
#
# 1 0.014937 -0.002642 -0.008667 0.000000 0.000000 0.000000
# 2 -0.002642 0.013097 -0.003775 0.000000 0.000000 0.000000
# 3 -0.008667 -0.003775 0.022361 0.000000 0.000000 0.000000
# 4 0.000000 0.000000 0.000000 0.027920 0.000000 0.000000
# 5 0.000000 0.000000 0.000000 0.000000 0.030341 0.000000
# 6 0.000000 0.000000 0.000000 0.000000 0.000000 0.029143
#
#
# Mechanical properties :
#
#
# Convention : Reuss Voigt Hill
#
# Bulk Modulus (GPa) = 49.43924 51.29882 50.36903
# Shear Modulus (GPa) = 28.61897 30.71742 29.66820
#
# Velocity S-wave (km/s) = 3.65611 3.78778 3.72253
# Velocity P-wave (km/s) = 6.39645 6.56430 6.48092
#
# Compressibility (1/GPa) = 0.02022685
#
# Stress axis : x y z
#
# Youngs Moduli (GPa) = 66.94633 76.35540 44.72066
#
# Poissons Ratio (x) = 0.20172 0.38759
# Poissons Ratio (y) = 0.17687 0.16883
# Poissons Ratio (z) = 0.58022 0.28825
#
# Static dielectric constant tensor:
#      x y z
#    x 4.208220 0.000000 0.000000 
#    y 0.000000 3.777440 0.000000 
#    z 0.000000 0.000000 3.800020 
# 
# 
# High freq. dielectric constant tensor:
#      x y z
#    x 1.851430 0.000000 0.000000 
#    y 0.000000 1.840840 0.000000 
#    z 0.000000 0.000000 1.836080 
# 
# From -- ./inp_files/32584.got.cif
#   From: 2010.03.12/outbox.cif.g09.slc.cpg/sg62_17_cif.got.tgz:32584.got - 2010.04.10 19:12:36.
