data_PCOD8252652
_publ_section_title
;
Structure prediction by ZEFSAII (Michael W. Deem and Ramdas Pophale) SiO2 
 PCOD8252652
Probable space group: P N M A
;
_chemical_formula_sum "Si O2"
_cell_formula_units_Z 48
_cell_length_a 9.370538
_cell_length_b 8.488268
_cell_length_c 30.868958
_cell_angle_alpha 90.000000
_cell_angle_beta 90.000000
_cell_angle_gamma 90.000000
_cell_volume 2455.305740
_symmetry_space_group_name_H-M "P N M A"
_symmetry_group_IT_number 62
_symmetry_cell_setting 'orthorhombic'
loop_
_space_group_symop_operation_xyz
x,y,z
1/2-x,-y,1/2+z
1/2+x,1/2-y,1/2-z
-x,1/2+y,-z
-x,-y,-z
1/2+x,y,1/2-z
1/2-x,1/2+y,1/2+z
x,1/2-y,z
loop_
_atom_site_type_symbol
_atom_site_label
_atom_site_fract_x
_atom_site_fract_y
_atom_site_fract_z
Si Si1 0.907349 0.935625 0.380299
Si Si2 0.911988 0.437487 0.540193
Si Si3 0.410975 0.563481 0.460128
Si Si4 0.893442 0.568300 0.787728
Si Si5 0.086382 0.562796 0.122318
Si Si6 0.911512 0.567348 0.283487
O O1 0.904574 0.750000 0.385056
O O2 0.746559 0.997503 0.388593
O O3 0.959740 0.981842 0.332120
O O4 0.015032 0.006105 0.416051
O O5 0.913359 0.250000 0.540007
O O6 0.750409 0.501942 0.537834
O O7 0.000000 0.500000 0.500000
O O8 0.500000 0.500000 0.500000
O O9 0.413091 0.750000 0.461885
O O10 0.482399 0.503846 0.415652
O O11 0.848063 0.750000 0.789294
O O12 0.006481 0.542952 0.749760
O O13 0.965696 0.517087 0.833099
O O14 0.756828 0.460086 0.778489
O O15 0.081276 0.750000 0.128185
O O16 0.944354 0.750000 0.274025
#
# Coordination Sequence:
#
# PCOD8252652 Si02
#       6
#     8   8   8   8   8   8
#     4   8  16  32  54  75 100 136 182 225 260 307
#     4  10  20  35  54  80 108 138 176 221 269 319
#     4  10  21  35  55  81 110 143 183 227 274 329
#     4  11  22  36  55  84 117 145 178 232 287 328
#     4   9  18  35  55  75 103 146 189 224 268 332
#     4  10  20  37  59  81 107 148 191 225 270 337
#
# _framework density 19.549499999999998
#
# number of rings (size 3 to 8) (size 9 to 14) (size 15 to 20)
#    0.000    2.333    0.000    4.000    0.000    4.000 
#    0.000    9.167    0.000    0.000    0.000    0.000 
#    0.000    0.000    0.000    0.000    0.000    0.000 
#
# Total GULP energy -595222.490697 kJ/mol
# GULP energy per Si atom -12400.468556 kJ/mol
# Density = 1.950500 g / cm^3
# Si number density = 19.549500 Si / 1000 Ang^3
#
#
#
# Elastic Constant Matrix: (Units=GPa)
#
#
# Indices 1 2 3 4 5 6 
#
# 1 126.0959 17.2705 93.2652 0.0000 0.0000 0.0000
# 2 17.2705 37.7930 27.0937 0.0000 0.0000 0.0000
# 3 93.2652 27.0937 174.1613 0.0000 0.0000 0.0000
# 4 0.0000 0.0000 0.0000 29.0104 0.0000 0.0000
# 5 0.0000 0.0000 0.0000 0.0000 42.6320 0.0000
# 6 0.0000 0.0000 0.0000 0.0000 0.0000 23.8235
#
#
#
# Elastic Compliance Matrix: (Units=1/GPa)
#
#
# Indices 1 2 3 4 5 6 
#
# 1 0.013171 -0.001083 -0.006885 0.000000 0.000000 0.000000
# 2 -0.001083 0.029870 -0.004067 0.000000 0.000000 0.000000
# 3 -0.006885 -0.004067 0.010061 0.000000 0.000000 0.000000
# 4 0.000000 0.000000 0.000000 0.034470 0.000000 0.000000
# 5 0.000000 0.000000 0.000000 0.000000 0.023457 0.000000
# 6 0.000000 0.000000 0.000000 0.000000 0.000000 0.041975
#
#
# Mechanical properties :
#
#
# Convention : Reuss Voigt Hill
#
# Bulk Modulus (GPa) = 34.44317 68.14543 51.29430
# Shear Modulus (GPa) = 26.77344 32.45455 29.61400
#
# Velocity S-wave (km/s) = 3.70472 4.07888 3.89629
# Velocity P-wave (km/s) = 5.99638 7.55755 6.82177
#
# Compressibility (1/GPa) = 0.02903333
#
# Stress axis : x y z
#
# Youngs Moduli (GPa) = 75.92430 33.47797 99.39086
#
# Poissons Ratio (x) = 0.03626 0.68428
# Poissons Ratio (y) = 0.08224 0.40420
# Poissons Ratio (z) = 0.52272 0.13615
#
# Static dielectric constant tensor:
#      x y z
#    x 3.665690 0.000000 0.000000 
#    y 0.000000 3.272270 0.000000 
#    z 0.000000 0.000000 3.766490 
# 
# 
# High freq. dielectric constant tensor:
#      x y z
#    x 1.758290 0.000000 0.000000 
#    y 0.000000 1.737600 0.000000 
#    z 0.000000 0.000000 1.776260 
# 
# From -- ./inp_files/31901.got.cif
#   From: 2010.03.12/outbox.cif.g09.slc.cpg/sg62_16_cif.got.tgz:31901.got - 2010.04.10 19:12:36.
