data_PCOD8252801
_publ_section_title
;
Structure prediction by ZEFSAII (Michael W. Deem and Ramdas Pophale) SiO2 
 PCOD8252801
Probable space group: P N M A
;
_chemical_formula_sum "Si O2"
_cell_formula_units_Z 48
_cell_length_a 18.628126
_cell_length_b 8.881259
_cell_length_c 15.018392
_cell_angle_alpha 90.000000
_cell_angle_beta 90.000000
_cell_angle_gamma 90.000000
_cell_volume 2484.660970
_symmetry_space_group_name_H-M "P N M A"
_symmetry_group_IT_number 62
_symmetry_cell_setting 'orthorhombic'
loop_
_space_group_symop_operation_xyz
x,y,z
1/2-x,-y,1/2+z
1/2+x,1/2-y,1/2-z
-x,1/2+y,-z
-x,-y,-z
1/2+x,y,1/2-z
1/2-x,1/2+y,1/2+z
x,1/2-y,z
loop_
_atom_site_type_symbol
_atom_site_label
_atom_site_fract_x
_atom_site_fract_y
_atom_site_fract_z
Si Si1 0.927164 0.574801 0.229242
Si Si2 0.149255 0.571222 0.409640
Si Si3 0.575679 0.072608 0.253126
Si Si4 0.843499 0.924105 0.406527
Si Si5 0.809796 0.573798 0.094176
Si Si6 0.195495 0.073838 0.106735
O O1 0.941131 0.750000 0.208631
O O2 0.901930 0.550913 0.330059
O O3 0.867835 0.504175 0.161864
O O4 0.999377 0.483274 0.211849
O O5 0.144198 0.750000 0.407799
O O6 0.092789 0.503674 0.340913
O O7 0.128899 0.516348 0.508350
O O8 0.229563 0.511728 0.386207
O O9 0.574476 0.250000 0.240481
O O10 0.634306 0.021857 0.325474
O O11 0.835679 0.750000 0.432227
O O12 0.767169 0.982469 0.370347
O O13 0.807768 0.750000 0.111368
O O14 0.831609 0.535082 0.992885
O O15 0.213550 0.250000 0.114614
#
# Coordination Sequence:
#
# PCOD8252801 Si02
#       6
#     8   8   8   8   8   8
#     4  10  21  36  54  77 108 145 180 216 265 324
#     4  10  20  37  60  81 105 141 181 224 276 325
#     4  11  23  36  52  79 113 145 181 224 267 316
#     4  10  20  35  57  84 109 137 180 228 270 320
#     4   8  16  34  58  80 103 136 178 218 260 317
#     4   9  19  36  57  81 110 143 178 221 270 317
#
# _framework density 19.318531
#
# number of rings (size 3 to 8) (size 9 to 14) (size 15 to 20)
#    0.000    2.333    0.000    3.500    0.000    5.333 
#    0.000    4.167    0.000    0.000    0.000    0.000 
#    0.000    0.000    0.000    0.000    0.000    0.000 
#
# Total GULP energy -595301.837798 kJ/mol
# GULP energy per Si atom -12402.121621 kJ/mol
# Density = 1.927456 g / cm^3
# Si number density = 19.318531 Si / 1000 Ang^3
#
#
#
# Elastic Constant Matrix: (Units=GPa)
#
#
# Indices 1 2 3 4 5 6 
#
# 1 59.4934 20.9978 16.4585 0.0000 0.0000 0.0000
# 2 20.9978 59.5795 21.0831 0.0000 0.0000 0.0000
# 3 16.4585 21.0831 59.2371 0.0000 0.0000 0.0000
# 4 0.0000 0.0000 0.0000 24.5252 0.0000 0.0000
# 5 0.0000 0.0000 0.0000 0.0000 22.9338 0.0000
# 6 0.0000 0.0000 0.0000 0.0000 0.0000 31.8888
#
#
#
# Elastic Compliance Matrix: (Units=1/GPa)
#
#
# Indices 1 2 3 4 5 6 
#
# 1 0.019795 -0.005755 -0.003452 0.000000 0.000000 0.000000
# 2 -0.005755 0.020876 -0.005831 0.000000 0.000000 0.000000
# 3 -0.003452 -0.005831 0.019916 0.000000 0.000000 0.000000
# 4 0.000000 0.000000 0.000000 0.040774 0.000000 0.000000
# 5 0.000000 0.000000 0.000000 0.000000 0.043604 0.000000
# 6 0.000000 0.000000 0.000000 0.000000 0.000000 0.031359
#
#
# Mechanical properties :
#
#
# Convention : Reuss Voigt Hill
#
# Bulk Modulus (GPa) = 32.77482 32.82100 32.79791
# Shear Modulus (GPa) = 23.08738 23.85426 23.47082
#
# Velocity S-wave (km/s) = 3.46076 3.51777 3.48938
# Velocity P-wave (km/s) = 5.74208 5.79015 5.76616
#
# Compressibility (1/GPa) = 0.03051122
#
# Stress axis : x y z
#
# Youngs Moduli (GPa) = 50.51887 47.90212 50.21190
#
# Poissons Ratio (x) = 0.27567 0.17331
# Poissons Ratio (y) = 0.29073 0.29279
# Poissons Ratio (z) = 0.17437 0.27932
#
# Static dielectric constant tensor:
#      x y z
#    x 3.571890 0.000000 0.000000 
#    y 0.000000 3.360750 0.000000 
#    z 0.000000 0.000000 3.631110 
# 
# 
# High freq. dielectric constant tensor:
#      x y z
#    x 1.748510 0.000000 0.000000 
#    y 0.000000 1.738730 0.000000 
#    z 0.000000 0.000000 1.760690 
# 
# From -- ./inp_files/19548.got.cif
#   From: 2010.03.12/outbox.cif.g09.slc.cpg/sg62_10_cif.got.tgz:19548.got - 2010.04.10 19:12:36.
