data_PCOD8252518
_publ_section_title
;
Structure prediction by ZEFSAII (Michael W. Deem and Ramdas Pophale) SiO2 
 PCOD8252518
Probable space group: P N M A
;
_chemical_formula_sum "Si O2"
_cell_formula_units_Z 48
_cell_length_a 9.128640
_cell_length_b 8.568680
_cell_length_c 30.282261
_cell_angle_alpha 90.000000
_cell_angle_beta 90.000000
_cell_angle_gamma 90.000000
_cell_volume 2368.690417
_symmetry_space_group_name_H-M "P N M A"
_symmetry_group_IT_number 62
_symmetry_cell_setting 'orthorhombic'
loop_
_space_group_symop_operation_xyz
x,y,z
1/2-x,-y,1/2+z
1/2+x,1/2-y,1/2-z
-x,1/2+y,-z
-x,-y,-z
1/2+x,y,1/2-z
1/2-x,1/2+y,1/2+z
x,1/2-y,z
loop_
_atom_site_type_symbol
_atom_site_label
_atom_site_fract_x
_atom_site_fract_y
_atom_site_fract_z
Si Si1 0.349456 0.433134 0.709669
Si Si2 0.659154 0.066453 0.872156
Si Si3 0.141040 0.430223 0.950975
Si Si4 0.335560 0.568912 0.550434
Si Si5 0.667456 0.931110 0.712559
Si Si6 0.830297 0.067731 0.631906
O O1 0.386085 0.250000 0.705724
O O2 0.263884 0.496931 0.666606
O O3 0.250013 0.461549 0.752229
O O4 0.496588 0.530890 0.714139
O O5 0.650026 0.250000 0.869247
O O6 0.495126 0.001080 0.865330
O O7 0.718532 0.020369 0.919894
O O8 0.092820 0.250000 0.951757
O O9 0.274234 0.460742 0.917827
O O10 0.000426 0.527329 0.934950
O O11 0.191371 0.483422 0.999777
O O12 0.308369 0.750000 0.557555
O O13 0.691262 0.750000 0.723791
O O14 0.729043 0.968898 0.664340
O O15 0.820334 0.250000 0.644653
#
# Coordination Sequence:
#
# PCOD8252518 Si02
#       6
#     8   8   8   8   8   8
#     4  11  23  41  63  85 114 155 196 230 280 352
#     4  10  22  38  58  83 111 148 193 236 278 337
#     4   9  19  36  57  81 111 150 194 236 281 341
#     4  10  20  34  55  83 114 148 188 237 291 341
#     4  12  25  40  61  91 121 147 186 243 296 335
#     4  10  21  39  60  82 113 154 197 235 280 346
#
# _framework density 20.264361999999998
#
# number of rings (size 3 to 8) (size 9 to 14) (size 15 to 20)
#    0.000    1.667    0.000    4.500    0.000    9.333 
#    0.000    0.000    0.000    0.000    0.000    0.000 
#    0.000    0.000    0.000    0.000    0.000    0.000 
#
# Total GULP energy -595459.993473 kJ/mol
# GULP energy per Si atom -12405.416531 kJ/mol
# Density = 2.021824 g / cm^3
# Si number density = 20.264362 Si / 1000 Ang^3
#
#
#
# Elastic Constant Matrix: (Units=GPa)
#
#
# Indices 1 2 3 4 5 6 
#
# 1 129.7203 13.3355 53.5307 0.0000 0.0000 0.0000
# 2 13.3355 23.0528 18.5125 0.0000 0.0000 0.0000
# 3 53.5307 18.5125 106.0546 0.0000 0.0000 0.0000
# 4 0.0000 0.0000 0.0000 31.0257 0.0000 0.0000
# 5 0.0000 0.0000 0.0000 0.0000 38.8475 0.0000
# 6 0.0000 0.0000 0.0000 0.0000 0.0000 25.9477
#
#
#
# Elastic Compliance Matrix: (Units=1/GPa)
#
#
# Indices 1 2 3 4 5 6 
#
# 1 0.009814 -0.001976 -0.004609 0.000000 0.000000 0.000000
# 2 -0.001976 0.050849 -0.007878 0.000000 0.000000 0.000000
# 3 -0.004609 -0.007878 0.013130 0.000000 0.000000 0.000000
# 4 0.000000 0.000000 0.000000 0.032231 0.000000 0.000000
# 5 0.000000 0.000000 0.000000 0.000000 0.025742 0.000000
# 6 0.000000 0.000000 0.000000 0.000000 0.000000 0.038539
#
#
# Mechanical properties :
#
#
# Convention : Reuss Voigt Hill
#
# Bulk Modulus (GPa) = 22.28836 47.73168 35.01002
# Shear Modulus (GPa) = 23.34410 30.72744 27.03577
#
# Velocity S-wave (km/s) = 3.39776 3.89823 3.65657
# Velocity P-wave (km/s) = 5.13962 6.62323 5.92803
#
# Compressibility (1/GPa) = 0.04486647
#
# Stress axis : x y z
#
# Youngs Moduli (GPa) = 101.89708 19.66624 76.15863
#
# Poissons Ratio (x) = 0.03886 0.35098
# Poissons Ratio (y) = 0.20137 0.60001
# Poissons Ratio (z) = 0.46960 0.15494
#
# Static dielectric constant tensor:
#      x y z
#    x 3.763520 0.000000 0.000000 
#    y 0.000000 3.534780 0.000000 
#    z 0.000000 0.000000 3.804320 
# 
# 
# High freq. dielectric constant tensor:
#      x y z
#    x 1.796000 0.000000 0.000000 
#    y 0.000000 1.782250 0.000000 
#    z 0.000000 0.000000 1.803430 
# 
# From -- ./inp_files/31897.got.cif
#   From: 2010.03.12/outbox.cif.g09.slc.cpg/sg62_16_cif.got.tgz:31897.got - 2010.04.10 19:12:36.
