data_PCOD8252808
_publ_section_title
;
Structure prediction by ZEFSAII (Michael W. Deem and Ramdas Pophale) SiO2 
 PCOD8252808
Probable space group: P N M A
;
_chemical_formula_sum "Si O2"
_cell_formula_units_Z 48
_cell_length_a 30.424813
_cell_length_b 8.882651
_cell_length_c 9.310437
_cell_angle_alpha 90.000000
_cell_angle_beta 90.000000
_cell_angle_gamma 90.000000
_cell_volume 2516.173490
_symmetry_space_group_name_H-M "P N M A"
_symmetry_group_IT_number 62
_symmetry_cell_setting 'orthorhombic'
loop_
_space_group_symop_operation_xyz
x,y,z
1/2-x,-y,1/2+z
1/2+x,1/2-y,1/2-z
-x,1/2+y,-z
-x,-y,-z
1/2+x,y,1/2-z
1/2-x,1/2+y,1/2+z
x,1/2-y,z
loop_
_atom_site_type_symbol
_atom_site_label
_atom_site_fract_x
_atom_site_fract_y
_atom_site_fract_z
Si Si1 0.460621 0.073324 0.586312
Si Si2 0.713131 0.077746 0.605458
Si Si3 0.885855 0.578575 0.083196
Si Si4 0.040082 0.571866 0.415616
Si Si5 0.792005 0.075704 0.397524
Si Si6 0.382067 0.573919 0.083787
O O1 0.466596 0.250000 0.577817
O O2 0.461881 0.018059 0.750700
O O3 0.500000 0.000000 0.500000
O O4 0.414364 0.029831 0.515811
O O5 0.717282 0.250000 0.660566
O O6 0.664772 0.054224 0.538034
O O7 0.749127 0.036289 0.488560
O O8 0.720522 0.964858 0.735818
O O9 0.900846 0.750000 0.056565
O O10 0.892685 0.536796 0.250370
O O11 0.036675 0.750000 0.428278
O O12 0.085596 0.517781 0.482555
O O13 0.000000 0.500000 0.500000
O O14 0.804983 0.250000 0.408255
O O15 0.832723 0.977176 0.454112
O O16 0.386916 0.750000 0.051972
#
# Coordination Sequence:
#
# PCOD8252808 Si02
#       6
#     8   8   8   8   8   8
#     4  11  24  39  57  83 112 142 180 225 272 325
#     4   9  20  37  55  80 114 148 185 230 276 327
#     4   9  19  37  58  80 109 144 183 226 273 326
#     4  11  24  40  58  84 114 145 184 228 275 330
#     4  10  20  35  57  84 113 148 189 231 277 330
#     4  10  21  38  59  83 112 147 186 230 279 330
#
# _framework density 19.076585999999999
#
# number of rings (size 3 to 8) (size 9 to 14) (size 15 to 20)
#    0.000    2.000    0.000    4.000    0.000   12.667 
#    0.000    3.333    0.000    0.000    0.000    0.000 
#    0.000    0.000    0.000    0.000    0.000    0.000 
#
# Total GULP energy -595378.013036 kJ/mol
# GULP energy per Si atom -12403.708605 kJ/mol
# Density = 1.903317 g / cm^3
# Si number density = 19.076586 Si / 1000 Ang^3
#
#
#
# Elastic Constant Matrix: (Units=GPa)
#
#
# Indices 1 2 3 4 5 6 
#
# 1 132.7995 41.7348 80.4508 0.0000 0.0000 0.0000
# 2 41.7348 60.6996 48.0033 0.0000 0.0000 0.0000
# 3 80.4508 48.0033 116.8192 0.0000 0.0000 0.0000
# 4 0.0000 0.0000 0.0000 33.3977 0.0000 0.0000
# 5 0.0000 0.0000 0.0000 0.0000 40.3557 0.0000
# 6 0.0000 0.0000 0.0000 0.0000 0.0000 37.9865
#
#
#
# Elastic Compliance Matrix: (Units=1/GPa)
#
#
# Indices 1 2 3 4 5 6 
#
# 1 0.013235 -0.002802 -0.007963 0.000000 0.000000 0.000000
# 2 -0.002802 0.024999 -0.008343 0.000000 0.000000 0.000000
# 3 -0.007963 -0.008343 0.017472 0.000000 0.000000 0.000000
# 4 0.000000 0.000000 0.000000 0.029942 0.000000 0.000000
# 5 0.000000 0.000000 0.000000 0.000000 0.024780 0.000000
# 6 0.000000 0.000000 0.000000 0.000000 0.000000 0.026325
#
#
# Mechanical properties :
#
#
# Convention : Reuss Voigt Hill
#
# Bulk Modulus (GPa) = 57.17499 72.29957 64.73728
# Shear Modulus (GPa) = 27.65492 31.68992 29.67242
#
# Velocity S-wave (km/s) = 3.81160 4.08020 3.94818
# Velocity P-wave (km/s) = 7.02904 7.75753 7.40225
#
# Compressibility (1/GPa) = 0.01749017
#
# Stress axis : x y z
#
# Youngs Moduli (GPa) = 75.55773 40.00144 57.23327
#
# Poissons Ratio (x) = 0.11210 0.45575
# Poissons Ratio (y) = 0.21174 0.47748
# Poissons Ratio (z) = 0.60167 0.33372
#
# Static dielectric constant tensor:
#      x y z
#    x 3.638920 0.000000 0.000000 
#    y 0.000000 3.580250 0.000000 
#    z 0.000000 0.000000 3.487160 
# 
# 
# High freq. dielectric constant tensor:
#      x y z
#    x 1.756590 0.000000 0.000000 
#    y 0.000000 1.748820 0.000000 
#    z 0.000000 0.000000 1.737290 
# 
# From -- ./inp_files/10235.got.cif
#   From: 2010.03.12/outbox.cif.g09.slc.cpg/sg62_6_cif.got.tgz:10235.got - 2010.04.10 19:12:36.
