data_PCOD8252735
_publ_section_title
;
Structure prediction by ZEFSAII (Michael W. Deem and Ramdas Pophale) SiO2 
 PCOD8252735
Probable space group: P N M A
;
_chemical_formula_sum "Si O2"
_cell_formula_units_Z 64
_cell_length_a 16.414049
_cell_length_b 9.107024
_cell_length_c 21.662481
_cell_angle_alpha 90.000000
_cell_angle_beta 90.000000
_cell_angle_gamma 90.000000
_cell_volume 3238.175641
_symmetry_space_group_name_H-M "P N M A"
_symmetry_group_IT_number 62
_symmetry_cell_setting 'orthorhombic'
loop_
_space_group_symop_operation_xyz
x,y,z
1/2-x,-y,1/2+z
1/2+x,1/2-y,1/2-z
-x,1/2+y,-z
-x,-y,-z
1/2+x,y,1/2-z
1/2-x,1/2+y,1/2+z
x,1/2-y,z
loop_
_atom_site_type_symbol
_atom_site_label
_atom_site_fract_x
_atom_site_fract_y
_atom_site_fract_z
Si Si1 0.211428 0.082016 0.647575
Si Si2 0.618901 0.919358 0.397740
Si Si3 0.535467 0.077137 0.147056
Si Si4 0.107078 0.583657 0.557407
Si Si5 0.664156 0.579856 0.074696
Si Si6 0.824159 0.418283 0.033747
Si Si7 0.922500 0.924499 0.258513
Si Si8 0.043111 0.580737 0.864169
O O1 0.190017 0.250000 0.637554
O O2 0.308532 0.057198 0.652546
O O3 0.161805 0.026645 0.707674
O O4 0.181315 0.007330 0.585085
O O5 0.589349 0.750000 0.398034
O O6 0.651627 0.965802 0.464880
O O7 0.547262 0.025185 0.377614
O O8 0.543931 0.250000 0.159723
O O9 0.478185 0.039381 0.088517
O O10 0.623893 0.009140 0.131452
O O11 0.499701 0.998040 0.207524
O O12 0.127645 0.750000 0.573774
O O13 0.105101 0.557066 0.484293
O O14 0.671188 0.750000 0.093253
O O15 0.753767 0.520649 0.060656
O O16 0.793755 0.250000 0.035180
O O17 0.904208 0.441126 0.074708
O O18 0.934784 0.750000 0.257032
O O19 0.915856 0.986327 0.189886
O O20 0.038938 0.750000 0.843807
#
# Coordination Sequence:
#
# PCOD8252735 Si02
#       8
#     8   8   8   8   8   8   8   8
#     4   9  18  34  60  88 114 150 194 238 291 348
#     4  10  20  38  64  91 117 151 194 245 300 353
#     4  10  20  35  56  82 116 157 196 239 291 349
#     4   9  18  31  51  82 118 153 191 237 289 346
#     4  11  21  33  53  85 121 155 195 240 292 352
#     4  10  22  40  61  86 119 155 195 246 303 357
#     4  10  21  40  62  85 115 153 197 244 290 346
#     4  11  24  41  61  87 117 155 197 242 297 354
#
# _framework density 19.764215
#
# number of rings (size 3 to 8) (size 9 to 14) (size 15 to 20)
#    0.000    2.000    1.250    2.250    0.000    3.500 
#    2.250    0.000    0.000    0.000    0.000    0.000 
#    0.000    0.000    0.000    0.000    0.000    0.000 
#
# Total GULP energy -793641.082035 kJ/mol
# GULP energy per Si atom -12400.641907 kJ/mol
# Density = 1.971923 g / cm^3
# Si number density = 19.764215 Si / 1000 Ang^3
#
#
#
# Elastic Constant Matrix: (Units=GPa)
#
#
# Indices 1 2 3 4 5 6 
#
# 1 85.8628 39.5221 35.5953 0.0000 0.0000 0.0000
# 2 39.5221 85.0378 33.7308 0.0000 0.0000 0.0000
# 3 35.5953 33.7308 75.0811 0.0000 0.0000 0.0000
# 4 0.0000 0.0000 0.0000 31.6491 0.0000 0.0000
# 5 0.0000 0.0000 0.0000 0.0000 20.3377 0.0000
# 6 0.0000 0.0000 0.0000 0.0000 0.0000 35.1467
#
#
#
# Elastic Compliance Matrix: (Units=1/GPa)
#
#
# Indices 1 2 3 4 5 6 
#
# 1 0.016376 -0.005514 -0.005287 0.000000 0.000000 0.000000
# 2 -0.005514 0.016166 -0.004649 0.000000 0.000000 0.000000
# 3 -0.005287 -0.004649 0.017914 0.000000 0.000000 0.000000
# 4 0.000000 0.000000 0.000000 0.031597 0.000000 0.000000
# 5 0.000000 0.000000 0.000000 0.000000 0.049170 0.000000
# 6 0.000000 0.000000 0.000000 0.000000 0.000000 0.028452
#
#
# Mechanical properties :
#
#
# Convention : Reuss Voigt Hill
#
# Bulk Modulus (GPa) = 51.13123 51.51979 51.32551
# Shear Modulus (GPa) = 25.36886 26.56891 25.96889
#
# Velocity S-wave (km/s) = 3.58659 3.67044 3.62876
# Velocity P-wave (km/s) = 6.56340 6.63978 6.60170
#
# Compressibility (1/GPa) = 0.01955752
#
# Stress axis : x y z
#
# Youngs Moduli (GPa) = 61.06439 61.85798 55.82330
#
# Poissons Ratio (x) = 0.34109 0.29511
# Poissons Ratio (y) = 0.33671 0.25950
# Poissons Ratio (z) = 0.32282 0.28755
#
# Static dielectric constant tensor:
#      x y z
#    x 3.524090 0.000000 0.000000 
#    y 0.000000 3.625040 0.000000 
#    z 0.000000 0.000000 3.575250 
# 
# 
# High freq. dielectric constant tensor:
#      x y z
#    x 1.767910 0.000000 0.000000 
#    y 0.000000 1.774950 0.000000 
#    z 0.000000 0.000000 1.759720 
# 
# From -- ./inp_files/29793.got.cif
#   From: 2010.03.12/outbox.cif.g09.slc.cpg/sg62_15_cif.got.tgz:29793.got - 2010.04.10 19:12:36.
