data_PCOD8252705
_publ_section_title
;
Structure prediction by ZEFSAII (Michael W. Deem and Ramdas Pophale) SiO2 
 PCOD8252705
Probable space group: P N M A
;
_chemical_formula_sum "Si O2"
_cell_formula_units_Z 56
_cell_length_a 13.973334
_cell_length_b 13.530079
_cell_length_c 16.474454
_cell_angle_alpha 90.000000
_cell_angle_beta 90.000000
_cell_angle_gamma 90.000000
_cell_volume 3114.665428
_symmetry_space_group_name_H-M "P N M A"
_symmetry_group_IT_number 62
_symmetry_cell_setting 'orthorhombic'
loop_
_space_group_symop_operation_xyz
x,y,z
1/2-x,-y,1/2+z
1/2+x,1/2-y,1/2-z
-x,1/2+y,-z
-x,-y,-z
1/2+x,y,1/2-z
1/2-x,1/2+y,1/2+z
x,1/2-y,z
loop_
_atom_site_type_symbol
_atom_site_label
_atom_site_fract_x
_atom_site_fract_y
_atom_site_fract_z
Si Si1 0.234834 0.540228 0.738355
Si Si2 0.612420 0.637332 0.625315
Si Si3 0.128535 0.502889 0.577065
Si Si4 0.319470 0.522781 0.488422
Si Si5 0.603630 0.136300 0.360523
Si Si6 0.274960 0.363800 0.848282
Si Si7 0.037660 0.863159 0.448109
O O1 0.192275 0.605748 0.810312
O O2 0.158228 0.538796 0.666087
O O3 0.333762 0.590572 0.711568
O O4 0.258058 0.429130 0.767995
O O5 0.630943 0.750000 0.598789
O O6 0.620063 0.569151 0.545618
O O7 0.507174 0.625760 0.664238
O O8 0.222163 0.477088 0.524838
O O9 0.069167 0.589691 0.533577
O O10 0.061884 0.407082 0.584208
O O11 0.380434 0.577977 0.556177
O O12 0.297947 0.602648 0.418447
O O13 0.633574 0.250000 0.373808
O O14 0.254315 0.250000 0.826134
O O15 0.383381 0.379041 0.878473
O O16 0.020147 0.750000 0.467568
#
# Coordination Sequence:
#
# PCOD8252705 Si02
#       7
#     8   8   8   8   8   8   8
#     4  10  21  34  54  77 112 139 174 221 263 316
#     4  10  21  35  53  79 109 140 173 218 269 317
#     4   9  19  33  52  78 102 136 175 215 264 307
#     4   9  18  35  55  76 103 137 175 224 261 312
#     4  10  20  35  56  78 102 140 182 216 264 318
#     4   9  18  33  53  75 103 141 178 216 262 312
#     4   9  18  33  53  75 103 137 178 218 255 309
#
# _framework density 17.97946
#
# number of rings (size 3 to 8) (size 9 to 14) (size 15 to 20)
#    0.000    2.571    0.000    1.286    2.000    5.143 
#    0.000    2.143    0.000    0.857    0.000    0.000 
#    0.000    0.000    0.000    0.000    0.000    0.000 
#
# Total GULP energy -694512.197135 kJ/mol
# GULP energy per Si atom -12402.003520 kJ/mol
# Density = 1.793854 g / cm^3
# Si number density = 17.979460 Si / 1000 Ang^3
#
#
#
# Elastic Constant Matrix: (Units=GPa)
#
#
# Indices 1 2 3 4 5 6 
#
# 1 65.9639 49.4126 12.1158 0.0000 0.0000 0.0000
# 2 49.4126 133.2106 39.5678 0.0000 0.0000 0.0000
# 3 12.1158 39.5678 63.3678 0.0000 0.0000 0.0000
# 4 0.0000 0.0000 0.0000 23.0295 0.0000 0.0000
# 5 0.0000 0.0000 0.0000 0.0000 19.8552 0.0000
# 6 0.0000 0.0000 0.0000 0.0000 0.0000 29.3823
#
#
#
# Elastic Compliance Matrix: (Units=1/GPa)
#
#
# Indices 1 2 3 4 5 6 
#
# 1 0.021049 -0.008118 0.001045 0.000000 0.000000 0.000000
# 2 -0.008118 0.012347 -0.006158 0.000000 0.000000 0.000000
# 3 0.001045 -0.006158 0.019426 0.000000 0.000000 0.000000
# 4 0.000000 0.000000 0.000000 0.043423 0.000000 0.000000
# 5 0.000000 0.000000 0.000000 0.000000 0.050365 0.000000
# 6 0.000000 0.000000 0.000000 0.000000 0.000000 0.034034
#
#
# Mechanical properties :
#
#
# Convention : Reuss Voigt Hill
#
# Bulk Modulus (GPa) = 37.93625 51.63717 44.78671
# Shear Modulus (GPa) = 23.15963 25.21647 24.18805
#
# Velocity S-wave (km/s) = 3.59293 3.74908 3.67183
# Velocity P-wave (km/s) = 6.19336 6.89371 6.55290
#
# Compressibility (1/GPa) = 0.02636001
#
# Stress axis : x y z
#
# Youngs Moduli (GPa) = 47.50788 80.98986 51.47718
#
# Poissons Ratio (x) = 0.65749 -0.05377
# Poissons Ratio (y) = 0.38568 0.31698
# Poissons Ratio (z) = -0.04962 0.49870
#
# Static dielectric constant tensor:
#      x y z
#    x 3.367620 0.000000 0.000000 
#    y 0.000000 3.362350 0.000000 
#    z 0.000000 0.000000 3.223900 
# 
# 
# High freq. dielectric constant tensor:
#      x y z
#    x 1.700930 0.000000 0.000000 
#    y 0.000000 1.698590 0.000000 
#    z 0.000000 0.000000 1.687080 
# 
# From -- ./inp_files/19022.got.cif
#   From: 2010.03.12/outbox.cif.g09.slc.cpg/sg62_10_cif.got.tgz:19022.got - 2010.04.10 19:12:36.
