data_PCOD8252345
_publ_section_title
;
Structure prediction by ZEFSAII (Michael W. Deem and Ramdas Pophale) SiO2 
 PCOD8252345
Probable space group: P N M A
;
_chemical_formula_sum "Si O2"
_cell_formula_units_Z 64
_cell_length_a 23.015916
_cell_length_b 21.839222
_cell_length_c 6.313863
_cell_angle_alpha 90.000000
_cell_angle_beta 90.000000
_cell_angle_gamma 90.000000
_cell_volume 3173.661337
_symmetry_space_group_name_H-M "P N M A"
_symmetry_group_IT_number 62
_symmetry_cell_setting 'orthorhombic'
loop_
_space_group_symop_operation_xyz
x,y,z
1/2-x,-y,1/2+z
1/2+x,1/2-y,1/2-z
-x,1/2+y,-z
-x,-y,-z
1/2+x,y,1/2-z
1/2-x,1/2+y,1/2+z
x,1/2-y,z
loop_
_atom_site_type_symbol
_atom_site_label
_atom_site_fract_x
_atom_site_fract_y
_atom_site_fract_z
Si Si1 0.367067 0.677616 0.027485
Si Si2 0.793543 0.472012 0.396790
Si Si3 0.967599 0.817678 0.796508
Si Si4 0.352559 0.405712 0.727970
Si Si5 0.548682 0.103702 0.690103
Si Si6 0.950276 0.119719 0.484972
Si Si7 0.752148 0.899891 0.540557
Si Si8 0.594899 0.973505 0.642810
O O1 0.360174 0.750000 0.079172
O O2 0.395908 0.642436 0.225546
O O3 0.304442 0.647730 0.982095
O O4 0.407153 0.667357 0.822049
O O5 0.819228 0.453209 0.621815
O O6 0.758650 0.534608 0.425718
O O7 0.841461 0.489496 0.225064
O O8 0.757159 0.415224 0.291137
O O9 0.965890 0.750000 0.890040
O O10 0.022778 0.821898 0.636605
O O11 0.978595 0.862255 0.990429
O O12 0.305469 0.370902 0.576625
O O13 0.399839 0.440634 0.583917
O O14 0.392064 0.361880 0.881022
O O15 0.563414 0.037134 0.603582
O O16 0.500619 0.093783 0.866977
O O17 0.937854 0.067228 0.314991
#
# Coordination Sequence:
#
# PCOD8252345 Si02
#       8
#     8   8   8   8   8   8   8   8
#     4  10  23  40  59  88 123 158 201 251 301 363
#     4  10  20  33  54  85 117 155 196 241 305 356
#     4  10  23  40  59  84 116 160 206 248 300 366
#     4  10  22  36  56  86 121 156 202 243 303 363
#     4  11  21  36  65  88 121 158 195 245 309 364
#     4  10  22  39  57  86 124 155 197 252 304 367
#     4  11  20  35  59  85 119 158 203 251 299 364
#     4  10  21  35  56  89 123 152 190 243 307 368
#
# _framework density 20.165982
#
# number of rings (size 3 to 8) (size 9 to 14) (size 15 to 20)
#    0.000    1.750    2.500    1.500    1.750    4.500 
#    0.000    0.625    0.000    9.750    0.000    0.000 
#    0.000    0.000    0.000    0.000    0.000    0.000 
#
# Total GULP energy -793155.558581 kJ/mol
# GULP energy per Si atom -12393.055603 kJ/mol
# Density = 2.012008 g / cm^3
# Si number density = 20.165982 Si / 1000 Ang^3
#
#
#
# Elastic Constant Matrix: (Units=GPa)
#
#
# Indices 1 2 3 4 5 6 
#
# 1 105.9834 47.7481 44.9266 0.0000 0.0000 0.0000
# 2 47.7481 62.9199 36.5152 0.0000 0.0000 0.0000
# 3 44.9266 36.5152 110.7693 0.0000 0.0000 0.0000
# 4 0.0000 0.0000 0.0000 19.3007 0.0000 0.0000
# 5 0.0000 0.0000 0.0000 0.0000 34.3803 0.0000
# 6 0.0000 0.0000 0.0000 0.0000 0.0000 24.5595
#
#
#
# Elastic Compliance Matrix: (Units=1/GPa)
#
#
# Indices 1 2 3 4 5 6 
#
# 1 0.015051 -0.009743 -0.002893 0.000000 0.000000 0.000000
# 2 -0.009743 0.025960 -0.004606 0.000000 0.000000 0.000000
# 3 -0.002893 -0.004606 0.011719 0.000000 0.000000 0.000000
# 4 0.000000 0.000000 0.000000 0.051811 0.000000 0.000000
# 5 0.000000 0.000000 0.000000 0.000000 0.029086 0.000000
# 6 0.000000 0.000000 0.000000 0.000000 0.000000 0.040717
#
#
# Mechanical properties :
#
#
# Convention : Reuss Voigt Hill
#
# Bulk Modulus (GPa) = 54.80405 59.78359 57.29382
# Shear Modulus (GPa) = 23.26531 25.68029 24.47280
#
# Velocity S-wave (km/s) = 3.40029 3.57241 3.48741
# Velocity P-wave (km/s) = 6.53081 6.83566 6.68497
#
# Compressibility (1/GPa) = 0.01824683
#
# Stress axis : x y z
#
# Youngs Moduli (GPa) = 66.43988 38.52067 85.32835
#
# Poissons Ratio (x) = 0.37531 0.24683
# Poissons Ratio (y) = 0.64733 0.39303
# Poissons Ratio (z) = 0.19219 0.17743
#
# Static dielectric constant tensor:
#      x y z
#    x 3.886370 0.000000 0.000000 
#    y 0.000000 3.350610 0.000000 
#    z 0.000000 0.000000 4.005210 
# 
# 
# High freq. dielectric constant tensor:
#      x y z
#    x 1.799430 0.000000 0.000000 
#    y 0.000000 1.745990 0.000000 
#    z 0.000000 0.000000 1.805030 
# 
# From -- ./inp_files/2904.got.cif
#   From: 2010.03.12/outbox.cif.g09.slc.cpg/sg62_2_cif.got.tgz:2904.got - 2010.04.10 19:12:36.
