data_PCOD8252877
_publ_section_title
;
Structure prediction by ZEFSAII (Michael W. Deem and Ramdas Pophale) SiO2 
 PCOD8252877
Probable space group: P N M A
;
_chemical_formula_sum "Si O2"
_cell_formula_units_Z 48
_cell_length_a 10.277979
_cell_length_b 8.766064
_cell_length_c 28.606849
_cell_angle_alpha 90.000000
_cell_angle_beta 90.000000
_cell_angle_gamma 90.000000
_cell_volume 2577.403338
_symmetry_space_group_name_H-M "P N M A"
_symmetry_group_IT_number 62
_symmetry_cell_setting 'orthorhombic'
loop_
_space_group_symop_operation_xyz
x,y,z
1/2-x,-y,1/2+z
1/2+x,1/2-y,1/2-z
-x,1/2+y,-z
-x,-y,-z
1/2+x,y,1/2-z
1/2-x,1/2+y,1/2+z
x,1/2-y,z
loop_
_atom_site_type_symbol
_atom_site_label
_atom_site_fract_x
_atom_site_fract_y
_atom_site_fract_z
Si Si1 0.986135 0.573592 0.115494
Si Si2 0.711019 0.927086 0.782061
Si Si3 0.751139 0.077352 0.387475
Si Si4 0.512392 0.929114 0.278619
Si Si5 0.368519 0.074179 0.016488
Si Si6 0.618345 0.570707 0.528489
O O1 0.958138 0.750000 0.106288
O O2 0.963597 0.527820 0.169393
O O3 0.889762 0.476187 0.083032
O O4 0.134709 0.538303 0.101489
O O5 0.698992 0.750000 0.768740
O O6 0.686572 0.956607 0.837050
O O7 0.599745 0.021737 0.756534
O O8 0.853598 0.984508 0.766685
O O9 0.694716 0.250000 0.388565
O O10 0.859674 0.055381 0.427312
O O11 0.539548 0.750000 0.274221
O O12 0.364368 0.250000 0.001618
O O13 0.500000 0.000000 0.000000
O O14 0.252897 0.987816 0.991297
O O15 0.500000 0.500000 0.500000
O O16 0.610742 0.750000 0.523428
#
# Coordination Sequence:
#
# PCOD8252877 Si02
#       6
#     8   8   8   8   8   8
#     4  10  20  35  59  87 114 147 192 238 287 339
#     4  10  20  37  61  87 113 150 193 236 286 342
#     4   9  19  36  59  83 112 150 193 234 281 342
#     4  10  21  38  59  86 118 151 189 238 290 341
#     4  11  23  40  59  84 118 155 193 236 286 341
#     4  12  23  37  60  88 116 150 192 236 282 335
#
# _framework density 18.623394000000001
#
# number of rings (size 3 to 8) (size 9 to 14) (size 15 to 20)
#    0.000    1.667    1.667    3.500    0.000    3.333 
#    3.000    0.000    0.000    0.000    0.000    0.000 
#    0.000    0.000    0.000    0.000    0.000    0.000 
#
# Total GULP energy -595343.925467 kJ/mol
# GULP energy per Si atom -12402.998447 kJ/mol
# Density = 1.858101 g / cm^3
# Si number density = 18.623394 Si / 1000 Ang^3
#
#
#
# Elastic Constant Matrix: (Units=GPa)
#
#
# Indices 1 2 3 4 5 6 
#
# 1 115.8886 45.1678 64.0085 0.0000 0.0000 0.0000
# 2 45.1678 104.6926 43.5796 0.0000 0.0000 0.0000
# 3 64.0085 43.5796 107.2320 0.0000 0.0000 0.0000
# 4 0.0000 0.0000 0.0000 30.4457 0.0000 0.0000
# 5 0.0000 0.0000 0.0000 0.0000 32.7882 0.0000
# 6 0.0000 0.0000 0.0000 0.0000 0.0000 36.3311
#
#
#
# Elastic Compliance Matrix: (Units=1/GPa)
#
#
# Indices 1 2 3 4 5 6 
#
# 1 0.013612 -0.002998 -0.006907 0.000000 0.000000 0.000000
# 2 -0.002998 0.012157 -0.003151 0.000000 0.000000 0.000000
# 3 -0.006907 -0.003151 0.014729 0.000000 0.000000 0.000000
# 4 0.000000 0.000000 0.000000 0.032845 0.000000 0.000000
# 5 0.000000 0.000000 0.000000 0.000000 0.030499 0.000000
# 6 0.000000 0.000000 0.000000 0.000000 0.000000 0.027525
#
#
# Mechanical properties :
#
#
# Convention : Reuss Voigt Hill
#
# Bulk Modulus (GPa) = 69.51055 70.36943 69.93999
# Shear Modulus (GPa) = 30.81195 31.58347 31.19771
#
# Velocity S-wave (km/s) = 4.07194 4.12260 4.09735
# Velocity P-wave (km/s) = 7.71446 7.78002 7.74731
#
# Compressibility (1/GPa) = 0.01438630
#
# Stress axis : x y z
#
# Youngs Moduli (GPa) = 73.46281 82.25858 67.89208
#
# Poissons Ratio (x) = 0.24658 0.46894
# Poissons Ratio (y) = 0.22021 0.21395
# Poissons Ratio (z) = 0.50742 0.25922
#
# Static dielectric constant tensor:
#      x y z
#    x 5.357890 0.000000 0.000000 
#    y 0.000000 3.591800 0.000000 
#    z 0.000000 0.000000 3.734040 
# 
# 
# High freq. dielectric constant tensor:
#      x y z
#    x 1.704090 0.000000 0.000000 
#    y 0.000000 1.739280 0.000000 
#    z 0.000000 0.000000 1.733090 
# 
# From -- ./inp_files/31927.got.cif
#   From: 2010.03.12/outbox.cif.g09.slc.cpg/sg62_16_cif.got.tgz:31927.got - 2010.04.10 19:12:36.
