data_PCOD8252986
_publ_section_title
;
Structure prediction by ZEFSAII (Michael W. Deem and Ramdas Pophale) SiO2 
 PCOD8252986
Probable space group: P N M A
;
_chemical_formula_sum "Si O2"
_cell_formula_units_Z 56
_cell_length_a 20.900469
_cell_length_b 8.986889
_cell_length_c 14.865171
_cell_angle_alpha 90.000000
_cell_angle_beta 90.000000
_cell_angle_gamma 90.000000
_cell_volume 2792.127967
_symmetry_space_group_name_H-M "P N M A"
_symmetry_group_IT_number 62
_symmetry_cell_setting 'orthorhombic'
loop_
_space_group_symop_operation_xyz
x,y,z
1/2-x,-y,1/2+z
1/2+x,1/2-y,1/2-z
-x,1/2+y,-z
-x,-y,-z
1/2+x,y,1/2-z
1/2-x,1/2+y,1/2+z
x,1/2-y,z
loop_
_atom_site_type_symbol
_atom_site_label
_atom_site_fract_x
_atom_site_fract_y
_atom_site_fract_z
Si Si1 0.027226 0.574941 0.255539
Si Si2 0.162229 0.923549 0.334064
Si Si3 0.600520 0.578636 0.749806
Si Si4 0.231377 0.426592 0.692970
Si Si5 0.048189 0.075901 0.068120
Si Si6 0.772838 0.918010 0.511891
Si Si7 0.133497 0.915289 0.949629
O O1 0.015205 0.750000 0.245814
O O2 0.087822 0.538232 0.318248
O O3 0.045985 0.505209 0.161633
O O4 0.962209 0.499071 0.293505
O O5 0.173862 0.750000 0.337758
O O6 0.209560 0.986914 0.255033
O O7 0.175586 0.987140 0.433406
O O8 0.603490 0.750000 0.780758
O O9 0.664480 0.496145 0.777913
O O10 0.593088 0.565013 0.641877
O O11 0.226524 0.250000 0.701966
O O12 0.241486 0.475757 0.589157
O O13 0.035452 0.250000 0.079579
O O14 0.116742 0.041681 0.022672
O O15 0.000000 0.000000 0.000000
O O16 0.798623 0.750000 0.507543
O O17 0.708425 0.930411 0.571074
O O18 0.119721 0.750000 0.989869
#
# Coordination Sequence:
#
# PCOD8252986 Si02
#       7
#     8   8   8   8   8   8   8
#     4  11  23  40  60  84 121 162 200 248 305 361
#     4  10  22  40  63  90 121 158 199 249 304 360
#     4  11  22  37  60  88 119 156 199 246 296 354
#     4  10  21  39  63  89 121 160 200 243 303 363
#     4  12  23  34  53  83 117 155 195 238 294 359
#     4  10  21  39  63  89 119 157 199 250 304 359
#     4  10  20  36  57  83 119 155 192 242 300 355
#
# _framework density 20.056386
#
# number of rings (size 3 to 8) (size 9 to 14) (size 15 to 20)
#    0.000    1.429    2.857    3.000    0.000    5.143 
#    0.000    2.143    0.000    0.000    0.000    0.000 
#    0.000    0.000    0.000    0.000    0.000    0.000 
#
# Total GULP energy -694214.784399 kJ/mol
# GULP energy per Si atom -12396.692579 kJ/mol
# Density = 2.001074 g / cm^3
# Si number density = 20.056386 Si / 1000 Ang^3
#
#
#
# Elastic Constant Matrix: (Units=GPa)
#
#
# Indices 1 2 3 4 5 6 
#
# 1 101.1800 44.7636 15.4293 0.0000 0.0000 0.0000
# 2 44.7636 25.4170 13.2855 0.0000 0.0000 0.0000
# 3 15.4293 13.2855 52.7408 0.0000 0.0000 0.0000
# 4 0.0000 0.0000 0.0000 31.7483 0.0000 0.0000
# 5 0.0000 0.0000 0.0000 0.0000 26.2532 0.0000
# 6 0.0000 0.0000 0.0000 0.0000 0.0000 30.4613
#
#
#
# Elastic Compliance Matrix: (Units=1/GPa)
#
#
# Indices 1 2 3 4 5 6 
#
# 1 0.047716 -0.088377 0.008303 0.000000 0.000000 0.000000
# 2 -0.088377 0.208994 -0.026791 0.000000 0.000000 0.000000
# 3 0.008303 -0.026791 0.023280 0.000000 0.000000 0.000000
# 4 0.000000 0.000000 0.000000 0.031498 0.000000 0.000000
# 5 0.000000 0.000000 0.000000 0.000000 0.038091 0.000000
# 6 0.000000 0.000000 0.000000 0.000000 0.000000 0.032829
#
#
# Mechanical properties :
#
#
# Convention : Reuss Voigt Hill
#
# Bulk Modulus (GPa) = 15.09196 36.25496 25.67346
# Shear Modulus (GPa) = 8.08768 24.74986 16.41877
#
# Velocity S-wave (km/s) = 2.01028 3.51666 2.86428
# Velocity P-wave (km/s) = 3.59575 5.88260 4.87516
#
# Compressibility (1/GPa) = 0.06626043
#
# Stress axis : x y z
#
# Youngs Moduli (GPa) = 20.95717 4.78483 42.95447
#
# Poissons Ratio (x) = 0.42287 -0.35664
# Poissons Ratio (y) = 1.85212 1.15081
# Poissons Ratio (z) = -0.17400 0.12819
#
# Static dielectric constant tensor:
#      x y z
#    x 3.851450 0.000000 0.000000 
#    y 0.000000 3.832750 0.000000 
#    z 0.000000 0.000000 3.728040 
# 
# 
# High freq. dielectric constant tensor:
#      x y z
#    x 1.793660 0.000000 0.000000 
#    y 0.000000 1.777670 0.000000 
#    z 0.000000 0.000000 1.764330 
# 
# From -- ./inp_files/20229.got.cif
#   From: 2010.03.12/outbox.cif.g09.slc.cpg/sg62_11_cif.got.tgz:20229.got - 2010.04.10 19:12:36.
