data_PCOD8252957
_publ_section_title
;
Structure prediction by ZEFSAII (Michael W. Deem and Ramdas Pophale) SiO2 
 PCOD8252957
Probable space group: P N M A
;
_chemical_formula_sum "Si O2"
_cell_formula_units_Z 56
_cell_length_a 13.568841
_cell_length_b 9.351358
_cell_length_c 23.149822
_cell_angle_alpha 90.000000
_cell_angle_beta 90.000000
_cell_angle_gamma 90.000000
_cell_volume 2937.413544
_symmetry_space_group_name_H-M "P N M A"
_symmetry_group_IT_number 62
_symmetry_cell_setting 'orthorhombic'
loop_
_space_group_symop_operation_xyz
x,y,z
1/2-x,-y,1/2+z
1/2+x,1/2-y,1/2-z
-x,1/2+y,-z
-x,-y,-z
1/2+x,y,1/2-z
1/2-x,1/2+y,1/2+z
x,1/2-y,z
loop_
_atom_site_type_symbol
_atom_site_label
_atom_site_fract_x
_atom_site_fract_y
_atom_site_fract_z
Si Si1 0.201750 0.082850 0.461520
Si Si2 0.472404 0.086813 0.174335
Si Si3 0.283416 0.089223 0.620592
Si Si4 0.121744 0.585631 0.559332
Si Si5 0.195603 0.413989 0.736798
Si Si6 0.305557 0.915780 0.831054
Si Si7 0.091703 0.589398 0.019987
O O1 0.177928 0.250000 0.463778
O O2 0.200113 0.025877 0.396323
O O3 0.308308 0.043049 0.487592
O O4 0.116396 0.006124 0.500085
O O5 0.439523 0.250000 0.187676
O O6 0.468983 0.062694 0.104183
O O7 0.584637 0.060196 0.193597
O O8 0.404015 0.979396 0.210071
O O9 0.243194 0.250000 0.604184
O O10 0.285209 0.074372 0.690009
O O11 0.390135 0.071698 0.589514
O O12 0.215056 0.964847 0.596495
O O13 0.134066 0.750000 0.541500
O O14 0.173855 0.250000 0.752872
O O15 0.227011 0.496572 0.793989
O O16 0.275281 0.750000 0.828445
O O17 0.064889 0.750000 0.003259
O O18 0.000000 0.500000 0.000000
#
# Coordination Sequence:
#
# PCOD8252957 Si02
#       7
#     8   8   8   8   8   8   8
#     4   9  19  35  52  73 107 144 174 214 274 326
#     4   9  19  36  57  80 106 141 182 222 271 328
#     4   8  16  32  51  70  98 136 172 210 264 318
#     4   9  16  28  51  80 105 129 168 215 258 313
#     4  10  20  36  57  79 106 140 181 231 277 320
#     4  10  21  38  57  77 109 148 184 225 271 328
#     4   9  17  31  50  73 101 134 172 214 261 318
#
# _framework density 19.06439
#
# number of rings (size 3 to 8) (size 9 to 14) (size 15 to 20)
#    0.000    2.857    0.000    1.714    0.000    5.143 
#    2.571    0.000    0.000    0.000    0.000    0.000 
#    0.000    0.000    0.000    0.000    0.000    0.000 
#
# Total GULP energy -693959.120967 kJ/mol
# GULP energy per Si atom -12392.127160 kJ/mol
# Density = 1.902100 g / cm^3
# Si number density = 19.064390 Si / 1000 Ang^3
#
#
#
# Elastic Constant Matrix: (Units=GPa)
#
#
# Indices 1 2 3 4 5 6 
#
# 1 37.2218 21.7755 11.7427 0.0000 0.0000 0.0000
# 2 21.7755 77.5080 40.4423 0.0000 0.0000 0.0000
# 3 11.7427 40.4423 100.3076 0.0000 0.0000 0.0000
# 4 0.0000 0.0000 0.0000 33.3935 0.0000 0.0000
# 5 0.0000 0.0000 0.0000 0.0000 23.3625 0.0000
# 6 0.0000 0.0000 0.0000 0.0000 0.0000 20.1964
#
#
#
# Elastic Compliance Matrix: (Units=1/GPa)
#
#
# Indices 1 2 3 4 5 6 
#
# 1 0.032152 -0.008952 -0.000155 0.000000 0.000000 0.000000
# 2 -0.008952 0.018832 -0.006545 0.000000 0.000000 0.000000
# 3 -0.000155 -0.006545 0.012626 0.000000 0.000000 0.000000
# 4 0.000000 0.000000 0.000000 0.029946 0.000000 0.000000
# 5 0.000000 0.000000 0.000000 0.000000 0.042804 0.000000
# 6 0.000000 0.000000 0.000000 0.000000 0.000000 0.049514
#
#
# Mechanical properties :
#
#
# Convention : Reuss Voigt Hill
#
# Bulk Modulus (GPa) = 30.95303 40.32872 35.64087
# Shear Modulus (GPa) = 21.93506 24.79560 23.36533
#
# Velocity S-wave (km/s) = 3.39570 3.61033 3.50466
# Velocity P-wave (km/s) = 5.62544 6.21121 5.92557
#
# Compressibility (1/GPa) = 0.03230702
#
# Stress axis : x y z
#
# Youngs Moduli (GPa) = 31.10220 53.10134 79.20080
#
# Poissons Ratio (x) = 0.47538 0.01224
# Poissons Ratio (y) = 0.27844 0.51834
# Poissons Ratio (z) = 0.00481 0.34753
#
# Static dielectric constant tensor:
#      x y z
#    x 3.222350 0.000000 0.000000 
#    y 0.000000 3.474570 0.000000 
#    z 0.000000 0.000000 3.658410 
# 
# 
# High freq. dielectric constant tensor:
#      x y z
#    x 1.713420 0.000000 0.000000 
#    y 0.000000 1.740360 0.000000 
#    z 0.000000 0.000000 1.741780 
# 
# From -- ./inp_files/27281.got.cif
#   From: 2010.03.12/outbox.cif.g09.slc.cpg/sg62_14_cif.got.tgz:27281.got - 2010.04.10 19:12:36.
