data_PCOD8252203
_publ_section_title
;
Structure prediction by ZEFSAII (Michael W. Deem and Ramdas Pophale) SiO2 
 PCOD8252203
Probable space group: P N M A
;
_chemical_formula_sum "Si O2"
_cell_formula_units_Z 64
_cell_length_a 9.158396
_cell_length_b 21.951739
_cell_length_c 16.279242
_cell_angle_alpha 90.000000
_cell_angle_beta 90.000000
_cell_angle_gamma 90.000000
_cell_volume 3272.823069
_symmetry_space_group_name_H-M "P N M A"
_symmetry_group_IT_number 62
_symmetry_cell_setting 'orthorhombic'
loop_
_space_group_symop_operation_xyz
x,y,z
1/2-x,-y,1/2+z
1/2+x,1/2-y,1/2-z
-x,1/2+y,-z
-x,-y,-z
1/2+x,y,1/2-z
1/2-x,1/2+y,1/2+z
x,1/2-y,z
loop_
_atom_site_type_symbol
_atom_site_label
_atom_site_fract_x
_atom_site_fract_y
_atom_site_fract_z
Si Si1 0.591582 0.680839 0.459586
Si Si2 0.020843 0.505984 0.143468
Si Si3 0.817976 0.180932 0.781198
Si Si4 0.427364 0.441332 0.045600
Si Si5 0.411522 0.680772 0.987940
Si Si6 0.103620 0.419064 0.006683
Si Si7 0.533357 0.360363 0.837009
Si Si8 0.842806 0.513387 0.305298
O O1 0.545966 0.750000 0.451057
O O2 0.627300 0.654730 0.368798
O O3 0.736803 0.672795 0.514920
O O4 0.452063 0.650190 0.502865
O O5 0.892382 0.502163 0.211262
O O6 0.048012 0.442910 0.095221
O O7 0.168769 0.524890 0.191496
O O8 0.978176 0.551680 0.071042
O O9 0.865428 0.250000 0.767814
O O10 0.644252 0.173395 0.774919
O O11 0.877953 0.139982 0.707315
O O12 0.521825 0.379167 0.056176
O O13 0.277901 0.425655 0.996580
O O14 0.389434 0.456072 0.139737
O O15 0.500000 0.500000 0.000000
O O16 0.451948 0.750000 0.954351
O O17 0.472761 0.677945 0.080053
O O18 0.580303 0.429784 0.850556
#
# Coordination Sequence:
#
# PCOD8252203 Si02
#       8
#     8   8   8   8   8   8   8   8
#     4   9  19  36  57  80 109 151 196 242 296 361
#     4  10  23  37  58  86 117 154 197 245 300 355
#     4  10  20  32  47  73 109 149 191 235 279 340
#     4  11  24  39  58  88 120 158 199 251 298 352
#     4  10  21  37  58  81 112 155 199 243 301 364
#     4  10  22  39  59  85 119 157 196 250 302 351
#     4  11  19  32  51  71 109 148 193 233 281 343
#     4  11  22  37  57  86 115 152 199 245 302 351
#
# _framework density 19.554983
#
# number of rings (size 3 to 8) (size 9 to 14) (size 15 to 20)
#    0.000    1.750    1.250    4.875    5.250    2.500 
#    0.000    1.250    0.000    0.750    0.000    0.000 
#    0.000    0.000    0.000    0.000    0.000    0.000 
#
# Total GULP energy -793015.692431 kJ/mol
# GULP energy per Si atom -12390.870194 kJ/mol
# Density = 1.951047 g / cm^3
# Si number density = 19.554983 Si / 1000 Ang^3
#
#
#
# Elastic Constant Matrix: (Units=GPa)
#
#
# Indices 1 2 3 4 5 6 
#
# 1 74.3912 29.7671 29.9185 0.0000 0.0000 0.0000
# 2 29.7671 95.6882 19.5650 0.0000 0.0000 0.0000
# 3 29.9185 19.5650 66.2033 0.0000 0.0000 0.0000
# 4 0.0000 0.0000 0.0000 17.9681 0.0000 0.0000
# 5 0.0000 0.0000 0.0000 0.0000 34.2817 0.0000
# 6 0.0000 0.0000 0.0000 0.0000 0.0000 38.8997
#
#
#
# Elastic Compliance Matrix: (Units=1/GPa)
#
#
# Indices 1 2 3 4 5 6 
#
# 1 0.017857 -0.004156 -0.006842 0.000000 0.000000 0.000000
# 2 -0.004156 0.012090 -0.001695 0.000000 0.000000 0.000000
# 3 -0.006842 -0.001695 0.018698 0.000000 0.000000 0.000000
# 4 0.000000 0.000000 0.000000 0.055654 0.000000 0.000000
# 5 0.000000 0.000000 0.000000 0.000000 0.029170 0.000000
# 6 0.000000 0.000000 0.000000 0.000000 0.000000 0.025707
#
#
# Mechanical properties :
#
#
# Convention : Reuss Voigt Hill
#
# Bulk Modulus (GPa) = 42.99278 43.86487 43.42882
# Shear Modulus (GPa) = 25.99906 28.69870 27.34888
#
# Velocity S-wave (km/s) = 3.65024 3.83507 3.74379
# Velocity P-wave (km/s) = 6.30864 6.48773 6.39881
#
# Compressibility (1/GPa) = 0.02325972
#
# Stress axis : x y z
#
# Youngs Moduli (GPa) = 56.00020 82.71275 53.48252
#
# Poissons Ratio (x) = 0.34377 0.36591
# Poissons Ratio (y) = 0.23275 0.09064
# Poissons Ratio (z) = 0.38313 0.14017
#
# Static dielectric constant tensor:
#      x y z
#    x 3.637920 0.000000 0.000000 
#    y 0.000000 3.632170 0.000000 
#    z 0.000000 0.000000 3.331980 
# 
# 
# High freq. dielectric constant tensor:
#      x y z
#    x 1.766640 0.000000 0.000000 
#    y 0.000000 1.761710 0.000000 
#    z 0.000000 0.000000 1.728000 
# 
# From -- ./inp_files/17373.got.cif
#   From: 2010.03.12/outbox.cif.g09.slc.cpg/sg62_9_cif.got.tgz:17373.got - 2010.04.10 19:12:36.
