data_PCOD8252434
_publ_section_title
;
Structure prediction by ZEFSAII (Michael W. Deem and Ramdas Pophale) SiO2 
 PCOD8252434
Probable space group: P N M A
;
_chemical_formula_sum "Si O2"
_cell_formula_units_Z 64
_cell_length_a 14.921208
_cell_length_b 8.871780
_cell_length_c 25.028449
_cell_angle_alpha 90.000000
_cell_angle_beta 90.000000
_cell_angle_gamma 90.000000
_cell_volume 3313.207880
_symmetry_space_group_name_H-M "P N M A"
_symmetry_group_IT_number 62
_symmetry_cell_setting 'orthorhombic'
loop_
_space_group_symop_operation_xyz
x,y,z
1/2-x,-y,1/2+z
1/2+x,1/2-y,1/2-z
-x,1/2+y,-z
-x,-y,-z
1/2+x,y,1/2-z
1/2-x,1/2+y,1/2+z
x,1/2-y,z
loop_
_atom_site_type_symbol
_atom_site_label
_atom_site_fract_x
_atom_site_fract_y
_atom_site_fract_z
Si Si1 0.672676 0.423220 0.635913
Si Si2 0.834077 0.571668 0.441187
Si Si3 0.517987 0.927192 0.109709
Si Si4 0.285847 0.072456 0.655177
Si Si5 0.807849 0.928785 0.559937
Si Si6 0.033086 0.421383 0.283007
Si Si7 0.241728 0.422898 0.264792
Si Si8 0.485656 0.422116 0.675897
O O1 0.701819 0.250000 0.629990
O O2 0.717014 0.516736 0.588108
O O3 0.701134 0.480835 0.693921
O O4 0.564751 0.442931 0.632405
O O5 0.827540 0.750000 0.441668
O O6 0.763910 0.509175 0.397483
O O7 0.808863 0.507474 0.499483
O O8 0.935265 0.521942 0.427448
O O9 0.535164 0.750000 0.106930
O O10 0.606353 0.012852 0.091451
O O11 0.493930 0.974764 0.170009
O O12 0.270041 0.250000 0.662535
O O13 0.391141 0.032193 0.649030
O O14 0.242936 0.989134 0.705899
O O15 0.810299 0.750000 0.561461
O O16 0.003325 0.250000 0.292931
O O17 0.139470 0.438543 0.282210
O O18 0.992255 0.475132 0.226980
O O19 0.273538 0.250000 0.265674
O O20 0.480894 0.250000 0.696077
#
# Coordination Sequence:
#
# PCOD8252434 Si02
#       8
#     8   8   8   8   8   8   8   8
#     4  11  22  36  56  83 112 149 191 233 280 337
#     4   9  21  38  59  83 109 147 192 237 285 339
#     4  11  21  35  56  83 114 150 189 230 279 341
#     4   9  18  38  61  81 109 147 188 232 280 337
#     4  11  22  39  58  81 113 148 191 239 286 337
#     4  10  20  34  53  81 117 150 182 224 278 335
#     4  10  20  34  53  81 114 146 181 228 280 333
#     4   9  20  36  57  82 112 148 189 232 278 336
#
# _framework density 19.316625999999999
#
# number of rings (size 3 to 8) (size 9 to 14) (size 15 to 20)
#    0.000    2.000    1.250    2.250    1.750    2.000 
#    0.000    4.375    0.000    0.000    0.000    0.000 
#    0.000    0.000    0.000    0.000    0.000    0.000 
#
# Total GULP energy -793731.067240 kJ/mol
# GULP energy per Si atom -12402.047926 kJ/mol
# Density = 1.927266 g / cm^3
# Si number density = 19.316626 Si / 1000 Ang^3
#
#
#
# Elastic Constant Matrix: (Units=GPa)
#
#
# Indices 1 2 3 4 5 6 
#
# 1 39.6427 15.6173 33.2573 0.0000 0.0000 0.0000
# 2 15.6173 70.6272 29.1796 0.0000 0.0000 0.0000
# 3 33.2573 29.1796 109.6300 0.0000 0.0000 0.0000
# 4 0.0000 0.0000 0.0000 26.9250 0.0000 0.0000
# 5 0.0000 0.0000 0.0000 0.0000 28.5942 0.0000
# 6 0.0000 0.0000 0.0000 0.0000 0.0000 16.2325
#
#
#
# Elastic Compliance Matrix: (Units=1/GPa)
#
#
# Indices 1 2 3 4 5 6 
#
# 1 0.034691 -0.003734 -0.009530 0.000000 0.000000 0.000000
# 2 -0.003734 0.016310 -0.003209 0.000000 0.000000 0.000000
# 3 -0.009530 -0.003209 0.012867 0.000000 0.000000 0.000000
# 4 0.000000 0.000000 0.000000 0.037140 0.000000 0.000000
# 5 0.000000 0.000000 0.000000 0.000000 0.034972 0.000000
# 6 0.000000 0.000000 0.000000 0.000000 0.000000 0.061605
#
#
# Mechanical properties :
#
#
# Convention : Reuss Voigt Hill
#
# Bulk Modulus (GPa) = 32.33806 41.77870 37.05838
# Shear Modulus (GPa) = 20.76088 23.80671 22.28380
#
# Velocity S-wave (km/s) = 3.28192 3.51443 3.40016
# Velocity P-wave (km/s) = 5.58021 6.17605 5.88568
#
# Compressibility (1/GPa) = 0.03092332
#
# Stress axis : x y z
#
# Youngs Moduli (GPa) = 28.82568 61.31187 77.72038
#
# Poissons Ratio (x) = 0.22892 0.74069
# Poissons Ratio (y) = 0.10763 0.24937
# Poissons Ratio (z) = 0.27471 0.19672
#
# Static dielectric constant tensor:
#      x y z
#    x 3.636040 0.000000 0.000000 
#    y 0.000000 3.483930 0.000000 
#    z 0.000000 0.000000 3.659070 
# 
# 
# High freq. dielectric constant tensor:
#      x y z
#    x 1.754690 0.000000 0.000000 
#    y 0.000000 1.746350 0.000000 
#    z 0.000000 0.000000 1.743030 
# 
# From -- ./inp_files/29747.got.cif
#   From: 2010.03.12/outbox.cif.g09.slc.cpg/sg62_15_cif.got.tgz:29747.got - 2010.04.10 19:12:36.
