data_PCOD8252027
_publ_section_title
;
Structure prediction by ZEFSAII (Michael W. Deem and Ramdas Pophale) SiO2 
 PCOD8252027
Probable space group: P N M A
;
_chemical_formula_sum "Si O2"
_cell_formula_units_Z 44
_cell_length_a 11.156156
_cell_length_b 7.670888
_cell_length_c 26.815213
_cell_angle_alpha 90.000000
_cell_angle_beta 90.000000
_cell_angle_gamma 90.000000
_cell_volume 2294.782194
_symmetry_space_group_name_H-M "P N M A"
_symmetry_group_IT_number 62
_symmetry_cell_setting 'orthorhombic'
loop_
_space_group_symop_operation_xyz
x,y,z
1/2-x,-y,1/2+z
1/2+x,1/2-y,1/2-z
-x,1/2+y,-z
-x,-y,-z
1/2+x,y,1/2-z
1/2-x,1/2+y,1/2+z
x,1/2-y,z
loop_
_atom_site_type_symbol
_atom_site_label
_atom_site_fract_x
_atom_site_fract_y
_atom_site_fract_z
Si Si1 0.786531 0.451923 0.117304
Si Si2 0.362172 0.750000 0.144563
Si Si3 0.743563 0.056950 0.407819
Si Si4 0.637196 0.952464 0.506978
Si Si5 0.137641 0.750000 0.336588
Si Si6 0.963739 0.947699 0.832265
Si Si7 0.652953 0.750000 0.276909
O O1 0.745723 0.250000 0.119542
O O2 0.680065 0.575225 0.135611
O O3 0.900066 0.484251 0.152797
O O4 0.819792 0.509098 0.061486
O O5 0.342542 0.579959 0.110307
O O6 0.495069 0.750000 0.165374
O O7 0.275482 0.750000 0.192102
O O8 0.790886 0.250000 0.394338
O O9 0.617122 0.017432 0.380962
O O10 0.720588 0.049127 0.466867
O O11 0.654763 0.750000 0.498087
O O12 0.500000 0.000000 0.500000
O O13 0.188434 0.750000 0.280658
O O14 0.947497 0.750000 0.812739
O O15 0.925331 0.077875 0.788440
#
# Coordination Sequence:
#
# PCOD8252027 Si02
#       7
#     8   4   8   8   4   8   4
#     4  10  23  39  59  94 133 157 197 256 311 368
#     4  10  24  44  58  90 124 162 214 257 297 382
#     4  10  19  36  62  90 122 161 203 252 307 367
#     4  11  20  32  60  98 129 160 201 249 311 368
#     4  12  27  42  65  84 124 171 214 256 311 360
#     4   9  18  36  61  93 123 151 192 257 317 365
#     4  10  23  40  67  88 116 157 212 261 316 358
#
# _framework density 19.173933999999999
#
# number of rings (size 3 to 8) (size 9 to 14) (size 15 to 20)
#    0.000    1.818    2.727    1.091    5.091    1.455 
#    0.000    0.909    0.000    0.000    0.000    0.000 
#    0.000    0.000    0.000    0.000    0.000    0.000 
#
# Total GULP energy -545731.167988 kJ/mol
# GULP energy per Si atom -12402.981091 kJ/mol
# Density = 1.913029 g / cm^3
# Si number density = 19.173934 Si / 1000 Ang^3
#
#
#
# Elastic Constant Matrix: (Units=GPa)
#
#
# Indices 1 2 3 4 5 6 
#
# 1 86.3868 44.0618 33.4342 0.0000 0.0000 0.0000
# 2 44.0618 118.9585 46.9700 0.0000 0.0000 0.0000
# 3 33.4342 46.9700 112.6420 0.0000 0.0000 0.0000
# 4 0.0000 0.0000 0.0000 23.7951 0.0000 0.0000
# 5 0.0000 0.0000 0.0000 0.0000 23.5833 0.0000
# 6 0.0000 0.0000 0.0000 0.0000 0.0000 24.9402
#
#
#
# Elastic Compliance Matrix: (Units=1/GPa)
#
#
# Indices 1 2 3 4 5 6 
#
# 1 0.014851 -0.004502 -0.002531 0.000000 0.000000 0.000000
# 2 -0.004502 0.011428 -0.003429 0.000000 0.000000 0.000000
# 3 -0.002531 -0.003429 0.011059 0.000000 0.000000 0.000000
# 4 0.000000 0.000000 0.000000 0.042025 0.000000 0.000000
# 5 0.000000 0.000000 0.000000 0.000000 0.042403 0.000000
# 6 0.000000 0.000000 0.000000 0.000000 0.000000 0.040096
#
#
# Mechanical properties :
#
#
# Convention : Reuss Voigt Hill
#
# Bulk Modulus (GPa) = 60.92152 62.99103 61.95628
# Shear Modulus (GPa) = 26.55947 27.36515 26.96231
#
# Velocity S-wave (km/s) = 3.72585 3.78194 3.75400
# Velocity P-wave (km/s) = 7.09587 7.21072 7.15352
#
# Compressibility (1/GPa) = 0.01641456
#
# Stress axis : x y z
#
# Youngs Moduli (GPa) = 67.33339 87.50777 90.42578
#
# Poissons Ratio (x) = 0.39392 0.22888
# Poissons Ratio (y) = 0.30310 0.31007
# Poissons Ratio (z) = 0.17043 0.30006
#
# Static dielectric constant tensor:
#      x y z
#    x 3.157240 0.000000 0.000000 
#    y 0.000000 3.770620 0.000000 
#    z 0.000000 0.000000 3.435240 
# 
# 
# High freq. dielectric constant tensor:
#      x y z
#    x 1.716590 0.000000 0.000000 
#    y 0.000000 1.764240 0.000000 
#    z 0.000000 0.000000 1.741010 
# 
# From -- ./inp_files/29203.got.cif
#   From: 2010.03.12/outbox.cif.g09.slc.cpg/sg62_15_cif.got.tgz:29203.got - 2010.04.10 19:12:36.
