data_PCOD8252863
_publ_section_title
;
Structure prediction by ZEFSAII (Michael W. Deem and Ramdas Pophale) SiO2 
 PCOD8252863
Probable space group: P N M A
;
_chemical_formula_sum "Si O2"
_cell_formula_units_Z 56
_cell_length_a 14.567370
_cell_length_b 8.737926
_cell_length_c 21.851548
_cell_angle_alpha 90.000000
_cell_angle_beta 90.000000
_cell_angle_gamma 90.000000
_cell_volume 2781.452976
_symmetry_space_group_name_H-M "P N M A"
_symmetry_group_IT_number 62
_symmetry_cell_setting 'orthorhombic'
loop_
_space_group_symop_operation_xyz
x,y,z
1/2-x,-y,1/2+z
1/2+x,1/2-y,1/2-z
-x,1/2+y,-z
-x,-y,-z
1/2+x,y,1/2-z
1/2-x,1/2+y,1/2+z
x,1/2-y,z
loop_
_atom_site_type_symbol
_atom_site_label
_atom_site_fract_x
_atom_site_fract_y
_atom_site_fract_z
Si Si1 0.692073 0.073770 0.733897
Si Si2 0.926928 0.931032 0.454024
Si Si3 0.599315 0.927735 0.257111
Si Si4 0.774642 0.068719 0.989123
Si Si5 0.076815 0.568801 0.105405
Si Si6 0.871197 0.570350 0.100306
Si Si7 0.443650 0.071335 0.177010
O O1 0.668732 0.250000 0.748436
O O2 0.800255 0.047511 0.729660
O O3 0.648154 0.021963 0.669942
O O4 0.649818 0.972883 0.788097
O O5 0.930986 0.750000 0.458861
O O6 0.825939 0.993236 0.471959
O O7 0.951318 0.980209 0.385841
O O8 0.000000 0.000000 0.500000
O O9 0.568817 0.750000 0.254528
O O10 0.597531 0.990527 0.326412
O O11 0.530744 0.028633 0.217785
O O12 0.776655 0.250000 0.986301
O O13 0.848552 0.998247 0.941226
O O14 0.799828 0.016067 0.057137
O O15 0.085126 0.750000 0.105449
O O16 0.974961 0.518705 0.084276
O O17 0.856499 0.750000 0.091533
O O18 0.443803 0.250000 0.162646
#
# Coordination Sequence:
#
# PCOD8252863 Si02
#       7
#     8   8   8   8   8   8   8
#     4  10  21  39  64  92 122 165 211 256 312 370
#     4  11  25  45  66  89 121 163 212 260 310 372
#     4  10  20  38  65  90 119 162 210 256 306 373
#     4  10  22  39  61  88 119 158 201 249 306 366
#     4   9  17  35  60  87 120 157 197 241 297 366
#     4  10  20  35  58  90 124 157 203 251 301 365
#     4  12  25  41  63  94 129 163 202 257 316 373
#
# _framework density 20.133362000000002
#
# number of rings (size 3 to 8) (size 9 to 14) (size 15 to 20)
#    0.000    1.714    1.429    3.000    2.000    4.571 
#    0.000    0.714    0.000    0.000    0.000    0.000 
#    0.000    0.000    0.000    0.000    0.000    0.000 
#
# Total GULP energy -694640.685843 kJ/mol
# GULP energy per Si atom -12404.297961 kJ/mol
# Density = 2.008754 g / cm^3
# Si number density = 20.133362 Si / 1000 Ang^3
#
#
#
# Elastic Constant Matrix: (Units=GPa)
#
#
# Indices 1 2 3 4 5 6 
#
# 1 102.9536 27.6005 39.6147 0.0000 0.0000 0.0000
# 2 27.6005 41.5635 20.4114 0.0000 0.0000 0.0000
# 3 39.6147 20.4114 106.3168 0.0000 0.0000 0.0000
# 4 0.0000 0.0000 0.0000 30.4173 0.0000 0.0000
# 5 0.0000 0.0000 0.0000 0.0000 30.0705 0.0000
# 6 0.0000 0.0000 0.0000 0.0000 0.0000 27.9902
#
#
#
# Elastic Compliance Matrix: (Units=1/GPa)
#
#
# Indices 1 2 3 4 5 6 
#
# 1 0.012891 -0.006847 -0.003489 0.000000 0.000000 0.000000
# 2 -0.006847 0.030201 -0.003247 0.000000 0.000000 0.000000
# 3 -0.003489 -0.003247 0.011329 0.000000 0.000000 0.000000
# 4 0.000000 0.000000 0.000000 0.032876 0.000000 0.000000
# 5 0.000000 0.000000 0.000000 0.000000 0.033255 0.000000
# 6 0.000000 0.000000 0.000000 0.000000 0.000000 0.035727
#
#
# Mechanical properties :
#
#
# Convention : Reuss Voigt Hill
#
# Bulk Modulus (GPa) = 36.68963 47.34300 42.01632
# Shear Modulus (GPa) = 25.96996 28.57608 27.27302
#
# Velocity S-wave (km/s) = 3.59541 3.77150 3.68451
# Velocity P-wave (km/s) = 5.95809 6.52161 6.24621
#
# Compressibility (1/GPa) = 0.02725565
#
# Stress axis : x y z
#
# Youngs Moduli (GPa) = 77.57241 33.11156 88.26765
#
# Poissons Ratio (x) = 0.22672 0.30795
# Poissons Ratio (y) = 0.53115 0.28659
# Poissons Ratio (z) = 0.27064 0.10751
#
# Static dielectric constant tensor:
#      x y z
#    x 3.898050 0.000000 0.000000 
#    y 0.000000 3.377980 0.000000 
#    z 0.000000 0.000000 3.842000 
# 
# 
# High freq. dielectric constant tensor:
#      x y z
#    x 1.802380 0.000000 0.000000 
#    y 0.000000 1.757210 0.000000 
#    z 0.000000 0.000000 1.797760 
# 
# From -- ./inp_files/27125.got.cif
#   From: 2010.03.12/outbox.cif.g09.slc.cpg/sg62_14_cif.got.tgz:27125.got - 2010.04.10 19:12:36.
