data_PCOD8252179
_publ_section_title
;
Structure prediction by ZEFSAII (Michael W. Deem and Ramdas Pophale) SiO2 
 PCOD8252179
Probable space group: P N M A
;
_chemical_formula_sum "Si O2"
_cell_formula_units_Z 64
_cell_length_a 18.723217
_cell_length_b 8.798882
_cell_length_c 26.052891
_cell_angle_alpha 90.000000
_cell_angle_beta 90.000000
_cell_angle_gamma 90.000000
_cell_volume 4292.041245
_symmetry_space_group_name_H-M "P N M A"
_symmetry_group_IT_number 62
_symmetry_cell_setting 'orthorhombic'
loop_
_space_group_symop_operation_xyz
x,y,z
1/2-x,-y,1/2+z
1/2+x,1/2-y,1/2-z
-x,1/2+y,-z
-x,-y,-z
1/2+x,y,1/2-z
1/2-x,1/2+y,1/2+z
x,1/2-y,z
loop_
_atom_site_type_symbol
_atom_site_label
_atom_site_fract_x
_atom_site_fract_y
_atom_site_fract_z
Si Si1 0.219150 0.418006 0.197989
Si Si2 0.925289 0.073022 0.557523
Si Si3 0.333791 0.932251 0.858418
Si Si4 0.425506 0.073372 0.061077
Si Si5 0.412423 0.569261 0.756936
Si Si6 0.846342 0.571760 0.349898
Si Si7 0.927832 0.432413 0.256386
Si Si8 0.699033 0.583602 0.695372
O O1 0.213494 0.250000 0.172651
O O2 0.140311 0.486981 0.210964
O O3 0.263718 0.527004 0.160347
O O4 0.258097 0.401660 0.251990
O O5 0.937659 0.250000 0.568078
O O6 0.908461 0.040806 0.498214
O O7 0.857940 0.010620 0.589128
O O8 0.995531 0.983702 0.575525
O O9 0.333984 0.750000 0.863569
O O10 0.386423 0.987248 0.812820
O O11 0.252732 0.994010 0.845847
O O12 0.420919 0.250000 0.074945
O O13 0.366623 0.981669 0.093096
O O14 0.410837 0.750000 0.756854
O O15 0.492153 0.507503 0.746444
O O16 0.854796 0.750000 0.344374
O O17 0.900738 0.491614 0.310944
O O18 0.923791 0.250000 0.258093
O O19 0.876597 0.497274 0.210007
O O20 0.680731 0.750000 0.673669
#
# Coordination Sequence:
#
# PCOD8252179 Si02
#       8
#     8   8   8   8   8   8   8   8
#     4   8  14  27  42  56  77 105 135 163 193 230
#     4  10  20  31  43  61  80  99 131 172 205 234
#     4   9  15  25  40  57  80 111 140 162 194 236
#     4  10  20  33  45  56  76 106 134 163 202 242
#     4   8  14  24  42  63  79 103 139 168 189 226
#     4  11  20  28  40  60  82 105 136 168 199 235
#     4   9  15  26  43  61  82 109 139 167 195 229
#     4   7  12  22  37  56  78 106 138 165 187 226
#
# _framework density 14.91132
#
# number of rings (size 3 to 8) (size 9 to 14) (size 15 to 20)
#    0.000    3.000    0.000    4.875    0.000    2.500 
#    0.000    6.250    0.000    0.000    0.000    0.000 
#    0.000    1.000    0.000    2.000    0.000    2.625 
#
# Total GULP energy -792947.554023 kJ/mol
# GULP energy per Si atom -12389.805532 kJ/mol
# Density = 1.487738 g / cm^3
# Si number density = 14.911320 Si / 1000 Ang^3
#
#
#
# Elastic Constant Matrix: (Units=GPa)
#
#
# Indices 1 2 3 4 5 6 
#
# 1 119.4930 23.2853 47.7202 0.0000 0.0000 0.0000
# 2 23.2853 39.5641 21.6401 0.0000 0.0000 0.0000
# 3 47.7202 21.6401 60.6876 0.0000 0.0000 0.0000
# 4 0.0000 0.0000 0.0000 17.0552 0.0000 0.0000
# 5 0.0000 0.0000 0.0000 0.0000 26.6248 0.0000
# 6 0.0000 0.0000 0.0000 0.0000 0.0000 13.4610
#
#
#
# Elastic Compliance Matrix: (Units=1/GPa)
#
#
# Indices 1 2 3 4 5 6 
#
# 1 0.012386 -0.002438 -0.008870 0.000000 0.000000 0.000000
# 2 -0.002438 0.031879 -0.009450 0.000000 0.000000 0.000000
# 3 -0.008870 -0.009450 0.026823 0.000000 0.000000 0.000000
# 4 0.000000 0.000000 0.000000 0.058633 0.000000 0.000000
# 5 0.000000 0.000000 0.000000 0.000000 0.037559 0.000000
# 6 0.000000 0.000000 0.000000 0.000000 0.000000 0.074289
#
#
# Mechanical properties :
#
#
# Convention : Reuss Voigt Hill
#
# Bulk Modulus (GPa) = 33.81737 45.00399 39.41068
# Shear Modulus (GPa) = 17.06813 19.90146 18.48480
#
# Velocity S-wave (km/s) = 3.38693 3.65726 3.52468
# Velocity P-wave (km/s) = 6.16630 6.93402 6.56140
#
# Compressibility (1/GPa) = 0.02957060
#
# Stress axis : x y z
#
# Youngs Moduli (GPa) = 80.73527 31.36817 37.28207
#
# Poissons Ratio (x) = 0.07648 0.33070
# Poissons Ratio (y) = 0.19685 0.35233
# Poissons Ratio (z) = 0.71613 0.29644
#
# Static dielectric constant tensor:
#      x y z
#    x 3.342590 0.000000 0.000000 
#    y 0.000000 2.682190 0.000000 
#    z 0.000000 0.000000 2.710250 
# 
# 
# High freq. dielectric constant tensor:
#      x y z
#    x 1.567870 0.000000 0.000000 
#    y 0.000000 1.552270 0.000000 
#    z 0.000000 0.000000 1.535220 
# 
# From -- ./inp_files/30108.got.cif
#   From: 2010.03.12/outbox.cif.g09.slc.cpg/sg62_16_cif.got.tgz:30108.got - 2010.04.10 19:12:36.
