data_PCOD8252793
_publ_section_title
;
Structure prediction by ZEFSAII (Michael W. Deem and Ramdas Pophale) SiO2 
 PCOD8252793
Probable space group: P N M A
;
_chemical_formula_sum "Si O2"
_cell_formula_units_Z 64
_cell_length_a 14.418179
_cell_length_b 9.170517
_cell_length_c 24.976094
_cell_angle_alpha 90.000000
_cell_angle_beta 90.000000
_cell_angle_gamma 90.000000
_cell_volume 3302.392988
_symmetry_space_group_name_H-M "P N M A"
_symmetry_group_IT_number 62
_symmetry_cell_setting 'orthorhombic'
loop_
_space_group_symop_operation_xyz
x,y,z
1/2-x,-y,1/2+z
1/2+x,1/2-y,1/2-z
-x,1/2+y,-z
-x,-y,-z
1/2+x,y,1/2-z
1/2-x,1/2+y,1/2+z
x,1/2-y,z
loop_
_atom_site_type_symbol
_atom_site_label
_atom_site_fract_x
_atom_site_fract_y
_atom_site_fract_z
Si Si1 0.388173 0.579495 0.366531
Si Si2 0.713645 0.584186 0.818496
Si Si3 0.248677 0.077540 0.573722
Si Si4 0.095974 0.079420 0.488490
Si Si5 0.292718 0.921752 0.884357
Si Si6 0.357163 0.923252 0.769176
Si Si7 0.943291 0.416869 0.237602
Si Si8 0.044533 0.579999 0.049732
O O1 0.368006 0.750000 0.361920
O O2 0.303142 0.504034 0.398061
O O3 0.394170 0.512246 0.307512
O O4 0.483645 0.547473 0.397643
O O5 0.739596 0.750000 0.833944
O O6 0.714886 0.486148 0.870495
O O7 0.784608 0.520466 0.774628
O O8 0.611960 0.575601 0.793141
O O9 0.250799 0.250000 0.578949
O O10 0.176081 0.025278 0.528866
O O11 0.351641 0.019596 0.559571
O O12 0.078008 0.250000 0.495485
O O13 0.130356 0.041278 0.428839
O O14 0.000000 0.000000 0.500000
O O15 0.271072 0.750000 0.883225
O O16 0.330919 0.982517 0.827853
O O17 0.357928 0.750000 0.772359
O O18 0.456467 0.983317 0.750819
O O19 0.947999 0.250000 0.216844
O O20 0.046561 0.750000 0.036025
O O21 0.000000 0.500000 0.000000
#
# Coordination Sequence:
#
# PCOD8252793 Si02
#       8
#     8   8   8   8   8   8   8   8
#     4  11  22  36  57  89 122 150 185 237 296 349
#     4  10  20  35  57  86 113 146 193 238 278 331
#     4  10  22  40  57  82 119 155 189 233 290 352
#     4  10  23  40  62  86 113 153 198 241 290 341
#     4  10  20  39  63  83 111 156 200 241 287 341
#     4   9  18  34  57  85 111 142 194 244 281 329
#     4  10  20  35  57  82 112 149 193 238 280 340
#     4  10  22  39  60  86 116 149 190 235 284 347
#
# _framework density 19.379885999999999
#
# number of rings (size 3 to 8) (size 9 to 14) (size 15 to 20)
#    0.000    2.000    1.250    1.875    1.750    4.000 
#    0.000    0.625    0.000    0.000    0.000    0.000 
#    0.000    0.000    0.000    0.000    0.000    0.000 
#
# Total GULP energy -793789.110376 kJ/mol
# GULP energy per Si atom -12402.954850 kJ/mol
# Density = 1.933578 g / cm^3
# Si number density = 19.379886 Si / 1000 Ang^3
#
#
#
# Elastic Constant Matrix: (Units=GPa)
#
#
# Indices 1 2 3 4 5 6 
#
# 1 128.4423 36.8598 34.3255 0.0000 0.0000 0.0000
# 2 36.8598 45.2645 33.9171 0.0000 0.0000 0.0000
# 3 34.3255 33.9171 109.4556 0.0000 0.0000 0.0000
# 4 0.0000 0.0000 0.0000 32.6723 0.0000 0.0000
# 5 0.0000 0.0000 0.0000 0.0000 32.1611 0.0000
# 6 0.0000 0.0000 0.0000 0.0000 0.0000 29.2150
#
#
#
# Elastic Compliance Matrix: (Units=1/GPa)
#
#
# Indices 1 2 3 4 5 6 
#
# 1 0.010215 -0.007708 -0.000815 0.000000 0.000000 0.000000
# 2 -0.007708 0.034589 -0.008301 0.000000 0.000000 0.000000
# 3 -0.000815 -0.008301 0.011964 0.000000 0.000000 0.000000
# 4 0.000000 0.000000 0.000000 0.030607 0.000000 0.000000
# 5 0.000000 0.000000 0.000000 0.000000 0.031093 0.000000
# 6 0.000000 0.000000 0.000000 0.000000 0.000000 0.034229
#
#
# Mechanical properties :
#
#
# Convention : Reuss Voigt Hill
#
# Bulk Modulus (GPa) = 43.25157 54.81859 49.03508
# Shear Modulus (GPa) = 25.76626 30.68036 28.22331
#
# Velocity S-wave (km/s) = 3.65024 3.98314 3.82032
# Velocity P-wave (km/s) = 6.33497 7.03574 6.69453
#
# Compressibility (1/GPa) = 0.02312055
#
# Stress axis : x y z
#
# Youngs Moduli (GPa) = 97.89149 28.91099 83.58435
#
# Poissons Ratio (x) = 0.22284 0.06813
# Poissons Ratio (y) = 0.75453 0.69383
# Poissons Ratio (z) = 0.07980 0.23999
#
# Static dielectric constant tensor:
#      x y z
#    x 3.842810 0.000000 0.000000 
#    y 0.000000 3.335120 0.000000 
#    z 0.000000 0.000000 3.582480 
# 
# 
# High freq. dielectric constant tensor:
#      x y z
#    x 1.770260 0.000000 0.000000 
#    y 0.000000 1.728450 0.000000 
#    z 0.000000 0.000000 1.761270 
# 
# From -- ./inp_files/29798.got.cif
#   From: 2010.03.12/outbox.cif.g09.slc.cpg/sg62_15_cif.got.tgz:29798.got - 2010.04.10 19:12:36.
