data_PCOD8252358
_publ_section_title
;
Structure prediction by ZEFSAII (Michael W. Deem and Ramdas Pophale) SiO2 
 PCOD8252358
Probable space group: P N M A
;
_chemical_formula_sum "Si O2"
_cell_formula_units_Z 48
_cell_length_a 9.513490
_cell_length_b 14.006352
_cell_length_c 17.733362
_cell_angle_alpha 90.000000
_cell_angle_beta 90.000000
_cell_angle_gamma 90.000000
_cell_volume 2362.957890
_symmetry_space_group_name_H-M "P N M A"
_symmetry_group_IT_number 62
_symmetry_cell_setting 'orthorhombic'
loop_
_space_group_symop_operation_xyz
x,y,z
1/2-x,-y,1/2+z
1/2+x,1/2-y,1/2-z
-x,1/2+y,-z
-x,-y,-z
1/2+x,y,1/2-z
1/2-x,1/2+y,1/2+z
x,1/2-y,z
loop_
_atom_site_type_symbol
_atom_site_label
_atom_site_fract_x
_atom_site_fract_y
_atom_site_fract_z
Si Si1 0.744221 0.750000 0.138881
Si Si2 0.399972 0.952003 0.560706
Si Si3 0.053054 0.250000 0.997443
Si Si4 0.190691 0.952046 0.340771
Si Si5 0.274324 0.750000 0.035738
Si Si6 0.665242 0.750000 0.305969
Si Si7 0.003970 0.946780 0.205369
Si Si8 0.351104 0.952896 0.990588
O O1 0.659717 0.652109 0.120266
O O2 0.761186 0.750000 0.230616
O O3 0.886385 0.750000 0.088270
O O4 0.393018 0.839629 0.545430
O O5 0.500000 0.000000 0.500000
O O6 0.451963 0.974064 0.644463
O O7 0.247036 0.998126 0.552745
O O8 0.885861 0.250000 0.992561
O O9 0.062573 0.981377 0.286245
O O10 0.334943 0.942170 0.292913
O O11 0.206810 0.030004 0.405992
O O12 0.357729 0.840234 0.003572
O O13 0.277696 0.750000 0.126414
O O14 0.565643 0.657343 0.313257
O O15 0.500000 0.000000 0.000000
#
# Coordination Sequence:
#
# PCOD8252358 Si02
#       8
#     4   8   4   8   4   4   8   8
#     4  10  20  33  58  96 132 159 206 271 321 387
#     4  12  21  41  68  94 123 170 222 270 316 392
#     4  12  20  37  73  95 123 166 234 269 318 392
#     4  11  23  40  60  92 130 171 213 271 326 391
#     4  12  22  42  68  93 123 178 218 270 330 398
#     4  10  20  34  63  96 130 169 212 262 337 399
#     4  11  22  38  61  92 128 168 218 268 331 391
#     4  12  27  42  65  96 136 169 220 274 331 387
#
# _framework density 20.313524000000001
#
# number of rings (size 3 to 8) (size 9 to 14) (size 15 to 20)
#    0.000    0.667    6.667    1.500    2.333    1.333 
#    0.000    2.500    0.000    0.000    0.000    0.000 
#    0.000    0.000    0.000    0.000    0.000    0.000 
#
# Total GULP energy -595189.104590 kJ/mol
# GULP energy per Si atom -12399.773012 kJ/mol
# Density = 2.026729 g / cm^3
# Si number density = 20.313524 Si / 1000 Ang^3
#
#
#
# Elastic Constant Matrix: (Units=GPa)
#
#
# Indices 1 2 3 4 5 6 
#
# 1 96.5029 28.5286 9.6781 0.0000 0.0000 0.0000
# 2 28.5286 149.8319 40.9968 0.0000 0.0000 0.0000
# 3 9.6781 40.9968 76.5667 0.0000 0.0000 0.0000
# 4 0.0000 0.0000 0.0000 35.3630 0.0000 0.0000
# 5 0.0000 0.0000 0.0000 0.0000 34.9577 0.0000
# 6 0.0000 0.0000 0.0000 0.0000 0.0000 21.7110
#
#
#
# Elastic Compliance Matrix: (Units=1/GPa)
#
#
# Indices 1 2 3 4 5 6 
#
# 1 0.010987 -0.002006 -0.000315 0.000000 0.000000 0.000000
# 2 -0.002006 0.008186 -0.004130 0.000000 0.000000 0.000000
# 3 -0.000315 -0.004130 0.015311 0.000000 0.000000 0.000000
# 4 0.000000 0.000000 0.000000 0.028278 0.000000 0.000000
# 5 0.000000 0.000000 0.000000 0.000000 0.028606 0.000000
# 6 0.000000 0.000000 0.000000 0.000000 0.000000 0.046060
#
#
# Mechanical properties :
#
#
# Convention : Reuss Voigt Hill
#
# Bulk Modulus (GPa) = 46.33052 53.47872 49.90462
# Shear Modulus (GPa) = 31.74139 34.65287 33.19713
#
# Velocity S-wave (km/s) = 3.95723 4.13474 4.04696
# Velocity P-wave (km/s) = 6.61338 7.01274 6.81599
#
# Compressibility (1/GPa) = 0.02158405
#
# Stress axis : x y z
#
# Youngs Moduli (GPa) = 91.01729 122.15997 65.31072
#
# Poissons Ratio (x) = 0.24503 0.02056
# Poissons Ratio (y) = 0.18257 0.26970
# Poissons Ratio (z) = 0.02865 0.50447
#
# Static dielectric constant tensor:
#      x y z
#    x 3.251340 0.000000 0.000000 
#    y 0.000000 4.077800 0.000000 
#    z 0.000000 0.000000 3.734840 
# 
# 
# High freq. dielectric constant tensor:
#      x y z
#    x 1.793190 0.000000 0.000000 
#    y 0.000000 1.788820 0.000000 
#    z 0.000000 0.000000 1.785700 
# 
# From -- ./inp_files/22267.got.cif
#   From: 2010.03.12/outbox.cif.g09.slc.cpg/sg62_12_cif.got.tgz:22267.got - 2010.04.10 19:12:36.
