data_PCOD8252429
_publ_section_title
;
Structure prediction by ZEFSAII (Michael W. Deem and Ramdas Pophale) SiO2 
 PCOD8252429
Probable space group: P N M A
;
_chemical_formula_sum "Si O2"
_cell_formula_units_Z 40
_cell_length_a 12.391039
_cell_length_b 13.935332
_cell_length_c 9.170382
_cell_angle_alpha 90.000000
_cell_angle_beta 90.000000
_cell_angle_gamma 90.000000
_cell_volume 1583.479593
_symmetry_space_group_name_H-M "P N M A"
_symmetry_group_IT_number 62
_symmetry_cell_setting 'orthorhombic'
loop_
_space_group_symop_operation_xyz
x,y,z
1/2-x,-y,1/2+z
1/2+x,1/2-y,1/2-z
-x,1/2+y,-z
-x,-y,-z
1/2+x,y,1/2-z
1/2-x,1/2+y,1/2+z
x,1/2-y,z
loop_
_atom_site_type_symbol
_atom_site_label
_atom_site_fract_x
_atom_site_fract_y
_atom_site_fract_z
Si Si1 0.143841 0.141039 0.385742
Si Si2 0.057361 0.139583 0.827322
Si Si3 0.565424 0.964058 0.847223
Si Si4 0.620822 0.860954 0.553542
Si Si5 0.231202 0.140557 0.064409
O O1 0.106931 0.250000 0.420108
O O2 0.253129 0.113510 0.473493
O O3 0.168151 0.129992 0.215016
O O4 0.047399 0.066353 0.427009
O O5 0.068810 0.250000 0.782407
O O6 0.067993 0.079126 0.678537
O O7 0.151917 0.107230 0.936709
O O8 0.942281 0.118495 0.903973
O O9 0.567722 0.917892 0.686374
O O10 0.664916 0.927828 0.943882
O O11 0.610212 0.750000 0.599965
O O12 0.269408 0.250000 0.041836
#
# Coordination Sequence:
#
# PCOD8252429 Si02
#       5
#     8   8   8   8   8
#     4   9  16  27  48  78 108 134 172 230 279 318
#     4  10  20  34  53  80 113 147 186 232 278 331
#     4  11  18  29  55  80 105 143 192 231 273 331
#     4   9  17  29  48  79 110 134 173 230 281 321
#     4   9  18  31  50  80 113 139 179 238 286 324
#
# _framework density 25.260822999999998
#
# number of rings (size 3 to 8) (size 9 to 14) (size 15 to 20)
#    0.000    2.400    2.000    3.600    0.000    0.000 
#    0.000    0.000    0.000   15.600    0.000    0.000 
#    0.000    0.000    0.000    0.000    0.000    0.000 
#
# Total GULP energy -496212.107401 kJ/mol
# GULP energy per Si atom -12405.302685 kJ/mol
# Density = 2.520333 g / cm^3
# Si number density = 25.260823 Si / 1000 Ang^3
#
#
#
# Elastic Constant Matrix: (Units=GPa)
#
#
# Indices 1 2 3 4 5 6 
#
# 1 207.9928 100.5957 53.6824 0.0000 0.0000 0.0000
# 2 100.5957 114.6837 40.9410 0.0000 0.0000 0.0000
# 3 53.6824 40.9410 67.0670 0.0000 0.0000 0.0000
# 4 0.0000 0.0000 0.0000 25.6071 0.0000 0.0000
# 5 0.0000 0.0000 0.0000 0.0000 22.9203 0.0000
# 6 0.0000 0.0000 0.0000 0.0000 0.0000 43.1042
#
#
#
# Elastic Compliance Matrix: (Units=1/GPa)
#
#
# Indices 1 2 3 4 5 6 
#
# 1 0.008792 -0.006649 -0.002979 0.000000 0.000000 0.000000
# 2 -0.006649 0.016177 -0.004553 0.000000 0.000000 0.000000
# 3 -0.002979 -0.004553 0.020075 0.000000 0.000000 0.000000
# 4 0.000000 0.000000 0.000000 0.039052 0.000000 0.000000
# 5 0.000000 0.000000 0.000000 0.000000 0.043629 0.000000
# 6 0.000000 0.000000 0.000000 0.000000 0.000000 0.023200
#
#
# Mechanical properties :
#
#
# Convention : Reuss Voigt Hill
#
# Bulk Modulus (GPa) = 59.94575 86.68684 73.31629
# Shear Modulus (GPa) = 27.04924 31.29462 29.17193
#
# Velocity S-wave (km/s) = 3.27585 3.52356 3.40196
# Velocity P-wave (km/s) = 6.17175 7.13759 6.67217
#
# Compressibility (1/GPa) = 0.01668175
#
# Stress axis : x y z
#
# Youngs Moduli (GPa) = 113.73376 61.81486 49.81441
#
# Poissons Ratio (x) = 0.41100 0.14839
# Poissons Ratio (y) = 0.75621 0.22683
# Poissons Ratio (z) = 0.33880 0.28147
#
# Static dielectric constant tensor:
#      x y z
#    x 4.755850 0.000000 0.000000 
#    y 0.000000 4.629710 0.000000 
#    z 0.000000 0.000000 4.107540 
# 
# 
# High freq. dielectric constant tensor:
#      x y z
#    x 2.012400 0.000000 0.000000 
#    y 0.000000 2.021260 0.000000 
#    z 0.000000 0.000000 1.997800 
# 
# From -- ./inp_files/12040.got.cif
#   From: 2010.03.12/outbox.cif.g09.slc.cpg/sg62_7_cif.got.tgz:12040.got - 2010.04.10 19:12:36.
