data_PCOD8252922
_publ_section_title
;
Structure prediction by ZEFSAII (Michael W. Deem and Ramdas Pophale) SiO2 
 PCOD8252922
Probable space group: P N M A
;
_chemical_formula_sum "Si O2"
_cell_formula_units_Z 56
_cell_length_a 5.584862
_cell_length_b 16.266093
_cell_length_c 30.271066
_cell_angle_alpha 90.000000
_cell_angle_beta 90.000000
_cell_angle_gamma 90.000000
_cell_volume 2749.941229
_symmetry_space_group_name_H-M "P N M A"
_symmetry_group_IT_number 62
_symmetry_cell_setting 'orthorhombic'
loop_
_space_group_symop_operation_xyz
x,y,z
1/2-x,-y,1/2+z
1/2+x,1/2-y,1/2-z
-x,1/2+y,-z
-x,-y,-z
1/2+x,y,1/2-z
1/2-x,1/2+y,1/2+z
x,1/2-y,z
loop_
_atom_site_type_symbol
_atom_site_label
_atom_site_fract_x
_atom_site_fract_y
_atom_site_fract_z
Si Si1 0.898569 0.750000 0.327168
Si Si2 0.579517 0.505004 0.864262
Si Si3 0.669594 0.342394 0.100916
Si Si4 0.226016 0.903939 0.426187
Si Si5 0.875230 0.157152 0.485035
Si Si6 0.382692 0.918149 0.223991
Si Si7 0.956363 0.549721 0.930434
Si Si8 0.097648 0.250000 0.881640
O O1 0.653862 0.750000 0.355805
O O2 0.885128 0.672377 0.295496
O O3 0.150999 0.750000 0.353774
O O4 0.485557 0.598798 0.867656
O O5 0.401791 0.433767 0.881422
O O6 0.640770 0.487161 0.813841
O O7 0.801553 0.495884 0.896799
O O8 0.654513 0.250000 0.119516
O O9 0.591453 0.348812 0.049421
O O10 0.938554 0.375827 0.099684
O O11 0.049873 0.868934 0.464958
O O12 0.406099 0.831125 0.412205
O O13 0.350095 0.984379 0.447833
O O14 0.771958 0.250000 0.485032
O O15 0.673748 0.091645 0.471383
O O16 0.139373 0.931512 0.252096
#
# Coordination Sequence:
#
# PCOD8252922 Si02
#       8
#     4   8   8   8   8   8   8   4
#     4  12  24  45  66  96 134 172 226 258 326 377
#     4  10  23  40  62  88 123 161 207 263 327 396
#     4   9  20  38  62  88 122 162 210 265 321 385
#     4  11  22  37  57  87 126 176 215 266 319 375
#     4  10  20  36  54  87 126 165 222 265 318 373
#     4  12  26  43  70  98 131 167 213 269 326 390
#     4  10  21  36  60  85 122 163 218 264 327 377
#     4  12  24  41  66  92 138 180 220 268 314 391
#
# _framework density 20.364072
#
# number of rings (size 3 to 8) (size 9 to 14) (size 15 to 20)
#    0.000    1.429    2.143    3.000    4.000    6.857 
#    0.000    0.000    0.000    0.857    0.000    0.000 
#    0.000    0.000    0.000    0.000    0.000    0.000 
#
# Total GULP energy -693840.592630 kJ/mol
# GULP energy per Si atom -12390.010583 kJ/mol
# Density = 2.031772 g / cm^3
# Si number density = 20.364072 Si / 1000 Ang^3
#
#
#
# Elastic Constant Matrix: (Units=GPa)
#
#
# Indices 1 2 3 4 5 6 
#
# 1 76.2540 22.0028 14.6062 0.0000 0.0000 0.0000
# 2 22.0028 135.2657 48.6097 0.0000 0.0000 0.0000
# 3 14.6062 48.6097 84.7284 0.0000 0.0000 0.0000
# 4 0.0000 0.0000 0.0000 28.4291 0.0000 0.0000
# 5 0.0000 0.0000 0.0000 0.0000 20.8615 0.0000
# 6 0.0000 0.0000 0.0000 0.0000 0.0000 12.8039
#
#
#
# Elastic Compliance Matrix: (Units=1/GPa)
#
#
# Indices 1 2 3 4 5 6 
#
# 1 0.013887 -0.001762 -0.001383 0.000000 0.000000 0.000000
# 2 -0.001762 0.009536 -0.005167 0.000000 0.000000 0.000000
# 3 -0.001383 -0.005167 0.015006 0.000000 0.000000 0.000000
# 4 0.000000 0.000000 0.000000 0.035175 0.000000 0.000000
# 5 0.000000 0.000000 0.000000 0.000000 0.047935 0.000000
# 6 0.000000 0.000000 0.000000 0.000000 0.000000 0.078101
#
#
# Mechanical properties :
#
#
# Convention : Reuss Voigt Hill
#
# Bulk Modulus (GPa) = 45.86263 51.85395 48.85829
# Shear Modulus (GPa) = 22.36792 26.48751 24.42772
#
# Velocity S-wave (km/s) = 3.31781 3.61043 3.46721
# Velocity P-wave (km/s) = 6.10306 6.54973 6.33034
#
# Compressibility (1/GPa) = 0.02180424
#
# Stress axis : x y z
#
# Youngs Moduli (GPa) = 72.00770 104.86077 66.64221
#
# Poissons Ratio (x) = 0.18475 0.09218
# Poissons Ratio (y) = 0.12687 0.34437
# Poissons Ratio (z) = 0.09960 0.54186
#
# Static dielectric constant tensor:
#      x y z
#    x 3.760220 0.000000 0.000000 
#    y 0.000000 3.921510 0.000000 
#    z 0.000000 0.000000 3.521080 
# 
# 
# High freq. dielectric constant tensor:
#      x y z
#    x 1.790720 0.000000 0.000000 
#    y 0.000000 1.814680 0.000000 
#    z 0.000000 0.000000 1.772090 
# 
# From -- ./inp_files/31629.got.cif
#   From: 2010.03.12/outbox.cif.g09.slc.cpg/sg62_16_cif.got.tgz:31629.got - 2010.04.10 19:12:36.
