data_PCOD8252464
_publ_section_title
;
Structure prediction by ZEFSAII (Michael W. Deem and Ramdas Pophale) SiO2 
 PCOD8252464
Probable space group: P N M A
;
_chemical_formula_sum "Si O2"
_cell_formula_units_Z 56
_cell_length_a 14.537460
_cell_length_b 9.412531
_cell_length_c 19.892430
_cell_angle_alpha 90.000000
_cell_angle_beta 90.000000
_cell_angle_gamma 90.000000
_cell_volume 2721.966593
_symmetry_space_group_name_H-M "P N M A"
_symmetry_group_IT_number 62
_symmetry_cell_setting 'orthorhombic'
loop_
_space_group_symop_operation_xyz
x,y,z
1/2-x,-y,1/2+z
1/2+x,1/2-y,1/2-z
-x,1/2+y,-z
-x,-y,-z
1/2+x,y,1/2-z
1/2-x,1/2+y,1/2+z
x,1/2-y,z
loop_
_atom_site_type_symbol
_atom_site_label
_atom_site_fract_x
_atom_site_fract_y
_atom_site_fract_z
Si Si1 0.387050 0.584868 0.214140
Si Si2 0.777935 0.911091 0.150281
Si Si3 0.240511 0.591885 0.979632
Si Si4 0.898624 0.408285 0.727166
Si Si5 0.051718 0.904898 0.051553
Si Si6 0.692642 0.591713 0.909147
Si Si7 0.115579 0.404573 0.155257
O O1 0.365568 0.750000 0.199338
O O2 0.337790 0.540355 0.284319
O O3 0.495798 0.553795 0.213889
O O4 0.351862 0.491418 0.152587
O O5 0.806476 0.750000 0.130959
O O6 0.667410 0.917041 0.162387
O O7 0.796297 0.014970 0.087781
O O8 0.280323 0.750000 0.962349
O O9 0.156337 0.614233 0.029940
O O10 0.316028 0.497056 0.020590
O O11 0.891293 0.250000 0.758846
O O12 0.852947 0.524617 0.775610
O O13 0.004600 0.750000 0.058703
O O14 0.042266 0.986418 0.122636
O O15 0.000000 0.000000 0.000000
O O16 0.648062 0.750000 0.917647
O O17 0.799679 0.614393 0.894466
O O18 0.069905 0.250000 0.167865
#
# Coordination Sequence:
#
# PCOD8252464 Si02
#       7
#     8   8   8   8   8   8   8
#     4  10  21  37  60  87 116 152 193 236 287 343
#     4  10  21  38  59  85 120 153 189 240 291 343
#     4  10  22  38  58  82 113 152 195 242 293 345
#     4  10  21  37  58  86 115 151 193 234 287 346
#     4  10  21  35  52  78 112 149 188 233 284 345
#     4  10  20  37  60  85 113 150 193 235 286 344
#     4  10  20  34  54  80 111 148 186 230 278 336
#
# _framework density 20.573360999999998
#
# number of rings (size 3 to 8) (size 9 to 14) (size 15 to 20)
#    0.000    2.000    1.429    1.714    2.000    4.571 
#    0.000    0.714    0.000    0.000    0.000    0.000 
#    0.000    0.000    0.000    0.000    0.000    0.000 
#
# Total GULP energy -693948.330118 kJ/mol
# GULP energy per Si atom -12391.934466 kJ/mol
# Density = 2.052654 g / cm^3
# Si number density = 20.573361 Si / 1000 Ang^3
#
#
#
# Elastic Constant Matrix: (Units=GPa)
#
#
# Indices 1 2 3 4 5 6 
#
# 1 52.1682 10.0343 7.2136 0.0000 0.0000 0.0000
# 2 10.0343 150.7977 40.3793 0.0000 0.0000 0.0000
# 3 7.2136 40.3793 63.8844 0.0000 0.0000 0.0000
# 4 0.0000 0.0000 0.0000 33.8728 0.0000 0.0000
# 5 0.0000 0.0000 0.0000 0.0000 24.1777 0.0000
# 6 0.0000 0.0000 0.0000 0.0000 0.0000 20.5243
#
#
#
# Elastic Compliance Matrix: (Units=1/GPa)
#
#
# Indices 1 2 3 4 5 6 
#
# 1 0.019564 -0.000855 -0.001669 0.000000 0.000000 0.000000
# 2 -0.000855 0.008020 -0.004973 0.000000 0.000000 0.000000
# 3 -0.001669 -0.004973 0.018985 0.000000 0.000000 0.000000
# 4 0.000000 0.000000 0.000000 0.029522 0.000000 0.000000
# 5 0.000000 0.000000 0.000000 0.000000 0.041360 0.000000
# 6 0.000000 0.000000 0.000000 0.000000 0.000000 0.048723
#
#
# Mechanical properties :
#
#
# Convention : Reuss Voigt Hill
#
# Bulk Modulus (GPa) = 31.66959 42.45608 37.06283
# Shear Modulus (GPa) = 26.08359 29.66317 27.87338
#
# Velocity S-wave (km/s) = 3.56453 3.80126 3.68479
# Velocity P-wave (km/s) = 5.68929 6.32039 6.01312
#
# Compressibility (1/GPa) = 0.03157604
#
# Stress axis : x y z
#
# Youngs Moduli (GPa) = 51.11436 124.69152 52.67407
#
# Poissons Ratio (x) = 0.10661 0.08790
# Poissons Ratio (y) = 0.04370 0.26192
# Poissons Ratio (z) = 0.08529 0.62003
#
# Static dielectric constant tensor:
#      x y z
#    x 3.684740 0.000000 0.000000 
#    y 0.000000 4.220560 0.000000 
#    z 0.000000 0.000000 2.436320 
# 
# 
# High freq. dielectric constant tensor:
#      x y z
#    x 1.772460 0.000000 0.000000 
#    y 0.000000 1.821840 0.000000 
#    z 0.000000 0.000000 1.793760 
# 
# From -- ./inp_files/27068.got.cif
#   From: 2010.03.12/outbox.cif.g09.slc.cpg/sg62_14_cif.got.tgz:27068.got - 2010.04.10 19:12:36.
