data_PCOD8252227
_publ_section_title
;
Structure prediction by ZEFSAII (Michael W. Deem and Ramdas Pophale) SiO2 
 PCOD8252227
Probable space group: P N M A
;
_chemical_formula_sum "Si O2"
_cell_formula_units_Z 48
_cell_length_a 23.460268
_cell_length_b 8.697981
_cell_length_c 13.536924
_cell_angle_alpha 90.000000
_cell_angle_beta 90.000000
_cell_angle_gamma 90.000000
_cell_volume 2762.303631
_symmetry_space_group_name_H-M "P N M A"
_symmetry_group_IT_number 62
_symmetry_cell_setting 'orthorhombic'
loop_
_space_group_symop_operation_xyz
x,y,z
1/2-x,-y,1/2+z
1/2+x,1/2-y,1/2-z
-x,1/2+y,-z
-x,-y,-z
1/2+x,y,1/2-z
1/2-x,1/2+y,1/2+z
x,1/2-y,z
loop_
_atom_site_type_symbol
_atom_site_label
_atom_site_fract_x
_atom_site_fract_y
_atom_site_fract_z
Si Si1 0.168350 0.070556 0.790130
Si Si2 0.779551 0.070669 0.394054
Si Si3 0.056138 0.572240 0.110980
Si Si4 0.662275 0.074134 0.296606
Si Si5 0.272228 0.927297 0.900244
Si Si6 0.561725 0.928381 0.615809
O O1 0.179508 0.250000 0.803826
O O2 0.178025 0.023266 0.676554
O O3 0.210662 0.979495 0.862190
O O4 0.104040 0.029393 0.818529
O O5 0.790815 0.250000 0.376099
O O6 0.714398 0.028254 0.368056
O O7 0.792229 0.026003 0.506363
O O8 0.039736 0.750000 0.120580
O O9 0.109369 0.535162 0.180791
O O10 0.002457 0.472235 0.146405
O O11 0.072392 0.530251 0.998705
O O12 0.644311 0.250000 0.315201
O O13 0.680384 0.047200 0.183563
O O14 0.267292 0.750000 0.930986
O O15 0.572210 0.750000 0.637949
#
# Coordination Sequence:
#
# PCOD8252227 Si02
#       6
#     8   8   8   8   8   8
#     4  11  21  33  51  75 103 134 168 206 249 297
#     4  10  20  34  52  75 102 133 169 207 250 297
#     4  10  20  32  50  75 100 129 166 205 246 295
#     4   9  19  33  49  71 101 133 163 200 245 294
#     4  10  20  34  51  74 103 134 169 206 248 297
#     4  10  20  34  51  72 101 133 165 205 250 296
#
# _framework density 17.376799999999999
#
# number of rings (size 3 to 8) (size 9 to 14) (size 15 to 20)
#    0.000    2.000    0.000    5.500    0.000    8.667 
#    0.000    0.000    0.000    1.000    0.000    0.000 
#    0.000    0.000    0.000    0.000    0.000    0.000 
#
# Total GULP energy -595465.179624 kJ/mol
# GULP energy per Si atom -12405.524575 kJ/mol
# Density = 1.733725 g / cm^3
# Si number density = 17.376800 Si / 1000 Ang^3
#
#
#
# Elastic Constant Matrix: (Units=GPa)
#
#
# Indices 1 2 3 4 5 6 
#
# 1 88.7654 28.9268 37.2709 0.0000 0.0000 0.0000
# 2 28.9268 60.3314 20.5108 0.0000 0.0000 0.0000
# 3 37.2709 20.5108 83.7301 0.0000 0.0000 0.0000
# 4 0.0000 0.0000 0.0000 30.5836 0.0000 0.0000
# 5 0.0000 0.0000 0.0000 0.0000 23.9800 0.0000
# 6 0.0000 0.0000 0.0000 0.0000 0.0000 31.6300
#
#
#
# Elastic Compliance Matrix: (Units=1/GPa)
#
#
# Indices 1 2 3 4 5 6 
#
# 1 0.015364 -0.005499 -0.005492 0.000000 0.000000 0.000000
# 2 -0.005499 0.020049 -0.002463 0.000000 0.000000 0.000000
# 3 -0.005492 -0.002463 0.014991 0.000000 0.000000 0.000000
# 4 0.000000 0.000000 0.000000 0.032697 0.000000 0.000000
# 5 0.000000 0.000000 0.000000 0.000000 0.041701 0.000000
# 6 0.000000 0.000000 0.000000 0.000000 0.000000 0.031616
#
#
# Mechanical properties :
#
#
# Convention : Reuss Voigt Hill
#
# Bulk Modulus (GPa) = 42.56192 45.13821 43.85006
# Shear Modulus (GPa) = 26.15624 26.97994 26.56809
#
# Velocity S-wave (km/s) = 3.88395 3.94463 3.91441
# Velocity P-wave (km/s) = 6.68282 6.83954 6.76164
#
# Compressibility (1/GPa) = 0.02349518
#
# Stress axis : x y z
#
# Youngs Moduli (GPa) = 65.08887 49.87693 66.70623
#
# Poissons Ratio (x) = 0.27429 0.36633
# Poissons Ratio (y) = 0.35794 0.16433
# Poissons Ratio (z) = 0.35745 0.12287
#
# Static dielectric constant tensor:
#      x y z
#    x 3.050040 0.000000 0.000000 
#    y 0.000000 3.267200 0.000000 
#    z 0.000000 0.000000 3.174650 
# 
# 
# High freq. dielectric constant tensor:
#      x y z
#    x 1.658000 0.000000 0.000000 
#    y 0.000000 1.685810 0.000000 
#    z 0.000000 0.000000 1.659360 
# 
# From -- ./inp_files/15122.got.cif
#   From: 2010.03.12/outbox.cif.g09.slc.cpg/sg62_8_cif.got.tgz:15122.got - 2010.04.10 19:12:36.
