data_PCOD8252093
_publ_section_title
;
Structure prediction by ZEFSAII (Michael W. Deem and Ramdas Pophale) SiO2 
 PCOD8252093
Probable space group: P N M A
;
_chemical_formula_sum "Si O2"
_cell_formula_units_Z 56
_cell_length_a 14.268420
_cell_length_b 12.648114
_cell_length_c 15.035069
_cell_angle_alpha 90.000000
_cell_angle_beta 90.000000
_cell_angle_gamma 90.000000
_cell_volume 2713.357895
_symmetry_space_group_name_H-M "P N M A"
_symmetry_group_IT_number 62
_symmetry_cell_setting 'orthorhombic'
loop_
_space_group_symop_operation_xyz
x,y,z
1/2-x,-y,1/2+z
1/2+x,1/2-y,1/2-z
-x,1/2+y,-z
-x,-y,-z
1/2+x,y,1/2-z
1/2-x,1/2+y,1/2+z
x,1/2-y,z
loop_
_atom_site_type_symbol
_atom_site_label
_atom_site_fract_x
_atom_site_fract_y
_atom_site_fract_z
Si Si1 0.705230 0.869931 0.882545
Si Si2 0.522951 0.123703 0.609465
Si Si3 0.275296 0.129581 0.400440
Si Si4 0.054723 0.635788 0.473148
Si Si5 0.914429 0.456143 0.237047
Si Si6 0.362846 0.988240 0.540532
Si Si7 0.430115 0.566551 0.868265
O O1 0.701991 0.750000 0.843172
O O2 0.657816 0.956287 0.818390
O O3 0.811257 0.907739 0.893489
O O4 0.654006 0.874656 0.977347
O O5 0.517629 0.250000 0.618302
O O6 0.421145 0.070361 0.600468
O O7 0.572169 0.074055 0.697167
O O8 0.576578 0.089468 0.520683
O O9 0.269555 0.250000 0.431671
O O10 0.368102 0.117252 0.339089
O O11 0.286670 0.055707 0.485976
O O12 0.178221 0.097139 0.351267
O O13 0.045125 0.750000 0.428209
O O14 0.053168 0.556817 0.390174
O O15 0.970554 0.626302 0.545046
O O16 0.012099 0.408310 0.277222
#
# Coordination Sequence:
#
# PCOD8252093 Si02
#       7
#     8   8   8   8   8   8   8
#     4  10  19  37  62  90 121 155 198 251 305 361
#     4  10  22  42  62  86 124 165 204 256 311 362
#     4  11  22  38  60  88 120 159 204 256 307 356
#     4   9  18  34  59  85 113 151 192 242 301 357
#     4  10  24  39  57  87 126 158 206 250 299 374
#     4  10  21  39  66  91 117 154 212 256 300 369
#     4  10  20  37  57  86 121 155 199 249 298 362
#
# _framework density 20.638634
#
# number of rings (size 3 to 8) (size 9 to 14) (size 15 to 20)
#    0.000    2.000    1.429    1.714    2.000    2.286 
#    0.000    3.571    0.000    0.000    0.000    0.000 
#    0.000    0.000    0.000    0.000    0.000    0.000 
#
# Total GULP energy -694055.778781 kJ/mol
# GULP energy per Si atom -12393.853193 kJ/mol
# Density = 2.059166 g / cm^3
# Si number density = 20.638634 Si / 1000 Ang^3
#
#
#
# Elastic Constant Matrix: (Units=GPa)
#
#
# Indices 1 2 3 4 5 6 
#
# 1 114.8835 59.9627 33.4799 0.0000 0.0000 0.0000
# 2 59.9627 135.4779 33.9900 0.0000 0.0000 0.0000
# 3 33.4799 33.9900 56.8168 0.0000 0.0000 0.0000
# 4 0.0000 0.0000 0.0000 19.6056 0.0000 0.0000
# 5 0.0000 0.0000 0.0000 0.0000 28.9119 0.0000
# 6 0.0000 0.0000 0.0000 0.0000 0.0000 22.2362
#
#
#
# Elastic Compliance Matrix: (Units=1/GPa)
#
#
# Indices 1 2 3 4 5 6 
#
# 1 0.012299 -0.004266 -0.004696 0.000000 0.000000 0.000000
# 2 -0.004266 0.010164 -0.003567 0.000000 0.000000 0.000000
# 3 -0.004696 -0.003567 0.022501 0.000000 0.000000 0.000000
# 4 0.000000 0.000000 0.000000 0.051006 0.000000 0.000000
# 5 0.000000 0.000000 0.000000 0.000000 0.034588 0.000000
# 6 0.000000 0.000000 0.000000 0.000000 0.000000 0.044972
#
#
# Mechanical properties :
#
#
# Convention : Reuss Voigt Hill
#
# Bulk Modulus (GPa) = 50.23055 62.44928 56.33991
# Shear Modulus (GPa) = 24.12861 26.13377 25.13119
#
# Velocity S-wave (km/s) = 3.42292 3.56231 3.49331
# Velocity P-wave (km/s) = 6.32557 6.87344 6.60519
#
# Compressibility (1/GPa) = 0.01990820
#
# Stress axis : x y z
#
# Youngs Moduli (GPa) = 81.30541 98.38470 44.44184
#
# Poissons Ratio (x) = 0.41967 0.20868
# Poissons Ratio (y) = 0.34682 0.15853
# Poissons Ratio (z) = 0.38178 0.35094
#
# Static dielectric constant tensor:
#      x y z
#    x 3.865380 0.000000 0.000000 
#    y 0.000000 3.716910 0.000000 
#    z 0.000000 0.000000 3.539770 
# 
# 
# High freq. dielectric constant tensor:
#      x y z
#    x 1.813160 0.000000 0.000000 
#    y 0.000000 1.802070 0.000000 
#    z 0.000000 0.000000 1.787100 
# 
# From -- ./inp_files/18980.got.cif
#   From: 2010.03.12/outbox.cif.g09.slc.cpg/sg62_10_cif.got.tgz:18980.got - 2010.04.10 19:12:36.
