data_PCOD8252171
_publ_section_title
;
Structure prediction by ZEFSAII (Michael W. Deem and Ramdas Pophale) SiO2 
 PCOD8252171
Probable space group: P N M A
;
_chemical_formula_sum "Si O2"
_cell_formula_units_Z 52
_cell_length_a 13.155920
_cell_length_b 18.882934
_cell_length_c 11.862898
_cell_angle_alpha 90.000000
_cell_angle_beta 90.000000
_cell_angle_gamma 90.000000
_cell_volume 2947.009225
_symmetry_space_group_name_H-M "P N M A"
_symmetry_group_IT_number 62
_symmetry_cell_setting 'orthorhombic'
loop_
_space_group_symop_operation_xyz
x,y,z
1/2-x,-y,1/2+z
1/2+x,1/2-y,1/2-z
-x,1/2+y,-z
-x,-y,-z
1/2+x,y,1/2-z
1/2-x,1/2+y,1/2+z
x,1/2-y,z
loop_
_atom_site_type_symbol
_atom_site_label
_atom_site_fract_x
_atom_site_fract_y
_atom_site_fract_z
Si Si1 0.752636 0.250000 0.182488
Si Si2 0.047829 0.403628 0.185779
Si Si3 0.685189 0.098644 0.124747
Si Si4 0.195397 0.250000 0.052042
Si Si5 0.865687 0.003058 0.185912
Si Si6 0.986057 0.250000 0.149988
Si Si7 0.282231 0.901195 0.498329
Si Si8 0.609984 0.006170 0.944356
O O1 0.695645 0.182678 0.130984
O O2 0.741078 0.250000 0.319080
O O3 0.865630 0.250000 0.128179
O O4 0.085165 0.428659 0.308542
O O5 0.143210 0.406805 0.103861
O O6 0.964547 0.457190 0.135986
O O7 0.007336 0.324205 0.212114
O O8 0.779883 0.062413 0.186364
O O9 0.671708 0.072883 0.996664
O O10 0.236548 0.182654 0.981699
O O11 0.070254 0.250000 0.048300
O O12 0.891934 0.978264 0.311900
O O13 0.834998 0.935251 0.111683
O O14 0.173785 0.935693 0.526056
O O15 0.500000 0.000000 0.000000
#
# Coordination Sequence:
#
# PCOD8252171 Si02
#       8
#     4   8   8   4   8   4   8   8
#     4  12  18  34  53  81 112 143 179 241 285 319
#     4  11  18  35  54  85 111 147 185 232 281 336
#     4  11  21  33  56  83 116 139 185 232 283 333
#     4  10  20  38  57  82 115 145 197 230 278 349
#     4  11  21  36  56  82 116 150 184 228 281 341
#     4  10  20  28  56  81 113 142 182 231 287 320
#     4  10  22  37  57  86 110 150 188 236 283 335
#     4  11  22  37  56  84 114 147 186 232 286 340
#
# _framework density 17.645008000000001
#
# number of rings (size 3 to 8) (size 9 to 14) (size 15 to 20)
#    0.000    1.231    7.692    0.462    0.000    0.000 
#    0.000    0.769    0.000    0.000    0.000    0.000 
#    0.000    0.000    0.000    0.000    0.000    0.000 
#
# Total GULP energy -644263.237633 kJ/mol
# GULP energy per Si atom -12389.677647 kJ/mol
# Density = 1.760485 g / cm^3
# Si number density = 17.645008 Si / 1000 Ang^3
#
#
#
# Elastic Constant Matrix: (Units=GPa)
#
#
# Indices 1 2 3 4 5 6 
#
# 1 91.5279 46.3405 21.9604 0.0000 0.0000 0.0000
# 2 46.3405 141.0964 48.0397 0.0000 0.0000 0.0000
# 3 21.9604 48.0397 76.0992 0.0000 0.0000 0.0000
# 4 0.0000 0.0000 0.0000 18.3731 0.0000 0.0000
# 5 0.0000 0.0000 0.0000 0.0000 21.3861 0.0000
# 6 0.0000 0.0000 0.0000 0.0000 0.0000 23.1910
#
#
#
# Elastic Compliance Matrix: (Units=1/GPa)
#
#
# Indices 1 2 3 4 5 6 
#
# 1 0.013216 -0.003875 -0.001368 0.000000 0.000000 0.000000
# 2 -0.003875 0.010164 -0.005298 0.000000 0.000000 0.000000
# 3 -0.001368 -0.005298 0.016880 0.000000 0.000000 0.000000
# 4 0.000000 0.000000 0.000000 0.054427 0.000000 0.000000
# 5 0.000000 0.000000 0.000000 0.000000 0.046759 0.000000
# 6 0.000000 0.000000 0.000000 0.000000 0.000000 0.043120
#
#
# Mechanical properties :
#
#
# Convention : Reuss Voigt Hill
#
# Bulk Modulus (GPa) = 52.14184 60.15606 56.14895
# Shear Modulus (GPa) = 23.58049 25.41558 24.49803
#
# Velocity S-wave (km/s) = 3.65962 3.79936 3.73014
# Velocity P-wave (km/s) = 6.88997 7.30843 7.10229
#
# Compressibility (1/GPa) = 0.01917846
#
# Stress axis : x y z
#
# Youngs Moduli (GPa) = 75.66837 98.38865 59.24196
#
# Poissons Ratio (x) = 0.38123 0.08102
# Poissons Ratio (y) = 0.29320 0.31386
# Poissons Ratio (z) = 0.10349 0.52126
#
# Static dielectric constant tensor:
#      x y z
#    x 3.492480 0.000000 0.000000 
#    y 0.000000 3.472690 0.000000 
#    z 0.000000 0.000000 3.107260 
# 
# 
# High freq. dielectric constant tensor:
#      x y z
#    x 1.699070 0.000000 0.000000 
#    y 0.000000 1.684250 0.000000 
#    z 0.000000 0.000000 1.651700 
# 
# From -- ./inp_files/13526.got.cif
#   From: 2010.03.12/outbox.cif.g09.slc.cpg/sg62_7_cif.got.tgz:13526.got - 2010.04.10 19:12:36.
