data_PCOD8252778
_publ_section_title
;
Structure prediction by ZEFSAII (Michael W. Deem and Ramdas Pophale) SiO2 
 PCOD8252778
Probable space group: P N M A
;
_chemical_formula_sum "Si O2"
_cell_formula_units_Z 56
_cell_length_a 9.131579
_cell_length_b 16.195172
_cell_length_c 20.341713
_cell_angle_alpha 90.000000
_cell_angle_beta 90.000000
_cell_angle_gamma 90.000000
_cell_volume 3008.284929
_symmetry_space_group_name_H-M "P N M A"
_symmetry_group_IT_number 62
_symmetry_cell_setting 'orthorhombic'
loop_
_space_group_symop_operation_xyz
x,y,z
1/2-x,-y,1/2+z
1/2+x,1/2-y,1/2-z
-x,1/2+y,-z
-x,-y,-z
1/2+x,y,1/2-z
1/2-x,1/2+y,1/2+z
x,1/2-y,z
loop_
_atom_site_type_symbol
_atom_site_label
_atom_site_fract_x
_atom_site_fract_y
_atom_site_fract_z
Si Si1 0.792129 0.656192 0.201789
Si Si2 0.758517 0.020504 0.877721
Si Si3 0.007311 0.432755 0.694252
Si Si4 0.842895 0.921529 0.752037
Si Si5 0.493830 0.341355 0.586985
Si Si6 0.050330 0.421425 0.040657
Si Si7 0.083285 0.845150 0.832899
O O1 0.799121 0.750000 0.227773
O O2 0.623163 0.632432 0.191849
O O3 0.874906 0.596964 0.251942
O O4 0.863636 0.645485 0.130783
O O5 0.594254 0.058929 0.876294
O O6 0.872079 0.093681 0.891431
O O7 0.774404 0.983911 0.804654
O O8 0.789085 0.946113 0.929721
O O9 0.951421 0.524734 0.707712
O O10 0.722605 0.879970 0.705696
O O11 0.938446 0.850750 0.787669
O O12 0.427006 0.250000 0.597005
O O13 0.551428 0.347482 0.511631
O O14 0.940730 0.398963 0.100670
O O15 0.000000 0.500000 0.000000
O O16 0.109490 0.750000 0.851779
#
# Coordination Sequence:
#
# PCOD8252778 Si02
#       7
#     8   8   8   8   8   8   8
#     4  11  22  33  54  86 118 153 193 238 293 346
#     4  10  20  35  56  86 109 151 191 238 283 354
#     4  12  20  35  56  82 123 152 189 238 293 353
#     4  11  20  35  57  84 116 149 185 232 296 356
#     4  10  20  38  60  82 113 152 197 244 287 339
#     4   9  21  37  61  83 107 149 201 236 282 348
#     4  11  22  37  59  87 116 147 190 244 296 345
#
# _framework density 18.615258000000001
#
# number of rings (size 3 to 8) (size 9 to 14) (size 15 to 20)
#    0.000    1.429    4.286    1.286    4.000    2.286 
#    0.000    0.714    0.000    0.000    0.000    0.000 
#    0.000    0.000    0.000    0.000    0.000    0.000 
#
# Total GULP energy -693892.171575 kJ/mol
# GULP energy per Si atom -12390.931635 kJ/mol
# Density = 1.857289 g / cm^3
# Si number density = 18.615258 Si / 1000 Ang^3
#
#
#
# Elastic Constant Matrix: (Units=GPa)
#
#
# Indices 1 2 3 4 5 6 
#
# 1 99.7096 37.1955 41.2256 0.0000 0.0000 0.0000
# 2 37.1955 100.8866 39.1085 0.0000 0.0000 0.0000
# 3 41.2256 39.1085 96.6642 0.0000 0.0000 0.0000
# 4 0.0000 0.0000 0.0000 29.4624 0.0000 0.0000
# 5 0.0000 0.0000 0.0000 0.0000 22.7264 0.0000
# 6 0.0000 0.0000 0.0000 0.0000 0.0000 32.6996
#
#
#
# Elastic Compliance Matrix: (Units=1/GPa)
#
#
# Indices 1 2 3 4 5 6 
#
# 1 0.012957 -0.003125 -0.004262 0.000000 0.000000 0.000000
# 2 -0.003125 0.012510 -0.003728 0.000000 0.000000 0.000000
# 3 -0.004262 -0.003728 0.013671 0.000000 0.000000 0.000000
# 4 0.000000 0.000000 0.000000 0.033942 0.000000 0.000000
# 5 0.000000 0.000000 0.000000 0.000000 0.044002 0.000000
# 6 0.000000 0.000000 0.000000 0.000000 0.000000 0.030581
#
#
# Mechanical properties :
#
#
# Convention : Reuss Voigt Hill
#
# Bulk Modulus (GPa) = 59.14526 59.14664 59.14595
# Shear Modulus (GPa) = 28.48551 28.95972 28.72262
#
# Velocity S-wave (km/s) = 3.91605 3.94851 3.93232
# Velocity P-wave (km/s) = 7.23109 7.25464 7.24288
#
# Compressibility (1/GPa) = 0.01690753
#
# Stress axis : x y z
#
# Youngs Moduli (GPa) = 77.17922 79.93879 73.14752
#
# Poissons Ratio (x) = 0.24981 0.31172
# Poissons Ratio (y) = 0.24119 0.27272
# Poissons Ratio (z) = 0.32890 0.29804
#
# Static dielectric constant tensor:
#      x y z
#    x 3.499230 0.000000 0.000000 
#    y 0.000000 4.107610 0.000000 
#    z 0.000000 0.000000 3.831220 
# 
# 
# High freq. dielectric constant tensor:
#      x y z
#    x 1.712780 0.000000 0.000000 
#    y 0.000000 1.733090 0.000000 
#    z 0.000000 0.000000 1.713160 
# 
# From -- ./inp_files/26090.got.cif
#   From: 2010.03.12/outbox.cif.g09.slc.cpg/sg62_14_cif.got.tgz:26090.got - 2010.04.10 19:12:36.
