data_PCOD8252523
_publ_section_title
;
Structure prediction by ZEFSAII (Michael W. Deem and Ramdas Pophale) SiO2 
 PCOD8252523
Probable space group: P N M A
;
_chemical_formula_sum "Si O2"
_cell_formula_units_Z 64
_cell_length_a 16.366465
_cell_length_b 9.377748
_cell_length_c 22.022492
_cell_angle_alpha 90.000000
_cell_angle_beta 90.000000
_cell_angle_gamma 90.000000
_cell_volume 3380.024943
_symmetry_space_group_name_H-M "P N M A"
_symmetry_group_IT_number 62
_symmetry_cell_setting 'orthorhombic'
loop_
_space_group_symop_operation_xyz
x,y,z
1/2-x,-y,1/2+z
1/2+x,1/2-y,1/2-z
-x,1/2+y,-z
-x,-y,-z
1/2+x,y,1/2-z
1/2-x,1/2+y,1/2+z
x,1/2-y,z
loop_
_atom_site_type_symbol
_atom_site_label
_atom_site_fract_x
_atom_site_fract_y
_atom_site_fract_z
Si Si1 0.943504 0.589035 0.118039
Si Si2 0.693347 0.091960 0.712187
Si Si3 0.202933 0.083841 0.964455
Si Si4 0.534321 0.086510 0.193336
Si Si5 0.083335 0.416686 0.171716
Si Si6 0.241794 0.415238 0.100682
Si Si7 0.199522 0.413253 0.371175
Si Si8 0.875831 0.585622 0.341091
O O1 0.973070 0.750000 0.105848
O O2 0.894912 0.576956 0.181161
O O3 0.884468 0.535664 0.063383
O O4 0.022693 0.491017 0.123875
O O5 0.729116 0.250000 0.698512
O O6 0.681478 0.068394 0.782897
O O7 0.754391 0.972866 0.687953
O O8 0.216727 0.250000 0.950062
O O9 0.276556 0.999966 0.931475
O O10 0.202694 0.049951 0.035363
O O11 0.504193 0.250000 0.198944
O O12 0.568018 0.033589 0.258913
O O13 0.603617 0.073080 0.142011
O O14 0.462192 0.987815 0.169775
O O15 0.068527 0.250000 0.164251
O O16 0.175438 0.456872 0.152001
O O17 0.266444 0.250000 0.105710
O O18 0.324551 0.507298 0.106286
O O19 0.225835 0.250000 0.379990
O O20 0.891064 0.750000 0.358576
#
# Coordination Sequence:
#
# PCOD8252523 Si02
#       8
#     8   8   8   8   8   8   8   8
#     4   9  17  32  53  79 112 148 180 218 267 322
#     4   9  18  33  52  78 112 145 176 216 277 334
#     4   9  20  39  58  77 110 152 190 227 275 328
#     4  10  21  36  54  82 116 144 175 223 280 334
#     4  10  20  34  55  84 114 144 181 221 271 333
#     4  10  22  40  58  78 110 151 187 228 280 328
#     4  10  20  34  57  84 108 141 187 233 271 320
#     4  11  22  36  56  82 110 143 184 228 275 330
#
# _framework density 18.934771000000001
#
# number of rings (size 3 to 8) (size 9 to 14) (size 15 to 20)
#    0.000    2.250    1.250    2.250    0.000    6.500 
#    0.000    0.625    0.000    0.000    0.000    0.000 
#    0.000    0.000    0.000    0.000    0.000    0.000 
#
# Total GULP energy -793602.151586 kJ/mol
# GULP energy per Si atom -12400.033619 kJ/mol
# Density = 1.889167 g / cm^3
# Si number density = 18.934771 Si / 1000 Ang^3
#
#
#
# Elastic Constant Matrix: (Units=GPa)
#
#
# Indices 1 2 3 4 5 6 
#
# 1 96.5560 60.2605 30.0206 0.0000 0.0000 0.0000
# 2 60.2605 87.9453 24.9283 0.0000 0.0000 0.0000
# 3 30.0206 24.9283 49.9475 0.0000 0.0000 0.0000
# 4 0.0000 0.0000 0.0000 24.9147 0.0000 0.0000
# 5 0.0000 0.0000 0.0000 0.0000 23.6067 0.0000
# 6 0.0000 0.0000 0.0000 0.0000 0.0000 30.5360
#
#
#
# Elastic Compliance Matrix: (Units=1/GPa)
#
#
# Indices 1 2 3 4 5 6 
#
# 1 0.019470 -0.011676 -0.005875 0.000000 0.000000 0.000000
# 2 -0.011676 0.020246 -0.003087 0.000000 0.000000 0.000000
# 3 -0.005875 -0.003087 0.025093 0.000000 0.000000 0.000000
# 4 0.000000 0.000000 0.000000 0.040137 0.000000 0.000000
# 5 0.000000 0.000000 0.000000 0.000000 0.042361 0.000000
# 6 0.000000 0.000000 0.000000 0.000000 0.000000 0.032748
#
#
# Mechanical properties :
#
#
# Convention : Reuss Voigt Hill
#
# Bulk Modulus (GPa) = 42.49284 51.65195 47.07240
# Shear Modulus (GPa) = 21.81737 23.76078 22.78907
#
# Velocity S-wave (km/s) = 3.39815 3.54626 3.47300
# Velocity P-wave (km/s) = 6.15524 6.64124 6.40285
#
# Compressibility (1/GPa) = 0.02353337
#
# Stress axis : x y z
#
# Youngs Moduli (GPa) = 51.36060 49.39259 39.85189
#
# Poissons Ratio (x) = 0.57669 0.23414
# Poissons Ratio (y) = 0.59967 0.12302
# Poissons Ratio (z) = 0.30175 0.15247
#
# Static dielectric constant tensor:
#      x y z
#    x 3.284970 0.000000 0.000000 
#    y 0.000000 3.481040 0.000000 
#    z 0.000000 0.000000 3.397410 
# 
# 
# High freq. dielectric constant tensor:
#      x y z
#    x 1.727070 0.000000 0.000000 
#    y 0.000000 1.736180 0.000000 
#    z 0.000000 0.000000 1.724540 
# 
# From -- ./inp_files/29824.got.cif
#   From: 2010.03.12/outbox.cif.g09.slc.cpg/sg62_15_cif.got.tgz:29824.got - 2010.04.10 19:12:36.
