data_PCOD8252449
_publ_section_title
;
Structure prediction by ZEFSAII (Michael W. Deem and Ramdas Pophale) SiO2 
 PCOD8252449
Probable space group: P N M A
;
_chemical_formula_sum "Si O2"
_cell_formula_units_Z 48
_cell_length_a 16.585691
_cell_length_b 9.321813
_cell_length_c 17.014418
_cell_angle_alpha 90.000000
_cell_angle_beta 90.000000
_cell_angle_gamma 90.000000
_cell_volume 2630.577218
_symmetry_space_group_name_H-M "P N M A"
_symmetry_group_IT_number 62
_symmetry_cell_setting 'orthorhombic'
loop_
_space_group_symop_operation_xyz
x,y,z
1/2-x,-y,1/2+z
1/2+x,1/2-y,1/2-z
-x,1/2+y,-z
-x,-y,-z
1/2+x,y,1/2-z
1/2-x,1/2+y,1/2+z
x,1/2-y,z
loop_
_atom_site_type_symbol
_atom_site_label
_atom_site_fract_x
_atom_site_fract_y
_atom_site_fract_z
Si Si1 0.892486 0.912522 0.505250
Si Si2 0.255189 0.586476 0.885150
Si Si3 0.996479 0.085728 0.623517
Si Si4 0.895059 0.915171 0.731569
Si Si5 0.556334 0.085506 0.400176
Si Si6 0.101963 0.082704 0.927791
O O1 0.921156 0.750000 0.528612
O O2 0.798542 0.927259 0.529111
O O3 0.911981 0.934913 0.411709
O O4 0.938573 0.033867 0.553713
O O5 0.228017 0.750000 0.869850
O O6 0.315415 0.533126 0.815377
O O7 0.177615 0.486316 0.883804
O O8 0.978583 0.250000 0.643909
O O9 0.976334 0.995396 0.701491
O O10 0.909202 0.750000 0.712061
O O11 0.886177 0.942988 0.824843
O O12 0.526018 0.250000 0.401944
O O13 0.607054 0.051146 0.478677
O O14 0.479165 0.984158 0.393019
O O15 0.101732 0.250000 0.908625
#
# Coordination Sequence:
#
# PCOD8252449 Si02
#       6
#     8   8   8   8   8   8
#     4   8  15  27  42  63  95 134 168 195 233 291
#     4   9  17  31  51  73 100 133 164 197 242 294
#     4   9  15  24  42  68  97 128 164 204 242 282
#     4   9  18  33  52  73  99 132 168 203 244 298
#     4   9  19  37  57  73  94 129 169 205 243 293
#     4  10  20  34  54  78  99 123 163 210 250 290
#
# _framework density 18.246945
#
# number of rings (size 3 to 8) (size 9 to 14) (size 15 to 20)
#    0.000    3.000    0.000    2.000    0.000    4.667 
#    0.000    1.667    0.000    6.000    0.000    0.000 
#    0.000    0.000    0.000    0.000    0.000    0.000 
#
# Total GULP energy -594663.698130 kJ/mol
# GULP energy per Si atom -12388.827044 kJ/mol
# Density = 1.820541 g / cm^3
# Si number density = 18.246945 Si / 1000 Ang^3
#
#
#
# Elastic Constant Matrix: (Units=GPa)
#
#
# Indices 1 2 3 4 5 6 
#
# 1 77.2931 42.1293 37.2733 0.0000 0.0000 0.0000
# 2 42.1293 73.6760 30.9366 0.0000 0.0000 0.0000
# 3 37.2733 30.9366 88.6336 0.0000 0.0000 0.0000
# 4 0.0000 0.0000 0.0000 23.3193 0.0000 0.0000
# 5 0.0000 0.0000 0.0000 0.0000 16.6458 0.0000
# 6 0.0000 0.0000 0.0000 0.0000 0.0000 26.9711
#
#
#
# Elastic Compliance Matrix: (Units=1/GPa)
#
#
# Indices 1 2 3 4 5 6 
#
# 1 0.020776 -0.009622 -0.005379 0.000000 0.000000 0.000000
# 2 -0.009622 0.020360 -0.003060 0.000000 0.000000 0.000000
# 3 -0.005379 -0.003060 0.014612 0.000000 0.000000 0.000000
# 4 0.000000 0.000000 0.000000 0.042883 0.000000 0.000000
# 5 0.000000 0.000000 0.000000 0.000000 0.060075 0.000000
# 6 0.000000 0.000000 0.000000 0.000000 0.000000 0.037077
#
#
# Mechanical properties :
#
#
# Convention : Reuss Voigt Hill
#
# Bulk Modulus (GPa) = 50.94944 51.14232 51.04588
# Shear Modulus (GPa) = 20.96912 22.00480 21.48696
#
# Velocity S-wave (km/s) = 3.39364 3.47644 3.43529
# Velocity P-wave (km/s) = 6.58320 6.64853 6.61594
#
# Compressibility (1/GPa) = 0.01962730
#
# Stress axis : x y z
#
# Youngs Moduli (GPa) = 48.13288 49.11675 68.43497
#
# Poissons Ratio (x) = 0.47258 0.36809
# Poissons Ratio (y) = 0.46311 0.20942
# Poissons Ratio (z) = 0.25889 0.15030
#
# Static dielectric constant tensor:
#      x y z
#    x 3.141480 0.000000 0.000000 
#    y 0.000000 3.404770 0.000000 
#    z 0.000000 0.000000 3.477600 
# 
# 
# High freq. dielectric constant tensor:
#      x y z
#    x 1.673360 0.000000 0.000000 
#    y 0.000000 1.712620 0.000000 
#    z 0.000000 0.000000 1.695300 
# 
# From -- ./inp_files/24218.got.cif
#   From: 2010.03.12/outbox.cif.g09.slc.cpg/sg62_13_cif.got.tgz:24218.got - 2010.04.10 19:12:36.
