data_PCOD8252201
_publ_section_title
;
Structure prediction by ZEFSAII (Michael W. Deem and Ramdas Pophale) SiO2 
 PCOD8252201
Probable space group: P N M A
;
_chemical_formula_sum "Si O2"
_cell_formula_units_Z 64
_cell_length_a 19.239223
_cell_length_b 8.744335
_cell_length_c 22.976306
_cell_angle_alpha 90.000000
_cell_angle_beta 90.000000
_cell_angle_gamma 90.000000
_cell_volume 3865.400713
_symmetry_space_group_name_H-M "P N M A"
_symmetry_group_IT_number 62
_symmetry_cell_setting 'orthorhombic'
loop_
_space_group_symop_operation_xyz
x,y,z
1/2-x,-y,1/2+z
1/2+x,1/2-y,1/2-z
-x,1/2+y,-z
-x,-y,-z
1/2+x,y,1/2-z
1/2-x,1/2+y,1/2+z
x,1/2-y,z
loop_
_atom_site_type_symbol
_atom_site_label
_atom_site_fract_x
_atom_site_fract_y
_atom_site_fract_z
Si Si1 0.497570 0.069095 0.613715
Si Si2 0.652005 0.425249 0.778648
Si Si3 0.863764 0.928191 0.944187
Si Si4 0.271366 0.574649 0.342913
Si Si5 0.135595 0.928445 0.934679
Si Si6 0.855704 0.069836 0.727755
Si Si7 0.995138 0.931139 0.245683
Si Si8 0.222389 0.073678 0.167330
O O1 0.484032 0.250000 0.610092
O O2 0.499351 0.007267 0.679836
O O3 0.437914 0.980334 0.579838
O O4 0.570408 0.030799 0.583804
O O5 0.652653 0.250000 0.798678
O O6 0.680674 0.442598 0.713576
O O7 0.573600 0.494801 0.778152
O O8 0.698487 0.516666 0.824934
O O9 0.868465 0.750000 0.960358
O O10 0.802651 0.959914 0.897919
O O11 0.843177 0.027127 0.000127
O O12 0.271245 0.750000 0.364739
O O13 0.298848 0.465689 0.393568
O O14 0.193332 0.517225 0.325761
O O15 0.117305 0.750000 0.930465
O O16 0.849399 0.250000 0.733665
O O17 0.935915 0.018954 0.718285
O O18 0.830097 0.008941 0.789372
O O19 0.987425 0.750000 0.241932
O O20 0.219413 0.250000 0.183032
#
# Coordination Sequence:
#
# PCOD8252201 Si02
#       8
#     8   8   8   8   8   8   8   8
#     4  11  20  34  52  70  99 132 168 204 236 282
#     4   9  17  31  51  72  97 129 161 193 237 291
#     4  11  23  37  50  68  97 131 170 207 245 287
#     4   9  17  31  49  71  97 128 162 200 242 283
#     4  12  24  35  49  69  96 132 172 206 243 287
#     4   9  17  31  52  73  96 127 162 196 238 290
#     4   9  16  29  51  76  98 128 164 195 230 285
#     4  10  20  32  47  71  98 125 159 203 246 284
#
# _framework density 16.557144999999998
#
# number of rings (size 3 to 8) (size 9 to 14) (size 15 to 20)
#    0.000    2.000    2.500    3.375    0.000    3.500 
#    0.000    0.625    0.000    0.000    0.000    0.875 
#    0.000    0.000    0.000    0.000    0.000    0.000 
#
# Total GULP energy -793518.441932 kJ/mol
# GULP energy per Si atom -12398.725655 kJ/mol
# Density = 1.651946 g / cm^3
# Si number density = 16.557145 Si / 1000 Ang^3
#
#
#
# Elastic Constant Matrix: (Units=GPa)
#
#
# Indices 1 2 3 4 5 6 
#
# 1 130.3666 16.1782 47.1943 0.0000 0.0000 0.0000
# 2 16.1782 19.6501 14.5521 0.0000 0.0000 0.0000
# 3 47.1943 14.5521 64.8909 0.0000 0.0000 0.0000
# 4 0.0000 0.0000 0.0000 23.4798 0.0000 0.0000
# 5 0.0000 0.0000 0.0000 0.0000 23.9185 0.0000
# 6 0.0000 0.0000 0.0000 0.0000 0.0000 20.6072
#
#
#
# Elastic Compliance Matrix: (Units=1/GPa)
#
#
# Indices 1 2 3 4 5 6 
#
# 1 0.010623 -0.003627 -0.006913 0.000000 0.000000 0.000000
# 2 -0.003627 0.062263 -0.011325 0.000000 0.000000 0.000000
# 3 -0.006913 -0.011325 0.022978 0.000000 0.000000 0.000000
# 4 0.000000 0.000000 0.000000 0.042590 0.000000 0.000000
# 5 0.000000 0.000000 0.000000 0.000000 0.041809 0.000000
# 6 0.000000 0.000000 0.000000 0.000000 0.000000 0.048527
#
#
# Mechanical properties :
#
#
# Convention : Reuss Voigt Hill
#
# Bulk Modulus (GPa) = 19.18101 41.19519 30.18810
# Shear Modulus (GPa) = 17.24748 22.73330 19.99039
#
# Velocity S-wave (km/s) = 3.23103 3.70945 3.47847
# Velocity P-wave (km/s) = 5.05265 6.57885 5.86560
#
# Compressibility (1/GPa) = 0.05213489
#
# Stress axis : x y z
#
# Youngs Moduli (GPa) = 94.13270 16.06081 43.52035
#
# Poissons Ratio (x) = 0.05825 0.30085
# Poissons Ratio (y) = 0.34141 0.49287
# Poissons Ratio (z) = 0.65072 0.18189
#
# Static dielectric constant tensor:
#      x y z
#    x 3.511710 0.000000 0.000000 
#    y 0.000000 3.033480 0.000000 
#    z 0.000000 0.000000 2.989410 
# 
# 
# High freq. dielectric constant tensor:
#      x y z
#    x 1.639670 0.000000 0.000000 
#    y 0.000000 1.632130 0.000000 
#    z 0.000000 0.000000 1.607900 
# 
# From -- ./inp_files/27915.got.cif
#   From: 2010.03.12/outbox.cif.g09.slc.cpg/sg62_14_cif.got.tgz:27915.got - 2010.04.10 19:12:36.
