data_PCOD8252065
_publ_section_title
;
Structure prediction by ZEFSAII (Michael W. Deem and Ramdas Pophale) SiO2 
 PCOD8252065
Probable space group: P N M A
;
_chemical_formula_sum "Si O2"
_cell_formula_units_Z 40
_cell_length_a 10.461872
_cell_length_b 9.008326
_cell_length_c 20.919681
_cell_angle_alpha 90.000000
_cell_angle_beta 90.000000
_cell_angle_gamma 90.000000
_cell_volume 1971.553444
_symmetry_space_group_name_H-M "P N M A"
_symmetry_group_IT_number 62
_symmetry_cell_setting 'orthorhombic'
loop_
_space_group_symop_operation_xyz
x,y,z
1/2-x,-y,1/2+z
1/2+x,1/2-y,1/2-z
-x,1/2+y,-z
-x,-y,-z
1/2+x,y,1/2-z
1/2-x,1/2+y,1/2+z
x,1/2-y,z
loop_
_atom_site_type_symbol
_atom_site_label
_atom_site_fract_x
_atom_site_fract_y
_atom_site_fract_z
Si Si1 0.984845 0.912932 0.402290
Si Si2 0.902564 0.425503 0.047648
Si Si3 0.591317 0.925333 0.691791
Si Si4 0.676281 0.587228 0.987083
Si Si5 0.877617 0.573721 0.710269
O O1 0.945064 0.750000 0.375050
O O2 0.052754 0.886855 0.469811
O O3 0.860979 0.015005 0.418183
O O4 0.078253 0.996578 0.354373
O O5 0.915873 0.250000 0.044584
O O6 0.924399 0.486186 0.119706
O O7 0.763798 0.473212 0.025124
O O8 0.000000 0.500000 0.000000
O O9 0.586419 0.750000 0.689777
O O10 0.471620 0.984864 0.733452
O O11 0.729134 0.973332 0.722246
O O12 0.740409 0.750000 0.974014
O O13 0.889025 0.750000 0.701432
#
# Coordination Sequence:
#
# PCOD8252065 Si02
#       5
#     8   8   8   8   8
#     4  10  20  34  56  87 116 147 188 240 296 348
#     4  11  22  38  58  86 120 156 197 247 301 360
#     4   9  20  36  59  85 115 153 201 244 293 353
#     4  10  20  35  57  84 114 152 194 238 291 352
#     4  10  19  37  60  84 113 155 199 246 292 354
#
# _framework density 20.288568999999999
#
# number of rings (size 3 to 8) (size 9 to 14) (size 15 to 20)
#    0.000    2.000    2.000    1.800    0.000    3.200 
#    0.000    7.000    0.000    0.000    0.000    0.000 
#    0.000    0.000    0.000    0.000    0.000    0.000 
#
# Total GULP energy -495724.490087 kJ/mol
# GULP energy per Si atom -12393.112252 kJ/mol
# Density = 2.024239 g / cm^3
# Si number density = 20.288569 Si / 1000 Ang^3
#
#
#
# Elastic Constant Matrix: (Units=GPa)
#
#
# Indices 1 2 3 4 5 6 
#
# 1 108.6252 31.0813 72.6774 0.0000 0.0000 0.0000
# 2 31.0813 81.9127 28.0375 0.0000 0.0000 0.0000
# 3 72.6774 28.0375 82.8862 0.0000 0.0000 0.0000
# 4 0.0000 0.0000 0.0000 23.2502 0.0000 0.0000
# 5 0.0000 0.0000 0.0000 0.0000 41.0355 0.0000
# 6 0.0000 0.0000 0.0000 0.0000 0.0000 25.5763
#
#
#
# Elastic Compliance Matrix: (Units=1/GPa)
#
#
# Indices 1 2 3 4 5 6 
#
# 1 0.022565 -0.002024 -0.019101 0.000000 0.000000 0.000000
# 2 -0.002024 0.013988 -0.002957 0.000000 0.000000 0.000000
# 3 -0.019101 -0.002957 0.029813 0.000000 0.000000 0.000000
# 4 0.000000 0.000000 0.000000 0.043010 0.000000 0.000000
# 5 0.000000 0.000000 0.000000 0.000000 0.024369 0.000000
# 6 0.000000 0.000000 0.000000 0.000000 0.000000 0.039099
#
#
# Mechanical properties :
#
#
# Convention : Reuss Voigt Hill
#
# Bulk Modulus (GPa) = 54.93762 59.66850 57.30306
# Shear Modulus (GPa) = 22.01900 27.41425 24.71663
#
# Velocity S-wave (km/s) = 3.29795 3.67988 3.49414
# Velocity P-wave (km/s) = 6.45282 6.89413 6.67712
#
# Compressibility (1/GPa) = 0.01820246
#
# Stress axis : x y z
#
# Youngs Moduli (GPa) = 44.31640 71.48846 33.54198
#
# Poissons Ratio (x) = 0.14470 0.64069
# Poissons Ratio (y) = 0.08970 0.09918
# Poissons Ratio (z) = 0.84649 0.21138
#
# Static dielectric constant tensor:
#      x y z
#    x 3.049840 0.000000 0.000000 
#    y 0.000000 3.998230 0.000000 
#    z 0.000000 0.000000 3.820910 
# 
# 
# High freq. dielectric constant tensor:
#      x y z
#    x 1.787640 0.000000 0.000000 
#    y 0.000000 1.782420 0.000000 
#    z 0.000000 0.000000 1.782890 
# 
# From -- ./inp_files/22780.got.cif
#   From: 2010.03.12/outbox.cif.g09.slc.cpg/sg62_12_cif.got.tgz:22780.got - 2010.04.10 19:12:36.
