data_PCOD8252540
_publ_section_title
;
Structure prediction by ZEFSAII (Michael W. Deem and Ramdas Pophale) SiO2 
 PCOD8252540
Probable space group: P N M A
;
_chemical_formula_sum "Si O2"
_cell_formula_units_Z 48
_cell_length_a 10.312616
_cell_length_b 13.066571
_cell_length_c 18.673020
_cell_angle_alpha 90.000000
_cell_angle_beta 90.000000
_cell_angle_gamma 90.000000
_cell_volume 2516.199326
_symmetry_space_group_name_H-M "P N M A"
_symmetry_group_IT_number 62
_symmetry_cell_setting 'orthorhombic'
loop_
_space_group_symop_operation_xyz
x,y,z
1/2-x,-y,1/2+z
1/2+x,1/2-y,1/2-z
-x,1/2+y,-z
-x,-y,-z
1/2+x,y,1/2-z
1/2-x,1/2+y,1/2+z
x,1/2-y,z
loop_
_atom_site_type_symbol
_atom_site_label
_atom_site_fract_x
_atom_site_fract_y
_atom_site_fract_z
Si Si1 0.676486 0.948451 0.345126
Si Si2 0.030530 0.637684 0.550021
Si Si3 0.041459 0.425361 0.602827
Si Si4 0.579987 0.367772 0.591266
Si Si5 0.305342 0.366688 0.807255
Si Si6 0.670753 0.364509 0.442275
O O1 0.564255 0.879274 0.379208
O O2 0.670810 0.942182 0.259477
O O3 0.815558 0.904764 0.367500
O O4 0.652511 0.064517 0.372360
O O5 0.990156 0.750000 0.580839
O O6 0.951963 0.615420 0.477927
O O7 0.181878 0.636630 0.531017
O O8 0.002819 0.546615 0.606469
O O9 0.937785 0.362640 0.647933
O O10 0.618089 0.250000 0.584097
O O11 0.686575 0.414455 0.646296
O O12 0.591793 0.411835 0.510145
O O13 0.275526 0.250000 0.781926
O O14 0.623934 0.250000 0.420996
#
# Coordination Sequence:
#
# PCOD8252540 Si02
#       6
#     8   8   8   8   8   8
#     4  11  22  33  53  84 109 136 177 227 262 309
#     4   9  17  33  57  81 104 136 179 222 262 308
#     4  10  20  34  56  81 105 138 179 220 260 312
#     4  10  20  35  55  78 109 143 174 215 271 324
#     4  11  22  37  55  77 111 146 172 211 276 332
#     4   9  18  36  57  76 103 147 183 211 261 323
#
# _framework density 19.076391000000001
#
# number of rings (size 3 to 8) (size 9 to 14) (size 15 to 20)
#    0.000    2.000    1.667    2.500    0.000    4.000 
#    0.000    0.833    0.000    3.000    0.000    0.000 
#    0.000    0.000    0.000    0.000    0.000    0.000 
#
# Total GULP energy -595032.280826 kJ/mol
# GULP energy per Si atom -12396.505851 kJ/mol
# Density = 1.903297 g / cm^3
# Si number density = 19.076391 Si / 1000 Ang^3
#
#
#
# Elastic Constant Matrix: (Units=GPa)
#
#
# Indices 1 2 3 4 5 6 
#
# 1 92.6453 11.8061 25.6232 0.0000 0.0000 0.0000
# 2 11.8061 80.8154 32.4921 0.0000 0.0000 0.0000
# 3 25.6232 32.4921 87.2860 0.0000 0.0000 0.0000
# 4 0.0000 0.0000 0.0000 25.5922 0.0000 0.0000
# 5 0.0000 0.0000 0.0000 0.0000 18.7131 0.0000
# 6 0.0000 0.0000 0.0000 0.0000 0.0000 22.9203
#
#
#
# Elastic Compliance Matrix: (Units=1/GPa)
#
#
# Indices 1 2 3 4 5 6 
#
# 1 0.011758 -0.000388 -0.003307 0.000000 0.000000 0.000000
# 2 -0.000388 0.014565 -0.005308 0.000000 0.000000 0.000000
# 3 -0.003307 -0.005308 0.014403 0.000000 0.000000 0.000000
# 4 0.000000 0.000000 0.000000 0.039074 0.000000 0.000000
# 5 0.000000 0.000000 0.000000 0.000000 0.053438 0.000000
# 6 0.000000 0.000000 0.000000 0.000000 0.000000 0.043629
#
#
# Mechanical properties :
#
#
# Convention : Reuss Voigt Hill
#
# Bulk Modulus (GPa) = 44.01428 44.50995 44.26212
# Shear Modulus (GPa) = 24.69779 26.16681 25.43230
#
# Velocity S-wave (km/s) = 3.60207 3.70765 3.65524
# Velocity P-wave (km/s) = 6.35788 6.45848 6.40838
#
# Compressibility (1/GPa) = 0.02271990
#
# Stress axis : x y z
#
# Youngs Moduli (GPa) = 85.04870 68.65989 69.42899
#
# Poissons Ratio (x) = 0.02664 0.22961
# Poissons Ratio (y) = 0.03300 0.36851
# Poissons Ratio (z) = 0.28127 0.36443
#
# Static dielectric constant tensor:
#      x y z
#    x 3.384210 0.000000 0.000000 
#    y 0.000000 3.601890 0.000000 
#    z 0.000000 0.000000 3.361890 
# 
# 
# High freq. dielectric constant tensor:
#      x y z
#    x 1.739660 0.000000 0.000000 
#    y 0.000000 1.731880 0.000000 
#    z 0.000000 0.000000 1.726330 
# 
# From -- ./inp_files/22230.got.cif
#   From: 2010.03.12/outbox.cif.g09.slc.cpg/sg62_12_cif.got.tgz:22230.got - 2010.04.10 19:12:36.
