data_PCOD8252052
_publ_section_title
;
Structure prediction by ZEFSAII (Michael W. Deem and Ramdas Pophale) SiO2 
 PCOD8252052
Probable space group: P N M A
;
_chemical_formula_sum "Si O2"
_cell_formula_units_Z 64
_cell_length_a 11.961137
_cell_length_b 9.080023
_cell_length_c 30.731059
_cell_angle_alpha 90.000000
_cell_angle_beta 90.000000
_cell_angle_gamma 90.000000
_cell_volume 3337.620389
_symmetry_space_group_name_H-M "P N M A"
_symmetry_group_IT_number 62
_symmetry_cell_setting 'orthorhombic'
loop_
_space_group_symop_operation_xyz
x,y,z
1/2-x,-y,1/2+z
1/2+x,1/2-y,1/2-z
-x,1/2+y,-z
-x,-y,-z
1/2+x,y,1/2-z
1/2-x,1/2+y,1/2+z
x,1/2-y,z
loop_
_atom_site_type_symbol
_atom_site_label
_atom_site_fract_x
_atom_site_fract_y
_atom_site_fract_z
Si Si1 0.283061 0.420302 0.699247
Si Si2 0.238144 0.576043 0.048025
Si Si3 0.611388 0.076602 0.873116
Si Si4 0.735861 0.080140 0.539476
Si Si5 0.497067 0.075772 0.330955
Si Si6 0.496252 0.579935 0.420179
Si Si7 0.638499 0.574680 0.125227
Si Si8 0.208453 0.078332 0.795997
O O1 0.314914 0.250000 0.690547
O O2 0.172274 0.463086 0.672096
O O3 0.381253 0.523181 0.682848
O O4 0.264130 0.451493 0.749679
O O5 0.246648 0.750000 0.043881
O O6 0.318086 0.513761 0.086100
O O7 0.111571 0.526581 0.058408
O O8 0.277510 0.507046 0.002673
O O9 0.601839 0.250000 0.878776
O O10 0.486855 0.008207 0.872667
O O11 0.765602 0.250000 0.532343
O O12 0.603066 0.057314 0.545369
O O13 0.801832 0.017862 0.581382
O O14 0.492511 0.250000 0.330274
O O15 0.467191 0.017991 0.378702
O O16 0.406625 0.011430 0.297424
O O17 0.504065 0.750000 0.405107
O O18 0.636410 0.750000 0.126201
O O19 0.707041 0.518412 0.167132
O O20 0.180710 0.250000 0.802660
#
# Coordination Sequence:
#
# PCOD8252052 Si02
#       8
#     8   8   8   8   8   8   8   8
#     4  10  21  38  64  90 114 149 198 243 281 341
#     4  10  20  34  55  81 114 148 187 240 289 346
#     4   9  18  34  56  84 114 145 186 241 291 330
#     4  10  20  34  55  81 114 148 187 240 289 346
#     4  12  24  37  59  88 125 158 185 235 296 353
#     4  10  19  37  59  82 112 150 196 243 287 335
#     4   9  18  34  56  84 114 145 186 241 291 330
#     4  10  21  38  64  90 114 149 198 243 281 341
#
# _framework density 19.175336999999999
#
# number of rings (size 3 to 8) (size 9 to 14) (size 15 to 20)
#    0.000    2.000    2.500    1.500    1.750    2.000 
#    0.000    0.000    0.000    1.500    0.000    0.000 
#    0.000    0.000    0.000    0.000    0.000    0.000 
#
# Total GULP energy -793753.387899 kJ/mol
# GULP energy per Si atom -12402.396686 kJ/mol
# Density = 1.913169 g / cm^3
# Si number density = 19.175337 Si / 1000 Ang^3
#
#
#
# Elastic Constant Matrix: (Units=GPa)
#
#
# Indices 1 2 3 4 5 6 
#
# 1 113.8935 16.0224 36.1232 0.0000 0.0000 0.0000
# 2 16.0224 48.3759 24.0665 0.0000 0.0000 0.0000
# 3 36.1232 24.0665 125.2099 0.0000 0.0000 0.0000
# 4 0.0000 0.0000 0.0000 21.6071 0.0000 0.0000
# 5 0.0000 0.0000 0.0000 0.0000 22.5035 0.0000
# 6 0.0000 0.0000 0.0000 0.0000 0.0000 14.9443
#
#
#
# Elastic Compliance Matrix: (Units=1/GPa)
#
#
# Indices 1 2 3 4 5 6 
#
# 1 0.009844 -0.002043 -0.002447 0.000000 0.000000 0.000000
# 2 -0.002043 0.023281 -0.003885 0.000000 0.000000 0.000000
# 3 -0.002447 -0.003885 0.009439 0.000000 0.000000 0.000000
# 4 0.000000 0.000000 0.000000 0.046281 0.000000 0.000000
# 5 0.000000 0.000000 0.000000 0.000000 0.044437 0.000000
# 6 0.000000 0.000000 0.000000 0.000000 0.000000 0.066915
#
#
# Mechanical properties :
#
#
# Convention : Reuss Voigt Hill
#
# Bulk Modulus (GPa) = 38.74010 48.87818 43.80914
# Shear Modulus (GPa) = 22.16772 25.89548 24.03160
#
# Velocity S-wave (km/s) = 3.40377 3.67884 3.54398
# Velocity P-wave (km/s) = 5.97448 6.60232 6.29623
#
# Compressibility (1/GPa) = 0.02581305
#
# Stress axis : x y z
#
# Youngs Moduli (GPa) = 101.58778 42.95347 105.93836
#
# Poissons Ratio (x) = 0.08775 0.25926
# Poissons Ratio (y) = 0.20752 0.41162
# Poissons Ratio (z) = 0.24861 0.16689
#
# Static dielectric constant tensor:
#      x y z
#    x 3.721910 0.000000 0.000000 
#    y 0.000000 3.112620 0.000000 
#    z 0.000000 0.000000 3.590330 
# 
# 
# High freq. dielectric constant tensor:
#      x y z
#    x 1.754270 0.000000 0.000000 
#    y 0.000000 1.702070 0.000000 
#    z 0.000000 0.000000 1.755550 
# 
# From -- ./inp_files/32609.got.cif
#   From: 2010.03.12/outbox.cif.g09.slc.cpg/sg62_17_cif.got.tgz:32609.got - 2010.04.10 19:12:36.
