data_PCOD8252285
_publ_section_title
;
Structure prediction by ZEFSAII (Michael W. Deem and Ramdas Pophale) SiO2 
 PCOD8252285
Probable space group: P N M A
;
_chemical_formula_sum "Si O2"
_cell_formula_units_Z 56
_cell_length_a 21.497156
_cell_length_b 9.709680
_cell_length_c 14.537359
_cell_angle_alpha 90.000000
_cell_angle_beta 90.000000
_cell_angle_gamma 90.000000
_cell_volume 3034.390295
_symmetry_space_group_name_H-M "P N M A"
_symmetry_group_IT_number 62
_symmetry_cell_setting 'orthorhombic'
loop_
_space_group_symop_operation_xyz
x,y,z
1/2-x,-y,1/2+z
1/2+x,1/2-y,1/2-z
-x,1/2+y,-z
-x,-y,-z
1/2+x,y,1/2-z
1/2-x,1/2+y,1/2+z
x,1/2-y,z
loop_
_atom_site_type_symbol
_atom_site_label
_atom_site_fract_x
_atom_site_fract_y
_atom_site_fract_z
Si Si1 0.458853 0.902963 0.628659
Si Si2 0.601022 0.596769 0.672447
Si Si3 0.437236 0.911970 0.989609
Si Si4 0.784779 0.088909 0.814079
Si Si5 0.625453 0.409828 0.201791
Si Si6 0.857423 0.589826 0.332785
Si Si7 0.625410 0.592062 0.476208
O O1 0.437209 0.750000 0.600822
O O2 0.532032 0.913178 0.633888
O O3 0.430126 0.941285 0.727759
O O4 0.435075 0.005108 0.550482
O O5 0.615126 0.750000 0.711093
O O6 0.607750 0.487143 0.751637
O O7 0.644204 0.564249 0.582994
O O8 0.454858 0.750000 0.988512
O O9 0.390006 0.949141 0.071644
O O10 0.400475 0.954455 0.897512
O O11 0.500000 0.000000 0.000000
O O12 0.790915 0.250000 0.789482
O O13 0.714110 0.043292 0.830995
O O14 0.817329 0.052114 0.910780
O O15 0.814591 0.001322 0.730462
O O16 0.645918 0.250000 0.201408
O O17 0.863901 0.750000 0.312539
O O18 0.606138 0.750000 0.463193
#
# Coordination Sequence:
#
# PCOD8252285 Si02
#       7
#     8   8   8   8   8   8   8
#     4   9  17  30  49  76 107 132 160 202 249 300
#     4  10  20  33  51  76 103 133 168 206 251 301
#     4  10  21  37  57  81 109 142 180 222 269 319
#     4   9  19  36  53  73 103 135 172 216 260 310
#     4   9  18  33  54  77 102 136 174 213 259 311
#     4  10  22  37  52  73 103 138 174 216 263 308
#     4   9  18  32  52  76 101 132 167 203 247 301
#
# _framework density 18.455107999999999
#
# number of rings (size 3 to 8) (size 9 to 14) (size 15 to 20)
#    0.000    2.571    0.000    1.286    0.000    5.143 
#    0.000    5.714    0.000    0.000    0.000    0.000 
#    0.000    0.000    0.000    0.000    0.000    0.000 
#
# Total GULP energy -694329.415755 kJ/mol
# GULP energy per Si atom -12398.739567 kJ/mol
# Density = 1.841310 g / cm^3
# Si number density = 18.455108 Si / 1000 Ang^3
#
#
#
# Elastic Constant Matrix: (Units=GPa)
#
#
# Indices 1 2 3 4 5 6 
#
# 1 81.0319 40.6037 39.1384 0.0000 0.0000 0.0000
# 2 40.6037 60.5111 50.9850 0.0000 0.0000 0.0000
# 3 39.1384 50.9850 120.3478 0.0000 0.0000 0.0000
# 4 0.0000 0.0000 0.0000 30.5101 0.0000 0.0000
# 5 0.0000 0.0000 0.0000 0.0000 23.1399 0.0000
# 6 0.0000 0.0000 0.0000 0.0000 0.0000 27.1461
#
#
#
# Elastic Compliance Matrix: (Units=1/GPa)
#
#
# Indices 1 2 3 4 5 6 
#
# 1 0.018701 -0.011546 -0.001191 0.000000 0.000000 0.000000
# 2 -0.011546 0.032827 -0.010152 0.000000 0.000000 0.000000
# 3 -0.001191 -0.010152 0.012998 0.000000 0.000000 0.000000
# 4 0.000000 0.000000 0.000000 0.032776 0.000000 0.000000
# 5 0.000000 0.000000 0.000000 0.000000 0.043215 0.000000
# 6 0.000000 0.000000 0.000000 0.000000 0.000000 0.036838
#
#
# Mechanical properties :
#
#
# Convention : Reuss Voigt Hill
#
# Bulk Modulus (GPa) = 53.33683 58.14945 55.74314
# Shear Modulus (GPa) = 21.79771 24.90345 23.35058
#
# Velocity S-wave (km/s) = 3.44047 3.67741 3.56091
# Velocity P-wave (km/s) = 6.68925 7.04331 6.86856
#
# Compressibility (1/GPa) = 0.01874877
#
# Stress axis : x y z
#
# Youngs Moduli (GPa) = 53.47269 30.46247 76.93787
#
# Poissons Ratio (x) = 0.35171 0.09160
# Poissons Ratio (y) = 0.61737 0.78111
# Poissons Ratio (z) = 0.06366 0.30927
#
# Static dielectric constant tensor:
#      x y z
#    x 3.345860 0.000000 0.000000 
#    y 0.000000 3.579100 0.000000 
#    z 0.000000 0.000000 3.520540 
# 
# 
# High freq. dielectric constant tensor:
#      x y z
#    x 1.708880 0.000000 0.000000 
#    y 0.000000 1.712900 0.000000 
#    z 0.000000 0.000000 1.722630 
# 
# From -- ./inp_files/20423.got.cif
#   From: 2010.03.12/outbox.cif.g09.slc.cpg/sg62_11_cif.got.tgz:20423.got - 2010.04.10 19:12:36.
