data_PCOD8252656
_publ_section_title
;
Structure prediction by ZEFSAII (Michael W. Deem and Ramdas Pophale) SiO2 
 PCOD8252656
Probable space group: P N M A
;
_chemical_formula_sum "Si O2"
_cell_formula_units_Z 40
_cell_length_a 11.810054
_cell_length_b 13.681234
_cell_length_c 12.407804
_cell_angle_alpha 90.000000
_cell_angle_beta 90.000000
_cell_angle_gamma 90.000000
_cell_volume 2004.804733
_symmetry_space_group_name_H-M "P N M A"
_symmetry_group_IT_number 62
_symmetry_cell_setting 'orthorhombic'
loop_
_space_group_symop_operation_xyz
x,y,z
1/2-x,-y,1/2+z
1/2+x,1/2-y,1/2-z
-x,1/2+y,-z
-x,-y,-z
1/2+x,y,1/2-z
1/2-x,1/2+y,1/2+z
x,1/2-y,z
loop_
_atom_site_type_symbol
_atom_site_label
_atom_site_fract_x
_atom_site_fract_y
_atom_site_fract_z
Si Si1 0.262617 0.139396 0.712173
Si Si2 0.591622 0.522751 0.854746
Si Si3 0.118663 0.948365 0.876311
Si Si4 0.983847 0.361874 0.923594
Si Si5 0.341931 0.036138 0.914690
O O1 0.224525 0.250000 0.697966
O O2 0.156780 0.078067 0.669248
O O3 0.371475 0.112878 0.641771
O O4 0.296288 0.121118 0.836856
O O5 0.606486 0.589069 0.747492
O O6 0.459794 0.504886 0.871997
O O7 0.644273 0.573879 0.961636
O O8 0.250678 0.947114 0.910915
O O9 0.079398 0.062550 0.885644
O O10 0.043532 0.877605 0.949880
O O11 0.024708 0.250000 0.905115
#
# Coordination Sequence:
#
# PCOD8252656 Si02
#       5
#     8   8   8   8   8
#     4  10  20  35  55  81 110 145 187 233 279 334
#     4  10  20  35  56  82 112 146 185 230 289 342
#     4  10  20  35  60  82 111 155 187 228 287 338
#     4  10  20  36  56  83 110 145 193 233 272 336
#     4  10  20  35  54  83 111 144 182 233 284 341
#
# _framework density 19.952065999999999
#
# number of rings (size 3 to 8) (size 9 to 14) (size 15 to 20)
#    0.000    2.000    4.000    0.000    0.000    4.000 
#    0.000    1.000    0.000    4.800    0.000    0.000 
#    0.000    0.000    0.000    0.000    0.000    0.000 
#
# Total GULP energy -495739.546382 kJ/mol
# GULP energy per Si atom -12393.488660 kJ/mol
# Density = 1.990665 g / cm^3
# Si number density = 19.952066 Si / 1000 Ang^3
#
#
#
# Elastic Constant Matrix: (Units=GPa)
#
#
# Indices 1 2 3 4 5 6 
#
# 1 102.8696 14.7630 30.5059 0.0000 0.0000 0.0000
# 2 14.7630 41.6882 4.7266 0.0000 0.0000 0.0000
# 3 30.5059 4.7266 148.5954 0.0000 0.0000 0.0000
# 4 0.0000 0.0000 0.0000 16.7862 0.0000 0.0000
# 5 0.0000 0.0000 0.0000 0.0000 32.8538 0.0000
# 6 0.0000 0.0000 0.0000 0.0000 0.0000 12.7734
#
#
#
# Elastic Compliance Matrix: (Units=1/GPa)
#
#
# Indices 1 2 3 4 5 6 
#
# 1 0.010866 -0.003608 -0.002116 0.000000 0.000000 0.000000
# 2 -0.003608 0.025273 -0.000063 0.000000 0.000000 0.000000
# 3 -0.002116 -0.000063 0.007166 0.000000 0.000000 0.000000
# 4 0.000000 0.000000 0.000000 0.059573 0.000000 0.000000
# 5 0.000000 0.000000 0.000000 0.000000 0.030438 0.000000
# 6 0.000000 0.000000 0.000000 0.000000 0.000000 0.078287
#
#
# Mechanical properties :
#
#
# Convention : Reuss Voigt Hill
#
# Bulk Modulus (GPa) = 31.51563 43.68268 37.59915
# Shear Modulus (GPa) = 21.38995 28.69320 25.04157
#
# Velocity S-wave (km/s) = 3.27780 3.79635 3.54656
# Velocity P-wave (km/s) = 5.49138 6.41543 5.97130
#
# Compressibility (1/GPa) = 0.03173029
#
# Stress axis : x y z
#
# Youngs Moduli (GPa) = 92.02701 39.56865 139.54587
#
# Poissons Ratio (x) = 0.14277 0.29528
# Poissons Ratio (y) = 0.33205 0.00881
# Poissons Ratio (z) = 0.19473 0.00250
#
# Static dielectric constant tensor:
#      x y z
#    x 3.775300 0.000000 0.000000 
#    y 0.000000 3.063400 0.000000 
#    z 0.000000 0.000000 4.145520 
# 
# 
# High freq. dielectric constant tensor:
#      x y z
#    x 1.798060 0.000000 0.000000 
#    y 0.000000 1.713300 0.000000 
#    z 0.000000 0.000000 1.805360 
# 
# From -- ./inp_files/12041.got.cif
#   From: 2010.03.12/outbox.cif.g09.slc.cpg/sg62_7_cif.got.tgz:12041.got - 2010.04.10 19:12:36.
