data_PCOD8252605
_publ_section_title
;
Structure prediction by ZEFSAII (Michael W. Deem and Ramdas Pophale) SiO2 
 PCOD8252605
Probable space group: P N M A
;
_chemical_formula_sum "Si O2"
_cell_formula_units_Z 40
_cell_length_a 9.951772
_cell_length_b 7.665146
_cell_length_c 25.585919
_cell_angle_alpha 90.000000
_cell_angle_beta 90.000000
_cell_angle_gamma 90.000000
_cell_volume 1951.739581
_symmetry_space_group_name_H-M "P N M A"
_symmetry_group_IT_number 62
_symmetry_cell_setting 'orthorhombic'
loop_
_space_group_symop_operation_xyz
x,y,z
1/2-x,-y,1/2+z
1/2+x,1/2-y,1/2-z
-x,1/2+y,-z
-x,-y,-z
1/2+x,y,1/2-z
1/2-x,1/2+y,1/2+z
x,1/2-y,z
loop_
_atom_site_type_symbol
_atom_site_label
_atom_site_fract_x
_atom_site_fract_y
_atom_site_fract_z
Si Si1 0.099059 0.250000 0.694132
Si Si2 0.030008 0.057644 0.597116
Si Si3 0.974371 0.950974 0.870208
Si Si4 0.907018 0.250000 0.791449
Si Si5 0.236130 0.458478 0.925200
Si Si6 0.216743 0.054660 0.041072
O O1 0.078578 0.077528 0.657610
O O2 0.247124 0.250000 0.719302
O O3 0.983222 0.250000 0.736872
O O4 0.026726 0.250000 0.570487
O O5 0.881859 0.974695 0.594014
O O6 0.132878 0.942446 0.564054
O O7 0.934219 0.750000 0.856988
O O8 0.885214 0.033843 0.917643
O O9 0.129796 0.956378 0.886187
O O10 0.949408 0.073297 0.820734
O O11 0.226345 0.250000 0.922390
O O12 0.211104 0.533099 0.983896
O O13 0.165809 0.250000 0.033884
#
# Coordination Sequence:
#
# PCOD8252605 Si02
#       6
#     4   8   8   4   8   8
#     4  10  24  40  72  90 112 172 212 260 333 366
#     4   9  19  37  57  88 118 158 212 253 310 379
#     4  11  23  40  62  92 127 163 209 259 312 373
#     4  12  24  46  70  88 126 160 210 276 315 364
#     4  10  20  34  59  89 130 171 207 250 302 384
#     4  10  20  35  56  89 127 171 207 251 314 370
#
# _framework density 20.494537000000001
#
# number of rings (size 3 to 8) (size 9 to 14) (size 15 to 20)
#    0.600    1.200    3.000    1.200    2.800    1.600 
#    0.000    2.000    0.000    0.000    0.000    0.000 
#    0.000    0.000    0.000    0.000    0.000    0.000 
#
# Total GULP energy -495825.316256 kJ/mol
# GULP energy per Si atom -12395.632906 kJ/mol
# Density = 2.044789 g / cm^3
# Si number density = 20.494537 Si / 1000 Ang^3
#
#
#
# Elastic Constant Matrix: (Units=GPa)
#
#
# Indices 1 2 3 4 5 6 
#
# 1 104.3814 -1.4362 9.0363 0.0000 0.0000 0.0000
# 2 -1.4362 53.7439 14.3131 0.0000 0.0000 0.0000
# 3 9.0363 14.3131 79.3295 0.0000 0.0000 0.0000
# 4 0.0000 0.0000 0.0000 17.7759 0.0000 0.0000
# 5 0.0000 0.0000 0.0000 0.0000 44.1573 0.0000
# 6 0.0000 0.0000 0.0000 0.0000 0.0000 18.4131
#
#
#
# Elastic Compliance Matrix: (Units=1/GPa)
#
#
# Indices 1 2 3 4 5 6 
#
# 1 0.009693 0.000581 -0.001209 0.000000 0.000000 0.000000
# 2 0.000581 0.019581 -0.003599 0.000000 0.000000 0.000000
# 3 -0.001209 -0.003599 0.013393 0.000000 0.000000 0.000000
# 4 0.000000 0.000000 0.000000 0.056256 0.000000 0.000000
# 5 0.000000 0.000000 0.000000 0.000000 0.022646 0.000000
# 6 0.000000 0.000000 0.000000 0.000000 0.000000 0.054309
#
#
# Mechanical properties :
#
#
# Convention : Reuss Voigt Hill
#
# Bulk Modulus (GPa) = 29.22915 31.25346 30.24131
# Shear Modulus (GPa) = 25.54462 30.43870 27.99166
#
# Velocity S-wave (km/s) = 3.53428 3.85802 3.69970
# Velocity P-wave (km/s) = 5.56307 5.92694 5.74788
#
# Compressibility (1/GPa) = 0.03421242
#
# Stress axis : x y z
#
# Youngs Moduli (GPa) = 103.16825 51.07044 74.66747
#
# Poissons Ratio (x) = -0.02967 0.09027
# Poissons Ratio (y) = -0.05994 0.26873
# Poissons Ratio (z) = 0.12472 0.18381
#
# Static dielectric constant tensor:
#      x y z
#    x 3.801410 0.000000 0.000000 
#    y 0.000000 3.384120 0.000000 
#    z 0.000000 0.000000 3.550820 
# 
# 
# High freq. dielectric constant tensor:
#      x y z
#    x 1.818570 0.000000 0.000000 
#    y 0.000000 1.774460 0.000000 
#    z 0.000000 0.000000 1.780700 
# 
# From -- ./inp_files/30685.got.cif
#   From: 2010.03.12/outbox.cif.g09.slc.cpg/sg62_16_cif.got.tgz:30685.got - 2010.04.10 19:12:36.
