data_PCOD8252797
_publ_section_title
;
Structure prediction by ZEFSAII (Michael W. Deem and Ramdas Pophale) SiO2 
 PCOD8252797
Probable space group: P N M A
;
_chemical_formula_sum "Si O2"
_cell_formula_units_Z 48
_cell_length_a 11.589072
_cell_length_b 9.077999
_cell_length_c 23.439791
_cell_angle_alpha 90.000000
_cell_angle_beta 90.000000
_cell_angle_gamma 90.000000
_cell_volume 2465.996902
_symmetry_space_group_name_H-M "P N M A"
_symmetry_group_IT_number 62
_symmetry_cell_setting 'orthorhombic'
loop_
_space_group_symop_operation_xyz
x,y,z
1/2-x,-y,1/2+z
1/2+x,1/2-y,1/2-z
-x,1/2+y,-z
-x,-y,-z
1/2+x,y,1/2-z
1/2-x,1/2+y,1/2+z
x,1/2-y,z
loop_
_atom_site_type_symbol
_atom_site_label
_atom_site_fract_x
_atom_site_fract_y
_atom_site_fract_z
Si Si1 0.961911 0.080921 0.555128
Si Si2 0.994197 0.574266 0.062563
Si Si3 0.086685 0.913190 0.643383
Si Si4 0.624406 0.418709 0.221347
Si Si5 0.743303 0.076336 0.624016
Si Si6 0.646218 0.418538 0.346899
O O1 0.957223 0.250000 0.540876
O O2 0.837881 0.025232 0.577480
O O3 0.000000 0.000000 0.500000
O O4 0.060330 0.044732 0.600421
O O5 0.000177 0.750000 0.054491
O O6 0.100735 0.518345 0.101027
O O7 0.879287 0.527001 0.097679
O O8 0.000000 0.500000 0.000000
O O9 0.063541 0.750000 0.616679
O O10 0.217557 0.929613 0.660216
O O11 0.003901 0.935994 0.697208
O O12 0.666238 0.250000 0.224160
O O13 0.723515 0.501709 0.184455
O O14 0.606356 0.480629 0.285450
O O15 0.747779 0.250000 0.634367
O O16 0.606232 0.250000 0.358055
#
# Coordination Sequence:
#
# PCOD8252797 Si02
#       6
#     8   8   8   8   8   8
#     4  10  20  35  57  83 110 145 188 235 287 341
#     4  11  25  43  61  86 119 161 205 246 296 356
#     4   9  19  36  55  83 118 148 186 236 287 340
#     4   9  19  36  62  91 116 150 194 237 290 351
#     4   9  21  40  59  82 117 153 189 240 294 343
#     4  10  22  38  61  89 120 155 192 243 294 347
#
# _framework density 19.464745000000001
#
# number of rings (size 3 to 8) (size 9 to 14) (size 15 to 20)
#    0.000    2.333    0.000    1.000    4.667    3.333 
#    0.000    0.000    0.000    0.000    0.000    0.000 
#    0.000    0.000    0.000    0.000    0.000    0.000 
#
# Total GULP energy -594909.744912 kJ/mol
# GULP energy per Si atom -12393.953019 kJ/mol
# Density = 1.942044 g / cm^3
# Si number density = 19.464745 Si / 1000 Ang^3
#
#
#
# Elastic Constant Matrix: (Units=GPa)
#
#
# Indices 1 2 3 4 5 6 
#
# 1 90.3591 32.9601 54.9170 0.0000 0.0000 0.0000
# 2 32.9601 52.0685 44.3534 0.0000 0.0000 0.0000
# 3 54.9170 44.3534 138.5949 0.0000 0.0000 0.0000
# 4 0.0000 0.0000 0.0000 34.0553 0.0000 0.0000
# 5 0.0000 0.0000 0.0000 0.0000 21.1499 0.0000
# 6 0.0000 0.0000 0.0000 0.0000 0.0000 28.7475
#
#
#
# Elastic Compliance Matrix: (Units=1/GPa)
#
#
# Indices 1 2 3 4 5 6 
#
# 1 0.016039 -0.006515 -0.004270 0.000000 0.000000 0.000000
# 2 -0.006515 0.029050 -0.006715 0.000000 0.000000 0.000000
# 3 -0.004270 -0.006715 0.011056 0.000000 0.000000 0.000000
# 4 0.000000 0.000000 0.000000 0.029364 0.000000 0.000000
# 5 0.000000 0.000000 0.000000 0.000000 0.047282 0.000000
# 6 0.000000 0.000000 0.000000 0.000000 0.000000 0.034786
#
#
# Mechanical properties :
#
#
# Convention : Reuss Voigt Hill
#
# Bulk Modulus (GPa) = 47.29500 60.60929 53.95215
# Shear Modulus (GPa) = 23.85215 26.71001 25.28108
#
# Velocity S-wave (km/s) = 3.50437 3.70837 3.60782
# Velocity P-wave (km/s) = 6.38159 7.03858 6.71812
#
# Compressibility (1/GPa) = 0.02114388
#
# Stress axis : x y z
#
# Youngs Moduli (GPa) = 62.34881 34.42377 90.44691
#
# Poissons Ratio (x) = 0.22428 0.38622
# Poissons Ratio (y) = 0.40622 0.60734
# Poissons Ratio (z) = 0.26624 0.23115
#
# Static dielectric constant tensor:
#      x y z
#    x 3.736810 0.000000 0.000000 
#    y 0.000000 3.691470 0.000000 
#    z 0.000000 0.000000 2.845870 
# 
# 
# High freq. dielectric constant tensor:
#      x y z
#    x 1.761010 0.000000 0.000000 
#    y 0.000000 1.751270 0.000000 
#    z 0.000000 0.000000 1.764590 
# 
# From -- ./inp_files/29229.got.cif
#   From: 2010.03.12/outbox.cif.g09.slc.cpg/sg62_15_cif.got.tgz:29229.got - 2010.04.10 19:12:36.
