data_PCOD8252465
_publ_section_title
;
Structure prediction by ZEFSAII (Michael W. Deem and Ramdas Pophale) SiO2 
 PCOD8252465
Probable space group: P N M A
;
_chemical_formula_sum "Si O2"
_cell_formula_units_Z 64
_cell_length_a 20.747514
_cell_length_b 8.642855
_cell_length_c 19.327925
_cell_angle_alpha 90.000000
_cell_angle_beta 90.000000
_cell_angle_gamma 90.000000
_cell_volume 3465.840122
_symmetry_space_group_name_H-M "P N M A"
_symmetry_group_IT_number 62
_symmetry_cell_setting 'orthorhombic'
loop_
_space_group_symop_operation_xyz
x,y,z
1/2-x,-y,1/2+z
1/2+x,1/2-y,1/2-z
-x,1/2+y,-z
-x,-y,-z
1/2+x,y,1/2-z
1/2-x,1/2+y,1/2+z
x,1/2-y,z
loop_
_atom_site_type_symbol
_atom_site_label
_atom_site_fract_x
_atom_site_fract_y
_atom_site_fract_z
Si Si1 0.932638 0.430909 0.203771
Si Si2 0.871003 0.570946 0.077041
Si Si3 0.622019 0.428323 0.421072
Si Si4 0.740276 0.069898 0.925055
Si Si5 0.188288 0.931310 0.705161
Si Si6 0.564267 0.569837 0.292043
Si Si7 0.766107 0.571233 0.580406
Si Si8 0.692514 0.930735 0.214012
O O1 0.929516 0.250000 0.188604
O O2 0.925376 0.522726 0.131538
O O3 0.876838 0.482845 0.256418
O O4 0.001663 0.478121 0.235360
O O5 0.851432 0.750000 0.085458
O O6 0.808791 0.466570 0.091764
O O7 0.898111 0.538723 0.000265
O O8 0.612493 0.250000 0.400975
O O9 0.696254 0.471605 0.409041
O O10 0.576767 0.531144 0.372457
O O11 0.758062 0.250000 0.918709
O O12 0.687755 0.020987 0.868158
O O13 0.713152 0.032165 0.001622
O O14 0.189174 0.750000 0.690682
O O15 0.249603 0.975865 0.751158
O O16 0.551074 0.750000 0.283217
O O17 0.625074 0.514926 0.246619
O O18 0.777047 0.750000 0.598076
O O19 0.809400 0.469397 0.632298
O O20 0.704044 0.750000 0.226932
#
# Coordination Sequence:
#
# PCOD8252465 Si02
#       8
#     8   8   8   8   8   8   8   8
#     4  11  24  39  56  80 111 149 189 231 280 333
#     4  10  20  34  54  80 111 149 189 228 273 327
#     4  10  20  34  54  80 111 149 189 228 273 327
#     4  10  20  34  55  84 115 146 183 229 279 330
#     4  11  22  36  58  85 112 146 187 231 280 331
#     4  11  24  39  56  80 111 149 189 231 280 333
#     4  10  20  34  55  84 115 146 183 229 279 330
#     4  11  22  36  58  85 112 146 187 231 280 331
#
# _framework density 18.46594
#
# number of rings (size 3 to 8) (size 9 to 14) (size 15 to 20)
#    0.000    1.500    2.500    3.000    0.000    6.500 
#    0.000    0.000    0.000    0.750    0.000    0.000 
#    0.000    0.000    0.000    0.000    0.000    0.000 
#
# Total GULP energy -793881.305653 kJ/mol
# GULP energy per Si atom -12404.395401 kJ/mol
# Density = 1.842391 g / cm^3
# Si number density = 18.465940 Si / 1000 Ang^3
#
#
#
# Elastic Constant Matrix: (Units=GPa)
#
#
# Indices 1 2 3 4 5 6 
#
# 1 101.4490 20.7956 53.2695 0.0000 0.0000 0.0000
# 2 20.7956 39.9564 26.9788 0.0000 0.0000 0.0000
# 3 53.2695 26.9788 109.8130 0.0000 0.0000 0.0000
# 4 0.0000 0.0000 0.0000 31.8491 0.0000 0.0000
# 5 0.0000 0.0000 0.0000 0.0000 23.4601 0.0000
# 6 0.0000 0.0000 0.0000 0.0000 0.0000 28.3384
#
#
#
# Elastic Compliance Matrix: (Units=1/GPa)
#
#
# Indices 1 2 3 4 5 6 
#
# 1 0.013545 -0.003133 -0.005801 0.000000 0.000000 0.000000
# 2 -0.003133 0.030729 -0.006030 0.000000 0.000000 0.000000
# 3 -0.005801 -0.006030 0.013402 0.000000 0.000000 0.000000
# 4 0.000000 0.000000 0.000000 0.031398 0.000000 0.000000
# 5 0.000000 0.000000 0.000000 0.000000 0.042626 0.000000
# 6 0.000000 0.000000 0.000000 0.000000 0.000000 0.035288
#
#
# Mechanical properties :
#
#
# Convention : Reuss Voigt Hill
#
# Bulk Modulus (GPa) = 36.03743 50.36735 43.20239
# Shear Modulus (GPa) = 24.25240 26.74116 25.49678
#
# Velocity S-wave (km/s) = 3.62796 3.80956 3.71987
# Velocity P-wave (km/s) = 6.09159 6.83267 6.47274
#
# Compressibility (1/GPa) = 0.02774893
#
# Stress axis : x y z
#
# Youngs Moduli (GPa) = 73.82550 32.54238 74.61649
#
# Poissons Ratio (x) = 0.10195 0.43286
# Poissons Ratio (y) = 0.23129 0.44992
# Poissons Ratio (z) = 0.42827 0.19622
#
# Static dielectric constant tensor:
#      x y z
#    x 3.194550 0.000000 0.000000 
#    y 0.000000 3.421800 0.000000 
#    z 0.000000 0.000000 3.630730 
# 
# 
# High freq. dielectric constant tensor:
#      x y z
#    x 1.686390 0.000000 0.000000 
#    y 0.000000 1.730110 0.000000 
#    z 0.000000 0.000000 1.719840 
# 
# From -- ./inp_files/27621.got.cif
#   From: 2010.03.12/outbox.cif.g09.slc.cpg/sg62_14_cif.got.tgz:27621.got - 2010.04.10 19:12:36.
