data_PCOD8252287
_publ_section_title
;
Structure prediction by ZEFSAII (Michael W. Deem and Ramdas Pophale) SiO2 
 PCOD8252287
Probable space group: P N M A
;
_chemical_formula_sum "Si O2"
_cell_formula_units_Z 64
_cell_length_a 16.774408
_cell_length_b 9.178676
_cell_length_c 22.312909
_cell_angle_alpha 90.000000
_cell_angle_beta 90.000000
_cell_angle_gamma 90.000000
_cell_volume 3435.448450
_symmetry_space_group_name_H-M "P N M A"
_symmetry_group_IT_number 62
_symmetry_cell_setting 'orthorhombic'
loop_
_space_group_symop_operation_xyz
x,y,z
1/2-x,-y,1/2+z
1/2+x,1/2-y,1/2-z
-x,1/2+y,-z
-x,-y,-z
1/2+x,y,1/2-z
1/2-x,1/2+y,1/2+z
x,1/2-y,z
loop_
_atom_site_type_symbol
_atom_site_label
_atom_site_fract_x
_atom_site_fract_y
_atom_site_fract_z
Si Si1 0.243978 0.419742 0.007790
Si Si2 0.318148 0.589454 0.110612
Si Si3 0.573417 0.579597 0.168269
Si Si4 0.295083 0.914488 0.893193
Si Si5 0.116156 0.914768 0.849285
Si Si6 0.981744 0.905970 0.445269
Si Si7 0.085716 0.422767 0.728174
Si Si8 0.066726 0.079803 0.961941
O O1 0.266466 0.250000 0.007572
O O2 0.257317 0.482350 0.075574
O O3 0.298199 0.496313 0.956067
O O4 0.151351 0.445522 0.993728
O O5 0.278661 0.750000 0.121182
O O6 0.388364 0.608058 0.063334
O O7 0.356131 0.528547 0.172869
O O8 0.595627 0.750000 0.169986
O O9 0.654497 0.486968 0.161963
O O10 0.523770 0.525335 0.111516
O O11 0.509598 0.542662 0.220734
O O12 0.325567 0.750000 0.905185
O O13 0.206349 0.912514 0.869732
O O14 0.082111 0.750000 0.846143
O O15 0.114375 0.988894 0.784894
O O16 0.064676 0.009210 0.895864
O O17 0.020852 0.750000 0.457205
O O18 0.000000 0.000000 0.500000
O O19 0.096162 0.250000 0.736506
O O20 0.046447 0.250000 0.955994
O O21 0.000000 0.000000 0.000000
#
# Coordination Sequence:
#
# PCOD8252287 Si02
#       8
#     8   8   8   8   8   8   8   8
#     4  10  20  33  52  79 108 137 171 215 265 315
#     4   9  18  32  49  71 102 138 173 209 251 303
#     4   9  18  32  49  71 100 132 170 215 256 300
#     4  10  20  33  51  76 104 135 173 216 263 315
#     4  10  21  37  57  80 106 138 176 219 266 317
#     4   9  17  27  40  63  95 129 164 201 240 285
#     4   9  19  36  55  76 105 142 182 220 261 313
#     4  10  21  38  60  84 108 135 171 219 273 324
#
# _framework density 18.629300000000001
#
# number of rings (size 3 to 8) (size 9 to 14) (size 15 to 20)
#    0.000    2.500    0.000    3.750    0.000    7.000 
#    0.000    3.750    0.000    3.000    0.000    0.000 
#    0.000    0.000    0.000    0.000    0.000    0.000 
#
# Total GULP energy -792879.491716 kJ/mol
# GULP energy per Si atom -12388.742058 kJ/mol
# Density = 1.858690 g / cm^3
# Si number density = 18.629300 Si / 1000 Ang^3
#
#
#
# Elastic Constant Matrix: (Units=GPa)
#
#
# Indices 1 2 3 4 5 6 
#
# 1 33.5496 31.7217 26.7296 0.0000 0.0000 0.0000
# 2 31.7217 112.4514 64.0359 0.0000 0.0000 0.0000
# 3 26.7296 64.0359 113.2839 0.0000 0.0000 0.0000
# 4 0.0000 0.0000 0.0000 33.1429 0.0000 0.0000
# 5 0.0000 0.0000 0.0000 0.0000 20.3035 0.0000
# 6 0.0000 0.0000 0.0000 0.0000 0.0000 30.7323
#
#
#
# Elastic Compliance Matrix: (Units=1/GPa)
#
#
# Indices 1 2 3 4 5 6 
#
# 1 0.042331 -0.009222 -0.004775 0.000000 0.000000 0.000000
# 2 -0.009222 0.015123 -0.006373 0.000000 0.000000 0.000000
# 3 -0.004775 -0.006373 0.013556 0.000000 0.000000 0.000000
# 4 0.000000 0.000000 0.000000 0.030172 0.000000 0.000000
# 5 0.000000 0.000000 0.000000 0.000000 0.049252 0.000000
# 6 0.000000 0.000000 0.000000 0.000000 0.000000 0.032539
#
#
# Mechanical properties :
#
#
# Convention : Reuss Voigt Hill
#
# Bulk Modulus (GPa) = 33.03541 56.02882 44.53211
# Shear Modulus (GPa) = 21.38547 25.95560 23.67053
#
# Velocity S-wave (km/s) = 3.39181 3.73670 3.56843
# Velocity P-wave (km/s) = 5.75419 6.98270 6.39800
#
# Compressibility (1/GPa) = 0.03027055
#
# Stress axis : x y z
#
# Youngs Moduli (GPa) = 23.62361 66.12384 73.76602
#
# Poissons Ratio (x) = 0.60979 0.35224
# Poissons Ratio (y) = 0.21786 0.47009
# Poissons Ratio (z) = 0.11281 0.42139
#
# Static dielectric constant tensor:
#      x y z
#    x 3.370470 0.000000 0.000000 
#    y 0.000000 3.551920 0.000000 
#    z 0.000000 0.000000 3.370280 
# 
# 
# High freq. dielectric constant tensor:
#      x y z
#    x 1.710860 0.000000 0.000000 
#    y 0.000000 1.727250 0.000000 
#    z 0.000000 0.000000 1.710720 
# 
# From -- ./inp_files/27717.got.cif
#   From: 2010.03.12/outbox.cif.g09.slc.cpg/sg62_14_cif.got.tgz:27717.got - 2010.04.10 19:12:36.
