data_PCOD8252638
_publ_section_title
;
Structure prediction by ZEFSAII (Michael W. Deem and Ramdas Pophale) SiO2 
 PCOD8252638
Probable space group: P N M A
;
_chemical_formula_sum "Si O2"
_cell_formula_units_Z 48
_cell_length_a 10.232830
_cell_length_b 9.185456
_cell_length_c 26.369688
_cell_angle_alpha 90.000000
_cell_angle_beta 90.000000
_cell_angle_gamma 90.000000
_cell_volume 2478.571614
_symmetry_space_group_name_H-M "P N M A"
_symmetry_group_IT_number 62
_symmetry_cell_setting 'orthorhombic'
loop_
_space_group_symop_operation_xyz
x,y,z
1/2-x,-y,1/2+z
1/2+x,1/2-y,1/2-z
-x,1/2+y,-z
-x,-y,-z
1/2+x,y,1/2-z
1/2-x,1/2+y,1/2+z
x,1/2-y,z
loop_
_atom_site_type_symbol
_atom_site_label
_atom_site_fract_x
_atom_site_fract_y
_atom_site_fract_z
Si Si1 0.653261 0.922251 0.862826
Si Si2 0.596410 0.080658 0.303104
Si Si3 0.115220 0.418999 0.314727
Si Si4 0.889458 0.580992 0.030528
Si Si5 0.875008 0.421921 0.477803
Si Si6 0.636902 0.420783 0.646724
O O1 0.659877 0.750000 0.859550
O O2 0.783654 0.983767 0.836011
O O3 0.525903 0.977494 0.832746
O O4 0.649044 0.976901 0.920556
O O5 0.569352 0.250000 0.314689
O O6 0.631960 0.056270 0.244806
O O7 0.466203 0.992496 0.315448
O O8 0.133734 0.250000 0.329168
O O9 0.221239 0.512426 0.344394
O O10 0.906643 0.750000 0.019004
O O11 0.905488 0.544104 0.089459
O O12 0.747779 0.529232 0.011509
O O13 0.000000 0.500000 0.000000
O O14 0.898943 0.250000 0.479476
O O15 0.000000 0.500000 0.500000
O O16 0.643555 0.250000 0.657262
#
# Coordination Sequence:
#
# PCOD8252638 Si02
#       6
#     8   8   8   8   8   8
#     4   9  18  33  55  81 105 134 178 228 272 314
#     4  10  20  37  60  82 107 143 186 230 273 323
#     4  10  20  36  59  84 108 140 184 228 271 326
#     4  10  22  38  56  80 111 148 189 230 274 329
#     4  10  20  35  54  77 106 139 177 221 269 322
#     4  11  23  37  54  82 117 148 181 225 281 338
#
# _framework density 19.365993
#
# number of rings (size 3 to 8) (size 9 to 14) (size 15 to 20)
#    0.000    2.000    0.000    3.500    0.000    6.667 
#    0.000    1.667    0.000    0.000    0.000    0.000 
#    0.000    0.000    0.000    0.000    0.000    0.000 
#
# Total GULP energy -595416.094856 kJ/mol
# GULP energy per Si atom -12404.501976 kJ/mol
# Density = 1.932192 g / cm^3
# Si number density = 19.365993 Si / 1000 Ang^3
#
#
#
# Elastic Constant Matrix: (Units=GPa)
#
#
# Indices 1 2 3 4 5 6 
#
# 1 110.3673 40.0740 17.8757 0.0000 0.0000 0.0000
# 2 40.0740 55.8672 34.8218 0.0000 0.0000 0.0000
# 3 17.8757 34.8218 65.3136 0.0000 0.0000 0.0000
# 4 0.0000 0.0000 0.0000 20.8849 0.0000 0.0000
# 5 0.0000 0.0000 0.0000 0.0000 43.2241 0.0000
# 6 0.0000 0.0000 0.0000 0.0000 0.0000 30.7207
#
#
#
# Elastic Compliance Matrix: (Units=1/GPa)
#
#
# Indices 1 2 3 4 5 6 
#
# 1 0.012428 -0.010176 0.002024 0.000000 0.000000 0.000000
# 2 -0.010176 0.035141 -0.015950 0.000000 0.000000 0.000000
# 3 0.002024 -0.015950 0.023261 0.000000 0.000000 0.000000
# 4 0.000000 0.000000 0.000000 0.047882 0.000000 0.000000
# 5 0.000000 0.000000 0.000000 0.000000 0.023135 0.000000
# 6 0.000000 0.000000 0.000000 0.000000 0.000000 0.032551
#
#
# Mechanical properties :
#
#
# Convention : Reuss Voigt Hill
#
# Bulk Modulus (GPa) = 44.19962 46.34345 45.27154
# Shear Modulus (GPa) = 21.72564 28.21769 24.97167
#
# Velocity S-wave (km/s) = 3.35303 3.82131 3.59480
# Velocity P-wave (km/s) = 6.15331 6.59182 6.37634
#
# Compressibility (1/GPa) = 0.02262463
#
# Stress axis : x y z
#
# Youngs Moduli (GPa) = 80.46518 28.45714 42.99124
#
# Poissons Ratio (x) = 0.28958 -0.08701
# Poissons Ratio (y) = 0.81882 0.68571
# Poissons Ratio (z) = -0.16286 0.45389
#
# Static dielectric constant tensor:
#      x y z
#    x 3.623220 0.000000 0.000000 
#    y 0.000000 3.273120 0.000000 
#    z 0.000000 0.000000 3.693060 
# 
# 
# High freq. dielectric constant tensor:
#      x y z
#    x 1.770400 0.000000 0.000000 
#    y 0.000000 1.726880 0.000000 
#    z 0.000000 0.000000 1.769590 
# 
# From -- ./inp_files/32048.got.cif
#   From: 2010.03.12/outbox.cif.g09.slc.cpg/sg62_17_cif.got.tgz:32048.got - 2010.04.10 19:12:36.
