data_PCOD8252253
_publ_section_title
;
Structure prediction by ZEFSAII (Michael W. Deem and Ramdas Pophale) SiO2 
 PCOD8252253
Probable space group: P N M A
;
_chemical_formula_sum "Si O2"
_cell_formula_units_Z 40
_cell_length_a 12.387373
_cell_length_b 14.244724
_cell_length_c 12.716729
_cell_angle_alpha 90.000000
_cell_angle_beta 90.000000
_cell_angle_gamma 90.000000
_cell_volume 2243.926721
_symmetry_space_group_name_H-M "P N M A"
_symmetry_group_IT_number 62
_symmetry_cell_setting 'orthorhombic'
loop_
_space_group_symop_operation_xyz
x,y,z
1/2-x,-y,1/2+z
1/2+x,1/2-y,1/2-z
-x,1/2+y,-z
-x,-y,-z
1/2+x,y,1/2-z
1/2-x,1/2+y,1/2+z
x,1/2-y,z
loop_
_atom_site_type_symbol
_atom_site_label
_atom_site_fract_x
_atom_site_fract_y
_atom_site_fract_z
Si Si1 0.496624 0.857628 0.602768
Si Si2 0.353402 0.357439 0.123014
Si Si3 0.799722 0.041680 0.166259
Si Si4 0.910376 0.857129 0.671994
Si Si5 0.189591 0.143425 0.940839
O O1 0.531793 0.750000 0.614877
O O2 0.606091 0.917250 0.591612
O O3 0.431987 0.887679 0.707373
O O4 0.422453 0.873504 0.501639
O O5 0.330138 0.250000 0.159944
O O6 0.314041 0.427862 0.213362
O O7 0.481070 0.371793 0.103310
O O8 0.290168 0.378972 0.016691
O O9 0.684191 0.078462 0.124496
O O10 0.803336 0.928352 0.156640
O O11 0.871012 0.750000 0.667237
O O12 0.195849 0.250000 0.897846
#
# Coordination Sequence:
#
# PCOD8252253 Si02
#       5
#     8   8   8   8   8
#     4   9  17  30  49  75 101 120 153 203 246 279
#     4   9  18  33  51  74  99 122 156 203 245 279
#     4  11  18  28  52  75  95 124 166 195 234 287
#     4   9  16  28  50  75  97 121 155 202 241 275
#     4  10  20  33  48  70 102 131 157 195 242 285
#
# _framework density 17.825894000000002
#
# number of rings (size 3 to 8) (size 9 to 14) (size 15 to 20)
#    0.000    2.400    2.000    3.600    0.000    0.800 
#    0.000    0.000    0.000    8.400    0.000    0.000 
#    0.000    0.000    0.000    0.000    0.000    0.000 
#
# Total GULP energy -495903.919424 kJ/mol
# GULP energy per Si atom -12397.597986 kJ/mol
# Density = 1.778532 g / cm^3
# Si number density = 17.825894 Si / 1000 Ang^3
#
#
#
# Elastic Constant Matrix: (Units=GPa)
#
#
# Indices 1 2 3 4 5 6 
#
# 1 111.5729 56.9739 18.3303 0.0000 0.0000 0.0000
# 2 56.9739 121.2810 42.3693 0.0000 0.0000 0.0000
# 3 18.3303 42.3693 31.2785 0.0000 0.0000 0.0000
# 4 0.0000 0.0000 0.0000 29.8135 0.0000 0.0000
# 5 0.0000 0.0000 0.0000 0.0000 12.1990 0.0000
# 6 0.0000 0.0000 0.0000 0.0000 0.0000 15.6522
#
#
#
# Elastic Compliance Matrix: (Units=1/GPa)
#
#
# Indices 1 2 3 4 5 6 
#
# 1 0.011812 -0.005943 0.001128 0.000000 0.000000 0.000000
# 2 -0.005943 0.018642 -0.021770 0.000000 0.000000 0.000000
# 3 0.001128 -0.021770 0.060799 0.000000 0.000000 0.000000
# 4 0.000000 0.000000 0.000000 0.033542 0.000000 0.000000
# 5 0.000000 0.000000 0.000000 0.000000 0.081974 0.000000
# 6 0.000000 0.000000 0.000000 0.000000 0.000000 0.063889
#
#
# Mechanical properties :
#
#
# Convention : Reuss Voigt Hill
#
# Bulk Modulus (GPa) = 26.25800 55.49772 40.87786
# Shear Modulus (GPa) = 14.85784 21.29687 18.07735
#
# Velocity S-wave (km/s) = 2.89017 3.46022 3.18796
# Velocity P-wave (km/s) = 5.08917 6.86767 6.04419
#
# Compressibility (1/GPa) = 0.03808363
#
# Stress axis : x y z
#
# Youngs Moduli (GPa) = 84.65817 53.64109 16.44768
#
# Poissons Ratio (x) = 0.31879 -0.01855
# Poissons Ratio (y) = 0.50313 0.35806
# Poissons Ratio (z) = -0.09549 1.16776
#
# Static dielectric constant tensor:
#      x y z
#    x 3.606500 0.000000 0.000000 
#    y 0.000000 3.213750 0.000000 
#    z 0.000000 0.000000 2.764140 
# 
# 
# High freq. dielectric constant tensor:
#      x y z
#    x 1.710930 0.000000 0.000000 
#    y 0.000000 1.678890 0.000000 
#    z 0.000000 0.000000 1.633520 
# 
# From -- ./inp_files/12035.got.cif
#   From: 2010.03.12/outbox.cif.g09.slc.cpg/sg62_7_cif.got.tgz:12035.got - 2010.04.10 19:12:36.
