data_PCOD8252152
_publ_section_title
;
Structure prediction by ZEFSAII (Michael W. Deem and Ramdas Pophale) SiO2 
 PCOD8252152
Probable space group: P N M A
;
_chemical_formula_sum "Si O2"
_cell_formula_units_Z 48
_cell_length_a 10.059869
_cell_length_b 8.739631
_cell_length_c 27.590080
_cell_angle_alpha 90.000000
_cell_angle_beta 90.000000
_cell_angle_gamma 90.000000
_cell_volume 2425.707224
_symmetry_space_group_name_H-M "P N M A"
_symmetry_group_IT_number 62
_symmetry_cell_setting 'orthorhombic'
loop_
_space_group_symop_operation_xyz
x,y,z
1/2-x,-y,1/2+z
1/2+x,1/2-y,1/2-z
-x,1/2+y,-z
-x,-y,-z
1/2+x,y,1/2-z
1/2-x,1/2+y,1/2+z
x,1/2-y,z
loop_
_atom_site_type_symbol
_atom_site_label
_atom_site_fract_x
_atom_site_fract_y
_atom_site_fract_z
Si Si1 0.097171 0.069735 0.460439
Si Si2 0.101390 0.929794 0.962594
Si Si3 0.027098 0.568472 0.857596
Si Si4 0.244233 0.569430 0.679603
Si Si5 0.019558 0.569704 0.358104
Si Si6 0.235086 0.069540 0.291420
O O1 0.075716 0.250000 0.458525
O O2 0.247401 0.027312 0.476144
O O3 0.070663 0.005459 0.407352
O O4 0.000000 0.000000 0.500000
O O5 0.080392 0.750000 0.962348
O O6 0.066906 0.998006 0.909840
O O7 0.000000 0.000000 0.000000
O O8 0.030315 0.750000 0.857368
O O9 0.881517 0.510442 0.843477
O O10 0.134024 0.508941 0.818747
O O11 0.222167 0.750000 0.672634
O O12 0.246228 0.524494 0.735812
O O13 0.131263 0.478961 0.651235
O O14 0.028692 0.750000 0.363796
O O15 0.106562 0.514192 0.312736
O O16 0.212128 0.250000 0.297928
#
# Coordination Sequence:
#
# PCOD8252152 Si02
#       6
#     8   8   8   8   8   8
#     4  11  24  44  67  91 122 159 206 258 310 370
#     4  10  22  40  62  88 121 155 194 248 304 361
#     4   9  18  36  60  88 118 152 197 250 304 355
#     4  10  21  37  64  94 120 160 209 255 301 359
#     4  12  25  40  60  91 131 168 203 248 308 370
#     4  10  19  39  66  90 119 159 209 257 304 358
#
# _framework density 19.788045
#
# number of rings (size 3 to 8) (size 9 to 14) (size 15 to 20)
#    0.000    1.667    1.667    3.000    2.333    4.667 
#    0.000    0.833    0.000    0.000    0.000    0.000 
#    0.000    0.000    0.000    0.000    0.000    0.000 
#
# Total GULP energy -595367.176142 kJ/mol
# GULP energy per Si atom -12403.482836 kJ/mol
# Density = 1.974301 g / cm^3
# Si number density = 19.788045 Si / 1000 Ang^3
#
#
#
# Elastic Constant Matrix: (Units=GPa)
#
#
# Indices 1 2 3 4 5 6 
#
# 1 159.4554 52.4918 59.5689 0.0000 0.0000 0.0000
# 2 52.4918 68.5694 44.0963 0.0000 0.0000 0.0000
# 3 59.5689 44.0963 113.4862 0.0000 0.0000 0.0000
# 4 0.0000 0.0000 0.0000 28.4374 0.0000 0.0000
# 5 0.0000 0.0000 0.0000 0.0000 45.2338 0.0000
# 6 0.0000 0.0000 0.0000 0.0000 0.0000 27.3172
#
#
#
# Elastic Compliance Matrix: (Units=1/GPa)
#
#
# Indices 1 2 3 4 5 6 
#
# 1 0.008973 -0.005119 -0.002721 0.000000 0.000000 0.000000
# 2 -0.005119 0.022363 -0.006002 0.000000 0.000000 0.000000
# 3 -0.002721 -0.006002 0.012572 0.000000 0.000000 0.000000
# 4 0.000000 0.000000 0.000000 0.035165 0.000000 0.000000
# 5 0.000000 0.000000 0.000000 0.000000 0.022107 0.000000
# 6 0.000000 0.000000 0.000000 0.000000 0.000000 0.036607
#
#
# Mechanical properties :
#
#
# Convention : Reuss Voigt Hill
#
# Bulk Modulus (GPa) = 61.64021 72.64724 67.14372
# Shear Modulus (GPa) = 29.26044 32.55462 30.90753
#
# Velocity S-wave (km/s) = 3.84955 4.06047 3.95641
# Velocity P-wave (km/s) = 7.13979 7.66652 7.40784
#
# Compressibility (1/GPa) = 0.01622318
#
# Stress axis : x y z
#
# Youngs Moduli (GPa) = 111.44493 44.71722 79.54220
#
# Poissons Ratio (x) = 0.22893 0.21641
# Poissons Ratio (y) = 0.57054 0.47742
# Poissons Ratio (z) = 0.30321 0.26840
#
# Static dielectric constant tensor:
#      x y z
#    x 3.729280 0.000000 0.000000 
#    y 0.000000 3.431680 0.000000 
#    z 0.000000 0.000000 3.342940 
# 
# 
# High freq. dielectric constant tensor:
#      x y z
#    x 1.791770 0.000000 0.000000 
#    y 0.000000 1.745800 0.000000 
#    z 0.000000 0.000000 1.783970 
# 
# From -- ./inp_files/32043.got.cif
#   From: 2010.03.12/outbox.cif.g09.slc.cpg/sg62_17_cif.got.tgz:32043.got - 2010.04.10 19:12:36.
