data_PCOD8252039
_publ_section_title
;
Structure prediction by ZEFSAII (Michael W. Deem and Ramdas Pophale) SiO2 
 PCOD8252039
Probable space group: P N M A
;
_chemical_formula_sum "Si O2"
_cell_formula_units_Z 44
_cell_length_a 5.012392
_cell_length_b 27.138386
_cell_length_c 16.397762
_cell_angle_alpha 90.000000
_cell_angle_beta 90.000000
_cell_angle_gamma 90.000000
_cell_volume 2230.558522
_symmetry_space_group_name_H-M "P N M A"
_symmetry_group_IT_number 62
_symmetry_cell_setting 'orthorhombic'
loop_
_space_group_symop_operation_xyz
x,y,z
1/2-x,-y,1/2+z
1/2+x,1/2-y,1/2-z
-x,1/2+y,-z
-x,-y,-z
1/2+x,y,1/2-z
1/2-x,1/2+y,1/2+z
x,1/2-y,z
loop_
_atom_site_type_symbol
_atom_site_label
_atom_site_fract_x
_atom_site_fract_y
_atom_site_fract_z
Si Si1 0.194290 0.170172 0.056716
Si Si2 0.282896 0.456912 0.577310
Si Si3 0.748186 0.250000 0.307825
Si Si4 0.801078 0.875978 0.302938
Si Si5 0.783177 0.062300 0.472998
Si Si6 0.194852 0.193882 0.546096
O O1 0.253457 0.200981 0.137549
O O2 0.225984 0.112153 0.077088
O O3 0.394994 0.184978 0.984434
O O4 0.895399 0.181279 0.027357
O O5 0.231603 0.431885 0.664592
O O6 0.245894 0.515745 0.587739
O O7 0.580910 0.443907 0.548652
O O8 0.080114 0.435276 0.509746
O O9 0.500687 0.250000 0.249000
O O10 0.597880 0.866709 0.229203
O O11 0.737845 0.839174 0.376331
O O12 0.229222 0.250000 0.573693
#
# Coordination Sequence:
#
# PCOD8252039 Si02
#       6
#     8   8   4   8   8   8
#     4  12  21  41  67  90 120 159 206 253 296 368
#     4  10  20  36  59  90 119 149 208 249 300 351
#     4  12  26  42  62  96 126 156 188 252 330 370
#     4  12  24  38  58  88 132 168 196 256 314 356
#     4  10  19  36  64  89 111 153 207 260 279 353
#     4  12  23  40  63  91 117 164 219 246 294 359
#
# _framework density 19.726002000000001
#
# number of rings (size 3 to 8) (size 9 to 14) (size 15 to 20)
#    0.000    0.727    5.455    3.273    0.000    0.727 
#    0.000    1.818    0.000    0.000    0.000    0.000 
#    0.000    0.000    0.000    0.000    0.000    0.000 
#
# Total GULP energy -545859.861741 kJ/mol
# GULP energy per Si atom -12405.905949 kJ/mol
# Density = 1.968110 g / cm^3
# Si number density = 19.726002 Si / 1000 Ang^3
#
#
#
# Elastic Constant Matrix: (Units=GPa)
#
#
# Indices 1 2 3 4 5 6 
#
# 1 84.5574 18.8472 18.1679 0.0000 0.0000 0.0000
# 2 18.8472 155.2248 48.0385 0.0000 0.0000 0.0000
# 3 18.1679 48.0385 83.4900 0.0000 0.0000 0.0000
# 4 0.0000 0.0000 0.0000 7.8892 0.0000 0.0000
# 5 0.0000 0.0000 0.0000 0.0000 38.4876 0.0000
# 6 0.0000 0.0000 0.0000 0.0000 0.0000 26.2202
#
#
#
# Elastic Compliance Matrix: (Units=1/GPa)
#
#
# Indices 1 2 3 4 5 6 
#
# 1 0.012492 -0.000822 -0.002245 0.000000 0.000000 0.000000
# 2 -0.000822 0.007892 -0.004362 0.000000 0.000000 0.000000
# 3 -0.002245 -0.004362 0.014976 0.000000 0.000000 0.000000
# 4 0.000000 0.000000 0.000000 0.126755 0.000000 0.000000
# 5 0.000000 0.000000 0.000000 0.000000 0.025982 0.000000
# 6 0.000000 0.000000 0.000000 0.000000 0.000000 0.038139
#
#
# Mechanical properties :
#
#
# Convention : Reuss Voigt Hill
#
# Bulk Modulus (GPa) = 48.77766 54.81992 51.79879
# Shear Modulus (GPa) = 20.16713 30.40064 25.28389
#
# Velocity S-wave (km/s) = 3.20091 3.93000 3.58404
# Velocity P-wave (km/s) = 6.20019 6.96019 6.59115
#
# Compressibility (1/GPa) = 0.02050119
#
# Stress axis : x y z
#
# Youngs Moduli (GPa) = 80.05172 126.71024 66.77372
#
# Poissons Ratio (x) = 0.10414 0.14994
# Poissons Ratio (y) = 0.06579 0.29127
# Poissons Ratio (z) = 0.17975 0.55272
#
# Static dielectric constant tensor:
#      x y z
#    x 3.755720 0.000000 0.000000 
#    y 0.000000 3.996810 0.000000 
#    z 0.000000 0.000000 3.257560 
# 
# 
# High freq. dielectric constant tensor:
#      x y z
#    x 1.792270 0.000000 0.000000 
#    y 0.000000 1.786830 0.000000 
#    z 0.000000 0.000000 1.730620 
# 
# From -- ./inp_files/16205.got.cif
#   From: 2010.03.12/outbox.cif.g09.slc.cpg/sg62_9_cif.got.tgz:16205.got - 2010.04.10 19:12:36.
