data_PCOD8252096
_publ_section_title
;
Structure prediction by ZEFSAII (Michael W. Deem and Ramdas Pophale) SiO2 
 PCOD8252096
Probable space group: P N M A
;
_chemical_formula_sum "Si O2"
_cell_formula_units_Z 56
_cell_length_a 19.764151
_cell_length_b 8.680375
_cell_length_c 16.375126
_cell_angle_alpha 90.000000
_cell_angle_beta 90.000000
_cell_angle_gamma 90.000000
_cell_volume 2809.320583
_symmetry_space_group_name_H-M "P N M A"
_symmetry_group_IT_number 62
_symmetry_cell_setting 'orthorhombic'
loop_
_space_group_symop_operation_xyz
x,y,z
1/2-x,-y,1/2+z
1/2+x,1/2-y,1/2-z
-x,1/2+y,-z
-x,-y,-z
1/2+x,y,1/2-z
1/2-x,1/2+y,1/2+z
x,1/2-y,z
loop_
_atom_site_type_symbol
_atom_site_label
_atom_site_fract_x
_atom_site_fract_y
_atom_site_fract_z
Si Si1 0.881887 0.571057 0.697626
Si Si2 0.950067 0.931407 0.065787
Si Si3 0.334741 0.928157 0.982720
Si Si4 0.018651 0.069146 0.752945
Si Si5 0.865412 0.429804 0.353881
Si Si6 0.752019 0.926785 0.248859
Si Si7 0.798447 0.573169 0.068367
O O1 0.899380 0.750000 0.710119
O O2 0.869444 0.530341 0.603047
O O3 0.815258 0.530110 0.749445
O O4 0.941806 0.464778 0.729481
O O5 0.957967 0.750000 0.064983
O O6 0.968479 0.993379 0.155714
O O7 0.873548 0.979541 0.042451
O O8 0.000000 0.000000 0.000000
O O9 0.342849 0.750000 0.004586
O O10 0.372873 0.028991 0.050664
O O11 0.255049 0.968119 0.979253
O O12 0.034279 0.250000 0.746163
O O13 0.066516 0.979042 0.691010
O O14 0.854017 0.250000 0.341548
O O15 0.799940 0.520045 0.321811
O O16 0.731042 0.750000 0.261956
O O17 0.793564 0.949452 0.165534
O O18 0.784275 0.750000 0.044508
#
# Coordination Sequence:
#
# PCOD8252096 Si02
#       7
#     8   8   8   8   8   8   8
#     4  10  22  40  61  91 125 160 204 254 304 363
#     4  10  22  39  60  88 120 157 198 245 300 360
#     4  10  22  39  60  88 121 157 201 250 303 363
#     4  11  23  42  63  87 122 166 206 249 309 372
#     4  12  24  38  61  91 121 158 207 258 308 364
#     4  10  19  37  63  86 115 158 201 248 305 366
#     4   9  18  37  60  83 115 151 194 244 297 354
#
# _framework density 19.933644999999999
#
# number of rings (size 3 to 8) (size 9 to 14) (size 15 to 20)
#    0.000    1.714    1.429    3.000    0.000    5.714 
#    0.000    2.857    0.000    0.000    0.000    0.000 
#    0.000    0.000    0.000    0.000    0.000    0.000 
#
# Total GULP energy -694701.559289 kJ/mol
# GULP energy per Si atom -12405.384987 kJ/mol
# Density = 1.988828 g / cm^3
# Si number density = 19.933645 Si / 1000 Ang^3
#
#
#
# Elastic Constant Matrix: (Units=GPa)
#
#
# Indices 1 2 3 4 5 6 
#
# 1 95.2379 14.9150 31.4421 0.0000 0.0000 0.0000
# 2 14.9150 56.7662 16.5065 0.0000 0.0000 0.0000
# 3 31.4421 16.5065 51.5738 0.0000 0.0000 0.0000
# 4 0.0000 0.0000 0.0000 32.4744 0.0000 0.0000
# 5 0.0000 0.0000 0.0000 0.0000 30.5431 0.0000
# 6 0.0000 0.0000 0.0000 0.0000 0.0000 39.0474
#
#
#
# Elastic Compliance Matrix: (Units=1/GPa)
#
#
# Indices 1 2 3 4 5 6 
#
# 1 0.013225 -0.001246 -0.007664 0.000000 0.000000 0.000000
# 2 -0.001246 0.019541 -0.005494 0.000000 0.000000 0.000000
# 3 -0.007664 -0.005494 0.025821 0.000000 0.000000 0.000000
# 4 0.000000 0.000000 0.000000 0.030793 0.000000 0.000000
# 5 0.000000 0.000000 0.000000 0.000000 0.032741 0.000000
# 6 0.000000 0.000000 0.000000 0.000000 0.000000 0.025610
#
#
# Mechanical properties :
#
#
# Convention : Reuss Voigt Hill
#
# Bulk Modulus (GPa) = 33.58224 36.58946 35.08585
# Shear Modulus (GPa) = 26.81442 29.79395 28.30419
#
# Velocity S-wave (km/s) = 3.67165 3.87027 3.77227
# Velocity P-wave (km/s) = 5.90409 6.19415 6.05086
#
# Compressibility (1/GPa) = 0.02977765
#
# Stress axis : x y z
#
# Youngs Moduli (GPa) = 75.61189 51.17369 38.72876
#
# Poissons Ratio (x) = 0.06378 0.29682
# Poissons Ratio (y) = 0.09424 0.21279
# Poissons Ratio (z) = 0.57949 0.28117
#
# Static dielectric constant tensor:
#      x y z
#    x 3.524930 0.000000 0.000000 
#    y 0.000000 3.563900 0.000000 
#    z 0.000000 0.000000 3.063380 
# 
# 
# High freq. dielectric constant tensor:
#      x y z
#    x 1.782330 0.000000 0.000000 
#    y 0.000000 1.779970 0.000000 
#    z 0.000000 0.000000 1.775070 
# 
# From -- ./inp_files/20241.got.cif
#   From: 2010.03.12/outbox.cif.g09.slc.cpg/sg62_11_cif.got.tgz:20241.got - 2010.04.10 19:12:36.
