data_PCOD8252225
_publ_section_title
;
Structure prediction by ZEFSAII (Michael W. Deem and Ramdas Pophale) SiO2 
 PCOD8252225
Probable space group: P N M A
;
_chemical_formula_sum "Si O2"
_cell_formula_units_Z 48
_cell_length_a 16.658252
_cell_length_b 14.979813
_cell_length_c 10.663885
_cell_angle_alpha 90.000000
_cell_angle_beta 90.000000
_cell_angle_gamma 90.000000
_cell_volume 2661.039202
_symmetry_space_group_name_H-M "P N M A"
_symmetry_group_IT_number 62
_symmetry_cell_setting 'orthorhombic'
loop_
_space_group_symop_operation_xyz
x,y,z
1/2-x,-y,1/2+z
1/2+x,1/2-y,1/2-z
-x,1/2+y,-z
-x,-y,-z
1/2+x,y,1/2-z
1/2-x,1/2+y,1/2+z
x,1/2-y,z
loop_
_atom_site_type_symbol
_atom_site_label
_atom_site_fract_x
_atom_site_fract_y
_atom_site_fract_z
Si Si1 0.033504 0.982105 0.692711
Si Si2 0.496344 0.151938 0.671476
Si Si3 0.129654 0.497985 0.447959
Si Si4 0.924410 0.353899 0.086937
Si Si5 0.745703 0.645900 0.479024
Si Si6 0.680038 0.848393 0.215716
O O1 0.046404 0.904037 0.790606
O O2 0.942184 0.974421 0.646172
O O3 0.095433 0.968332 0.580135
O O4 0.049793 0.078474 0.757320
O O5 0.537486 0.250000 0.684854
O O6 0.486887 0.125608 0.525503
O O7 0.409221 0.157014 0.731771
O O8 0.181274 0.409081 0.463203
O O9 0.185489 0.577481 0.393226
O O10 0.924248 0.250000 0.118591
O O11 0.835400 0.385022 0.048449
O O12 0.762607 0.750000 0.502538
O O13 0.738829 0.625868 0.330345
O O14 0.703246 0.750000 0.162048
#
# Coordination Sequence:
#
# PCOD8252225 Si02
#       6
#     8   8   8   8   8   8
#     4  10  20  32  49  82 110 132 168 214 270 310
#     4   8  15  31  53  74  99 134 172 206 246 305
#     4  10  21  32  51  79 106 136 170 215 268 313
#     4   9  18  33  54  75 100 140 178 210 255 308
#     4   9  19  35  54  73  97 138 183 216 255 311
#     4   8  16  33  53  71  96 134 175 210 252 312
#
# _framework density 18.038065
#
# number of rings (size 3 to 8) (size 9 to 14) (size 15 to 20)
#    0.000    3.000    0.000    2.500    2.333    2.000 
#    0.000    3.333    0.000    0.000    0.000    0.000 
#    0.000    0.000    0.000    0.000    0.000    0.000 
#
# Total GULP energy -595072.666146 kJ/mol
# GULP energy per Si atom -12397.347211 kJ/mol
# Density = 1.799701 g / cm^3
# Si number density = 18.038065 Si / 1000 Ang^3
#
#
#
# Elastic Constant Matrix: (Units=GPa)
#
#
# Indices 1 2 3 4 5 6 
#
# 1 43.8241 44.1593 39.2176 0.0000 0.0000 0.0000
# 2 44.1593 105.1473 73.6743 0.0000 0.0000 0.0000
# 3 39.2176 73.6743 116.7637 0.0000 0.0000 0.0000
# 4 0.0000 0.0000 0.0000 35.4636 0.0000 0.0000
# 5 0.0000 0.0000 0.0000 0.0000 10.9438 0.0000
# 6 0.0000 0.0000 0.0000 0.0000 0.0000 27.4493
#
#
#
# Elastic Compliance Matrix: (Units=1/GPa)
#
#
# Indices 1 2 3 4 5 6 
#
# 1 0.041277 -0.013661 -0.005244 0.000000 0.000000 0.000000
# 2 -0.013661 0.021568 -0.009021 0.000000 0.000000 0.000000
# 3 -0.005244 -0.009021 0.016017 0.000000 0.000000 0.000000
# 4 0.000000 0.000000 0.000000 0.028198 0.000000 0.000000
# 5 0.000000 0.000000 0.000000 0.000000 0.091376 0.000000
# 6 0.000000 0.000000 0.000000 0.000000 0.000000 0.036431
#
#
# Mechanical properties :
#
#
# Convention : Reuss Voigt Hill
#
# Bulk Modulus (GPa) = 43.45704 64.42639 53.94171
# Shear Modulus (GPa) = 16.75668 22.01692 19.38680
#
# Velocity S-wave (km/s) = 3.05119 3.49747 3.28193
# Velocity P-wave (km/s) = 6.04626 7.21832 6.65813
#
# Compressibility (1/GPa) = 0.02301123
#
# Stress axis : x y z
#
# Youngs Moduli (GPa) = 24.22680 46.36462 62.43214
#
# Poissons Ratio (x) = 0.63337 0.32740
# Poissons Ratio (y) = 0.33096 0.56318
# Poissons Ratio (z) = 0.12705 0.41824
#
# Static dielectric constant tensor:
#      x y z
#    x 3.055970 0.000000 0.000000 
#    y 0.000000 3.562910 0.000000 
#    z 0.000000 0.000000 3.387850 
# 
# 
# High freq. dielectric constant tensor:
#      x y z
#    x 1.670700 0.000000 0.000000 
#    y 0.000000 1.703450 0.000000 
#    z 0.000000 0.000000 1.696610 
# 
# From -- ./inp_files/7623.got.cif
#   From: 2010.03.12/outbox.cif.g09.slc.cpg/sg62_4_cif.got.tgz:7623.got - 2010.04.10 19:12:36.
