data_PCOD8252941
_publ_section_title
;
Structure prediction by ZEFSAII (Michael W. Deem and Ramdas Pophale) SiO2 
 PCOD8252941
Probable space group: P N M A
;
_chemical_formula_sum "Si O2"
_cell_formula_units_Z 64
_cell_length_a 14.544753
_cell_length_b 8.883158
_cell_length_c 24.367940
_cell_angle_alpha 90.000000
_cell_angle_beta 90.000000
_cell_angle_gamma 90.000000
_cell_volume 3148.419212
_symmetry_space_group_name_H-M "P N M A"
_symmetry_group_IT_number 62
_symmetry_cell_setting 'orthorhombic'
loop_
_space_group_symop_operation_xyz
x,y,z
1/2-x,-y,1/2+z
1/2+x,1/2-y,1/2-z
-x,1/2+y,-z
-x,-y,-z
1/2+x,y,1/2-z
1/2-x,1/2+y,1/2+z
x,1/2-y,z
loop_
_atom_site_type_symbol
_atom_site_label
_atom_site_fract_x
_atom_site_fract_y
_atom_site_fract_z
Si Si1 0.559580 0.573674 0.630465
Si Si2 0.263578 0.925323 0.408448
Si Si3 0.638747 0.924215 0.747596
Si Si4 0.458290 0.577884 0.053356
Si Si5 0.560054 0.573597 0.451945
Si Si6 0.994522 0.571897 0.324858
Si Si7 0.737274 0.421486 0.984962
Si Si8 0.175096 0.426161 0.307504
O O1 0.545969 0.750000 0.623414
O O2 0.643151 0.521338 0.591954
O O3 0.582533 0.529635 0.692858
O O4 0.469392 0.489755 0.607856
O O5 0.286071 0.750000 0.403693
O O6 0.214449 0.965158 0.465370
O O7 0.196008 0.974056 0.360451
O O8 0.622381 0.750000 0.761571
O O9 0.747695 0.956633 0.738975
O O10 0.602382 0.026249 0.797214
O O11 0.487567 0.750000 0.048058
O O12 0.495747 0.515879 0.111700
O O13 0.347670 0.559726 0.056649
O O14 0.500000 0.500000 0.000000
O O15 0.500000 0.500000 0.500000
O O16 0.542187 0.750000 0.454286
O O17 0.667468 0.532107 0.456202
O O18 0.007787 0.750000 0.320422
O O19 0.074041 0.484181 0.290165
O O20 0.742886 0.250000 0.006860
O O21 0.174759 0.250000 0.322509
#
# Coordination Sequence:
#
# PCOD8252941 Si02
#       8
#     8   8   8   8   8   8   8   8
#     4  10  20  36  56  80 115 157 202 249 297 354
#     4  11  20  31  54  86 117 148 198 250 292 346
#     4   9  21  41  63  86 116 156 200 246 297 357
#     4  10  23  42  62  88 120 156 197 246 301 364
#     4  11  21  33  54  83 119 161 202 247 302 365
#     4  11  23  40  64  94 125 154 197 255 308 362
#     4  10  21  37  55  78 117 162 197 234 301 368
#     4  10  21  39  63  87 117 156 199 243 296 360
#
# _framework density 20.327662
#
# number of rings (size 3 to 8) (size 9 to 14) (size 15 to 20)
#    0.000    1.750    1.250    4.125    0.000    7.000 
#    2.250    0.000    0.000    0.000    0.000    0.000 
#    0.000    0.000    0.000    0.000    0.000    0.000 
#
# Total GULP energy -793554.277034 kJ/mol
# GULP energy per Si atom -12399.285579 kJ/mol
# Density = 2.028140 g / cm^3
# Si number density = 20.327662 Si / 1000 Ang^3
#
#
#
# Elastic Constant Matrix: (Units=GPa)
#
#
# Indices 1 2 3 4 5 6 
#
# 1 114.5558 37.5974 40.1286 0.0000 0.0000 0.0000
# 2 37.5974 79.6848 38.8362 0.0000 0.0000 0.0000
# 3 40.1286 38.8362 85.0695 0.0000 0.0000 0.0000
# 4 0.0000 0.0000 0.0000 32.6801 0.0000 0.0000
# 5 0.0000 0.0000 0.0000 0.0000 26.9135 0.0000
# 6 0.0000 0.0000 0.0000 0.0000 0.0000 31.5994
#
#
#
# Elastic Compliance Matrix: (Units=1/GPa)
#
#
# Indices 1 2 3 4 5 6 
#
# 1 0.011157 -0.003472 -0.003678 0.000000 0.000000 0.000000
# 2 -0.003472 0.017221 -0.006224 0.000000 0.000000 0.000000
# 3 -0.003678 -0.006224 0.016332 0.000000 0.000000 0.000000
# 4 0.000000 0.000000 0.000000 0.030600 0.000000 0.000000
# 5 0.000000 0.000000 0.000000 0.000000 0.037156 0.000000
# 6 0.000000 0.000000 0.000000 0.000000 0.000000 0.031646
#
#
# Mechanical properties :
#
#
# Convention : Reuss Voigt Hill
#
# Bulk Modulus (GPa) = 55.67337 56.93716 56.30527
# Shear Modulus (GPa) = 28.27307 29.08847 28.68077
#
# Velocity S-wave (km/s) = 3.73348 3.78693 3.76030
# Velocity P-wave (km/s) = 6.78473 6.86962 6.82731
#
# Compressibility (1/GPa) = 0.01796191
#
# Stress axis : x y z
#
# Youngs Moduli (GPa) = 89.62805 58.06889 61.23097
#
# Poissons Ratio (x) = 0.20159 0.22522
# Poissons Ratio (y) = 0.31116 0.38111
# Poissons Ratio (z) = 0.32967 0.36143
#
# Static dielectric constant tensor:
#      x y z
#    x 3.880190 0.000000 0.000000 
#    y 0.000000 3.598700 0.000000 
#    z 0.000000 0.000000 3.556340 
# 
# 
# High freq. dielectric constant tensor:
#      x y z
#    x 1.802660 0.000000 0.000000 
#    y 0.000000 1.795290 0.000000 
#    z 0.000000 0.000000 1.773880 
# 
# From -- ./inp_files/29864.got.cif
#   From: 2010.03.12/outbox.cif.g09.slc.cpg/sg62_15_cif.got.tgz:29864.got - 2010.04.10 19:12:36.
