data_PCOD8252383
_publ_section_title
;
Structure prediction by ZEFSAII (Michael W. Deem and Ramdas Pophale) SiO2 
 PCOD8252383
Probable space group: P N M A
;
_chemical_formula_sum "Si O2"
_cell_formula_units_Z 64
_cell_length_a 18.580211
_cell_length_b 9.228191
_cell_length_c 20.253052
_cell_angle_alpha 90.000000
_cell_angle_beta 90.000000
_cell_angle_gamma 90.000000
_cell_volume 3472.623454
_symmetry_space_group_name_H-M "P N M A"
_symmetry_group_IT_number 62
_symmetry_cell_setting 'orthorhombic'
loop_
_space_group_symop_operation_xyz
x,y,z
1/2-x,-y,1/2+z
1/2+x,1/2-y,1/2-z
-x,1/2+y,-z
-x,-y,-z
1/2+x,y,1/2-z
1/2-x,1/2+y,1/2+z
x,1/2-y,z
loop_
_atom_site_type_symbol
_atom_site_label
_atom_site_fract_x
_atom_site_fract_y
_atom_site_fract_z
Si Si1 0.706306 0.421797 0.930089
Si Si2 0.545747 0.419020 0.314429
Si Si3 0.542353 0.579353 0.556905
Si Si4 0.549758 0.919156 0.183091
Si Si5 0.209450 0.084491 0.178340
Si Si6 0.295474 0.078179 0.444995
Si Si7 0.456832 0.581648 0.056283
Si Si8 0.304726 0.918143 0.828517
O O1 0.709240 0.250000 0.924373
O O2 0.736535 0.484851 0.862160
O O3 0.625043 0.475416 0.941989
O O4 0.754839 0.480950 0.990300
O O5 0.542534 0.250000 0.295510
O O6 0.492124 0.460364 0.372938
O O7 0.521461 0.509436 0.250673
O O8 0.626847 0.460495 0.335958
O O9 0.500000 0.500000 0.500000
O O10 0.538899 0.750000 0.543543
O O11 0.623481 0.518373 0.556494
O O12 0.562745 0.750000 0.195101
O O13 0.490292 0.949114 0.127769
O O14 0.623744 0.990459 0.159266
O O15 0.222719 0.250000 0.157535
O O16 0.226695 0.059684 0.255383
O O17 0.296824 0.250000 0.445790
O O18 0.254669 0.023657 0.379604
O O19 0.459531 0.750000 0.038187
O O20 0.500000 0.500000 0.000000
O O21 0.324088 0.750000 0.840981
#
# Coordination Sequence:
#
# PCOD8252383 Si02
#       8
#     8   8   8   8   8   8   8   8
#     4  10  20  34  52  74 102 135 168 205 253 305
#     4   9  19  35  54  76 104 138 173 208 251 307
#     4  10  20  34  53  78 105 135 175 217 257 305
#     4  10  20  34  53  78 105 132 169 214 256 303
#     4   9  18  32  51  76 102 130 166 206 248 296
#     4   9  18  33  54  76  98 131 173 210 247 299
#     4  10  22  37  53  76 104 135 173 215 259 309
#     4   9  18  35  56  76 102 136 172 209 252 304
#
# _framework density 18.429870000000001
#
# number of rings (size 3 to 8) (size 9 to 14) (size 15 to 20)
#    0.000    2.500    0.000    2.625    0.000    6.000 
#    0.000    2.500    0.000    0.000    0.000    0.000 
#    0.000    0.000    0.000    0.000    0.000    0.000 
#
# Total GULP energy -793748.911603 kJ/mol
# GULP energy per Si atom -12402.326744 kJ/mol
# Density = 1.838792 g / cm^3
# Si number density = 18.429870 Si / 1000 Ang^3
#
#
#
# Elastic Constant Matrix: (Units=GPa)
#
#
# Indices 1 2 3 4 5 6 
#
# 1 146.4283 45.8575 86.6679 0.0000 0.0000 0.0000
# 2 45.8575 53.6004 50.8267 0.0000 0.0000 0.0000
# 3 86.6679 50.8267 123.6378 0.0000 0.0000 0.0000
# 4 0.0000 0.0000 0.0000 30.2199 0.0000 0.0000
# 5 0.0000 0.0000 0.0000 0.0000 38.7281 0.0000
# 6 0.0000 0.0000 0.0000 0.0000 0.0000 23.4926
#
#
#
# Elastic Compliance Matrix: (Units=1/GPa)
#
#
# Indices 1 2 3 4 5 6 
#
# 1 0.012125 -0.003792 -0.006940 0.000000 0.000000 0.000000
# 2 -0.003792 0.031761 -0.010399 0.000000 0.000000 0.000000
# 3 -0.006940 -0.010399 0.017228 0.000000 0.000000 0.000000
# 4 0.000000 0.000000 0.000000 0.033091 0.000000 0.000000
# 5 0.000000 0.000000 0.000000 0.000000 0.025821 0.000000
# 6 0.000000 0.000000 0.000000 0.000000 0.000000 0.042567
#
#
# Mechanical properties :
#
#
# Convention : Reuss Voigt Hill
#
# Bulk Modulus (GPa) = 53.04490 76.70785 64.87638
# Shear Modulus (GPa) = 23.68108 27.84240 25.76174
#
# Velocity S-wave (km/s) = 3.58848 3.89102 3.74281
# Velocity P-wave (km/s) = 6.78337 7.86756 7.34550
#
# Compressibility (1/GPa) = 0.01885195
#
# Stress axis : x y z
#
# Youngs Moduli (GPa) = 82.47648 31.48467 58.04485
#
# Poissons Ratio (x) = 0.11939 0.40285
# Poissons Ratio (y) = 0.31275 0.60360
# Poissons Ratio (z) = 0.57241 0.32740
#
# Static dielectric constant tensor:
#      x y z
#    x 3.494100 0.000000 0.000000 
#    y 0.000000 3.217780 0.000000 
#    z 0.000000 0.000000 3.072110 
# 
# 
# High freq. dielectric constant tensor:
#      x y z
#    x 1.718700 0.000000 0.000000 
#    y 0.000000 1.695600 0.000000 
#    z 0.000000 0.000000 1.726340 
# 
# From -- ./inp_files/27761.got.cif
#   From: 2010.03.12/outbox.cif.g09.slc.cpg/sg62_14_cif.got.tgz:27761.got - 2010.04.10 19:12:36.
