data_PCOD8252687
_publ_section_title
;
Structure prediction by ZEFSAII (Michael W. Deem and Ramdas Pophale) SiO2 
 PCOD8252687
Probable space group: P N M A
;
_chemical_formula_sum "Si O2"
_cell_formula_units_Z 64
_cell_length_a 15.040490
_cell_length_b 9.115733
_cell_length_c 24.276613
_cell_angle_alpha 90.000000
_cell_angle_beta 90.000000
_cell_angle_gamma 90.000000
_cell_volume 3328.447235
_symmetry_space_group_name_H-M "P N M A"
_symmetry_group_IT_number 62
_symmetry_cell_setting 'orthorhombic'
loop_
_space_group_symop_operation_xyz
x,y,z
1/2-x,-y,1/2+z
1/2+x,1/2-y,1/2-z
-x,1/2+y,-z
-x,-y,-z
1/2+x,y,1/2-z
1/2-x,1/2+y,1/2+z
x,1/2-y,z
loop_
_atom_site_type_symbol
_atom_site_label
_atom_site_fract_x
_atom_site_fract_y
_atom_site_fract_z
Si Si1 0.797610 0.077408 0.543030
Si Si2 0.047551 0.917854 0.075481
Si Si3 0.383631 0.082193 0.694187
Si Si4 0.816735 0.922073 0.313092
Si Si5 0.641859 0.581742 0.923320
Si Si6 0.620150 0.921044 0.542017
Si Si7 0.485383 0.078716 0.226327
Si Si8 0.054511 0.084683 0.393663
O O1 0.786378 0.250000 0.546754
O O2 0.818672 0.026245 0.480932
O O3 0.707962 0.001128 0.563277
O O4 0.875176 0.030704 0.584154
O O5 0.015116 0.750000 0.070922
O O6 0.107459 0.945252 0.128902
O O7 0.105916 0.960060 0.022260
O O8 0.961282 0.020535 0.078556
O O9 0.406639 0.250000 0.709089
O O10 0.281899 0.045673 0.710835
O O11 0.452927 0.978394 0.724814
O O12 0.836761 0.750000 0.314402
O O13 0.820111 0.980657 0.375293
O O14 0.889175 0.999752 0.273854
O O15 0.668134 0.750000 0.910259
O O16 0.535747 0.567348 0.928173
O O17 0.630694 0.750000 0.552712
O O18 0.467159 0.250000 0.234461
O O19 0.535932 0.045700 0.169689
O O20 0.091798 0.250000 0.399555
#
# Coordination Sequence:
#
# PCOD8252687 Si02
#       8
#     8   8   8   8   8   8   8   8
#     4  11  21  32  51  81 112 147 186 223 273 334
#     4   9  19  37  58  81 110 142 181 228 273 325
#     4  10  21  38  61  87 112 144 188 233 281 334
#     4  10  20  36  60  87 113 145 185 230 283 337
#     4   9  19  34  53  80 113 145 183 229 275 328
#     4  10  20  35  55  80 113 148 181 222 275 330
#     4  10  22  40  59  82 113 148 187 235 284 331
#     4   9  19  36  53  73 107 145 183 229 276 325
#
# _framework density 19.228183999999999
#
# number of rings (size 3 to 8) (size 9 to 14) (size 15 to 20)
#    0.000    2.250    0.000    3.375    0.000    6.500 
#    2.250    0.000    0.000    0.000    0.000    0.000 
#    0.000    0.000    0.000    0.000    0.000    0.000 
#
# Total GULP energy -793798.291660 kJ/mol
# GULP energy per Si atom -12403.098307 kJ/mol
# Density = 1.918442 g / cm^3
# Si number density = 19.228184 Si / 1000 Ang^3
#
#
#
# Elastic Constant Matrix: (Units=GPa)
#
#
# Indices 1 2 3 4 5 6 
#
# 1 108.5723 54.1251 32.9157 0.0000 0.0000 0.0000
# 2 54.1251 90.3600 31.4702 0.0000 0.0000 0.0000
# 3 32.9157 31.4702 43.6998 0.0000 0.0000 0.0000
# 4 0.0000 0.0000 0.0000 31.6850 0.0000 0.0000
# 5 0.0000 0.0000 0.0000 0.0000 23.6070 0.0000
# 6 0.0000 0.0000 0.0000 0.0000 0.0000 33.4136
#
#
#
# Elastic Compliance Matrix: (Units=1/GPa)
#
#
# Indices 1 2 3 4 5 6 
#
# 1 0.014263 -0.006410 -0.006128 0.000000 0.000000 0.000000
# 2 -0.006410 0.017652 -0.007884 0.000000 0.000000 0.000000
# 3 -0.006128 -0.007884 0.033177 0.000000 0.000000 0.000000
# 4 0.000000 0.000000 0.000000 0.031561 0.000000 0.000000
# 5 0.000000 0.000000 0.000000 0.000000 0.042360 0.000000
# 6 0.000000 0.000000 0.000000 0.000000 0.000000 0.029928
#
#
# Mechanical properties :
#
#
# Convention : Reuss Voigt Hill
#
# Bulk Modulus (GPa) = 41.23849 53.29491 47.26670
# Shear Modulus (GPa) = 22.94977 26.01587 24.48282
#
# Velocity S-wave (km/s) = 3.45853 3.68231 3.57217
# Velocity P-wave (km/s) = 6.11899 6.77174 6.45362
#
# Compressibility (1/GPa) = 0.02424919
#
# Stress axis : x y z
#
# Youngs Moduli (GPa) = 70.10907 56.65080 30.14167
#
# Poissons Ratio (x) = 0.36311 0.18470
# Poissons Ratio (y) = 0.44937 0.23764
# Poissons Ratio (z) = 0.42961 0.44664
#
# Static dielectric constant tensor:
#      x y z
#    x 3.492180 0.000000 0.000000 
#    y 0.000000 3.504960 0.000000 
#    z 0.000000 0.000000 3.318380 
# 
# 
# High freq. dielectric constant tensor:
#      x y z
#    x 1.753420 0.000000 0.000000 
#    y 0.000000 1.753760 0.000000 
#    z 0.000000 0.000000 1.729390 
# 
# From -- ./inp_files/29787.got.cif
#   From: 2010.03.12/outbox.cif.g09.slc.cpg/sg62_15_cif.got.tgz:29787.got - 2010.04.10 19:12:36.
