data_PCOD8252074
_publ_section_title
;
Structure prediction by ZEFSAII (Michael W. Deem and Ramdas Pophale) SiO2 
 PCOD8252074
Probable space group: P N M A
;
_chemical_formula_sum "Si O2"
_cell_formula_units_Z 48
_cell_length_a 9.260392
_cell_length_b 16.720616
_cell_length_c 13.979982
_cell_angle_alpha 90.000000
_cell_angle_beta 90.000000
_cell_angle_gamma 90.000000
_cell_volume 2164.652845
_symmetry_space_group_name_H-M "P N M A"
_symmetry_group_IT_number 62
_symmetry_cell_setting 'orthorhombic'
loop_
_space_group_symop_operation_xyz
x,y,z
1/2-x,-y,1/2+z
1/2+x,1/2-y,1/2-z
-x,1/2+y,-z
-x,-y,-z
1/2+x,y,1/2-z
1/2-x,1/2+y,1/2+z
x,1/2-y,z
loop_
_atom_site_type_symbol
_atom_site_label
_atom_site_fract_x
_atom_site_fract_y
_atom_site_fract_z
Si Si1 0.028891 0.656648 0.666219
Si Si2 0.695234 0.883186 0.317633
Si Si3 0.078791 0.399012 0.537278
Si Si4 0.879443 0.838092 0.134871
Si Si5 0.709106 0.530769 0.076634
Si Si6 0.793178 0.941032 0.764687
O O1 0.048982 0.750000 0.689063
O O2 0.965550 0.647389 0.559054
O O3 0.928035 0.617478 0.747112
O O4 0.179215 0.610310 0.675143
O O5 0.806845 0.850279 0.398459
O O6 0.765543 0.858467 0.217883
O O7 0.543559 0.839896 0.331392
O O8 0.667763 0.978830 0.323583
O O9 0.167220 0.480917 0.516573
O O10 0.940069 0.420985 0.602989
O O11 0.847125 0.750000 0.093989
O O12 0.838006 0.904970 0.054667
O O13 0.761534 0.470992 0.160491
#
# Coordination Sequence:
#
# PCOD8252074 Si02
#       6
#     8   8   8   8   8   8
#     4  11  23  38  60  90 123 157 195 249 310 362
#     4  11  21  38  63  87 117 161 207 248 294 357
#     4  10  21  39  63  89 118 154 199 250 305 359
#     4  11  23  37  58  89 123 159 199 248 302 357
#     4   9  19  38  61  84 112 152 198 244 293 354
#     4  10  19  37  61  84 113 155 206 244 282 354
#
# _framework density 22.174455999999999
#
# number of rings (size 3 to 8) (size 9 to 14) (size 15 to 20)
#    0.000    1.667    0.000    8.000    0.000    2.667 
#    0.000    3.333    0.000    8.000    0.000    0.000 
#    0.000    0.000    0.000    0.000    0.000    0.000 
#
# Total GULP energy -594765.744141 kJ/mol
# GULP energy per Si atom -12390.953003 kJ/mol
# Density = 2.212399 g / cm^3
# Si number density = 22.174456 Si / 1000 Ang^3
#
#
#
# Elastic Constant Matrix: (Units=GPa)
#
#
# Indices 1 2 3 4 5 6 
#
# 1 73.2211 18.8933 17.9702 0.0000 0.0000 0.0000
# 2 18.8933 130.6052 4.2633 0.0000 0.0000 0.0000
# 3 17.9702 4.2633 44.0602 0.0000 0.0000 0.0000
# 4 0.0000 0.0000 0.0000 18.2449 0.0000 0.0000
# 5 0.0000 0.0000 0.0000 0.0000 39.8282 0.0000
# 6 0.0000 0.0000 0.0000 0.0000 0.0000 28.6696
#
#
#
# Elastic Compliance Matrix: (Units=1/GPa)
#
#
# Indices 1 2 3 4 5 6 
#
# 1 0.015715 -0.002071 -0.006209 0.000000 0.000000 0.000000
# 2 -0.002071 0.007954 0.000075 0.000000 0.000000 0.000000
# 3 -0.006209 0.000075 0.025221 0.000000 0.000000 0.000000
# 4 0.000000 0.000000 0.000000 0.054810 0.000000 0.000000
# 5 0.000000 0.000000 0.000000 0.000000 0.025108 0.000000
# 6 0.000000 0.000000 0.000000 0.000000 0.000000 0.034880
#
#
# Mechanical properties :
#
#
# Convention : Reuss Voigt Hill
#
# Bulk Modulus (GPa) = 30.78759 36.68222 33.73490
# Shear Modulus (GPa) = 26.18824 31.13253 28.66039
#
# Velocity S-wave (km/s) = 3.44031 3.75104 3.59903
# Velocity P-wave (km/s) = 5.44935 5.94465 5.70238
#
# Compressibility (1/GPa) = 0.03248062
#
# Stress axis : x y z
#
# Youngs Moduli (GPa) = 63.63149 125.72660 39.64874
#
# Poissons Ratio (x) = 0.26034 0.24619
# Poissons Ratio (y) = 0.13176 -0.00297
# Poissons Ratio (z) = 0.39511 -0.00942
#
# Static dielectric constant tensor:
#      x y z
#    x 4.101410 0.000000 0.000000 
#    y 0.000000 4.178300 0.000000 
#    z 0.000000 0.000000 3.760040 
# 
# 
# High freq. dielectric constant tensor:
#      x y z
#    x 1.872110 0.000000 0.000000 
#    y 0.000000 1.871300 0.000000 
#    z 0.000000 0.000000 1.850450 
# 
# From -- ./inp_files/16932.got.cif
#   From: 2010.03.12/outbox.cif.g09.slc.cpg/sg62_9_cif.got.tgz:16932.got - 2010.04.10 19:12:36.
