data_PCOD8252709
_publ_section_title
;
Structure prediction by ZEFSAII (Michael W. Deem and Ramdas Pophale) SiO2 
 PCOD8252709
Probable space group: P N M A
;
_chemical_formula_sum "Si O2"
_cell_formula_units_Z 48
_cell_length_a 29.490378
_cell_length_b 9.012957
_cell_length_c 9.707158
_cell_angle_alpha 90.000000
_cell_angle_beta 90.000000
_cell_angle_gamma 90.000000
_cell_volume 2580.119000
_symmetry_space_group_name_H-M "P N M A"
_symmetry_group_IT_number 62
_symmetry_cell_setting 'orthorhombic'
loop_
_space_group_symop_operation_xyz
x,y,z
1/2-x,-y,1/2+z
1/2+x,1/2-y,1/2-z
-x,1/2+y,-z
-x,-y,-z
1/2+x,y,1/2-z
1/2-x,1/2+y,1/2+z
x,1/2-y,z
loop_
_atom_site_type_symbol
_atom_site_label
_atom_site_fract_x
_atom_site_fract_y
_atom_site_fract_z
Si Si1 0.778878 0.577279 0.135310
Si Si2 0.129042 0.922543 0.838824
Si Si3 0.949300 0.419859 0.368779
Si Si4 0.290330 0.580232 0.678630
Si Si5 0.960613 0.422113 0.682313
Si Si6 0.607912 0.423075 0.383683
O O1 0.787603 0.750000 0.159824
O O2 0.822123 0.491226 0.195546
O O3 0.733787 0.526611 0.213044
O O4 0.772393 0.543061 0.974096
O O5 0.135184 0.750000 0.870680
O O6 0.098013 0.951639 0.705963
O O7 0.105291 0.997581 0.969400
O O8 0.965157 0.250000 0.348304
O O9 0.941898 0.454687 0.529572
O O10 0.987462 0.526064 0.304947
O O11 0.279601 0.750000 0.717159
O O12 0.343733 0.546917 0.687874
O O13 0.957519 0.250000 0.721447
O O14 0.931253 0.515540 0.787942
O O15 0.600435 0.250000 0.409727
#
# Coordination Sequence:
#
# PCOD8252709 Si02
#       6
#     8   8   8   8   8   8
#     4  10  21  36  55  80 108 138 175 218 262 311
#     4  10  20  36  57  79 106 139 175 217 264 313
#     4   9  20  37  55  78 107 138 175 219 264 313
#     4   9  20  37  54  76 106 139 175 215 259 308
#     4  10  20  35  56  80 106 139 177 217 265 317
#     4  10  21  37  55  78 109 141 177 220 262 310
#
# _framework density 18.603794000000001
#
# number of rings (size 3 to 8) (size 9 to 14) (size 15 to 20)
#    0.000    2.333    0.000    3.000    0.000    8.000 
#    0.000    5.000    0.000    0.000    0.000    0.000 
#    0.000    0.000    0.000    0.000    0.000    0.000 
#
# Total GULP energy -595399.713503 kJ/mol
# GULP energy per Si atom -12404.160698 kJ/mol
# Density = 1.856145 g / cm^3
# Si number density = 18.603794 Si / 1000 Ang^3
#
#
#
# Elastic Constant Matrix: (Units=GPa)
#
#
# Indices 1 2 3 4 5 6 
#
# 1 22.7669 9.2153 -4.1184 0.0000 0.0000 0.0000
# 2 9.2153 74.9951 6.7901 0.0000 0.0000 0.0000
# 3 -4.1184 6.7901 18.2017 0.0000 0.0000 0.0000
# 4 0.0000 0.0000 0.0000 30.4013 0.0000 0.0000
# 5 0.0000 0.0000 0.0000 0.0000 33.2839 0.0000
# 6 0.0000 0.0000 0.0000 0.0000 0.0000 36.9153
#
#
#
# Elastic Compliance Matrix: (Units=1/GPa)
#
#
# Indices 1 2 3 4 5 6 
#
# 1 0.049408 -0.007331 0.013914 0.000000 0.000000 0.000000
# 2 -0.007331 0.014888 -0.007213 0.000000 0.000000 0.000000
# 3 0.013914 -0.007213 0.060779 0.000000 0.000000 0.000000
# 4 0.000000 0.000000 0.000000 0.032893 0.000000 0.000000
# 5 0.000000 0.000000 0.000000 0.000000 0.030045 0.000000
# 6 0.000000 0.000000 0.000000 0.000000 0.000000 0.027089
#
#
# Mechanical properties :
#
#
# Convention : Reuss Voigt Hill
#
# Bulk Modulus (GPa) = 8.07654 15.52641 11.80148
# Shear Modulus (GPa) = 19.40747 27.05855 23.23301
#
# Velocity S-wave (km/s) = 3.23336 3.81788 3.53772
# Velocity P-wave (km/s) = 4.27671 5.27247 4.80048
#
# Compressibility (1/GPa) = 0.12381538
#
# Stress axis : x y z
#
# Youngs Moduli (GPa) = 20.23976 67.16791 16.45307
#
# Poissons Ratio (x) = 0.49240 -0.22893
# Poissons Ratio (y) = 0.14838 0.11867
# Poissons Ratio (z) = -0.28162 0.48446
#
# Static dielectric constant tensor:
#      x y z
#    x 3.333830 0.000000 0.000000 
#    y 0.000000 3.510750 0.000000 
#    z 0.000000 0.000000 3.385350 
# 
# 
# High freq. dielectric constant tensor:
#      x y z
#    x 1.721150 0.000000 0.000000 
#    y 0.000000 1.734690 0.000000 
#    z 0.000000 0.000000 1.718640 
# 
# From -- ./inp_files/10195.got.cif
#   From: 2010.03.12/outbox.cif.g09.slc.cpg/sg62_6_cif.got.tgz:10195.got - 2010.04.10 19:12:36.
