data_PCOD8252353
_publ_section_title
;
Structure prediction by ZEFSAII (Michael W. Deem and Ramdas Pophale) SiO2 
 PCOD8252353
Probable space group: P N M A
;
_chemical_formula_sum "Si O2"
_cell_formula_units_Z 56
_cell_length_a 19.927277
_cell_length_b 8.921716
_cell_length_c 16.242556
_cell_angle_alpha 90.000000
_cell_angle_beta 90.000000
_cell_angle_gamma 90.000000
_cell_volume 2887.691038
_symmetry_space_group_name_H-M "P N M A"
_symmetry_group_IT_number 62
_symmetry_cell_setting 'orthorhombic'
loop_
_space_group_symop_operation_xyz
x,y,z
1/2-x,-y,1/2+z
1/2+x,1/2-y,1/2-z
-x,1/2+y,-z
-x,-y,-z
1/2+x,y,1/2-z
1/2-x,1/2+y,1/2+z
x,1/2-y,z
loop_
_atom_site_type_symbol
_atom_site_label
_atom_site_fract_x
_atom_site_fract_y
_atom_site_fract_z
Si Si1 0.821157 0.075512 0.992804
Si Si2 0.528847 0.427402 0.745598
Si Si3 0.198560 0.425422 0.174719
Si Si4 0.837970 0.573506 0.338586
Si Si5 0.902785 0.926889 0.680009
Si Si6 0.674091 0.073776 0.022881
Si Si7 0.541195 0.574752 0.572393
O O1 0.816572 0.250000 0.969479
O O2 0.835087 0.988941 0.908035
O O3 0.751322 0.018937 0.032762
O O4 0.880012 0.043634 0.057703
O O5 0.524052 0.250000 0.736608
O O6 0.600043 0.478348 0.782890
O O7 0.471690 0.485448 0.806609
O O8 0.518615 0.502079 0.657344
O O9 0.208237 0.250000 0.164713
O O10 0.271038 0.495249 0.194449
O O11 0.149562 0.467076 0.248789
O O12 0.826072 0.750000 0.334105
O O13 0.852876 0.525094 0.433114
O O14 0.917560 0.750000 0.676675
O O15 0.872420 0.993225 0.594769
O O16 0.672307 0.250000 0.034571
O O17 0.500000 0.500000 0.500000
O O18 0.524525 0.750000 0.575064
#
# Coordination Sequence:
#
# PCOD8252353 Si02
#       7
#     8   8   8   8   8   8   8
#     4   9  19  36  58  80 108 148 187 228 284 346
#     4  11  24  39  56  83 118 155 194 238 289 347
#     4  10  20  33  56  86 115 144 184 238 287 340
#     4   9  20  39  59  80 112 154 193 236 291 346
#     4  10  21  36  57  83 111 147 191 240 291 346
#     4   8  16  35  59  80 105 142 190 235 284 341
#     4  11  23  38  60  86 117 155 193 236 288 347
#
# _framework density 19.392658000000001
#
# number of rings (size 3 to 8) (size 9 to 14) (size 15 to 20)
#    0.000    2.286    0.000    3.000    2.000    6.286 
#    0.000    2.857    0.000    0.000    0.000    0.000 
#    0.000    0.000    0.000    0.000    0.000    0.000 
#
# Total GULP energy -694476.547241 kJ/mol
# GULP energy per Si atom -12401.366915 kJ/mol
# Density = 1.934852 g / cm^3
# Si number density = 19.392658 Si / 1000 Ang^3
#
#
#
# Elastic Constant Matrix: (Units=GPa)
#
#
# Indices 1 2 3 4 5 6 
#
# 1 82.1659 36.7457 24.1503 0.0000 0.0000 0.0000
# 2 36.7457 50.6611 16.7307 0.0000 0.0000 0.0000
# 3 24.1503 16.7307 59.6130 0.0000 0.0000 0.0000
# 4 0.0000 0.0000 0.0000 24.5657 0.0000 0.0000
# 5 0.0000 0.0000 0.0000 0.0000 36.6027 0.0000
# 6 0.0000 0.0000 0.0000 0.0000 0.0000 29.8410
#
#
#
# Elastic Compliance Matrix: (Units=1/GPa)
#
#
# Indices 1 2 3 4 5 6 
#
# 1 0.018924 -0.012337 -0.004204 0.000000 0.000000 0.000000
# 2 -0.012337 0.029799 -0.003365 0.000000 0.000000 0.000000
# 3 -0.004204 -0.003365 0.019422 0.000000 0.000000 0.000000
# 4 0.000000 0.000000 0.000000 0.040707 0.000000 0.000000
# 5 0.000000 0.000000 0.000000 0.000000 0.027320 0.000000
# 6 0.000000 0.000000 0.000000 0.000000 0.000000 0.033511
#
#
# Mechanical properties :
#
#
# Convention : Reuss Voigt Hill
#
# Bulk Modulus (GPa) = 35.29542 38.63261 36.96401
# Shear Modulus (GPa) = 22.83731 25.85610 24.34671
#
# Velocity S-wave (km/s) = 3.43538 3.65539 3.54709
# Velocity P-wave (km/s) = 5.82887 6.14657 5.98983
#
# Compressibility (1/GPa) = 0.02833229
#
# Stress axis : x y z
#
# Youngs Moduli (GPa) = 52.84431 33.55818 51.48723
#
# Poissons Ratio (x) = 0.41402 0.21644
# Poissons Ratio (y) = 0.65196 0.17326
# Poissons Ratio (z) = 0.22214 0.11293
#
# Static dielectric constant tensor:
#      x y z
#    x 3.711700 0.000000 0.000000 
#    y 0.000000 3.387090 0.000000 
#    z 0.000000 0.000000 3.640900 
# 
# 
# High freq. dielectric constant tensor:
#      x y z
#    x 1.764830 0.000000 0.000000 
#    y 0.000000 1.740590 0.000000 
#    z 0.000000 0.000000 1.758600 
# 
# From -- ./inp_files/20236.got.cif
#   From: 2010.03.12/outbox.cif.g09.slc.cpg/sg62_11_cif.got.tgz:20236.got - 2010.04.10 19:12:36.
