data_PCOD8252666
_publ_section_title
;
Structure prediction by ZEFSAII (Michael W. Deem and Ramdas Pophale) SiO2 
 PCOD8252666
Probable space group: P N M A
;
_chemical_formula_sum "Si O2"
_cell_formula_units_Z 56
_cell_length_a 14.830565
_cell_length_b 8.627895
_cell_length_c 22.310777
_cell_angle_alpha 90.000000
_cell_angle_beta 90.000000
_cell_angle_gamma 90.000000
_cell_volume 2854.810223
_symmetry_space_group_name_H-M "P N M A"
_symmetry_group_IT_number 62
_symmetry_cell_setting 'orthorhombic'
loop_
_space_group_symop_operation_xyz
x,y,z
1/2-x,-y,1/2+z
1/2+x,1/2-y,1/2-z
-x,1/2+y,-z
-x,-y,-z
1/2+x,y,1/2-z
1/2-x,1/2+y,1/2+z
x,1/2-y,z
loop_
_atom_site_type_symbol
_atom_site_label
_atom_site_fract_x
_atom_site_fract_y
_atom_site_fract_z
Si Si1 0.693495 0.430142 0.876635
Si Si2 0.675326 0.434869 0.285100
Si Si3 0.522656 0.431696 0.370859
Si Si4 0.349090 0.565553 0.849789
Si Si5 0.512980 0.933966 0.932823
Si Si6 0.666769 0.934808 0.596270
Si Si7 0.358278 0.429721 0.536467
O O1 0.671338 0.250000 0.868168
O O2 0.731667 0.497222 0.813273
O O3 0.604386 0.515638 0.899950
O O4 0.767478 0.461066 0.927038
O O5 0.683566 0.250000 0.287981
O O6 0.589585 0.503659 0.321515
O O7 0.653432 0.494451 0.218454
O O8 0.524528 0.250000 0.363233
O O9 0.419486 0.490750 0.364305
O O10 0.558057 0.476415 0.436487
O O11 0.349377 0.750000 0.850664
O O12 0.433043 0.504511 0.889106
O O13 0.257997 0.494795 0.877580
O O14 0.510490 0.750000 0.938420
O O15 0.500000 0.000000 0.000000
O O16 0.672035 0.750000 0.595729
O O17 0.657147 0.997534 0.529230
O O18 0.384049 0.250000 0.536163
#
# Coordination Sequence:
#
# PCOD8252666 Si02
#       7
#     8   8   8   8   8   8   8
#     4  10  20  35  55  78 106 142 180 222 271 326
#     4   9  18  34  54  78 104 133 173 218 263 319
#     4   9  17  28  47  74 100 124 157 203 253 304
#     4   9  19  34  53  76 104 138 179 224 269 322
#     4  11  22  37  58  84 112 147 190 236 284 334
#     4   9  16  28  47  71  97 127 162 204 252 304
#     4   9  17  30  49  71  98 131 165 201 251 313
#
# _framework density 19.616015000000001
#
# number of rings (size 3 to 8) (size 9 to 14) (size 15 to 20)
#    0.000    2.571    0.000    2.143    0.000    4.000 
#    0.000    5.714    0.000    6.857    0.000    0.000 
#    0.000    0.000    0.000    0.000    0.000    0.000 
#
# Total GULP energy -694034.043264 kJ/mol
# GULP energy per Si atom -12393.465058 kJ/mol
# Density = 1.957137 g / cm^3
# Si number density = 19.616015 Si / 1000 Ang^3
#
#
#
# Elastic Constant Matrix: (Units=GPa)
#
#
# Indices 1 2 3 4 5 6 
#
# 1 143.2193 26.1039 64.9003 0.0000 0.0000 0.0000
# 2 26.1039 28.6228 19.6798 0.0000 0.0000 0.0000
# 3 64.9003 19.6798 147.2122 0.0000 0.0000 0.0000
# 4 0.0000 0.0000 0.0000 23.9954 0.0000 0.0000
# 5 0.0000 0.0000 0.0000 0.0000 28.5245 0.0000
# 6 0.0000 0.0000 0.0000 0.0000 0.0000 19.9658
#
#
#
# Elastic Compliance Matrix: (Units=1/GPa)
#
#
# Indices 1 2 3 4 5 6 
#
# 1 0.009716 -0.006515 -0.003413 0.000000 0.000000 0.000000
# 2 -0.006515 0.042842 -0.002855 0.000000 0.000000 0.000000
# 3 -0.003413 -0.002855 0.008679 0.000000 0.000000 0.000000
# 4 0.000000 0.000000 0.000000 0.041675 0.000000 0.000000
# 5 0.000000 0.000000 0.000000 0.000000 0.035058 0.000000
# 6 0.000000 0.000000 0.000000 0.000000 0.000000 0.050086
#
#
# Mechanical properties :
#
#
# Convention : Reuss Voigt Hill
#
# Bulk Modulus (GPa) = 28.03314 60.04692 44.04003
# Shear Modulus (GPa) = 22.17195 28.38851 25.28023
#
# Velocity S-wave (km/s) = 3.36564 3.80835 3.59382
# Velocity P-wave (km/s) = 5.42451 7.07218 6.30242
#
# Compressibility (1/GPa) = 0.03567207
#
# Stress axis : x y z
#
# Youngs Moduli (GPa) = 102.92155 23.34173 115.21975
#
# Poissons Ratio (x) = 0.15207 0.39320
# Poissons Ratio (y) = 0.67051 0.32896
# Poissons Ratio (z) = 0.35123 0.06664
#
# Static dielectric constant tensor:
#      x y z
#    x 3.942980 0.000000 0.000000 
#    y 0.000000 3.219440 0.000000 
#    z 0.000000 0.000000 3.805030 
# 
# 
# High freq. dielectric constant tensor:
#      x y z
#    x 1.777730 0.000000 0.000000 
#    y 0.000000 1.727760 0.000000 
#    z 0.000000 0.000000 1.767630 
# 
# From -- ./inp_files/27307.got.cif
#   From: 2010.03.12/outbox.cif.g09.slc.cpg/sg62_14_cif.got.tgz:27307.got - 2010.04.10 19:12:36.
