data_PCOD8252603
_publ_section_title
;
Structure prediction by ZEFSAII (Michael W. Deem and Ramdas Pophale) SiO2 
 PCOD8252603
Probable space group: P N M A
;
_chemical_formula_sum "Si O2"
_cell_formula_units_Z 48
_cell_length_a 14.211146
_cell_length_b 21.619462
_cell_length_c 7.902430
_cell_angle_alpha 90.000000
_cell_angle_beta 90.000000
_cell_angle_gamma 90.000000
_cell_volume 2427.921501
_symmetry_space_group_name_H-M "P N M A"
_symmetry_group_IT_number 62
_symmetry_cell_setting 'orthorhombic'
loop_
_space_group_symop_operation_xyz
x,y,z
1/2-x,-y,1/2+z
1/2+x,1/2-y,1/2-z
-x,1/2+y,-z
-x,-y,-z
1/2+x,y,1/2-z
1/2-x,1/2+y,1/2+z
x,1/2-y,z
loop_
_atom_site_type_symbol
_atom_site_label
_atom_site_fract_x
_atom_site_fract_y
_atom_site_fract_z
Si Si1 0.364734 0.884389 0.587989
Si Si2 0.939621 0.497307 0.335859
Si Si3 0.922117 0.386234 0.144222
Si Si4 0.760668 0.821361 0.600621
Si Si5 0.116173 0.525282 0.143464
Si Si6 0.286495 0.596238 0.227520
O O1 0.474785 0.864961 0.584295
O O2 0.316407 0.844773 0.734954
O O3 0.322735 0.871459 0.400305
O O4 0.346545 0.955531 0.634365
O O5 0.923065 0.422809 0.322147
O O6 0.846961 0.538367 0.340698
O O7 0.000000 0.500000 0.500000
O O8 0.006212 0.526126 0.190072
O O9 0.851086 0.328722 0.139363
O O10 0.876689 0.442554 0.037115
O O11 0.784190 0.750000 0.575696
O O12 0.788509 0.854081 0.424424
O O13 0.183138 0.566883 0.265650
#
# Coordination Sequence:
#
# PCOD8252603 Si02
#       6
#     8   8   8   8   8   8
#     4  11  21  40  67  91 124 167 199 249 321 378
#     4  11  20  32  59  98 127 151 190 247 314 384
#     4  10  20  41  61  88 130 157 195 256 316 371
#     4  11  27  44  59  87 122 166 224 263 292 356
#     4  10  20  34  58  98 126 149 192 242 316 388
#     4  11  22  38  64  89 128 161 200 254 313 368
#
# _framework density 19.769997
#
# number of rings (size 3 to 8) (size 9 to 14) (size 15 to 20)
#    0.000    1.333    3.333    4.000    7.000    1.333 
#    0.000    0.000    0.000    0.000    0.000    0.000 
#    0.000    0.000    0.000    0.000    0.000    0.000 
#
# Total GULP energy -594828.334776 kJ/mol
# GULP energy per Si atom -12392.256975 kJ/mol
# Density = 1.972500 g / cm^3
# Si number density = 19.769997 Si / 1000 Ang^3
#
#
#
# Elastic Constant Matrix: (Units=GPa)
#
#
# Indices 1 2 3 4 5 6 
#
# 1 108.8408 42.1403 29.8038 0.0000 0.0000 0.0000
# 2 42.1403 78.4634 37.2061 0.0000 0.0000 0.0000
# 3 29.8038 37.2061 100.7957 0.0000 0.0000 0.0000
# 4 0.0000 0.0000 0.0000 20.6322 0.0000 0.0000
# 5 0.0000 0.0000 0.0000 0.0000 28.4969 0.0000
# 6 0.0000 0.0000 0.0000 0.0000 0.0000 19.3498
#
#
#
# Elastic Compliance Matrix: (Units=1/GPa)
#
#
# Indices 1 2 3 4 5 6 
#
# 1 0.011758 -0.005656 -0.001389 0.000000 0.000000 0.000000
# 2 -0.005656 0.018170 -0.005034 0.000000 0.000000 0.000000
# 3 -0.001389 -0.005034 0.012190 0.000000 0.000000 0.000000
# 4 0.000000 0.000000 0.000000 0.048468 0.000000 0.000000
# 5 0.000000 0.000000 0.000000 0.000000 0.035092 0.000000
# 6 0.000000 0.000000 0.000000 0.000000 0.000000 0.051680
#
#
# Mechanical properties :
#
#
# Convention : Reuss Voigt Hill
#
# Bulk Modulus (GPa) = 55.68295 56.26669 55.97482
# Shear Modulus (GPa) = 24.09605 25.62575 24.86090
#
# Velocity S-wave (km/s) = 3.49495 3.60418 3.54998
# Velocity P-wave (km/s) = 6.67179 6.77071 6.72143
#
# Compressibility (1/GPa) = 0.01795882
#
# Stress axis : x y z
#
# Youngs Moduli (GPa) = 85.04847 55.03611 82.03423
#
# Poissons Ratio (x) = 0.31130 0.11393
# Poissons Ratio (y) = 0.48106 0.41300
# Poissons Ratio (z) = 0.11811 0.27708
#
# Static dielectric constant tensor:
#      x y z
#    x 3.710040 0.000000 0.000000 
#    y 0.000000 3.274450 0.000000 
#    z 0.000000 0.000000 3.634330 
# 
# 
# High freq. dielectric constant tensor:
#      x y z
#    x 1.787770 0.000000 0.000000 
#    y 0.000000 1.731310 0.000000 
#    z 0.000000 0.000000 1.777760 
# 
# From -- ./inp_files/6512.got.cif
#   From: 2010.03.12/outbox.cif.g09.slc.cpg/sg62_4_cif.got.tgz:6512.got - 2010.04.10 19:12:36.
