data_PCOD8252926
_publ_section_title
;
Structure prediction by ZEFSAII (Michael W. Deem and Ramdas Pophale) SiO2 
 PCOD8252926
Probable space group: P N M A
;
_chemical_formula_sum "Si O2"
_cell_formula_units_Z 56
_cell_length_a 19.664923
_cell_length_b 9.179256
_cell_length_c 16.832653
_cell_angle_alpha 90.000000
_cell_angle_beta 90.000000
_cell_angle_gamma 90.000000
_cell_volume 3038.451461
_symmetry_space_group_name_H-M "P N M A"
_symmetry_group_IT_number 62
_symmetry_cell_setting 'orthorhombic'
loop_
_space_group_symop_operation_xyz
x,y,z
1/2-x,-y,1/2+z
1/2+x,1/2-y,1/2-z
-x,1/2+y,-z
-x,-y,-z
1/2+x,y,1/2-z
1/2-x,1/2+y,1/2+z
x,1/2-y,z
loop_
_atom_site_type_symbol
_atom_site_label
_atom_site_fract_x
_atom_site_fract_y
_atom_site_fract_z
Si Si1 0.739448 0.080983 0.766164
Si Si2 0.866960 0.920864 0.144298
Si Si3 0.341560 0.577611 0.528544
Si Si4 0.196029 0.583003 0.586463
Si Si5 0.615435 0.919950 0.319225
Si Si6 0.021778 0.422531 0.731575
Si Si7 0.954948 0.079377 0.434697
O O1 0.732799 0.250000 0.784643
O O2 0.707456 0.042650 0.680644
O O3 0.817803 0.031272 0.769619
O O4 0.693140 0.005255 0.832081
O O5 0.877923 0.750000 0.136990
O O6 0.869190 0.986093 0.055326
O O7 0.925623 0.982055 0.201946
O O8 0.350998 0.750000 0.534290
O O9 0.261448 0.534415 0.534589
O O10 0.386309 0.504907 0.597470
O O11 0.204056 0.750000 0.610839
O O12 0.124558 0.556955 0.541102
O O13 0.615900 0.750000 0.339953
O O14 0.552373 0.961584 0.264674
O O15 0.030636 0.250000 0.715408
O O16 0.031146 0.510145 0.650844
O O17 0.973588 0.250000 0.432466
O O18 0.000000 0.000000 0.500000
#
# Coordination Sequence:
#
# PCOD8252926 Si02
#       7
#     8   8   8   8   8   8   8
#     4   9  16  30  53  74  96 134 178 216 259 318
#     4   9  17  30  52  77 100 136 181 215 256 316
#     4   9  18  33  53  77 105 139 179 220 264 314
#     4   9  18  33  52  74 101 132 171 219 265 309
#     4   9  19  33  51  77 108 139 175 219 268 314
#     4  10  20  36  55  77 107 142 178 221 267 317
#     4  11  23  37  55  80 108 141 178 220 273 325
#
# _framework density 18.430441999999999
#
# number of rings (size 3 to 8) (size 9 to 14) (size 15 to 20)
#    0.000    2.571    1.429    0.429    0.000    2.857 
#    0.000    5.714    0.000    0.000    0.000    0.000 
#    0.000    0.000    0.000    0.000    0.000    0.000 
#
# Total GULP energy -694148.203843 kJ/mol
# GULP energy per Si atom -12395.503640 kJ/mol
# Density = 1.838849 g / cm^3
# Si number density = 18.430442 Si / 1000 Ang^3
#
#
#
# Elastic Constant Matrix: (Units=GPa)
#
#
# Indices 1 2 3 4 5 6 
#
# 1 98.3768 31.2763 50.0935 0.0000 0.0000 0.0000
# 2 31.2763 44.9839 37.3029 0.0000 0.0000 0.0000
# 3 50.0935 37.3029 106.5988 0.0000 0.0000 0.0000
# 4 0.0000 0.0000 0.0000 30.3090 0.0000 0.0000
# 5 0.0000 0.0000 0.0000 0.0000 25.5112 0.0000
# 6 0.0000 0.0000 0.0000 0.0000 0.0000 19.6926
#
#
#
# Elastic Compliance Matrix: (Units=1/GPa)
#
#
# Indices 1 2 3 4 5 6 
#
# 1 0.014510 -0.006247 -0.004633 0.000000 0.000000 0.000000
# 2 -0.006247 0.034008 -0.008965 0.000000 0.000000 0.000000
# 3 -0.004633 -0.008965 0.014695 0.000000 0.000000 0.000000
# 4 0.000000 0.000000 0.000000 0.032994 0.000000 0.000000
# 5 0.000000 0.000000 0.000000 0.000000 0.039198 0.000000
# 6 0.000000 0.000000 0.000000 0.000000 0.000000 0.050781
#
#
# Mechanical properties :
#
#
# Convention : Reuss Voigt Hill
#
# Bulk Modulus (GPa) = 42.51001 54.14498 48.32749
# Shear Modulus (GPa) = 21.39354 23.85502 22.62428
#
# Velocity S-wave (km/s) = 3.41071 3.60158 3.50744
# Velocity P-wave (km/s) = 6.21496 6.83644 6.53310
#
# Compressibility (1/GPa) = 0.02352387
#
# Stress axis : x y z
#
# Youngs Moduli (GPa) = 68.91838 29.40510 68.04981
#
# Poissons Ratio (x) = 0.18369 0.31525
# Poissons Ratio (y) = 0.43052 0.61007
# Poissons Ratio (z) = 0.31927 0.26362
#
# Static dielectric constant tensor:
#      x y z
#    x 3.681320 0.000000 0.000000 
#    y 0.000000 3.236250 0.000000 
#    z 0.000000 0.000000 3.472210 
# 
# 
# High freq. dielectric constant tensor:
#      x y z
#    x 1.725140 0.000000 0.000000 
#    y 0.000000 1.694060 0.000000 
#    z 0.000000 0.000000 1.708410 
# 
# From -- ./inp_files/20380.got.cif
#   From: 2010.03.12/outbox.cif.g09.slc.cpg/sg62_11_cif.got.tgz:20380.got - 2010.04.10 19:12:36.
