data_PCOD8252020
_publ_section_title
;
Structure prediction by ZEFSAII (Michael W. Deem and Ramdas Pophale) SiO2 
 PCOD8252020
Probable space group: P N M A
;
_chemical_formula_sum "Si O2"
_cell_formula_units_Z 56
_cell_length_a 13.336403
_cell_length_b 19.473502
_cell_length_c 11.305980
_cell_angle_alpha 90.000000
_cell_angle_beta 90.000000
_cell_angle_gamma 90.000000
_cell_volume 2936.236161
_symmetry_space_group_name_H-M "P N M A"
_symmetry_group_IT_number 62
_symmetry_cell_setting 'orthorhombic'
loop_
_space_group_symop_operation_xyz
x,y,z
1/2-x,-y,1/2+z
1/2+x,1/2-y,1/2-z
-x,1/2+y,-z
-x,-y,-z
1/2+x,y,1/2-z
1/2-x,1/2+y,1/2+z
x,1/2-y,z
loop_
_atom_site_type_symbol
_atom_site_label
_atom_site_fract_x
_atom_site_fract_y
_atom_site_fract_z
Si Si1 0.223268 0.114140 0.931551
Si Si2 0.412448 0.383119 0.325330
Si Si3 0.996224 0.830224 0.063255
Si Si4 0.748517 0.040881 0.033446
Si Si5 0.665224 0.909266 0.306152
Si Si6 0.106731 0.059848 0.268225
Si Si7 0.250759 0.674142 0.666414
O O1 0.105951 0.128857 0.913488
O O2 0.279566 0.122214 0.806924
O O3 0.240762 0.039579 0.988680
O O4 0.272031 0.166554 0.026206
O O5 0.467105 0.341414 0.429108
O O6 0.339123 0.440372 0.378436
O O7 0.489947 0.422503 0.240066
O O8 0.350165 0.331646 0.242865
O O9 0.979243 0.750000 0.085843
O O10 0.076976 0.857997 0.156955
O O11 0.642630 0.059674 0.095200
O O12 0.753971 0.084057 0.912489
O O13 0.622023 0.984991 0.286676
O O14 0.166426 0.117727 0.196670
O O15 0.295471 0.750000 0.689370
#
# Coordination Sequence:
#
# PCOD8252020 Si02
#       7
#     8   8   8   8   8   8   8
#     4  11  21  37  60  84 118 154 192 236 295 347
#     4  10  20  36  59  85 114 145 195 245 291 341
#     4  11  22  37  60  84 114 160 199 234 292 354
#     4   9  19  36  59  85 115 146 192 243 290 339
#     4  10  21  39  59  88 117 153 197 244 282 348
#     4  10  19  36  62  86 113 150 190 243 294 340
#     4  11  22  35  56  87 117 149 192 241 290 345
#
# _framework density 19.072035
#
# number of rings (size 3 to 8) (size 9 to 14) (size 15 to 20)
#    0.000    1.714    2.857    1.714    0.000    4.000 
#    2.571    1.429    0.000    0.000    0.000    0.000 
#    0.000    0.000    0.000    0.000    0.000    0.000 
#
# Total GULP energy -694368.802991 kJ/mol
# GULP energy per Si atom -12399.442911 kJ/mol
# Density = 1.902863 g / cm^3
# Si number density = 19.072035 Si / 1000 Ang^3
#
#
#
# Elastic Constant Matrix: (Units=GPa)
#
#
# Indices 1 2 3 4 5 6 
#
# 1 66.1339 9.1328 34.6254 0.0000 0.0000 0.0000
# 2 9.1328 73.2551 15.9044 0.0000 0.0000 0.0000
# 3 34.6254 15.9044 92.8636 0.0000 0.0000 0.0000
# 4 0.0000 0.0000 0.0000 19.8723 0.0000 0.0000
# 5 0.0000 0.0000 0.0000 0.0000 31.3396 0.0000
# 6 0.0000 0.0000 0.0000 0.0000 0.0000 11.1096
#
#
#
# Elastic Compliance Matrix: (Units=1/GPa)
#
#
# Indices 1 2 3 4 5 6 
#
# 1 0.018840 -0.000855 -0.006878 0.000000 0.000000 0.000000
# 2 -0.000855 0.014217 -0.002116 0.000000 0.000000 0.000000
# 3 -0.006878 -0.002116 0.013696 0.000000 0.000000 0.000000
# 4 0.000000 0.000000 0.000000 0.050321 0.000000 0.000000
# 5 0.000000 0.000000 0.000000 0.000000 0.031909 0.000000
# 6 0.000000 0.000000 0.000000 0.000000 0.000000 0.090012
#
#
# Mechanical properties :
#
#
# Convention : Reuss Voigt Hill
#
# Bulk Modulus (GPa) = 36.96404 39.06419 38.01412
# Shear Modulus (GPa) = 20.18474 23.97029 22.07752
#
# Velocity S-wave (km/s) = 3.25675 3.54902 3.40602
# Velocity P-wave (km/s) = 5.79355 6.10909 5.95341
#
# Compressibility (1/GPa) = 0.02705332
#
# Stress axis : x y z
#
# Youngs Moduli (GPa) = 53.07797 70.33853 73.01652
#
# Poissons Ratio (x) = 0.06017 0.50223
# Poissons Ratio (y) = 0.04541 0.15450
# Poissons Ratio (z) = 0.36509 0.14883
#
# Static dielectric constant tensor:
#      x y z
#    x 3.454020 0.000000 0.000000 
#    y 0.000000 3.390770 0.000000 
#    z 0.000000 0.000000 3.624260 
# 
# 
# High freq. dielectric constant tensor:
#      x y z
#    x 1.731890 0.000000 0.000000 
#    y 0.000000 1.741060 0.000000 
#    z 0.000000 0.000000 1.744220 
# 
# From -- ./inp_files/12417.got.cif
#   From: 2010.03.12/outbox.cif.g09.slc.cpg/sg62_7_cif.got.tgz:12417.got - 2010.04.10 19:12:36.
