data_PCOD8252141
_publ_section_title
;
Structure prediction by ZEFSAII (Michael W. Deem and Ramdas Pophale) SiO2 
 PCOD8252141
Probable space group: P N M A
;
_chemical_formula_sum "Si O2"
_cell_formula_units_Z 64
_cell_length_a 11.968192
_cell_length_b 17.984165
_cell_length_c 14.627481
_cell_angle_alpha 90.000000
_cell_angle_beta 90.000000
_cell_angle_gamma 90.000000
_cell_volume 3148.388873
_symmetry_space_group_name_H-M "P N M A"
_symmetry_group_IT_number 62
_symmetry_cell_setting 'orthorhombic'
loop_
_space_group_symop_operation_xyz
x,y,z
1/2-x,-y,1/2+z
1/2+x,1/2-y,1/2-z
-x,1/2+y,-z
-x,-y,-z
1/2+x,y,1/2-z
1/2-x,1/2+y,1/2+z
x,1/2-y,z
loop_
_atom_site_type_symbol
_atom_site_label
_atom_site_fract_x
_atom_site_fract_y
_atom_site_fract_z
Si Si1 0.927710 0.163934 0.421468
Si Si2 0.795003 0.165333 0.598108
Si Si3 0.807005 0.433424 0.776448
Si Si4 0.924926 0.599816 0.023630
Si Si5 0.819957 0.662405 0.618027
Si Si6 0.331957 0.336610 0.551331
Si Si7 0.682707 0.580369 0.762907
Si Si8 0.997038 0.525702 0.852715
O O1 0.915001 0.250000 0.395109
O O2 0.895015 0.149915 0.526856
O O3 0.841096 0.118744 0.359268
O O4 0.054813 0.137295 0.407212
O O5 0.799027 0.250000 0.633103
O O6 0.810787 0.111682 0.683050
O O7 0.677307 0.152848 0.547659
O O8 0.783922 0.378778 0.860734
O O9 0.708073 0.493368 0.776531
O O10 0.925229 0.475014 0.784714
O O11 0.921836 0.526560 0.086955
O O12 0.038675 0.645549 0.036260
O O13 0.913958 0.572307 0.918690
O O14 0.811163 0.750000 0.634647
O O15 0.738221 0.636820 0.536485
O O16 0.784418 0.621388 0.711317
O O17 0.314905 0.250000 0.569337
O O18 0.570223 0.585108 0.702667
#
# Coordination Sequence:
#
# PCOD8252141 Si02
#       8
#     8   8   8   8   8   8   8   8
#     4  10  24  42  62  91 126 166 210 257 316 381
#     4  11  23  42  62  87 128 172 216 261 310 376
#     4  11  24  37  60  92 127 167 209 257 315 372
#     4  10  19  39  63  90 121 161 205 262 312 369
#     4  10  22  42  66  92 124 161 204 258 317 381
#     4  10  21  40  65  93 123 162 213 262 311 371
#     4  12  21  40  63  91 125 161 208 258 319 383
#     4  10  21  36  60  90 124 155 203 260 315 375
#
# _framework density 20.327857999999999
#
# number of rings (size 3 to 8) (size 9 to 14) (size 15 to 20)
#    0.000    1.500    2.500    2.625    0.000    2.000 
#    0.000    3.125    0.000    0.000    0.000    0.000 
#    0.000    0.000    0.000    0.000    0.000    0.000 
#
# Total GULP energy -793905.254843 kJ/mol
# GULP energy per Si atom -12404.769607 kJ/mol
# Density = 2.028159 g / cm^3
# Si number density = 20.327858 Si / 1000 Ang^3
#
#
#
# Elastic Constant Matrix: (Units=GPa)
#
#
# Indices 1 2 3 4 5 6 
#
# 1 92.9346 29.7702 39.2834 0.0000 0.0000 0.0000
# 2 29.7702 88.1860 60.1374 0.0000 0.0000 0.0000
# 3 39.2834 60.1374 95.1374 0.0000 0.0000 0.0000
# 4 0.0000 0.0000 0.0000 36.5056 0.0000 0.0000
# 5 0.0000 0.0000 0.0000 0.0000 26.8118 0.0000
# 6 0.0000 0.0000 0.0000 0.0000 0.0000 32.8069
#
#
#
# Elastic Compliance Matrix: (Units=1/GPa)
#
#
# Indices 1 2 3 4 5 6 
#
# 1 0.013119 -0.001291 -0.004601 0.000000 0.000000 0.000000
# 2 -0.001291 0.020058 -0.012146 0.000000 0.000000 0.000000
# 3 -0.004601 -0.012146 0.020088 0.000000 0.000000 0.000000
# 4 0.000000 0.000000 0.000000 0.027393 0.000000 0.000000
# 5 0.000000 0.000000 0.000000 0.000000 0.037297 0.000000
# 6 0.000000 0.000000 0.000000 0.000000 0.000000 0.030481
#
#
# Mechanical properties :
#
#
# Convention : Reuss Voigt Hill
#
# Bulk Modulus (GPa) = 58.17455 59.40444 58.78950
# Shear Modulus (GPa) = 26.28231 29.02934 27.65583
#
# Velocity S-wave (km/s) = 3.59962 3.78306 3.69248
# Velocity P-wave (km/s) = 6.77913 6.95476 6.86751
#
# Compressibility (1/GPa) = 0.01718965
#
# Stress axis : x y z
#
# Youngs Moduli (GPa) = 76.22790 49.85458 49.78023
#
# Poissons Ratio (x) = 0.06438 0.22902
# Poissons Ratio (y) = 0.09844 0.60463
# Poissons Ratio (z) = 0.35069 0.60553
#
# Static dielectric constant tensor:
#      x y z
#    x 3.616070 0.000000 0.000000 
#    y 0.000000 3.657690 0.000000 
#    z 0.000000 0.000000 3.729550 
# 
# 
# High freq. dielectric constant tensor:
#      x y z
#    x 1.793780 0.000000 0.000000 
#    y 0.000000 1.796400 0.000000 
#    z 0.000000 0.000000 1.800430 
# 
# From -- ./inp_files/18266.got.cif
#   From: 2010.03.12/outbox.cif.g09.slc.cpg/sg62_10_cif.got.tgz:18266.got - 2010.04.10 19:12:36.
