data_PCOD8252002
_publ_section_title
;
Structure prediction by ZEFSAII (Michael W. Deem and Ramdas Pophale) SiO2 
 PCOD8252002
Probable space group: P N M A
;
_chemical_formula_sum "Si O2"
_cell_formula_units_Z 56
_cell_length_a 14.601972
_cell_length_b 9.154201
_cell_length_c 21.819625
_cell_angle_alpha 90.000000
_cell_angle_beta 90.000000
_cell_angle_gamma 90.000000
_cell_volume 2916.615891
_symmetry_space_group_name_H-M "P N M A"
_symmetry_group_IT_number 62
_symmetry_cell_setting 'orthorhombic'
loop_
_space_group_symop_operation_xyz
x,y,z
1/2-x,-y,1/2+z
1/2+x,1/2-y,1/2-z
-x,1/2+y,-z
-x,-y,-z
1/2+x,y,1/2-z
1/2-x,1/2+y,1/2+z
x,1/2-y,z
loop_
_atom_site_type_symbol
_atom_site_label
_atom_site_fract_x
_atom_site_fract_y
_atom_site_fract_z
Si Si1 0.433613 0.580259 0.818318
Si Si2 0.199914 0.577469 0.231631
Si Si3 0.389957 0.421344 0.604372
Si Si4 0.924544 0.578382 0.540078
Si Si5 0.576527 0.577632 0.608537
Si Si6 0.276507 0.077612 0.488399
Si Si7 0.383372 0.420787 0.252828
O O1 0.410376 0.750000 0.808226
O O2 0.349811 0.488997 0.790725
O O3 0.443026 0.541075 0.889288
O O4 0.527247 0.535415 0.785358
O O5 0.206858 0.750000 0.238756
O O6 0.144189 0.531340 0.171217
O O7 0.300879 0.512641 0.224689
O O8 0.409422 0.250000 0.600428
O O9 0.482656 0.503739 0.587741
O O10 0.313207 0.468519 0.555102
O O11 0.930903 0.750000 0.527483
O O12 0.825312 0.514215 0.520939
O O13 0.000000 0.500000 0.500000
O O14 0.563062 0.750000 0.602420
O O15 0.656275 0.517007 0.564410
O O16 0.601832 0.531760 0.677241
O O17 0.271658 0.250000 0.480803
O O18 0.360863 0.250000 0.247040
#
# Coordination Sequence:
#
# PCOD8252002 Si02
#       7
#     8   8   8   8   8   8   8
#     4  10  21  40  62  85 115 153 195 240 288 342
#     4  11  23  36  56  86 118 153 191 237 293 346
#     4  10  21  36  54  82 117 149 183 230 287 344
#     4  10  22  40  62  85 114 153 195 240 286 343
#     4  10  19  36  61  86 109 146 191 232 282 337
#     4   9  19  36  57  80 112 152 188 227 284 344
#     4  10  21  36  58  84 113 149 190 237 285 340
#
# _framework density 19.200334000000002
#
# number of rings (size 3 to 8) (size 9 to 14) (size 15 to 20)
#    0.000    2.000    1.429    1.714    2.000    4.571 
#    0.000    1.429    0.000    0.000    0.000    0.000 
#    0.000    0.000    0.000    0.000    0.000    0.000 
#
# Total GULP energy -694653.436040 kJ/mol
# GULP energy per Si atom -12404.525644 kJ/mol
# Density = 1.915663 g / cm^3
# Si number density = 19.200334 Si / 1000 Ang^3
#
#
#
# Elastic Constant Matrix: (Units=GPa)
#
#
# Indices 1 2 3 4 5 6 
#
# 1 139.9468 41.3223 52.2464 0.0000 0.0000 0.0000
# 2 41.3223 39.0715 32.6765 0.0000 0.0000 0.0000
# 3 52.2464 32.6765 107.9196 0.0000 0.0000 0.0000
# 4 0.0000 0.0000 0.0000 15.0161 0.0000 0.0000
# 5 0.0000 0.0000 0.0000 0.0000 32.2308 0.0000
# 6 0.0000 0.0000 0.0000 0.0000 0.0000 36.3448
#
#
#
# Elastic Compliance Matrix: (Units=1/GPa)
#
#
# Indices 1 2 3 4 5 6 
#
# 1 0.010827 -0.009463 -0.002376 0.000000 0.000000 0.000000
# 2 -0.009463 0.042545 -0.008300 0.000000 0.000000 0.000000
# 3 -0.002376 -0.008300 0.012930 0.000000 0.000000 0.000000
# 4 0.000000 0.000000 0.000000 0.066595 0.000000 0.000000
# 5 0.000000 0.000000 0.000000 0.000000 0.031026 0.000000
# 6 0.000000 0.000000 0.000000 0.000000 0.000000 0.027514
#
#
# Mechanical properties :
#
#
# Convention : Reuss Voigt Hill
#
# Bulk Modulus (GPa) = 38.43014 59.93647 49.18331
# Shear Modulus (GPa) = 20.79949 27.43121 24.11535
#
# Velocity S-wave (km/s) = 3.29490 3.78389 3.54783
# Velocity P-wave (km/s) = 5.87656 7.09751 6.51570
#
# Compressibility (1/GPa) = 0.02602124
#
# Stress axis : x y z
#
# Youngs Moduli (GPa) = 92.36212 23.50477 77.34088
#
# Poissons Ratio (x) = 0.22243 0.18378
# Poissons Ratio (y) = 0.87406 0.64196
# Poissons Ratio (z) = 0.21947 0.19510
#
# Static dielectric constant tensor:
#      x y z
#    x 3.659030 0.000000 0.000000 
#    y 0.000000 3.242810 0.000000 
#    z 0.000000 0.000000 3.650900 
# 
# 
# High freq. dielectric constant tensor:
#      x y z
#    x 1.760680 0.000000 0.000000 
#    y 0.000000 1.722360 0.000000 
#    z 0.000000 0.000000 1.759610 
# 
# From -- ./inp_files/27153.got.cif
#   From: 2010.03.12/outbox.cif.g09.slc.cpg/sg62_14_cif.got.tgz:27153.got - 2010.04.10 19:12:36.
