data_PCOD8252262
_publ_section_title
;
Structure prediction by ZEFSAII (Michael W. Deem and Ramdas Pophale) SiO2 
 PCOD8252262
Probable space group: P N M A
;
_chemical_formula_sum "Si O2"
_cell_formula_units_Z 64
_cell_length_a 19.293967
_cell_length_b 9.375727
_cell_length_c 20.570511
_cell_angle_alpha 90.000000
_cell_angle_beta 90.000000
_cell_angle_gamma 90.000000
_cell_volume 3721.101915
_symmetry_space_group_name_H-M "P N M A"
_symmetry_group_IT_number 62
_symmetry_cell_setting 'orthorhombic'
loop_
_space_group_symop_operation_xyz
x,y,z
1/2-x,-y,1/2+z
1/2+x,1/2-y,1/2-z
-x,1/2+y,-z
-x,-y,-z
1/2+x,y,1/2-z
1/2-x,1/2+y,1/2+z
x,1/2-y,z
loop_
_atom_site_type_symbol
_atom_site_label
_atom_site_fract_x
_atom_site_fract_y
_atom_site_fract_z
Si Si1 0.577855 0.914259 0.386815
Si Si2 0.718211 0.086122 0.574530
Si Si3 0.299475 0.082154 0.188637
Si Si4 0.574967 0.415926 0.769221
Si Si5 0.427969 0.916701 0.375135
Si Si6 0.209192 0.081275 0.313447
Si Si7 0.582719 0.911990 0.233937
Si Si8 0.295086 0.914546 0.570602
O O1 0.587255 0.750000 0.406351
O O2 0.500652 0.973949 0.404769
O O3 0.589462 0.938154 0.310444
O O4 0.632686 0.002990 0.427741
O O5 0.730021 0.250000 0.596522
O O6 0.636367 0.047648 0.578631
O O7 0.740403 0.062547 0.499822
O O8 0.761816 0.982427 0.619782
O O9 0.312433 0.250000 0.186599
O O10 0.257803 0.035931 0.253263
O O11 0.256896 0.029055 0.125801
O O12 0.373390 0.003857 0.184642
O O13 0.594849 0.250000 0.773947
O O14 0.586438 0.479001 0.696654
O O15 0.495543 0.441372 0.790516
O O16 0.440827 0.750000 0.363964
O O17 0.204356 0.250000 0.320435
O O18 0.132419 0.020375 0.303489
O O19 0.604215 0.750000 0.217008
O O20 0.312819 0.750000 0.582806
#
# Coordination Sequence:
#
# PCOD8252262 Si02
#       8
#     8   8   8   8   8   8   8   8
#     4   9  17  30  49  72 101 135 169 207 245 292
#     4  10  20  35  54  71  99 141 177 210 251 302
#     4  10  20  33  49  74 106 134 164 206 256 303
#     4   9  17  31  53  78 100 127 170 214 248 295
#     4   8  15  29  48  72  99 130 170 209 244 289
#     4  11  21  33  52  77 105 134 168 214 257 299
#     4   9  18  32  52  78 103 130 167 209 254 302
#     4  10  21  35  49  72 105 140 172 206 254 307
#
# _framework density 17.199206
#
# number of rings (size 3 to 8) (size 9 to 14) (size 15 to 20)
#    0.000    2.500    2.500    1.875    0.000    2.500 
#    0.000    2.500    0.000    0.750    0.000    0.000 
#    0.000    0.000    0.000    0.000    0.000    0.000 
#
# Total GULP energy -793507.440367 kJ/mol
# GULP energy per Si atom -12398.553756 kJ/mol
# Density = 1.716006 g / cm^3
# Si number density = 17.199206 Si / 1000 Ang^3
#
#
#
# Elastic Constant Matrix: (Units=GPa)
#
#
# Indices 1 2 3 4 5 6 
#
# 1 93.5196 45.1425 40.8824 0.0000 0.0000 0.0000
# 2 45.1425 57.3297 33.4341 0.0000 0.0000 0.0000
# 3 40.8824 33.4341 77.2082 0.0000 0.0000 0.0000
# 4 0.0000 0.0000 0.0000 21.9660 0.0000 0.0000
# 5 0.0000 0.0000 0.0000 0.0000 22.4300 0.0000
# 6 0.0000 0.0000 0.0000 0.0000 0.0000 29.0958
#
#
#
# Elastic Compliance Matrix: (Units=1/GPa)
#
#
# Indices 1 2 3 4 5 6 
#
# 1 0.018415 -0.011792 -0.004645 0.000000 0.000000 0.000000
# 2 -0.011792 0.030887 -0.007131 0.000000 0.000000 0.000000
# 3 -0.004645 -0.007131 0.018500 0.000000 0.000000 0.000000
# 4 0.000000 0.000000 0.000000 0.045525 0.000000 0.000000
# 5 0.000000 0.000000 0.000000 0.000000 0.044583 0.000000
# 6 0.000000 0.000000 0.000000 0.000000 0.000000 0.034369
#
#
# Mechanical properties :
#
#
# Convention : Reuss Voigt Hill
#
# Bulk Modulus (GPa) = 48.38866 51.88619 50.13742
# Shear Modulus (GPa) = 20.30009 21.93825 21.11917
#
# Velocity S-wave (km/s) = 3.43927 3.57534 3.50796
# Velocity P-wave (km/s) = 6.63074 6.87585 6.75441
#
# Compressibility (1/GPa) = 0.02066600
#
# Stress axis : x y z
#
# Youngs Moduli (GPa) = 54.30219 32.37599 54.05519
#
# Poissons Ratio (x) = 0.38177 0.25108
# Poissons Ratio (y) = 0.64033 0.38549
# Poissons Ratio (z) = 0.25222 0.23089
#
# Static dielectric constant tensor:
#      x y z
#    x 3.236290 0.000000 0.000000 
#    y 0.000000 3.018160 0.000000 
#    z 0.000000 0.000000 3.015610 
# 
# 
# High freq. dielectric constant tensor:
#      x y z
#    x 1.664930 0.000000 0.000000 
#    y 0.000000 1.650390 0.000000 
#    z 0.000000 0.000000 1.640930 
# 
# From -- ./inp_files/27657.got.cif
#   From: 2010.03.12/outbox.cif.g09.slc.cpg/sg62_14_cif.got.tgz:27657.got - 2010.04.10 19:12:36.
