data_PCOD8252290
_publ_section_title
;
Structure prediction by ZEFSAII (Michael W. Deem and Ramdas Pophale) SiO2 
 PCOD8252290
Probable space group: P N M A
;
_chemical_formula_sum "Si O2"
_cell_formula_units_Z 64
_cell_length_a 17.390102
_cell_length_b 9.326344
_cell_length_c 20.196141
_cell_angle_alpha 90.000000
_cell_angle_beta 90.000000
_cell_angle_gamma 90.000000
_cell_volume 3275.532808
_symmetry_space_group_name_H-M "P N M A"
_symmetry_group_IT_number 62
_symmetry_cell_setting 'orthorhombic'
loop_
_space_group_symop_operation_xyz
x,y,z
1/2-x,-y,1/2+z
1/2+x,1/2-y,1/2-z
-x,1/2+y,-z
-x,-y,-z
1/2+x,y,1/2-z
1/2-x,1/2+y,1/2+z
x,1/2-y,z
loop_
_atom_site_type_symbol
_atom_site_label
_atom_site_fract_x
_atom_site_fract_y
_atom_site_fract_z
Si Si1 0.853888 0.079837 0.358119
Si Si2 0.924570 0.907316 0.802226
Si Si3 0.325218 0.417566 0.874364
Si Si4 0.974832 0.912069 0.655333
Si Si5 0.744779 0.916521 0.982117
Si Si6 0.112432 0.908218 0.984684
Si Si7 0.260485 0.582725 0.753636
Si Si8 0.011935 0.092496 0.904269
O O1 0.854571 0.250000 0.355958
O O2 0.811173 0.026269 0.424334
O O3 0.811172 0.027077 0.290755
O O4 0.941320 0.022955 0.362007
O O5 0.933337 0.750000 0.835790
O O6 0.969927 0.908136 0.733915
O O7 0.835245 0.942026 0.791616
O O8 0.960299 0.029060 0.846744
O O9 0.331625 0.250000 0.857326
O O10 0.410046 0.485598 0.874876
O O11 0.268399 0.491889 0.821136
O O12 0.292384 0.445130 0.946882
O O13 0.964208 0.750000 0.627168
O O14 0.764730 0.750000 0.971621
O O15 0.822758 0.005757 0.975734
O O16 0.142343 0.750000 0.964026
O O17 0.038488 0.892447 0.030347
O O18 0.086865 0.994591 0.918615
O O19 0.253201 0.750000 0.773423
O O20 0.041058 0.250000 0.882426
#
# Coordination Sequence:
#
# PCOD8252290 Si02
#       8
#     8   8   8   8   8   8   8   8
#     4   9  18  35  59  82 104 136 180 224 262 308
#     4   9  17  30  50  76 104 136 175 215 258 310
#     4  10  21  36  54  79 111 143 174 216 272 323
#     4   9  19  36  56  78 104 138 180 219 258 311
#     4  10  21  37  56  78 106 140 178 223 273 318
#     4  10  21  35  51  74 104 138 176 215 258 316
#     4   9  18  34  57  81 105 139 180 219 261 314
#     4  10  20  33  51  76 106 139 173 213 264 318
#
# _framework density 19.538806000000001
#
# number of rings (size 3 to 8) (size 9 to 14) (size 15 to 20)
#    0.000    2.500    0.000    2.625    0.000    7.000 
#    0.000    3.125    0.000    0.000    0.000    0.000 
#    0.000    0.000    0.000    0.000    0.000    0.000 
#
# Total GULP energy -793510.235997 kJ/mol
# GULP energy per Si atom -12398.597437 kJ/mol
# Density = 1.949433 g / cm^3
# Si number density = 19.538806 Si / 1000 Ang^3
#
#
#
# Elastic Constant Matrix: (Units=GPa)
#
#
# Indices 1 2 3 4 5 6 
#
# 1 79.1678 31.1040 23.7102 0.0000 0.0000 0.0000
# 2 31.1040 92.6092 27.7397 0.0000 0.0000 0.0000
# 3 23.7102 27.7397 58.9175 0.0000 0.0000 0.0000
# 4 0.0000 0.0000 0.0000 25.2570 0.0000 0.0000
# 5 0.0000 0.0000 0.0000 0.0000 24.9263 0.0000
# 6 0.0000 0.0000 0.0000 0.0000 0.0000 24.2425
#
#
#
# Elastic Compliance Matrix: (Units=1/GPa)
#
#
# Indices 1 2 3 4 5 6 
#
# 1 0.015473 -0.003879 -0.004401 0.000000 0.000000 0.000000
# 2 -0.003879 0.013543 -0.004816 0.000000 0.000000 0.000000
# 3 -0.004401 -0.004816 0.021011 0.000000 0.000000 0.000000
# 4 0.000000 0.000000 0.000000 0.039593 0.000000 0.000000
# 5 0.000000 0.000000 0.000000 0.000000 0.040118 0.000000
# 6 0.000000 0.000000 0.000000 0.000000 0.000000 0.041250
#
#
# Mechanical properties :
#
#
# Convention : Reuss Voigt Hill
#
# Bulk Modulus (GPa) = 41.95044 43.97802 42.96423
# Shear Modulus (GPa) = 24.37542 24.76119 24.56831
#
# Velocity S-wave (km/s) = 3.53588 3.56375 3.54985
# Velocity P-wave (km/s) = 6.17955 6.28416 6.23208
#
# Compressibility (1/GPa) = 0.02383765
#
# Stress axis : x y z
#
# Youngs Moduli (GPa) = 64.62752 73.83772 47.59380
#
# Poissons Ratio (x) = 0.28640 0.20945
# Poissons Ratio (y) = 0.25067 0.22919
# Poissons Ratio (z) = 0.28441 0.35557
#
# Static dielectric constant tensor:
#      x y z
#    x 3.637720 0.000000 0.000000 
#    y 0.000000 3.629090 0.000000 
#    z 0.000000 0.000000 3.449180 
# 
# 
# High freq. dielectric constant tensor:
#      x y z
#    x 1.761560 0.000000 0.000000 
#    y 0.000000 1.749410 0.000000 
#    z 0.000000 0.000000 1.752070 
# 
# From -- ./inp_files/27631.got.cif
#   From: 2010.03.12/outbox.cif.g09.slc.cpg/sg62_14_cif.got.tgz:27631.got - 2010.04.10 19:12:36.
