data_PCOD8252457
_publ_section_title
;
Structure prediction by ZEFSAII (Michael W. Deem and Ramdas Pophale) SiO2 
 PCOD8252457
Probable space group: P N M A
;
_chemical_formula_sum "Si O2"
_cell_formula_units_Z 48
_cell_length_a 23.777741
_cell_length_b 9.073933
_cell_length_c 12.017946
_cell_angle_alpha 90.000000
_cell_angle_beta 90.000000
_cell_angle_gamma 90.000000
_cell_volume 2592.963531
_symmetry_space_group_name_H-M "P N M A"
_symmetry_group_IT_number 62
_symmetry_cell_setting 'orthorhombic'
loop_
_space_group_symop_operation_xyz
x,y,z
1/2-x,-y,1/2+z
1/2+x,1/2-y,1/2-z
-x,1/2+y,-z
-x,-y,-z
1/2+x,y,1/2-z
1/2-x,1/2+y,1/2+z
x,1/2-y,z
loop_
_atom_site_type_symbol
_atom_site_label
_atom_site_fract_x
_atom_site_fract_y
_atom_site_fract_z
Si Si1 0.330894 0.575349 0.394407
Si Si2 0.964483 0.918430 0.727671
Si Si3 0.294266 0.425025 0.839211
Si Si4 0.354217 0.921996 0.641731
Si Si5 0.612773 0.423106 0.024814
Si Si6 0.078820 0.424560 0.719514
O O1 0.333980 0.750000 0.393006
O O2 0.269162 0.521280 0.360435
O O3 0.346307 0.517525 0.517215
O O4 0.375814 0.511128 0.306498
O O5 0.984399 0.750000 0.728418
O O6 0.918679 0.948858 0.823379
O O7 0.938259 0.960179 0.608068
O O8 0.017640 0.019003 0.753521
O O9 0.299877 0.250000 0.838806
O O10 0.312493 0.487161 0.720068
O O11 0.331781 0.489679 0.938702
O O12 0.338631 0.750000 0.653496
O O13 0.626952 0.250000 0.027903
O O14 0.595466 0.479888 0.903307
O O15 0.077180 0.250000 0.722659
#
# Coordination Sequence:
#
# PCOD8252457 Si02
#       6
#     8   8   8   8   8   8
#     4   9  20  36  53  77 108 141 174 214 265 313
#     4   9  18  33  52  76 105 139 178 218 259 308
#     4  10  20  34  55  81 105 133 177 226 259 302
#     4   9  19  38  57  73 104 145 174 207 267 323
#     4   9  19  35  55  78 107 144 175 211 268 318
#     4  10  20  34  54  79 107 141 178 215 260 312
#
# _framework density 18.511638000000001
#
# number of rings (size 3 to 8) (size 9 to 14) (size 15 to 20)
#    0.000    2.667    0.000    2.000    2.333    4.000 
#    0.000    3.333    0.000    0.000    0.000    0.000 
#    0.000    0.000    0.000    0.000    0.000    0.000 
#
# Total GULP energy -595285.001015 kJ/mol
# GULP energy per Si atom -12401.770854 kJ/mol
# Density = 1.846950 g / cm^3
# Si number density = 18.511638 Si / 1000 Ang^3
#
#
#
# Elastic Constant Matrix: (Units=GPa)
#
#
# Indices 1 2 3 4 5 6 
#
# 1 156.7159 42.1895 80.9940 0.0000 0.0000 0.0000
# 2 42.1895 39.2296 27.8474 0.0000 0.0000 0.0000
# 3 80.9940 27.8474 121.5130 0.0000 0.0000 0.0000
# 4 0.0000 0.0000 0.0000 20.5694 0.0000 0.0000
# 5 0.0000 0.0000 0.0000 0.0000 21.5607 0.0000
# 6 0.0000 0.0000 0.0000 0.0000 0.0000 30.1422
#
#
#
# Elastic Compliance Matrix: (Units=1/GPa)
#
#
# Indices 1 2 3 4 5 6 
#
# 1 0.011664 -0.008390 -0.005852 0.000000 0.000000 0.000000
# 2 -0.008390 0.036479 -0.002768 0.000000 0.000000 0.000000
# 3 -0.005852 -0.002768 0.012764 0.000000 0.000000 0.000000
# 4 0.000000 0.000000 0.000000 0.048616 0.000000 0.000000
# 5 0.000000 0.000000 0.000000 0.000000 0.046381 0.000000
# 6 0.000000 0.000000 0.000000 0.000000 0.000000 0.033176
#
#
# Mechanical properties :
#
#
# Convention : Reuss Voigt Hill
#
# Bulk Modulus (GPa) = 37.19116 68.83559 53.01337
# Shear Modulus (GPa) = 21.54602 25.54962 23.54782
#
# Velocity S-wave (km/s) = 3.41532 3.71912 3.57046
# Velocity P-wave (km/s) = 5.97385 7.46380 6.76000
#
# Compressibility (1/GPa) = 0.02688811
#
# Stress axis : x y z
#
# Youngs Moduli (GPa) = 85.73370 27.41328 78.34338
#
# Poissons Ratio (x) = 0.23000 0.45845
# Poissons Ratio (y) = 0.71932 0.21682
# Poissons Ratio (z) = 0.50170 0.07587
#
# Static dielectric constant tensor:
#      x y z
#    x 3.409830 0.000000 0.000000 
#    y 0.000000 3.140700 0.000000 
#    z 0.000000 0.000000 3.643540 
# 
# 
# High freq. dielectric constant tensor:
#      x y z
#    x 1.723180 0.000000 0.000000 
#    y 0.000000 1.695790 0.000000 
#    z 0.000000 0.000000 1.725210 
# 
# From -- ./inp_files/15110.got.cif
#   From: 2010.03.12/outbox.cif.g09.slc.cpg/sg62_8_cif.got.tgz:15110.got - 2010.04.10 19:12:36.
