data_PCOD8252635
_publ_section_title
;
Structure prediction by ZEFSAII (Michael W. Deem and Ramdas Pophale) SiO2 
 PCOD8252635
Probable space group: P N M A
;
_chemical_formula_sum "Si O2"
_cell_formula_units_Z 64
_cell_length_a 8.763436
_cell_length_b 12.605587
_cell_length_c 30.858330
_cell_angle_alpha 90.000000
_cell_angle_beta 90.000000
_cell_angle_gamma 90.000000
_cell_volume 3408.865865
_symmetry_space_group_name_H-M "P N M A"
_symmetry_group_IT_number 62
_symmetry_cell_setting 'orthorhombic'
loop_
_space_group_symop_operation_xyz
x,y,z
1/2-x,-y,1/2+z
1/2+x,1/2-y,1/2-z
-x,1/2+y,-z
-x,-y,-z
1/2+x,y,1/2-z
1/2-x,1/2+y,1/2+z
x,1/2-y,z
loop_
_atom_site_type_symbol
_atom_site_label
_atom_site_fract_x
_atom_site_fract_y
_atom_site_fract_z
Si Si1 0.813138 0.871024 0.393603
Si Si2 0.939882 0.003198 0.934459
Si Si3 0.773187 0.126216 0.098134
Si Si4 0.342442 0.870521 0.491111
Si Si5 0.434148 0.474096 0.953284
Si Si6 0.457727 0.997250 0.741125
Si Si7 0.688817 0.129000 0.794947
Si Si8 0.229353 0.873523 0.801025
O O1 0.784024 0.750000 0.407890
O O2 0.867145 0.877543 0.344249
O O3 0.656611 0.937159 0.397797
O O4 0.941993 0.921268 0.423090
O O5 0.067764 0.930229 0.912783
O O6 0.824798 0.932605 0.963430
O O7 0.006519 0.092388 0.966272
O O8 0.787775 0.250000 0.086793
O O9 0.635322 0.078988 0.069459
O O10 0.736588 0.107728 0.148484
O O11 0.361014 0.750000 0.503661
O O12 0.198980 0.888150 0.459786
O O13 0.500000 0.500000 0.000000
O O14 0.370976 0.921670 0.774859
O O15 0.569344 0.927464 0.711519
O O16 0.550805 0.087264 0.766091
O O17 0.338469 0.057104 0.710449
O O18 0.725791 0.250000 0.781512
O O19 0.216500 0.750000 0.789703
#
# Coordination Sequence:
#
# PCOD8252635 Si02
#       8
#     8   8   8   8   8   8   8   8
#     4  11  22  37  57  83 114 146 183 234 282 329
#     4  10  20  36  54  79 107 140 186 228 273 328
#     4  10  22  38  58  81 113 148 186 233 280 329
#     4  10  20  35  54  75 102 140 184 227 269 321
#     4  11  22  39  54  79 109 145 186 227 276 333
#     4  10  20  36  59  83 114 150 181 232 273 335
#     4  10  21  36  57  84 113 146 186 227 279 334
#     4  10  20  36  57  85 113 147 186 226 279 335
#
# _framework density 18.774571999999999
#
# number of rings (size 3 to 8) (size 9 to 14) (size 15 to 20)
#    0.000    1.750    1.250    3.375    0.000    1.000 
#    0.000    0.000    0.000   17.250    0.000    0.000 
#    0.000    0.000    0.000    0.000    0.000    0.000 
#
# Total GULP energy -793751.435396 kJ/mol
# GULP energy per Si atom -12402.366178 kJ/mol
# Density = 1.873184 g / cm^3
# Si number density = 18.774572 Si / 1000 Ang^3
#
#
#
# Elastic Constant Matrix: (Units=GPa)
#
#
# Indices 1 2 3 4 5 6 
#
# 1 86.6639 58.0026 48.2080 0.0000 0.0000 0.0000
# 2 58.0026 133.1277 50.4066 0.0000 0.0000 0.0000
# 3 48.2080 50.4066 89.2933 0.0000 0.0000 0.0000
# 4 0.0000 0.0000 0.0000 28.4024 0.0000 0.0000
# 5 0.0000 0.0000 0.0000 0.0000 28.4956 0.0000
# 6 0.0000 0.0000 0.0000 0.0000 0.0000 25.1840
#
#
#
# Elastic Compliance Matrix: (Units=1/GPa)
#
#
# Indices 1 2 3 4 5 6 
#
# 1 0.019387 -0.005703 -0.007248 0.000000 0.000000 0.000000
# 2 -0.005703 0.011231 -0.003261 0.000000 0.000000 0.000000
# 3 -0.007248 -0.003261 0.016953 0.000000 0.000000 0.000000
# 4 0.000000 0.000000 0.000000 0.035208 0.000000 0.000000
# 5 0.000000 0.000000 0.000000 0.000000 0.035093 0.000000
# 6 0.000000 0.000000 0.000000 0.000000 0.000000 0.039708
#
#
# Mechanical properties :
#
#
# Convention : Reuss Voigt Hill
#
# Bulk Modulus (GPa) = 66.01494 69.14659 67.58077
# Shear Modulus (GPa) = 25.63417 26.58092 26.10755
#
# Velocity S-wave (km/s) = 3.69909 3.76679 3.73309
# Velocity P-wave (km/s) = 7.31318 7.47182 7.39293
#
# Compressibility (1/GPa) = 0.01514809
#
# Stress axis : x y z
#
# Youngs Moduli (GPa) = 51.58079 89.03955 58.98700
#
# Poissons Ratio (x) = 0.50776 0.42751
# Poissons Ratio (y) = 0.29414 0.19237
# Poissons Ratio (z) = 0.37384 0.29038
#
# Static dielectric constant tensor:
#      x y z
#    x 3.487380 0.000000 0.000000 
#    y 0.000000 3.517650 0.000000 
#    z 0.000000 0.000000 3.588180 
# 
# 
# High freq. dielectric constant tensor:
#      x y z
#    x 1.733910 0.000000 0.000000 
#    y 0.000000 1.738130 0.000000 
#    z 0.000000 0.000000 1.734640 
# 
# From -- ./inp_files/32263.got.cif
#   From: 2010.03.12/outbox.cif.g09.slc.cpg/sg62_17_cif.got.tgz:32263.got - 2010.04.10 19:12:36.
