data_PCOD8252226
_publ_section_title
;
Structure prediction by ZEFSAII (Michael W. Deem and Ramdas Pophale) SiO2 
 PCOD8252226
Probable space group: P N M A
;
_chemical_formula_sum "Si O2"
_cell_formula_units_Z 32
_cell_length_a 6.269493
_cell_length_b 7.747499
_cell_length_c 24.223104
_cell_angle_alpha 90.000000
_cell_angle_beta 90.000000
_cell_angle_gamma 90.000000
_cell_volume 1176.586184
_symmetry_space_group_name_H-M "P N M A"
_symmetry_group_IT_number 62
_symmetry_cell_setting 'orthorhombic'
loop_
_space_group_symop_operation_xyz
x,y,z
1/2-x,-y,1/2+z
1/2+x,1/2-y,1/2-z
-x,1/2+y,-z
-x,-y,-z
1/2+x,y,1/2-z
1/2-x,1/2+y,1/2+z
x,1/2-y,z
loop_
_atom_site_type_symbol
_atom_site_label
_atom_site_fract_x
_atom_site_fract_y
_atom_site_fract_z
Si Si1 0.643718 0.054268 0.099699
Si Si2 0.436589 0.250000 0.828384
Si Si3 0.036258 0.750000 0.201772
Si Si4 0.735667 0.951441 0.481771
Si Si5 0.867695 0.560090 0.866549
O O1 0.572418 0.250000 0.112611
O O2 0.893829 0.036902 0.111769
O O3 0.503117 0.926744 0.138984
O O4 0.610925 0.998948 0.034589
O O5 0.525772 0.250000 0.766191
O O6 0.183075 0.250000 0.829758
O O7 0.175208 0.584643 0.181253
O O8 0.745125 0.750000 0.470353
O O9 0.500000 0.000000 0.500000
O O10 0.784204 0.045206 0.422263
O O11 0.833887 0.750000 0.840136
#
# Coordination Sequence:
#
# PCOD8252226 Si02
#       5
#     8   4   4   8   8
#     4   8  16  26  40  66  94 120 147 186 234 276
#     4  10  20  32  50  64  96 126 159 188 224 272
#     4  10  20  34  46  70  92 128 159 190 224 274
#     4   9  14  21  37  64  96 120 143 182 240 288
#     4   9  16  26  42  65  95 121 148 189 237 278
#
# _framework density 27.197327999999999
#
# number of rings (size 3 to 8) (size 9 to 14) (size 15 to 20)
#    0.000    3.000    1.250    2.250    7.000    1.000 
#    0.000    0.000    0.000    0.000    0.000    1.750 
#    0.000    0.000    0.000    0.000    0.000    0.000 
#
# Total GULP energy -396753.248945 kJ/mol
# GULP energy per Si atom -12398.539030 kJ/mol
# Density = 2.713543 g / cm^3
# Si number density = 27.197328 Si / 1000 Ang^3
#
#
#
# Elastic Constant Matrix: (Units=GPa)
#
#
# Indices 1 2 3 4 5 6 
#
# 1 84.8841 -4.8785 48.5140 0.0000 0.0000 0.0000
# 2 -4.8785 251.1778 126.2307 0.0000 0.0000 0.0000
# 3 48.5140 126.2307 208.7578 0.0000 0.0000 0.0000
# 4 0.0000 0.0000 0.0000 46.6483 0.0000 0.0000
# 5 0.0000 0.0000 0.0000 0.0000 54.7575 0.0000
# 6 0.0000 0.0000 0.0000 0.0000 0.0000 -10.7175
#
#
#
# Elastic Compliance Matrix: (Units=1/GPa)
#
#
# Indices 1 2 3 4 5 6 
#
# 1 0.014944 0.002924 -0.005241 0.000000 0.000000 0.000000
# 2 0.002924 0.006291 -0.004484 0.000000 0.000000 0.000000
# 3 -0.005241 -0.004484 0.008720 0.000000 0.000000 0.000000
# 4 0.000000 0.000000 0.000000 0.021437 0.000000 0.000000
# 5 0.000000 0.000000 0.000000 0.000000 0.018262 0.000000
# 6 0.000000 0.000000 0.000000 0.000000 0.000000 -0.093305
#
#
# Mechanical properties :
#
#
# Convention : Reuss Voigt Hill
#
# Bulk Modulus (GPa) = 61.14821 98.28359 79.71590
# Shear Modulus (GPa) = -1087.43185 43.13455 -522.14865
#
# Velocity S-wave (km/s) = -20.01745 3.98676 -13.87091
# Velocity P-wave (km/s) = 22.62151 7.57681 15.07190
#
# Compressibility (1/GPa) = 0.01635371
#
# Stress axis : x y z
#
# Youngs Moduli (GPa) = 66.91496 158.94674 114.68513
#
# Poissons Ratio (x) = -0.46480 0.60109
# Poissons Ratio (y) = -0.19568 0.51423
# Poissons Ratio (z) = 0.35071 0.71269
#
# Static dielectric constant tensor:
#      x y z
#    x 5.509630 0.000000 0.000000 
#    y 0.000000 5.078320 0.000000 
#    z 0.000000 0.000000 4.950660 
# 
# 
# High freq. dielectric constant tensor:
#      x y z
#    x 2.189870 0.000000 0.000000 
#    y 0.000000 2.085610 0.000000 
#    z 0.000000 0.000000 2.084670 
# 
# From -- ./inp_files/17647.got.cif
#   From: 2010.03.12/outbox.cif.g09.slc.cpg/sg62_9_cif.got.tgz:17647.got - 2010.04.10 19:12:36.
