data_PCOD8252038
_publ_section_title
;
Structure prediction by ZEFSAII (Michael W. Deem and Ramdas Pophale) SiO2 
 PCOD8252038
Probable space group: P N M A
;
_chemical_formula_sum "Si O2"
_cell_formula_units_Z 44
_cell_length_a 18.299473
_cell_length_b 14.503264
_cell_length_c 8.880124
_cell_angle_alpha 90.000000
_cell_angle_beta 90.000000
_cell_angle_gamma 90.000000
_cell_volume 2356.803451
_symmetry_space_group_name_H-M "P N M A"
_symmetry_group_IT_number 62
_symmetry_cell_setting 'orthorhombic'
loop_
_space_group_symop_operation_xyz
x,y,z
1/2-x,-y,1/2+z
1/2+x,1/2-y,1/2-z
-x,1/2+y,-z
-x,-y,-z
1/2+x,y,1/2-z
1/2-x,1/2+y,1/2+z
x,1/2-y,z
loop_
_atom_site_type_symbol
_atom_site_label
_atom_site_fract_x
_atom_site_fract_y
_atom_site_fract_z
Si Si1 0.813387 0.750000 0.646422
Si Si2 0.305987 0.559615 0.153425
Si Si3 0.333726 0.750000 0.206229
Si Si4 0.411961 0.250000 0.465742
Si Si5 0.535413 0.250000 0.220331
Si Si6 0.203814 0.905128 0.896840
Si Si7 0.536166 0.402693 0.979070
Si Si8 0.504977 0.250000 0.757597
O O1 0.849028 0.750000 0.477309
O O2 0.765118 0.659975 0.674539
O O3 0.878816 0.750000 0.768591
O O4 0.288633 0.656544 0.242687
O O5 0.319047 0.477969 0.270405
O O6 0.379373 0.577569 0.058973
O O7 0.237613 0.541155 0.041634
O O8 0.410211 0.750000 0.296980
O O9 0.481686 0.250000 0.359290
O O10 0.365359 0.157022 0.443225
O O11 0.443497 0.250000 0.632302
O O12 0.524141 0.344840 0.130446
O O13 0.494477 0.344708 0.850125
O O14 0.500000 0.500000 0.000000
#
# Coordination Sequence:
#
# PCOD8252038 Si02
#       8
#     4   8   4   4   4   8   8   4
#     4   9  16  39  62  74 106 167 193 229 284 367
#     4  10  19  38  58  82 111 155 192 243 289 360
#     4   8  15  37  59  72 105 152 193 225 291 347
#     4  11  24  37  56  91 128 146 186 268 299 334
#     4  11  18  39  61  81 113 168 198 237 294 363
#     4  10  21  38  58  84 119 151 198 240 303 351
#     4  10  19  36  64  86 113 154 208 236 284 362
#     4   9  19  38  54  84 118 149 182 245 300 331
#
# _framework density 18.669353999999998
#
# number of rings (size 3 to 8) (size 9 to 14) (size 15 to 20)
#    0.000    2.182    5.455    1.636    0.000    1.455 
#    6.545    5.455    0.000    0.000    0.000    0.000 
#    0.000    0.000    0.000    0.000    0.000    0.000 
#
# Total GULP energy -545105.060719 kJ/mol
# GULP energy per Si atom -12388.751380 kJ/mol
# Density = 1.862686 g / cm^3
# Si number density = 18.669354 Si / 1000 Ang^3
#
#
#
# Elastic Constant Matrix: (Units=GPa)
#
#
# Indices 1 2 3 4 5 6 
#
# 1 97.6559 36.1763 42.4002 0.0000 0.0000 0.0000
# 2 36.1763 126.8538 43.1761 0.0000 0.0000 0.0000
# 3 42.4002 43.1761 64.9904 0.0000 0.0000 0.0000
# 4 0.0000 0.0000 0.0000 21.9204 0.0000 0.0000
# 5 0.0000 0.0000 0.0000 0.0000 31.7814 0.0000
# 6 0.0000 0.0000 0.0000 0.0000 0.0000 24.0889
#
#
#
# Elastic Compliance Matrix: (Units=1/GPa)
#
#
# Indices 1 2 3 4 5 6 
#
# 1 0.014422 -0.001176 -0.008627 0.000000 0.000000 0.000000
# 2 -0.001176 0.010282 -0.006064 0.000000 0.000000 0.000000
# 3 -0.008627 -0.006064 0.025044 0.000000 0.000000 0.000000
# 4 0.000000 0.000000 0.000000 0.045620 0.000000 0.000000
# 5 0.000000 0.000000 0.000000 0.000000 0.031465 0.000000
# 6 0.000000 0.000000 0.000000 0.000000 0.000000 0.041513
#
#
# Mechanical properties :
#
#
# Convention : Reuss Voigt Hill
#
# Bulk Modulus (GPa) = 55.51464 59.22280 57.36872
# Shear Modulus (GPa) = 24.26198 26.74132 25.50165
#
# Velocity S-wave (km/s) = 3.60885 3.78876 3.69990
# Velocity P-wave (km/s) = 6.86770 7.13656 7.00342
#
# Compressibility (1/GPa) = 0.01801327
#
# Stress axis : x y z
#
# Youngs Moduli (GPa) = 69.34059 97.25376 39.93032
#
# Poissons Ratio (x) = 0.11441 0.34449
# Poissons Ratio (y) = 0.08157 0.24212
# Poissons Ratio (z) = 0.59821 0.58970
#
# Static dielectric constant tensor:
#      x y z
#    x 3.442500 0.000000 0.000000 
#    y 0.000000 4.453370 0.000000 
#    z 0.000000 0.000000 3.050520 
# 
# 
# High freq. dielectric constant tensor:
#      x y z
#    x 1.723110 0.000000 0.000000 
#    y 0.000000 1.744690 0.000000 
#    z 0.000000 0.000000 1.684910 
# 
# From -- ./inp_files/7593.got.cif
#   From: 2010.03.12/outbox.cif.g09.slc.cpg/sg62_4_cif.got.tgz:7593.got - 2010.04.10 19:12:36.
