data_PCOD8252073
_publ_section_title
;
Structure prediction by ZEFSAII (Michael W. Deem and Ramdas Pophale) SiO2 
 PCOD8252073
Probable space group: P N M A
;
_chemical_formula_sum "Si O2"
_cell_formula_units_Z 64
_cell_length_a 25.319058
_cell_length_b 8.933331
_cell_length_c 14.517537
_cell_angle_alpha 90.000000
_cell_angle_beta 90.000000
_cell_angle_gamma 90.000000
_cell_volume 3283.627703
_symmetry_space_group_name_H-M "P N M A"
_symmetry_group_IT_number 62
_symmetry_cell_setting 'orthorhombic'
loop_
_space_group_symop_operation_xyz
x,y,z
1/2-x,-y,1/2+z
1/2+x,1/2-y,1/2-z
-x,1/2+y,-z
-x,-y,-z
1/2+x,y,1/2-z
1/2-x,1/2+y,1/2+z
x,1/2-y,z
loop_
_atom_site_type_symbol
_atom_site_label
_atom_site_fract_x
_atom_site_fract_y
_atom_site_fract_z
Si Si1 0.722542 0.572404 0.853479
Si Si2 0.449499 0.072862 0.544623
Si Si3 0.925437 0.072386 0.750781
Si Si4 0.192884 0.924542 0.275778
Si Si5 0.114527 0.075609 0.702583
Si Si6 0.370891 0.925129 0.410013
Si Si7 0.244957 0.423321 0.951265
Si Si8 0.492220 0.572664 0.099448
O O1 0.720768 0.750000 0.853542
O O2 0.766089 0.518441 0.782594
O O3 0.664448 0.516333 0.830759
O O4 0.739478 0.502299 0.951897
O O5 0.454374 0.250000 0.539729
O O6 0.446174 0.017321 0.650184
O O7 0.500000 0.000000 0.500000
O O8 0.398355 0.020581 0.489314
O O9 0.925408 0.250000 0.746527
O O10 0.865956 0.012268 0.738041
O O11 0.962769 0.010726 0.669085
O O12 0.197741 0.750000 0.248851
O O13 0.207051 0.952697 0.381977
O O14 0.127421 0.250000 0.690345
O O15 0.103413 0.041126 0.810342
O O16 0.064118 0.026363 0.642508
O O17 0.376541 0.750000 0.433662
O O18 0.310278 0.982780 0.409525
O O19 0.236519 0.250000 0.969511
O O20 0.496417 0.750000 0.088651
O O21 0.500000 0.500000 0.000000
#
# Coordination Sequence:
#
# PCOD8252073 Si02
#       8
#     8   8   8   8   8   8   8   8
#     4  11  22  35  56  90 121 148 191 247 293 334
#     4  11  22  37  58  88 116 149 190 235 288 343
#     4   9  20  38  62  85 112 151 198 238 281 350
#     4  10  19  38  62  83 112 157 195 227 285 356
#     4  10  21  39  61  82 115 161 200 232 286 359
#     4  10  19  37  61  84 113 151 191 235 286 348
#     4   9  19  34  56  83 112 150 190 228 289 352
#     4  10  22  40  61  86 114 153 201 246 289 339
#
# _framework density 19.490639000000002
#
# number of rings (size 3 to 8) (size 9 to 14) (size 15 to 20)
#    0.000    2.000    1.250    2.250    1.750    3.000 
#    0.000    5.625    0.000    0.000    0.000    0.000 
#    0.000    0.000    0.000    0.000    0.000    0.000 
#
# Total GULP energy -793597.357424 kJ/mol
# GULP energy per Si atom -12399.958710 kJ/mol
# Density = 1.944628 g / cm^3
# Si number density = 19.490639 Si / 1000 Ang^3
#
#
#
# Elastic Constant Matrix: (Units=GPa)
#
#
# Indices 1 2 3 4 5 6 
#
# 1 156.2156 39.4204 72.3915 0.0000 0.0000 0.0000
# 2 39.4204 45.9636 39.7069 0.0000 0.0000 0.0000
# 3 72.3915 39.7069 149.7677 0.0000 0.0000 0.0000
# 4 0.0000 0.0000 0.0000 30.4468 0.0000 0.0000
# 5 0.0000 0.0000 0.0000 0.0000 40.2495 0.0000
# 6 0.0000 0.0000 0.0000 0.0000 0.0000 20.5687
#
#
#
# Elastic Compliance Matrix: (Units=1/GPa)
#
#
# Indices 1 2 3 4 5 6 
#
# 1 0.009118 -0.005204 -0.003027 0.000000 0.000000 0.000000
# 2 -0.005204 0.031190 -0.005754 0.000000 0.000000 0.000000
# 3 -0.003027 -0.005754 0.009666 0.000000 0.000000 0.000000
# 4 0.000000 0.000000 0.000000 0.032844 0.000000 0.000000
# 5 0.000000 0.000000 0.000000 0.000000 0.024845 0.000000
# 6 0.000000 0.000000 0.000000 0.000000 0.000000 0.048617
#
#
# Mechanical properties :
#
#
# Convention : Reuss Voigt Hill
#
# Bulk Modulus (GPa) = 45.44860 72.77606 59.11233
# Shear Modulus (GPa) = 26.09803 31.61489 28.85646
#
# Velocity S-wave (km/s) = 3.66321 4.03184 3.85194
# Velocity P-wave (km/s) = 6.42347 7.68729 7.08362
#
# Compressibility (1/GPa) = 0.02200288
#
# Stress axis : x y z
#
# Youngs Moduli (GPa) = 109.67828 32.06117 103.45887
#
# Poissons Ratio (x) = 0.16686 0.31319
# Poissons Ratio (y) = 0.57082 0.59527
# Poissons Ratio (z) = 0.33202 0.18447
#
# Static dielectric constant tensor:
#      x y z
#    x 3.666650 0.000000 0.000000 
#    y 0.000000 3.330600 0.000000 
#    z 0.000000 0.000000 3.635110 
# 
# 
# High freq. dielectric constant tensor:
#      x y z
#    x 1.773820 0.000000 0.000000 
#    y 0.000000 1.726920 0.000000 
#    z 0.000000 0.000000 1.775110 
# 
# From -- ./inp_files/20878.got.cif
#   From: 2010.03.12/outbox.cif.g09.slc.cpg/sg62_11_cif.got.tgz:20878.got - 2010.04.10 19:12:36.
