data_PCOD8252670
_publ_section_title
;
Structure prediction by ZEFSAII (Michael W. Deem and Ramdas Pophale) SiO2 
 PCOD8252670
Probable space group: P N M A
;
_chemical_formula_sum "Si O2"
_cell_formula_units_Z 64
_cell_length_a 17.403494
_cell_length_b 9.128145
_cell_length_c 20.783842
_cell_angle_alpha 90.000000
_cell_angle_beta 90.000000
_cell_angle_gamma 90.000000
_cell_volume 3301.754742
_symmetry_space_group_name_H-M "P N M A"
_symmetry_group_IT_number 62
_symmetry_cell_setting 'orthorhombic'
loop_
_space_group_symop_operation_xyz
x,y,z
1/2-x,-y,1/2+z
1/2+x,1/2-y,1/2-z
-x,1/2+y,-z
-x,-y,-z
1/2+x,y,1/2-z
1/2-x,1/2+y,1/2+z
x,1/2-y,z
loop_
_atom_site_type_symbol
_atom_site_label
_atom_site_fract_x
_atom_site_fract_y
_atom_site_fract_z
Si Si1 0.018407 0.913297 0.593434
Si Si2 0.015590 0.083384 0.170378
Si Si3 0.651719 0.583604 0.621025
Si Si4 0.267537 0.575666 0.490436
Si Si5 0.619556 0.414349 0.995168
Si Si6 0.961520 0.578015 0.289226
Si Si7 0.183649 0.421424 0.130900
Si Si8 0.194000 0.923134 0.735871
O O1 0.041535 0.750000 0.615813
O O2 0.950936 0.905655 0.543012
O O3 0.095034 0.990587 0.566304
O O4 0.988725 0.012319 0.652271
O O5 0.022163 0.250000 0.197412
O O6 0.093666 0.037545 0.134351
O O7 0.940656 0.071420 0.125780
O O8 0.007633 0.965559 0.226234
O O9 0.675508 0.750000 0.603854
O O10 0.671423 0.475222 0.562829
O O11 0.695702 0.536466 0.687578
O O12 0.260878 0.750000 0.488044
O O13 0.188405 0.498799 0.469735
O O14 0.287507 0.515747 0.562285
O O15 0.643647 0.250000 0.974209
O O16 0.953321 0.750000 0.294249
O O17 0.878218 0.504478 0.294657
O O18 0.195078 0.250000 0.128288
O O19 0.231425 0.476838 0.194306
O O20 0.181013 0.750000 0.729801
#
# Coordination Sequence:
#
# PCOD8252670 Si02
#       8
#     8   8   8   8   8   8   8   8
#     4  10  20  35  55  78 108 146 182 218 268 329
#     4   9  19  38  59  78 104 141 186 230 273 325
#     4   9  19  35  55  79 109 147 187 227 275 331
#     4  11  22  35  55  82 113 147 183 229 283 338
#     4  10  21  36  54  78 108 142 183 228 271 322
#     4  11  21  33  53  82 112 140 176 222 273 327
#     4   9  19  36  59  84 106 137 185 231 272 326
#     4   9  18  36  60  81 106 144 186 227 275 332
#
# _framework density 19.383631999999999
#
# number of rings (size 3 to 8) (size 9 to 14) (size 15 to 20)
#    0.000    2.250    0.000    3.750    0.000    6.000 
#    0.000    5.000    0.000    0.000    0.000    0.000 
#    0.000    0.000    0.000    0.000    0.000    0.000 
#
# Total GULP energy -793269.624988 kJ/mol
# GULP energy per Si atom -12394.837890 kJ/mol
# Density = 1.933951 g / cm^3
# Si number density = 19.383632 Si / 1000 Ang^3
#
#
#
# Elastic Constant Matrix: (Units=GPa)
#
#
# Indices 1 2 3 4 5 6 
#
# 1 57.4227 32.7743 34.9696 0.0000 0.0000 0.0000
# 2 32.7743 107.7158 42.9786 0.0000 0.0000 0.0000
# 3 34.9696 42.9786 97.5089 0.0000 0.0000 0.0000
# 4 0.0000 0.0000 0.0000 33.0917 0.0000 0.0000
# 5 0.0000 0.0000 0.0000 0.0000 13.7941 0.0000
# 6 0.0000 0.0000 0.0000 0.0000 0.0000 18.6553
#
#
#
# Elastic Compliance Matrix: (Units=1/GPa)
#
#
# Indices 1 2 3 4 5 6 
#
# 1 0.024104 -0.004714 -0.006567 0.000000 0.000000 0.000000
# 2 -0.004714 0.012187 -0.003681 0.000000 0.000000 0.000000
# 3 -0.006567 -0.003681 0.014233 0.000000 0.000000 0.000000
# 4 0.000000 0.000000 0.000000 0.030219 0.000000 0.000000
# 5 0.000000 0.000000 0.000000 0.000000 0.072495 0.000000
# 6 0.000000 0.000000 0.000000 0.000000 0.000000 0.053604
#
#
# Mechanical properties :
#
#
# Convention : Reuss Voigt Hill
#
# Bulk Modulus (GPa) = 48.54221 53.78804 51.16512
# Shear Modulus (GPa) = 20.52274 23.23654 21.87964
#
# Velocity S-wave (km/s) = 3.25740 3.46608 3.36336
# Velocity P-wave (km/s) = 6.26457 6.62025 6.44486
#
# Compressibility (1/GPa) = 0.02060063
#
# Stress axis : x y z
#
# Youngs Moduli (GPa) = 41.48632 82.05685 70.25967
#
# Poissons Ratio (x) = 0.38682 0.46138
# Poissons Ratio (y) = 0.19557 0.25862
# Poissons Ratio (z) = 0.27243 0.30204
#
# Static dielectric constant tensor:
#      x y z
#    x 3.498300 0.000000 0.000000 
#    y 0.000000 3.507610 0.000000 
#    z 0.000000 0.000000 3.630960 
# 
# 
# High freq. dielectric constant tensor:
#      x y z
#    x 1.747930 0.000000 0.000000 
#    y 0.000000 1.744950 0.000000 
#    z 0.000000 0.000000 1.754070 
# 
# From -- ./inp_files/27739.got.cif
#   From: 2010.03.12/outbox.cif.g09.slc.cpg/sg62_14_cif.got.tgz:27739.got - 2010.04.10 19:12:36.
