data_PCOD8252053
_publ_section_title
;
Structure prediction by ZEFSAII (Michael W. Deem and Ramdas Pophale) SiO2 
 PCOD8252053
Probable space group: P N M A
;
_chemical_formula_sum "Si O2"
_cell_formula_units_Z 56
_cell_length_a 14.978773
_cell_length_b 8.642116
_cell_length_c 21.134518
_cell_angle_alpha 90.000000
_cell_angle_beta 90.000000
_cell_angle_gamma 90.000000
_cell_volume 2735.827295
_symmetry_space_group_name_H-M "P N M A"
_symmetry_group_IT_number 62
_symmetry_cell_setting 'orthorhombic'
loop_
_space_group_symop_operation_xyz
x,y,z
1/2-x,-y,1/2+z
1/2+x,1/2-y,1/2-z
-x,1/2+y,-z
-x,-y,-z
1/2+x,y,1/2-z
1/2-x,1/2+y,1/2+z
x,1/2-y,z
loop_
_atom_site_type_symbol
_atom_site_label
_atom_site_fract_x
_atom_site_fract_y
_atom_site_fract_z
Si Si1 0.074076 0.924663 0.042970
Si Si2 0.761219 0.068581 0.458496
Si Si3 0.684406 0.933546 0.230169
Si Si4 0.436271 0.921558 0.354806
Si Si5 0.990999 0.427970 0.264999
Si Si6 0.668838 0.068066 0.832218
Si Si7 0.748752 0.069315 0.596540
O O1 0.100115 0.750000 0.020738
O O2 0.032345 0.916161 0.112835
O O3 0.156426 0.039211 0.048031
O O4 0.000000 0.000000 0.000000
O O5 0.780372 0.250000 0.449443
O O6 0.789533 0.008595 0.529516
O O7 0.811243 0.972581 0.404918
O O8 0.689044 0.750000 0.230076
O O9 0.754114 0.995482 0.283883
O O10 0.708933 0.002816 0.160473
O O11 0.584103 0.984300 0.243900
O O12 0.413895 0.750000 0.326440
O O13 0.357606 0.967487 0.403942
O O14 0.435316 0.046568 0.299186
O O15 0.010369 0.250000 0.278056
O O16 0.928466 0.494491 0.320288
O O17 0.661223 0.250000 0.825232
O O18 0.766943 0.250000 0.597345
#
# Coordination Sequence:
#
# PCOD8252053 Si02
#       7
#     8   8   8   8   8   8   8
#     4  11  21  33  53  83 120 160 201 243 299 369
#     4  11  22  38  59  88 126 159 198 256 313 364
#     4  10  21  41  67  88 114 160 212 252 294 361
#     4  10  19  37  59  82 115 159 203 242 295 364
#     4  12  25  39  60  93 125 154 197 258 316 360
#     4  11  23  42  66  91 122 165 210 249 301 372
#     4   9  18  37  62  86 114 157 202 245 296 353
#
# _framework density 20.469128000000001
#
# number of rings (size 3 to 8) (size 9 to 14) (size 15 to 20)
#    0.000    1.429    2.857    3.429    0.000    5.714 
#    0.000    2.143    0.000    0.000    0.000    0.000 
#    0.000    0.000    0.000    0.000    0.000    0.000 
#
# Total GULP energy -694096.854842 kJ/mol
# GULP energy per Si atom -12394.586694 kJ/mol
# Density = 2.042254 g / cm^3
# Si number density = 20.469128 Si / 1000 Ang^3
#
#
#
# Elastic Constant Matrix: (Units=GPa)
#
#
# Indices 1 2 3 4 5 6 
#
# 1 58.6651 10.3674 15.1683 0.0000 0.0000 0.0000
# 2 10.3674 40.6685 19.0874 0.0000 0.0000 0.0000
# 3 15.1683 19.0874 125.4770 0.0000 0.0000 0.0000
# 4 0.0000 0.0000 0.0000 30.5444 0.0000 0.0000
# 5 0.0000 0.0000 0.0000 0.0000 30.9540 0.0000
# 6 0.0000 0.0000 0.0000 0.0000 0.0000 24.4409
#
#
#
# Elastic Compliance Matrix: (Units=1/GPa)
#
#
# Indices 1 2 3 4 5 6 
#
# 1 0.018145 -0.003873 -0.001604 0.000000 0.000000 0.000000
# 2 -0.003873 0.027306 -0.003686 0.000000 0.000000 0.000000
# 3 -0.001604 -0.003686 0.008724 0.000000 0.000000 0.000000
# 4 0.000000 0.000000 0.000000 0.032739 0.000000 0.000000
# 5 0.000000 0.000000 0.000000 0.000000 0.032306 0.000000
# 6 0.000000 0.000000 0.000000 0.000000 0.000000 0.040915
#
#
# Mechanical properties :
#
#
# Convention : Reuss Voigt Hill
#
# Bulk Modulus (GPa) = 27.89390 34.89520 31.39455
# Shear Modulus (GPa) = 26.25898 29.20035 27.72966
#
# Velocity S-wave (km/s) = 3.58559 3.78107 3.68463
# Velocity P-wave (km/s) = 5.54967 6.01222 5.78557
#
# Compressibility (1/GPa) = 0.03585013
#
# Stress axis : x y z
#
# Youngs Moduli (GPa) = 55.11129 36.62184 114.62387
#
# Poissons Ratio (x) = 0.14182 0.18390
# Poissons Ratio (y) = 0.21343 0.42246
# Poissons Ratio (z) = 0.08842 0.13497
#
# Static dielectric constant tensor:
#      x y z
#    x 3.964940 0.000000 0.000000 
#    y 0.000000 3.489950 0.000000 
#    z 0.000000 0.000000 4.166200 
# 
# 
# High freq. dielectric constant tensor:
#      x y z
#    x 1.785020 0.000000 0.000000 
#    y 0.000000 1.779250 0.000000 
#    z 0.000000 0.000000 1.811090 
# 
# From -- ./inp_files/27244.got.cif
#   From: 2010.03.12/outbox.cif.g09.slc.cpg/sg62_14_cif.got.tgz:27244.got - 2010.04.10 19:12:36.
