data_PCOD8252748
_publ_section_title
;
Structure prediction by ZEFSAII (Michael W. Deem and Ramdas Pophale) SiO2 
 PCOD8252748
Probable space group: P N M A
;
_chemical_formula_sum "Si O2"
_cell_formula_units_Z 56
_cell_length_a 20.209956
_cell_length_b 9.024723
_cell_length_c 15.928540
_cell_angle_alpha 90.000000
_cell_angle_beta 90.000000
_cell_angle_gamma 90.000000
_cell_volume 2905.194540
_symmetry_space_group_name_H-M "P N M A"
_symmetry_group_IT_number 62
_symmetry_cell_setting 'orthorhombic'
loop_
_space_group_symop_operation_xyz
x,y,z
1/2-x,-y,1/2+z
1/2+x,1/2-y,1/2-z
-x,1/2+y,-z
-x,-y,-z
1/2+x,y,1/2-z
1/2-x,1/2+y,1/2+z
x,1/2-y,z
loop_
_atom_site_type_symbol
_atom_site_label
_atom_site_fract_x
_atom_site_fract_y
_atom_site_fract_z
Si Si1 0.660063 0.076588 0.834904
Si Si2 0.101307 0.424742 0.316135
Si Si3 0.794075 0.577079 0.816632
Si Si4 0.552119 0.921071 0.559834
Si Si5 0.681526 0.423179 0.024358
Si Si6 0.462564 0.420566 0.246347
Si Si7 0.683803 0.423175 0.508705
O O1 0.664809 0.250000 0.821042
O O2 0.725852 0.005002 0.797077
O O3 0.598198 0.016996 0.784278
O O4 0.653117 0.035056 0.933150
O O5 0.098874 0.250000 0.303406
O O6 0.152062 0.489184 0.247353
O O7 0.125244 0.469594 0.409080
O O8 0.027749 0.486178 0.299689
O O9 0.781029 0.750000 0.802254
O O10 0.820426 0.544417 0.909725
O O11 0.557477 0.750000 0.533258
O O12 0.526434 0.937398 0.654498
O O13 0.500000 0.000000 0.500000
O O14 0.623725 0.995394 0.553894
O O15 0.699048 0.250000 0.031156
O O16 0.747839 0.513398 0.045405
O O17 0.449401 0.250000 0.221919
O O18 0.679760 0.250000 0.528989
#
# Coordination Sequence:
#
# PCOD8252748 Si02
#       7
#     8   8   8   8   8   8   8
#     4  10  21  36  54  82 117 147 181 232 288 335
#     4   9  18  35  59  81 104 141 192 235 273 330
#     4   9  18  35  59  82 108 146 189 231 274 334
#     4  11  23  38  58  83 114 149 189 234 286 343
#     4   9  19  36  57  82 111 145 186 234 285 329
#     4  10  22  39  58  81 110 150 193 231 277 341
#     4  10  20  35  56  83 114 146 186 231 279 338
#
# _framework density 19.275818000000001
#
# number of rings (size 3 to 8) (size 9 to 14) (size 15 to 20)
#    0.000    2.286    0.000    2.143    2.000    5.143 
#    0.000    1.429    0.000    0.000    0.000    0.000 
#    0.000    0.000    0.000    0.000    0.000    0.000 
#
# Total GULP energy -694576.587251 kJ/mol
# GULP energy per Si atom -12403.153344 kJ/mol
# Density = 1.923195 g / cm^3
# Si number density = 19.275818 Si / 1000 Ang^3
#
#
#
# Elastic Constant Matrix: (Units=GPa)
#
#
# Indices 1 2 3 4 5 6 
#
# 1 109.5576 38.0849 24.3871 0.0000 0.0000 0.0000
# 2 38.0849 67.1529 18.5869 0.0000 0.0000 0.0000
# 3 24.3871 18.5869 48.1552 0.0000 0.0000 0.0000
# 4 0.0000 0.0000 0.0000 25.3952 0.0000 0.0000
# 5 0.0000 0.0000 0.0000 0.0000 38.3972 0.0000
# 6 0.0000 0.0000 0.0000 0.0000 0.0000 22.9975
#
#
#
# Elastic Compliance Matrix: (Units=1/GPa)
#
#
# Indices 1 2 3 4 5 6 
#
# 1 0.011976 -0.005725 -0.003855 0.000000 0.000000 0.000000
# 2 -0.005725 0.019409 -0.004592 0.000000 0.000000 0.000000
# 3 -0.003855 -0.004592 0.024491 0.000000 0.000000 0.000000
# 4 0.000000 0.000000 0.000000 0.039378 0.000000 0.000000
# 5 0.000000 0.000000 0.000000 0.000000 0.026044 0.000000
# 6 0.000000 0.000000 0.000000 0.000000 0.000000 0.043483
#
#
# Mechanical properties :
#
#
# Convention : Reuss Voigt Hill
#
# Bulk Modulus (GPa) = 36.32219 42.99818 39.66018
# Shear Modulus (GPa) = 24.71548 26.94511 25.83029
#
# Velocity S-wave (km/s) = 3.58467 3.74287 3.66462
# Velocity P-wave (km/s) = 6.00145 6.40578 6.20691
#
# Compressibility (1/GPa) = 0.02753138
#
# Stress axis : x y z
#
# Youngs Moduli (GPa) = 83.50113 51.52177 40.83110
#
# Poissons Ratio (x) = 0.29496 0.15741
# Poissons Ratio (y) = 0.47804 0.18751
# Poissons Ratio (z) = 0.32192 0.23661
#
# Static dielectric constant tensor:
#      x y z
#    x 3.668620 0.000000 0.000000 
#    y 0.000000 3.422860 0.000000 
#    z 0.000000 0.000000 3.589500 
# 
# 
# High freq. dielectric constant tensor:
#      x y z
#    x 1.757660 0.000000 0.000000 
#    y 0.000000 1.736740 0.000000 
#    z 0.000000 0.000000 1.754090 
# 
# From -- ./inp_files/20340.got.cif
#   From: 2010.03.12/outbox.cif.g09.slc.cpg/sg62_11_cif.got.tgz:20340.got - 2010.04.10 19:12:36.
