data_PCOD8252134
_publ_section_title
;
Structure prediction by ZEFSAII (Michael W. Deem and Ramdas Pophale) SiO2 
 PCOD8252134
Probable space group: P N M A
;
_chemical_formula_sum "Si O2"
_cell_formula_units_Z 56
_cell_length_a 16.180219
_cell_length_b 18.398216
_cell_length_c 8.712359
_cell_angle_alpha 90.000000
_cell_angle_beta 90.000000
_cell_angle_gamma 90.000000
_cell_volume 2593.557443
_symmetry_space_group_name_H-M "P N M A"
_symmetry_group_IT_number 62
_symmetry_cell_setting 'orthorhombic'
loop_
_space_group_symop_operation_xyz
x,y,z
1/2-x,-y,1/2+z
1/2+x,1/2-y,1/2-z
-x,1/2+y,-z
-x,-y,-z
1/2+x,y,1/2-z
1/2-x,1/2+y,1/2+z
x,1/2-y,z
loop_
_atom_site_type_symbol
_atom_site_label
_atom_site_fract_x
_atom_site_fract_y
_atom_site_fract_z
Si Si1 0.457553 0.668471 0.631013
Si Si2 0.133631 0.830753 0.393498
Si Si3 0.275830 0.058117 0.354544
Si Si4 0.362249 0.510465 0.075866
Si Si5 0.995260 0.605461 0.546509
Si Si6 0.384286 0.335111 0.553698
Si Si7 0.275495 0.666179 0.610989
O O1 0.466382 0.750000 0.697972
O O2 0.472225 0.614786 0.775123
O O3 0.520881 0.654095 0.494363
O O4 0.368718 0.659187 0.548150
O O5 0.166206 0.750000 0.366698
O O6 0.042956 0.825459 0.474582
O O7 0.126674 0.866239 0.225443
O O8 0.206305 0.867694 0.496554
O O9 0.216655 0.010645 0.462641
O O10 0.333606 0.110983 0.449711
O O11 0.221915 0.114459 0.257638
O O12 0.330643 0.003134 0.249475
O O13 0.428802 0.451297 0.020952
O O14 0.413997 0.585988 0.054622
O O15 0.358128 0.250000 0.534617
O O16 0.253853 0.750000 0.654958
#
# Coordination Sequence:
#
# PCOD8252134 Si02
#       7
#     8   8   8   8   8   8   8
#     4  10  19  38  68  97 124 162 211 261 318 380
#     4  10  21  40  65  94 129 166 205 263 329 374
#     4  12  23  43  62  90 125 171 218 259 313 379
#     4  11  26  39  64  89 127 170 216 258 310 382
#     4  11  21  43  61  94 126 166 209 260 312 382
#     4  10  22  41  66  93 125 165 212 266 318 375
#     4  10  20  38  68  97 124 162 210 269 319 370
#
# _framework density 21.591964000000001
#
# number of rings (size 3 to 8) (size 9 to 14) (size 15 to 20)
#    0.000    1.429    4.286    0.857    2.000    2.286 
#    5.143    0.714    0.000    0.000    0.000    0.000 
#    0.000    0.000    0.000    0.000    0.000    0.000 
#
# Total GULP energy -693878.089889 kJ/mol
# GULP energy per Si atom -12390.680177 kJ/mol
# Density = 2.154282 g / cm^3
# Si number density = 21.591964 Si / 1000 Ang^3
#
#
#
# Elastic Constant Matrix: (Units=GPa)
#
#
# Indices 1 2 3 4 5 6 
#
# 1 141.5449 29.4230 59.1745 0.0000 0.0000 0.0000
# 2 29.4230 44.8073 25.9107 0.0000 0.0000 0.0000
# 3 59.1745 25.9107 119.7349 0.0000 0.0000 0.0000
# 4 0.0000 0.0000 0.0000 31.8145 0.0000 0.0000
# 5 0.0000 0.0000 0.0000 0.0000 33.5363 0.0000
# 6 0.0000 0.0000 0.0000 0.0000 0.0000 47.9733
#
#
#
# Elastic Compliance Matrix: (Units=1/GPa)
#
#
# Indices 1 2 3 4 5 6 
#
# 1 0.009501 -0.004027 -0.003824 0.000000 0.000000 0.000000
# 2 -0.004027 0.027217 -0.003899 0.000000 0.000000 0.000000
# 3 -0.003824 -0.003899 0.011085 0.000000 0.000000 0.000000
# 4 0.000000 0.000000 0.000000 0.031432 0.000000 0.000000
# 5 0.000000 0.000000 0.000000 0.000000 0.029818 0.000000
# 6 0.000000 0.000000 0.000000 0.000000 0.000000 0.020845
#
#
# Mechanical properties :
#
#
# Convention : Reuss Voigt Hill
#
# Bulk Modulus (GPa) = 41.14884 59.45593 50.30239
# Shear Modulus (GPa) = 30.95953 35.43674 33.19814
#
# Velocity S-wave (km/s) = 3.79072 4.05557 3.92538
# Velocity P-wave (km/s) = 6.18533 7.03748 6.62512
#
# Compressibility (1/GPa) = 0.02430202
#
# Stress axis : x y z
#
# Youngs Moduli (GPa) = 105.25565 36.74125 90.20874
#
# Poissons Ratio (x) = 0.14797 0.34494
# Poissons Ratio (y) = 0.42391 0.35176
# Poissons Ratio (z) = 0.40248 0.14327
#
# Static dielectric constant tensor:
#      x y z
#    x 4.193490 0.000000 0.000000 
#    y 0.000000 4.131660 0.000000 
#    z 0.000000 0.000000 3.808210 
# 
# 
# High freq. dielectric constant tensor:
#      x y z
#    x 1.861180 0.000000 0.000000 
#    y 0.000000 1.843600 0.000000 
#    z 0.000000 0.000000 1.833460 
# 
# From -- ./inp_files/6748.got.cif
#   From: 2010.03.12/outbox.cif.g09.slc.cpg/sg62_4_cif.got.tgz:6748.got - 2010.04.10 19:12:36.
