data_PCOD8252302
_publ_section_title
;
Structure prediction by ZEFSAII (Michael W. Deem and Ramdas Pophale) SiO2 
 PCOD8252302
Probable space group: P N M A
;
_chemical_formula_sum "Si O2"
_cell_formula_units_Z 56
_cell_length_a 14.730575
_cell_length_b 8.847441
_cell_length_c 20.779479
_cell_angle_alpha 90.000000
_cell_angle_beta 90.000000
_cell_angle_gamma 90.000000
_cell_volume 2708.145720
_symmetry_space_group_name_H-M "P N M A"
_symmetry_group_IT_number 62
_symmetry_cell_setting 'orthorhombic'
loop_
_space_group_symop_operation_xyz
x,y,z
1/2-x,-y,1/2+z
1/2+x,1/2-y,1/2-z
-x,1/2+y,-z
-x,-y,-z
1/2+x,y,1/2-z
1/2-x,1/2+y,1/2+z
x,1/2-y,z
loop_
_atom_site_type_symbol
_atom_site_label
_atom_site_fract_x
_atom_site_fract_y
_atom_site_fract_z
Si Si1 0.426984 0.919657 0.639827
Si Si2 0.256872 0.073111 0.604071
Si Si3 0.168286 0.575557 0.338058
Si Si4 0.072510 0.583072 0.957991
Si Si5 0.999477 0.076397 0.743408
Si Si6 0.227957 0.073330 0.462686
Si Si7 0.307074 0.429010 0.236277
O O1 0.391274 0.750000 0.655145
O O2 0.528914 0.910882 0.612828
O O3 0.357391 0.004007 0.591079
O O4 0.428279 0.021966 0.702890
O O5 0.261851 0.250000 0.619843
O O6 0.199743 0.045723 0.537735
O O7 0.216018 0.987898 0.665058
O O8 0.196524 0.750000 0.335413
O O9 0.061923 0.554816 0.320122
O O10 0.167634 0.516322 0.411596
O O11 0.239765 0.490456 0.291522
O O12 0.086724 0.750000 0.987401
O O13 0.170370 0.506214 0.952924
O O14 0.000000 0.500000 0.000000
O O15 0.028077 0.250000 0.753518
O O16 0.088806 0.975281 0.746841
O O17 0.223048 0.250000 0.445401
O O18 0.300093 0.250000 0.237959
#
# Coordination Sequence:
#
# PCOD8252302 Si02
#       7
#     8   8   8   8   8   8   8
#     4  11  21  34  58  90 123 162 204 254 311 374
#     4  11  22  39  62  89 125 167 210 255 311 373
#     4  11  24  42  66  95 128 166 209 261 320 382
#     4  10  20  33  51  82 119 156 199 243 300 367
#     4  11  24  42  65  92 124 163 211 264 318 378
#     4  10  22  39  60  88 126 169 210 259 316 375
#     4  12  25  42  67  95 127 166 214 266 317 379
#
# _framework density 20.678355
#
# number of rings (size 3 to 8) (size 9 to 14) (size 15 to 20)
#    0.000    1.143    2.857    3.857    0.000    5.143 
#    0.000    0.714    0.000    0.000    0.000    0.000 
#    0.000    0.000    0.000    0.000    0.000    0.000 
#
# Total GULP energy -694095.086937 kJ/mol
# GULP energy per Si atom -12394.555124 kJ/mol
# Density = 2.063129 g / cm^3
# Si number density = 20.678355 Si / 1000 Ang^3
#
#
#
# Elastic Constant Matrix: (Units=GPa)
#
#
# Indices 1 2 3 4 5 6 
#
# 1 51.9420 27.3824 12.3041 0.0000 0.0000 0.0000
# 2 27.3824 121.9587 46.1275 0.0000 0.0000 0.0000
# 3 12.3041 46.1275 101.5314 0.0000 0.0000 0.0000
# 4 0.0000 0.0000 0.0000 36.6267 0.0000 0.0000
# 5 0.0000 0.0000 0.0000 0.0000 27.5193 0.0000
# 6 0.0000 0.0000 0.0000 0.0000 0.0000 29.7906
#
#
#
# Elastic Compliance Matrix: (Units=1/GPa)
#
#
# Indices 1 2 3 4 5 6 
#
# 1 0.021858 -0.004716 -0.000506 0.000000 0.000000 0.000000
# 2 -0.004716 0.010918 -0.004389 0.000000 0.000000 0.000000
# 3 -0.000506 -0.004389 0.011904 0.000000 0.000000 0.000000
# 4 0.000000 0.000000 0.000000 0.027302 0.000000 0.000000
# 5 0.000000 0.000000 0.000000 0.000000 0.036338 0.000000
# 6 0.000000 0.000000 0.000000 0.000000 0.000000 0.033568
#
#
# Mechanical properties :
#
#
# Convention : Reuss Voigt Hill
#
# Bulk Modulus (GPa) = 39.27953 49.67334 44.47643
# Shear Modulus (GPa) = 29.48142 31.42853 30.45497
#
# Velocity S-wave (km/s) = 3.77996 3.90279 3.84186
# Velocity P-wave (km/s) = 6.17151 6.66206 6.42147
#
# Compressibility (1/GPa) = 0.02545856
#
# Stress axis : x y z
#
# Youngs Moduli (GPa) = 45.74898 91.58893 84.00218
#
# Poissons Ratio (x) = 0.43195 0.04253
# Poissons Ratio (y) = 0.21576 0.36867
# Poissons Ratio (z) = 0.02316 0.40197
#
# Static dielectric constant tensor:
#      x y z
#    x 3.800210 0.000000 0.000000 
#    y 0.000000 3.698050 0.000000 
#    z 0.000000 0.000000 3.884820 
# 
# 
# High freq. dielectric constant tensor:
#      x y z
#    x 1.794190 0.000000 0.000000 
#    y 0.000000 1.814960 0.000000 
#    z 0.000000 0.000000 1.816620 
# 
# From -- ./inp_files/27309.got.cif
#   From: 2010.03.12/outbox.cif.g09.slc.cpg/sg62_14_cif.got.tgz:27309.got - 2010.04.10 19:12:36.
