data_PCOD8252983
_publ_section_title
;
Structure prediction by ZEFSAII (Michael W. Deem and Ramdas Pophale) SiO2 
 PCOD8252983
Probable space group: P N M A
;
_chemical_formula_sum "Si O2"
_cell_formula_units_Z 56
_cell_length_a 19.821688
_cell_length_b 9.145132
_cell_length_c 16.231339
_cell_angle_alpha 90.000000
_cell_angle_beta 90.000000
_cell_angle_gamma 90.000000
_cell_volume 2942.286524
_symmetry_space_group_name_H-M "P N M A"
_symmetry_group_IT_number 62
_symmetry_cell_setting 'orthorhombic'
loop_
_space_group_symop_operation_xyz
x,y,z
1/2-x,-y,1/2+z
1/2+x,1/2-y,1/2-z
-x,1/2+y,-z
-x,-y,-z
1/2+x,y,1/2-z
1/2-x,1/2+y,1/2+z
x,1/2-y,z
loop_
_atom_site_type_symbol
_atom_site_label
_atom_site_fract_x
_atom_site_fract_y
_atom_site_fract_z
Si Si1 0.799276 0.581426 0.064638
Si Si2 0.128460 0.421797 0.297573
Si Si3 0.255108 0.582342 0.255264
Si Si4 0.671928 0.420233 0.024355
Si Si5 0.118915 0.080946 0.648230
Si Si6 0.048079 0.423103 0.934939
Si Si7 0.482190 0.423526 0.263606
O O1 0.782963 0.750000 0.051462
O O2 0.792303 0.536563 0.160317
O O3 0.744942 0.494022 0.010494
O O4 0.875322 0.545058 0.036382
O O5 0.136177 0.250000 0.293423
O O6 0.187238 0.489854 0.241284
O O7 0.136337 0.477830 0.392033
O O8 0.057175 0.471596 0.261682
O O9 0.233038 0.750000 0.257248
O O10 0.306324 0.548807 0.181832
O O11 0.687005 0.250000 0.029371
O O12 0.621517 0.455027 0.948989
O O13 0.098837 0.250000 0.665773
O O14 0.065826 0.972490 0.689244
O O15 0.033827 0.250000 0.931231
O O16 0.036955 0.491112 0.845596
O O17 0.000000 0.500000 0.000000
O O18 0.475646 0.250000 0.277321
#
# Coordination Sequence:
#
# PCOD8252983 Si02
#       7
#     8   8   8   8   8   8   8
#     4   9  18  35  56  77 108 141 178 232 284 334
#     4   9  20  37  54  80 116 150 190 239 287 340
#     4   9  17  33  56  79 103 141 189 234 286 343
#     4   9  19  35  57  83 112 148 190 238 287 338
#     4  10  20  36  57  83 114 148 192 240 287 341
#     4  11  23  40  60  85 117 150 189 238 290 347
#     4  11  23  38  57  83 117 156 195 235 287 348
#
# _framework density 19.032817000000001
#
# number of rings (size 3 to 8) (size 9 to 14) (size 15 to 20)
#    0.000    2.286    1.429    0.857    0.000    5.143 
#    0.000    2.857    0.000    0.000    0.000    0.000 
#    0.000    0.000    0.000    0.000    0.000    0.000 
#
# Total GULP energy -694443.592556 kJ/mol
# GULP energy per Si atom -12400.778439 kJ/mol
# Density = 1.898950 g / cm^3
# Si number density = 19.032817 Si / 1000 Ang^3
#
#
#
# Elastic Constant Matrix: (Units=GPa)
#
#
# Indices 1 2 3 4 5 6 
#
# 1 103.7214 44.1931 12.0078 0.0000 0.0000 0.0000
# 2 44.1931 56.3427 16.1759 0.0000 0.0000 0.0000
# 3 12.0078 16.1759 22.3725 0.0000 0.0000 0.0000
# 4 0.0000 0.0000 0.0000 26.3389 0.0000 0.0000
# 5 0.0000 0.0000 0.0000 0.0000 27.2693 0.0000
# 6 0.0000 0.0000 0.0000 0.0000 0.0000 36.8577
#
#
#
# Elastic Compliance Matrix: (Units=1/GPa)
#
#
# Indices 1 2 3 4 5 6 
#
# 1 0.014486 -0.011522 0.000556 0.000000 0.000000 0.000000
# 2 -0.011522 0.031562 -0.016636 0.000000 0.000000 0.000000
# 3 0.000556 -0.016636 0.056428 0.000000 0.000000 0.000000
# 4 0.000000 0.000000 0.000000 0.037967 0.000000 0.000000
# 5 0.000000 0.000000 0.000000 0.000000 0.036671 0.000000
# 6 0.000000 0.000000 0.000000 0.000000 0.000000 0.027131
#
#
# Mechanical properties :
#
#
# Convention : Reuss Voigt Hill
#
# Bulk Modulus (GPa) = 21.15452 36.35447 28.75449
# Shear Modulus (GPa) = 18.16813 25.43049 21.79931
#
# Velocity S-wave (km/s) = 3.09296 3.65929 3.38798
# Velocity P-wave (km/s) = 4.88816 6.08246 5.51772
#
# Compressibility (1/GPa) = 0.04727121
#
# Stress axis : x y z
#
# Youngs Moduli (GPa) = 69.03185 31.68361 17.72173
#
# Poissons Ratio (x) = 0.36505 -0.00985
# Poissons Ratio (y) = 0.79537 0.29482
# Poissons Ratio (z) = -0.03836 0.52709
#
# Static dielectric constant tensor:
#      x y z
#    x 3.571670 0.000000 0.000000 
#    y 0.000000 3.441870 0.000000 
#    z 0.000000 0.000000 3.588570 
# 
# 
# High freq. dielectric constant tensor:
#      x y z
#    x 1.742520 0.000000 0.000000 
#    y 0.000000 1.737020 0.000000 
#    z 0.000000 0.000000 1.735390 
# 
# From -- ./inp_files/20306.got.cif
#   From: 2010.03.12/outbox.cif.g09.slc.cpg/sg62_11_cif.got.tgz:20306.got - 2010.04.10 19:12:36.
