data_PCOD8252294
_publ_section_title
;
Structure prediction by ZEFSAII (Michael W. Deem and Ramdas Pophale) SiO2 
 PCOD8252294
Probable space group: P N M A
;
_chemical_formula_sum "Si O2"
_cell_formula_units_Z 48
_cell_length_a 29.245839
_cell_length_b 9.217413
_cell_length_c 9.959382
_cell_angle_alpha 90.000000
_cell_angle_beta 90.000000
_cell_angle_gamma 90.000000
_cell_volume 2684.760332
_symmetry_space_group_name_H-M "P N M A"
_symmetry_group_IT_number 62
_symmetry_cell_setting 'orthorhombic'
loop_
_space_group_symop_operation_xyz
x,y,z
1/2-x,-y,1/2+z
1/2+x,1/2-y,1/2-z
-x,1/2+y,-z
-x,-y,-z
1/2+x,y,1/2-z
1/2-x,1/2+y,1/2+z
x,1/2-y,z
loop_
_atom_site_type_symbol
_atom_site_label
_atom_site_fract_x
_atom_site_fract_y
_atom_site_fract_z
Si Si1 0.608507 0.915140 0.852203
Si Si2 0.374021 0.417652 0.844729
Si Si3 0.048614 0.080375 0.851350
Si Si4 0.282830 0.579532 0.890691
Si Si5 0.212689 0.582063 0.659859
Si Si6 0.444050 0.080862 0.616731
O O1 0.596396 0.750000 0.813661
O O2 0.660037 0.953562 0.807210
O O3 0.573588 0.021934 0.780159
O O4 0.602852 0.941307 0.010771
O O5 0.360078 0.250000 0.826087
O O6 0.328838 0.513185 0.828702
O O7 0.410181 0.469299 0.734057
O O8 0.057309 0.250000 0.863433
O O9 0.995225 0.041927 0.836953
O O10 0.069654 0.005493 0.983158
O O11 0.289642 0.750000 0.908666
O O12 0.241714 0.541723 0.790249
O O13 0.269942 0.511399 0.033970
O O14 0.217917 0.750000 0.618955
O O15 0.439108 0.250000 0.584648
#
# Coordination Sequence:
#
# PCOD8252294 Si02
#       6
#     8   8   8   8   8   8
#     4   9  18  34  53  72  99 135 169 202 248 305
#     4   9  19  36  55  74 100 135 170 204 250 306
#     4  10  20  33  51  77 104 130 167 212 250 290
#     4  10  20  34  54  79 103 130 169 213 251 291
#     4   9  20  37  53  73 104 138 169 203 250 306
#     4   9  19  36  54  72 100 137 170 202 249 305
#
# _framework density 17.878692000000001
#
# number of rings (size 3 to 8) (size 9 to 14) (size 15 to 20)
#    0.000    2.667    0.000    2.000    0.000    7.333 
#    0.000    5.000    0.000    0.000    0.000    0.000 
#    0.000    0.000    0.000    0.000    0.000    0.000 
#
# Total GULP energy -595342.110683 kJ/mol
# GULP energy per Si atom -12402.960639 kJ/mol
# Density = 1.783800 g / cm^3
# Si number density = 17.878692 Si / 1000 Ang^3
#
#
#
# Elastic Constant Matrix: (Units=GPa)
#
#
# Indices 1 2 3 4 5 6 
#
# 1 34.0505 19.3419 13.4773 0.0000 0.0000 0.0000
# 2 19.3419 57.5715 23.8800 0.0000 0.0000 0.0000
# 3 13.4773 23.8800 44.7505 0.0000 0.0000 0.0000
# 4 0.0000 0.0000 0.0000 33.6055 0.0000 0.0000
# 5 0.0000 0.0000 0.0000 0.0000 37.7599 0.0000
# 6 0.0000 0.0000 0.0000 0.0000 0.0000 27.2701
#
#
#
# Elastic Compliance Matrix: (Units=1/GPa)
#
#
# Indices 1 2 3 4 5 6 
#
# 1 0.037455 -0.010152 -0.005863 0.000000 0.000000 0.000000
# 2 -0.010152 0.025059 -0.010315 0.000000 0.000000 0.000000
# 3 -0.005863 -0.010315 0.029616 0.000000 0.000000 0.000000
# 4 0.000000 0.000000 0.000000 0.029757 0.000000 0.000000
# 5 0.000000 0.000000 0.000000 0.000000 0.026483 0.000000
# 6 0.000000 0.000000 0.000000 0.000000 0.000000 0.036670
#
#
# Mechanical properties :
#
#
# Convention : Reuss Voigt Hill
#
# Bulk Modulus (GPa) = 25.33485 27.75231 26.54358
# Shear Modulus (GPa) = 19.93176 25.03866 22.48521
#
# Velocity S-wave (km/s) = 3.34253 3.74635 3.55019
# Velocity P-wave (km/s) = 5.39425 5.85404 5.62884
#
# Compressibility (1/GPa) = 0.03947131
#
# Stress axis : x y z
#
# Youngs Moduli (GPa) = 26.69853 39.90638 33.76559
#
# Poissons Ratio (x) = 0.40512 0.19797
# Poissons Ratio (y) = 0.27103 0.34828
# Poissons Ratio (z) = 0.15653 0.41162
#
# Static dielectric constant tensor:
#      x y z
#    x 3.317430 0.000000 0.000000 
#    y 0.000000 3.296350 0.000000 
#    z 0.000000 0.000000 3.320810 
# 
# 
# High freq. dielectric constant tensor:
#      x y z
#    x 1.688370 0.000000 0.000000 
#    y 0.000000 1.693640 0.000000 
#    z 0.000000 0.000000 1.695190 
# 
# From -- ./inp_files/10281.got.cif
#   From: 2010.03.12/outbox.cif.g09.slc.cpg/sg62_6_cif.got.tgz:10281.got - 2010.04.10 19:12:36.
