data_PCOD8252525
_publ_section_title
;
Structure prediction by ZEFSAII (Michael W. Deem and Ramdas Pophale) SiO2 
 PCOD8252525
Probable space group: P N M A
;
_chemical_formula_sum "Si O2"
_cell_formula_units_Z 40
_cell_length_a 10.517345
_cell_length_b 9.531631
_cell_length_c 20.977290
_cell_angle_alpha 90.000000
_cell_angle_beta 90.000000
_cell_angle_gamma 90.000000
_cell_volume 2102.919865
_symmetry_space_group_name_H-M "P N M A"
_symmetry_group_IT_number 62
_symmetry_cell_setting 'orthorhombic'
loop_
_space_group_symop_operation_xyz
x,y,z
1/2-x,-y,1/2+z
1/2+x,1/2-y,1/2-z
-x,1/2+y,-z
-x,-y,-z
1/2+x,y,1/2-z
1/2-x,1/2+y,1/2+z
x,1/2-y,z
loop_
_atom_site_type_symbol
_atom_site_label
_atom_site_fract_x
_atom_site_fract_y
_atom_site_fract_z
Si Si1 0.192444 0.009670 0.092061
Si Si2 0.873763 0.250000 0.631101
Si Si3 0.975935 0.250000 0.917075
Si Si4 0.105300 0.750000 0.721833
Si Si5 0.268498 0.750000 0.495556
Si Si6 0.615730 0.250000 0.317083
Si Si7 0.080432 0.047536 0.675155
Si Si8 0.380386 0.750000 0.288686
O O1 0.118064 0.109566 0.141215
O O2 0.099434 0.891195 0.064607
O O3 0.303707 0.923099 0.127232
O O4 0.248198 0.108136 0.036369
O O5 0.841325 0.250000 0.556911
O O6 0.753668 0.250000 0.676887
O O7 0.953052 0.110711 0.645870
O O8 0.096087 0.250000 0.962295
O O9 0.008684 0.250000 0.841652
O O10 0.260226 0.750000 0.730882
O O11 0.062035 0.618107 0.680232
O O12 0.023706 0.750000 0.786069
O O13 0.108475 0.112335 0.744747
#
# Coordination Sequence:
#
# PCOD8252525 Si02
#       8
#     8   4   4   4   4   4   8   4
#     4  10  21  38  59  83 115 156 200 235 304 345
#     4  10  23  39  57  86 119 152 203 244 291 350
#     4  11  20  36  63  88 112 155 194 255 288 345
#     4  10  20  34  55  84 121 153 196 236 300 364
#     4  10  23  42  57  82 118 157 201 250 282 354
#     4   9  20  35  55  84 119 160 187 242 300 369
#     4  10  22  36  59  86 117 159 188 244 302 364
#     4  10  22  34  59  90 123 145 193 247 301 356
#
# _framework density 19.021172
#
# number of rings (size 3 to 8) (size 9 to 14) (size 15 to 20)
#    0.000    2.000    0.000    3.600   11.200    0.800 
#    0.000    1.000    0.000    0.000    0.000    0.000 
#    0.000    0.000    0.000    0.000    0.000    0.000 
#
# Total GULP energy -495982.103696 kJ/mol
# GULP energy per Si atom -12399.552592 kJ/mol
# Density = 1.897788 g / cm^3
# Si number density = 19.021172 Si / 1000 Ang^3
#
#
#
# Elastic Constant Matrix: (Units=GPa)
#
#
# Indices 1 2 3 4 5 6 
#
# 1 37.9920 17.8348 14.2991 0.0000 0.0000 0.0000
# 2 17.8348 115.1710 17.0338 0.0000 0.0000 0.0000
# 3 14.2991 17.0338 86.4105 0.0000 0.0000 0.0000
# 4 0.0000 0.0000 0.0000 21.4503 0.0000 0.0000
# 5 0.0000 0.0000 0.0000 0.0000 26.7358 0.0000
# 6 0.0000 0.0000 0.0000 0.0000 0.0000 -23.1553
#
#
#
# Elastic Compliance Matrix: (Units=1/GPa)
#
#
# Indices 1 2 3 4 5 6 
#
# 1 0.029754 -0.003996 -0.004136 0.000000 0.000000 0.000000
# 2 -0.003996 0.009480 -0.001208 0.000000 0.000000 0.000000
# 3 -0.004136 -0.001208 0.012495 0.000000 0.000000 0.000000
# 4 0.000000 0.000000 0.000000 0.046619 0.000000 0.000000
# 5 0.000000 0.000000 0.000000 0.000000 0.037403 0.000000
# 6 0.000000 0.000000 0.000000 0.000000 0.000000 -0.043187
#
#
# Mechanical properties :
#
#
# Convention : Reuss Voigt Hill
#
# Bulk Modulus (GPa) = 30.25682 37.54544 33.90113
# Shear Modulus (GPa) = 40.89637 17.69988 29.29813
#
# Velocity S-wave (km/s) = 4.64189 3.05378 3.92891
# Velocity P-wave (km/s) = 6.68363 5.67589 6.20027
#
# Compressibility (1/GPa) = 0.03305040
#
# Stress axis : x y z
#
# Youngs Moduli (GPa) = 33.60916 105.48400 80.03130
#
# Poissons Ratio (x) = 0.42150 0.33100
# Poissons Ratio (y) = 0.13430 0.09664
# Poissons Ratio (z) = 0.13901 0.12738
#
# Static dielectric constant tensor:
#      x y z
#    x 3.481210 0.000000 0.000000 
#    y 0.000000 3.562950 0.000000 
#    z 0.000000 0.000000 3.490380 
# 
# 
# High freq. dielectric constant tensor:
#      x y z
#    x 1.738350 0.000000 0.000000 
#    y 0.000000 1.755020 0.000000 
#    z 0.000000 0.000000 1.729570 
# 
# From -- ./inp_files/22854.got.cif
#   From: 2010.03.12/outbox.cif.g09.slc.cpg/sg62_12_cif.got.tgz:22854.got - 2010.04.10 19:12:36.
