data_PCOD8252999
_publ_section_title
;
Structure prediction by ZEFSAII (Michael W. Deem and Ramdas Pophale) SiO2 
 PCOD8252999
Probable space group: P N M A
;
_chemical_formula_sum "Si O2"
_cell_formula_units_Z 56
_cell_length_a 23.059460
_cell_length_b 9.303181
_cell_length_c 13.765058
_cell_angle_alpha 90.000000
_cell_angle_beta 90.000000
_cell_angle_gamma 90.000000
_cell_volume 2952.967377
_symmetry_space_group_name_H-M "P N M A"
_symmetry_group_IT_number 62
_symmetry_cell_setting 'orthorhombic'
loop_
_space_group_symop_operation_xyz
x,y,z
1/2-x,-y,1/2+z
1/2+x,1/2-y,1/2-z
-x,1/2+y,-z
-x,-y,-z
1/2+x,y,1/2-z
1/2-x,1/2+y,1/2+z
x,1/2-y,z
loop_
_atom_site_type_symbol
_atom_site_label
_atom_site_fract_x
_atom_site_fract_y
_atom_site_fract_z
Si Si1 0.633747 0.591986 0.307543
Si Si2 0.521237 0.918908 0.406464
Si Si3 0.338169 0.081836 0.170500
Si Si4 0.227147 0.414750 0.285026
Si Si5 0.044549 0.081525 0.711840
Si Si6 0.332844 0.920263 0.981134
Si Si7 0.431955 0.090987 0.894751
O O1 0.656647 0.750000 0.336603
O O2 0.588252 0.534942 0.388001
O O3 0.689185 0.490839 0.298088
O O4 0.598674 0.601495 0.208345
O O5 0.517642 0.750000 0.424472
O O6 0.481372 0.962673 0.315679
O O7 0.500000 0.000000 0.500000
O O8 0.345072 0.250000 0.147302
O O9 0.294638 0.057652 0.261646
O O10 0.399326 0.014539 0.197267
O O11 0.310766 0.001418 0.077121
O O12 0.209961 0.250000 0.276549
O O13 0.210711 0.466833 0.393888
O O14 0.060739 0.250000 0.708489
O O15 0.998658 0.045082 0.625437
O O16 0.334144 0.750000 0.998265
O O17 0.398816 0.973950 0.960562
O O18 0.429442 0.250000 0.943931
#
# Coordination Sequence:
#
# PCOD8252999 Si02
#       7
#     8   8   8   8   8   8   8
#     4   8  15  30  53  77 100 134 176 218 264 312
#     4   9  18  33  53  80 112 143 180 224 270 324
#     4  11  23  38  55  79 112 145 181 227 274 322
#     4   9  20  38  56  76 105 139 180 229 271 317
#     4   9  19  36  55  78 110 145 180 222 271 322
#     4  10  20  36  58  81 105 139 181 223 272 328
#     4   8  15  31  55  79 105 134 170 216 262 315
#
# _framework density 18.963975000000001
#
# number of rings (size 3 to 8) (size 9 to 14) (size 15 to 20)
#    0.000    2.857    0.000    2.571    0.000    4.000 
#    2.571    2.857    0.000    0.000    0.000    0.000 
#    0.000    0.000    0.000    0.000    0.000    0.000 
#
# Total GULP energy -694129.483998 kJ/mol
# GULP energy per Si atom -12395.169357 kJ/mol
# Density = 1.892081 g / cm^3
# Si number density = 18.963975 Si / 1000 Ang^3
#
#
#
# Elastic Constant Matrix: (Units=GPa)
#
#
# Indices 1 2 3 4 5 6 
#
# 1 102.3754 47.0202 32.3789 0.0000 0.0000 0.0000
# 2 47.0202 78.9365 36.4979 0.0000 0.0000 0.0000
# 3 32.3789 36.4979 74.0874 0.0000 0.0000 0.0000
# 4 0.0000 0.0000 0.0000 31.5484 0.0000 0.0000
# 5 0.0000 0.0000 0.0000 0.0000 26.4712 0.0000
# 6 0.0000 0.0000 0.0000 0.0000 0.0000 30.5691
#
#
#
# Elastic Compliance Matrix: (Units=1/GPa)
#
#
# Indices 1 2 3 4 5 6 
#
# 1 0.013814 -0.007041 -0.002569 0.000000 0.000000 0.000000
# 2 -0.007041 0.019994 -0.006772 0.000000 0.000000 0.000000
# 3 -0.002569 -0.006772 0.017957 0.000000 0.000000 0.000000
# 4 0.000000 0.000000 0.000000 0.031697 0.000000 0.000000
# 5 0.000000 0.000000 0.000000 0.000000 0.037777 0.000000
# 6 0.000000 0.000000 0.000000 0.000000 0.000000 0.032713
#
#
# Mechanical properties :
#
#
# Convention : Reuss Voigt Hill
#
# Bulk Modulus (GPa) = 52.63076 54.13259 53.38168
# Shear Modulus (GPa) = 25.90006 27.01789 26.45897
#
# Velocity S-wave (km/s) = 3.69962 3.77861 3.73932
# Velocity P-wave (km/s) = 6.78696 6.90247 6.84496
#
# Compressibility (1/GPa) = 0.01900030
#
# Stress axis : x y z
#
# Youngs Moduli (GPa) = 72.38876 50.01502 55.69007
#
# Poissons Ratio (x) = 0.35216 0.14305
# Poissons Ratio (y) = 0.50970 0.37716
# Poissons Ratio (z) = 0.18594 0.33873
#
# Static dielectric constant tensor:
#      x y z
#    x 3.534560 0.000000 0.000000 
#    y 0.000000 3.554610 0.000000 
#    z 0.000000 0.000000 3.502750 
# 
# 
# High freq. dielectric constant tensor:
#      x y z
#    x 1.732760 0.000000 0.000000 
#    y 0.000000 1.735030 0.000000 
#    z 0.000000 0.000000 1.724610 
# 
# From -- ./inp_files/20436.got.cif
#   From: 2010.03.12/outbox.cif.g09.slc.cpg/sg62_11_cif.got.tgz:20436.got - 2010.04.10 19:12:36.
