data_PCOD8252312
_publ_section_title
;
Structure prediction by ZEFSAII (Michael W. Deem and Ramdas Pophale) SiO2 
 PCOD8252312
Probable space group: P N M A
;
_chemical_formula_sum "Si O2"
_cell_formula_units_Z 48
_cell_length_a 30.916126
_cell_length_b 8.819459
_cell_length_c 9.577978
_cell_angle_alpha 90.000000
_cell_angle_beta 90.000000
_cell_angle_gamma 90.000000
_cell_volume 2611.565059
_symmetry_space_group_name_H-M "P N M A"
_symmetry_group_IT_number 62
_symmetry_cell_setting 'orthorhombic'
loop_
_space_group_symop_operation_xyz
x,y,z
1/2-x,-y,1/2+z
1/2+x,1/2-y,1/2-z
-x,1/2+y,-z
-x,-y,-z
1/2+x,y,1/2-z
1/2-x,1/2+y,1/2+z
x,1/2-y,z
loop_
_atom_site_type_symbol
_atom_site_label
_atom_site_fract_x
_atom_site_fract_y
_atom_site_fract_z
Si Si1 0.785027 0.425491 0.095792
Si Si2 0.124155 0.419346 0.577933
Si Si3 0.629673 0.082609 0.590996
Si Si4 0.465369 0.570454 0.397729
Si Si5 0.036720 0.929919 0.594844
Si Si6 0.711171 0.573062 0.918513
O O1 0.775767 0.250000 0.067935
O O2 0.833652 0.464202 0.043055
O O3 0.779967 0.470600 0.257683
O O4 0.751930 0.525214 0.008995
O O5 0.119352 0.250000 0.516075
O O6 0.125901 0.414711 0.743443
O O7 0.083053 0.519052 0.531785
O O8 0.168590 0.491159 0.520702
O O9 0.642648 0.250000 0.536127
O O10 0.582113 0.036115 0.535379
O O11 0.500000 0.500000 0.500000
O O12 0.472122 0.750000 0.378594
O O13 0.470580 0.490174 0.249968
O O14 0.033979 0.750000 0.593801
O O15 0.000000 0.000000 0.500000
O O16 0.702969 0.750000 0.932812
#
# Coordination Sequence:
#
# PCOD8252312 Si02
#       6
#     8   8   8   8   8   8
#     4  10  20  33  52  77 102 132 171 212 254 302
#     4   9  17  32  53  76 102 134 172 211 254 308
#     4   8  16  31  51  73 100 134 169 206 251 306
#     4  10  20  35  55  80 107 138 176 217 263 312
#     4  11  21  35  55  79 107 139 175 216 261 310
#     4  10  20  34  53  77 104 135 171 210 255 306
#
# _framework density 18.379783
#
# number of rings (size 3 to 8) (size 9 to 14) (size 15 to 20)
#    0.000    2.333    0.000    4.500    0.000    6.667 
#    0.000    1.667    0.000    6.000    0.000    0.000 
#    0.000    0.000    0.000    0.000    0.000    0.000 
#
# Total GULP energy -595125.228855 kJ/mol
# GULP energy per Si atom -12398.442268 kJ/mol
# Density = 1.833795 g / cm^3
# Si number density = 18.379783 Si / 1000 Ang^3
#
#
#
# Elastic Constant Matrix: (Units=GPa)
#
#
# Indices 1 2 3 4 5 6 
#
# 1 154.4263 66.0445 49.2851 0.0000 0.0000 0.0000
# 2 66.0445 123.9165 39.6644 0.0000 0.0000 0.0000
# 3 49.2851 39.6644 46.1540 0.0000 0.0000 0.0000
# 4 0.0000 0.0000 0.0000 25.8237 0.0000 0.0000
# 5 0.0000 0.0000 0.0000 0.0000 27.5500 0.0000
# 6 0.0000 0.0000 0.0000 0.0000 0.0000 40.2193
#
#
#
# Elastic Compliance Matrix: (Units=1/GPa)
#
#
# Indices 1 2 3 4 5 6 
#
# 1 0.010466 -0.002760 -0.008804 0.000000 0.000000 0.000000
# 2 -0.002760 0.011860 -0.007245 0.000000 0.000000 0.000000
# 3 -0.008804 -0.007245 0.037294 0.000000 0.000000 0.000000
# 4 0.000000 0.000000 0.000000 0.038724 0.000000 0.000000
# 5 0.000000 0.000000 0.000000 0.000000 0.036298 0.000000
# 6 0.000000 0.000000 0.000000 0.000000 0.000000 0.024864
#
#
# Mechanical properties :
#
#
# Convention : Reuss Voigt Hill
#
# Bulk Modulus (GPa) = 45.45068 70.49834 57.97451
# Shear Modulus (GPa) = 24.45498 30.01878 27.23688
#
# Velocity S-wave (km/s) = 3.65161 4.04573 3.85371
# Velocity P-wave (km/s) = 6.52390 7.76297 7.17025
#
# Compressibility (1/GPa) = 0.02200187
#
# Stress axis : x y z
#
# Youngs Moduli (GPa) = 95.55049 84.31650 26.81388
#
# Poissons Ratio (x) = 0.23271 0.23606
# Poissons Ratio (y) = 0.26371 0.19427
# Poissons Ratio (z) = 0.84120 0.61090
#
# Static dielectric constant tensor:
#      x y z
#    x 3.804910 0.000000 0.000000 
#    y 0.000000 3.575420 0.000000 
#    z 0.000000 0.000000 3.001060 
# 
# 
# High freq. dielectric constant tensor:
#      x y z
#    x 1.731760 0.000000 0.000000 
#    y 0.000000 1.727790 0.000000 
#    z 0.000000 0.000000 1.667690 
# 
# From -- ./inp_files/10255.got.cif
#   From: 2010.03.12/outbox.cif.g09.slc.cpg/sg62_6_cif.got.tgz:10255.got - 2010.04.10 19:12:36.
