data_PCOD8252082
_publ_section_title
;
Structure prediction by ZEFSAII (Michael W. Deem and Ramdas Pophale) SiO2 
 PCOD8252082
Probable space group: P N M A
;
_chemical_formula_sum "Si O2"
_cell_formula_units_Z 64
_cell_length_a 16.616827
_cell_length_b 8.906490
_cell_length_c 22.174594
_cell_angle_alpha 90.000000
_cell_angle_beta 90.000000
_cell_angle_gamma 90.000000
_cell_volume 3281.786771
_symmetry_space_group_name_H-M "P N M A"
_symmetry_group_IT_number 62
_symmetry_cell_setting 'orthorhombic'
loop_
_space_group_symop_operation_xyz
x,y,z
1/2-x,-y,1/2+z
1/2+x,1/2-y,1/2-z
-x,1/2+y,-z
-x,-y,-z
1/2+x,y,1/2-z
1/2-x,1/2+y,1/2+z
x,1/2-y,z
loop_
_atom_site_type_symbol
_atom_site_label
_atom_site_fract_x
_atom_site_fract_y
_atom_site_fract_z
Si Si1 0.913420 0.426244 0.498314
Si Si2 0.499885 0.571890 0.434874
Si Si3 0.826388 0.072044 0.620306
Si Si4 0.851975 0.425241 0.852209
Si Si5 0.090281 0.073041 0.266414
Si Si6 0.579107 0.075978 0.767196
Si Si7 0.327308 0.576187 0.111729
Si Si8 0.149368 0.425300 0.859026
O O1 0.926084 0.250000 0.496388
O O2 0.864562 0.476496 0.557147
O O3 0.863179 0.475244 0.440569
O O4 0.000000 0.500000 0.500000
O O5 0.500000 0.500000 0.500000
O O6 0.496774 0.750000 0.441282
O O7 0.579604 0.522112 0.398843
O O8 0.422950 0.505752 0.398804
O O9 0.828158 0.250000 0.630388
O O10 0.735338 0.007709 0.621204
O O11 0.877591 0.997286 0.672422
O O12 0.860355 0.250000 0.836528
O O13 0.858474 0.514768 0.790033
O O14 0.766543 0.462088 0.882184
O O15 0.098180 0.250000 0.269909
O O16 0.997903 0.027606 0.259472
O O17 0.551852 0.250000 0.766788
O O18 0.627295 0.033611 0.826958
O O19 0.637645 0.040409 0.711464
O O20 0.340840 0.750000 0.095670
O O21 0.149336 0.250000 0.871661
#
# Coordination Sequence:
#
# PCOD8252082 Si02
#       8
#     8   8   8   8   8   8   8   8
#     4  11  24  41  62  87 120 160 199 244 296 355
#     4  10  21  37  61  89 121 158 194 237 288 346
#     4  10  22  40  62  85 113 157 203 241 291 356
#     4  10  21  41  64  87 118 160 201 237 288 358
#     4  12  24  37  58  90 122 153 192 248 302 343
#     4  10  19  37  62  85 113 152 195 238 289 353
#     4  10  22  38  63  91 116 153 200 248 295 349
#     4   9  18  37  63  87 111 149 202 243 278 341
#
# _framework density 19.501571999999999
#
# number of rings (size 3 to 8) (size 9 to 14) (size 15 to 20)
#    0.000    1.750    1.250    3.000    1.750    7.500 
#    0.000    2.500    0.000    0.000    0.000    0.000 
#    0.000    0.000    0.000    0.000    0.000    0.000 
#
# Total GULP energy -793843.007530 kJ/mol
# GULP energy per Si atom -12403.796993 kJ/mol
# Density = 1.945719 g / cm^3
# Si number density = 19.501572 Si / 1000 Ang^3
#
#
#
# Elastic Constant Matrix: (Units=GPa)
#
#
# Indices 1 2 3 4 5 6 
#
# 1 133.6725 27.4082 59.2226 0.0000 0.0000 0.0000
# 2 27.4082 35.3309 42.6040 0.0000 0.0000 0.0000
# 3 59.2226 42.6040 160.5098 0.0000 0.0000 0.0000
# 4 0.0000 0.0000 0.0000 34.0399 0.0000 0.0000
# 5 0.0000 0.0000 0.0000 0.0000 34.3894 0.0000
# 6 0.0000 0.0000 0.0000 0.0000 0.0000 19.2738
#
#
#
# Elastic Compliance Matrix: (Units=1/GPa)
#
#
# Indices 1 2 3 4 5 6 
#
# 1 0.009422 -0.004585 -0.002260 0.000000 0.000000 0.000000
# 2 -0.004585 0.043858 -0.009950 0.000000 0.000000 0.000000
# 3 -0.002260 -0.009950 0.009705 0.000000 0.000000 0.000000
# 4 0.000000 0.000000 0.000000 0.029377 0.000000 0.000000
# 5 0.000000 0.000000 0.000000 0.000000 0.029079 0.000000
# 6 0.000000 0.000000 0.000000 0.000000 0.000000 0.051884
#
#
# Mechanical properties :
#
#
# Convention : Reuss Voigt Hill
#
# Bulk Modulus (GPa) = 34.01648 65.33143 49.67396
# Shear Modulus (GPa) = 23.07208 30.89250 26.98229
#
# Velocity S-wave (km/s) = 3.44334 3.98440 3.72371
# Velocity P-wave (km/s) = 5.76971 7.39869 6.63438
#
# Compressibility (1/GPa) = 0.02939751
#
# Stress axis : x y z
#
# Youngs Moduli (GPa) = 106.13392 22.80067 103.04182
#
# Poissons Ratio (x) = 0.10453 0.23283
# Poissons Ratio (y) = 0.48658 1.02524
# Poissons Ratio (z) = 0.23981 0.22686
#
# Static dielectric constant tensor:
#      x y z
#    x 3.979540 0.000000 0.000000 
#    y 0.000000 3.325580 0.000000 
#    z 0.000000 0.000000 3.557470 
# 
# 
# High freq. dielectric constant tensor:
#      x y z
#    x 1.778310 0.000000 0.000000 
#    y 0.000000 1.734510 0.000000 
#    z 0.000000 0.000000 1.773780 
# 
# From -- ./inp_files/27673.got.cif
#   From: 2010.03.12/outbox.cif.g09.slc.cpg/sg62_14_cif.got.tgz:27673.got - 2010.04.10 19:12:36.
