data_PCOD8252810
_publ_section_title
;
Structure prediction by ZEFSAII (Michael W. Deem and Ramdas Pophale) SiO2 
 PCOD8252810
Probable space group: P N M A
;
_chemical_formula_sum "Si O2"
_cell_formula_units_Z 40
_cell_length_a 15.950496
_cell_length_b 9.654204
_cell_length_c 13.522828
_cell_angle_alpha 90.000000
_cell_angle_beta 90.000000
_cell_angle_gamma 90.000000
_cell_volume 2082.371390
_symmetry_space_group_name_H-M "P N M A"
_symmetry_group_IT_number 62
_symmetry_cell_setting 'orthorhombic'
loop_
_space_group_symop_operation_xyz
x,y,z
1/2-x,-y,1/2+z
1/2+x,1/2-y,1/2-z
-x,1/2+y,-z
-x,-y,-z
1/2+x,y,1/2-z
1/2-x,1/2+y,1/2+z
x,1/2-y,z
loop_
_atom_site_type_symbol
_atom_site_label
_atom_site_fract_x
_atom_site_fract_y
_atom_site_fract_z
Si Si1 0.884247 0.750000 0.130764
Si Si2 0.218496 0.750000 0.247785
Si Si3 0.609473 0.750000 0.682114
Si Si4 0.144174 0.250000 0.596686
Si Si5 0.622426 0.031566 0.247308
Si Si6 0.936556 0.523407 0.275383
Si Si7 0.790114 0.750000 0.618492
Si Si8 0.424653 0.750000 0.599219
O O1 0.785178 0.750000 0.160983
O O2 0.929718 0.615357 0.175870
O O3 0.897532 0.750000 0.014196
O O4 0.265136 0.750000 0.144402
O O5 0.158632 0.619782 0.244212
O O6 0.615315 0.617119 0.754839
O O7 0.689150 0.750000 0.607907
O O8 0.525445 0.750000 0.614934
O O9 0.097105 0.109560 0.630817
O O10 0.157136 0.250000 0.481259
O O11 0.683767 0.112978 0.175669
O O12 0.614649 0.111916 0.351865
O O13 0.530919 0.019481 0.199184
#
# Coordination Sequence:
#
# PCOD8252810 Si02
#       8
#     4   4   4   4   8   8   4   4
#     4  10  20  37  58  86 116 144 185 233 277 330
#     4  10  20  35  57  84 115 145 181 230 276 320
#     4  10  20  38  59  82 113 144 182 236 282 328
#     4  10  22  37  56  80 110 150 186 225 277 334
#     4  10  21  38  58  81 112 149 186 229 277 331
#     4   9  20  39  58  78 111 149 186 226 277 334
#     4  11  22  36  56  84 114 143 187 235 277 328
#     4   9  22  39  60  84 112 150 185 223 283 340
#
# _framework density 19.208870000000001
#
# number of rings (size 3 to 8) (size 9 to 14) (size 15 to 20)
#    0.000    2.400    0.000    4.200    0.000    8.800 
#    0.000    1.000    0.000    0.000    0.000    0.000 
#    0.000    0.000    0.000    0.000    0.000    0.000 
#
# Total GULP energy -495849.488208 kJ/mol
# GULP energy per Si atom -12396.237205 kJ/mol
# Density = 1.916515 g / cm^3
# Si number density = 19.208870 Si / 1000 Ang^3
#
#
#
# Elastic Constant Matrix: (Units=GPa)
#
#
# Indices 1 2 3 4 5 6 
#
# 1 100.0181 38.5699 41.8151 0.0000 0.0000 0.0000
# 2 38.5699 149.5676 33.8678 0.0000 0.0000 0.0000
# 3 41.8151 33.8678 98.5689 0.0000 0.0000 0.0000
# 4 0.0000 0.0000 0.0000 -12.9453 0.0000 0.0000
# 5 0.0000 0.0000 0.0000 0.0000 20.2268 0.0000
# 6 0.0000 0.0000 0.0000 0.0000 0.0000 35.2492
#
#
#
# Elastic Compliance Matrix: (Units=1/GPa)
#
#
# Indices 1 2 3 4 5 6 
#
# 1 0.012815 -0.002249 -0.004664 0.000000 0.000000 0.000000
# 2 -0.002249 0.007645 -0.001673 0.000000 0.000000 0.000000
# 3 -0.004664 -0.001673 0.012698 0.000000 0.000000 0.000000
# 4 0.000000 0.000000 0.000000 -0.077248 0.000000 0.000000
# 5 0.000000 0.000000 0.000000 0.000000 0.049439 0.000000
# 6 0.000000 0.000000 0.000000 0.000000 0.000000 0.028369
#
#
# Mechanical properties :
#
#
# Convention : Reuss Voigt Hill
#
# Bulk Modulus (GPa) = 62.54791 64.07337 63.31064
# Shear Modulus (GPa) = 88.93821 24.09958 56.51890
#
# Velocity S-wave (km/s) = 6.81184 3.54589 5.43021
# Velocity P-wave (km/s) = 9.72115 7.08470 8.50570
#
# Compressibility (1/GPa) = 0.01598775
#
# Stress axis : x y z
#
# Youngs Moduli (GPa) = 78.03250 130.81162 78.74989
#
# Poissons Ratio (x) = 0.29415 0.36728
# Poissons Ratio (y) = 0.17547 0.13173
# Poissons Ratio (z) = 0.36393 0.21881
#
# Static dielectric constant tensor:
#      x y z
#    x 3.591540 0.000000 0.000000 
#    y 0.000000 3.697980 0.000000 
#    z 0.000000 0.000000 3.150720 
# 
# 
# High freq. dielectric constant tensor:
#      x y z
#    x 1.759250 0.000000 0.000000 
#    y 0.000000 1.770000 0.000000 
#    z 0.000000 0.000000 1.713970 
# 
# From -- ./inp_files/13949.got.cif
#   From: 2010.03.12/outbox.cif.g09.slc.cpg/sg62_7_cif.got.tgz:13949.got - 2010.04.10 19:12:36.
