data_PCOD8252334
_publ_section_title
;
Structure prediction by ZEFSAII (Michael W. Deem and Ramdas Pophale) SiO2 
 PCOD8252334
Probable space group: P N M A
;
_chemical_formula_sum "Si O2"
_cell_formula_units_Z 56
_cell_length_a 14.820029
_cell_length_b 9.309929
_cell_length_c 20.797630
_cell_angle_alpha 90.000000
_cell_angle_beta 90.000000
_cell_angle_gamma 90.000000
_cell_volume 2869.520093
_symmetry_space_group_name_H-M "P N M A"
_symmetry_group_IT_number 62
_symmetry_cell_setting 'orthorhombic'
loop_
_space_group_symop_operation_xyz
x,y,z
1/2-x,-y,1/2+z
1/2+x,1/2-y,1/2-z
-x,1/2+y,-z
-x,-y,-z
1/2+x,y,1/2-z
1/2-x,1/2+y,1/2+z
x,1/2-y,z
loop_
_atom_site_type_symbol
_atom_site_label
_atom_site_fract_x
_atom_site_fract_y
_atom_site_fract_z
Si Si1 0.432884 0.584424 0.679698
Si Si2 0.864948 0.085593 0.510243
Si Si3 0.266284 0.916234 0.766260
Si Si4 0.513284 0.079315 0.567132
Si Si5 0.074227 0.911367 0.713585
Si Si6 0.214889 0.417042 0.892120
Si Si7 0.959196 0.915420 0.407684
O O1 0.417173 0.750000 0.658525
O O2 0.351382 0.529552 0.724781
O O3 0.439512 0.484314 0.616740
O O4 0.525910 0.567046 0.718292
O O5 0.864868 0.250000 0.487600
O O6 0.771229 0.043189 0.543908
O O7 0.945179 0.054829 0.559869
O O8 0.878003 0.990376 0.446767
O O9 0.277814 0.750000 0.784575
O O10 0.179364 0.943549 0.722372
O O11 0.258335 0.000450 0.832604
O O12 0.499774 0.250000 0.558931
O O13 0.611976 0.040670 0.594478
O O14 0.500000 0.000000 0.500000
O O15 0.057823 0.750000 0.687996
O O16 0.032773 0.021543 0.663285
O O17 0.225143 0.250000 0.876049
O O18 0.934692 0.750000 0.403026
#
# Coordination Sequence:
#
# PCOD8252334 Si02
#       7
#     8   8   8   8   8   8   8
#     4  10  21  39  61  86 117 152 195 241 291 353
#     4   9  19  36  55  77 110 147 184 230 283 338
#     4  10  21  36  59  87 113 149 191 234 289 348
#     4  11  24  41  62  86 116 156 199 246 299 351
#     4  10  20  35  55  80 113 148 179 225 283 335
#     4  10  21  38  60  85 112 150 197 242 291 348
#     4  10  20  33  53  82 112 145 185 230 280 335
#
# _framework density 19.515457999999999
#
# number of rings (size 3 to 8) (size 9 to 14) (size 15 to 20)
#    0.000    2.000    1.429    1.714    0.000    4.571 
#    0.000    5.714    0.000    0.000    0.000    0.000 
#    0.000    0.000    0.000    0.000    0.000    0.000 
#
# Total GULP energy -694584.439701 kJ/mol
# GULP energy per Si atom -12403.293566 kJ/mol
# Density = 1.947104 g / cm^3
# Si number density = 19.515458 Si / 1000 Ang^3
#
#
#
# Elastic Constant Matrix: (Units=GPa)
#
#
# Indices 1 2 3 4 5 6 
#
# 1 84.0326 34.0921 29.3086 0.0000 0.0000 0.0000
# 2 34.0921 83.6418 56.5609 0.0000 0.0000 0.0000
# 3 29.3086 56.5609 99.6405 0.0000 0.0000 0.0000
# 4 0.0000 0.0000 0.0000 43.8482 0.0000 0.0000
# 5 0.0000 0.0000 0.0000 0.0000 24.8579 0.0000
# 6 0.0000 0.0000 0.0000 0.0000 0.0000 24.0780
#
#
#
# Elastic Compliance Matrix: (Units=1/GPa)
#
#
# Indices 1 2 3 4 5 6 
#
# 1 0.014389 -0.004873 -0.001466 0.000000 0.000000 0.000000
# 2 -0.004873 0.021055 -0.010518 0.000000 0.000000 0.000000
# 3 -0.001466 -0.010518 0.016438 0.000000 0.000000 0.000000
# 4 0.000000 0.000000 0.000000 0.022806 0.000000 0.000000
# 5 0.000000 0.000000 0.000000 0.000000 0.040229 0.000000
# 6 0.000000 0.000000 0.000000 0.000000 0.000000 0.041532
#
#
# Mechanical properties :
#
#
# Convention : Reuss Voigt Hill
#
# Bulk Modulus (GPa) = 55.04744 56.35978 55.70361
# Shear Modulus (GPa) = 25.48180 28.38039 26.93110
#
# Velocity S-wave (km/s) = 3.61740 3.81760 3.71885
# Velocity P-wave (km/s) = 6.76134 6.95517 6.85894
#
# Compressibility (1/GPa) = 0.01816615
#
# Stress axis : x y z
#
# Youngs Moduli (GPa) = 69.49957 47.49479 60.83474
#
# Poissons Ratio (x) = 0.23146 0.08918
# Poissons Ratio (y) = 0.33870 0.63988
# Poissons Ratio (z) = 0.10188 0.49957
#
# Static dielectric constant tensor:
#      x y z
#    x 3.659970 0.000000 0.000000 
#    y 0.000000 3.568920 0.000000 
#    z 0.000000 0.000000 3.431430 
# 
# 
# High freq. dielectric constant tensor:
#      x y z
#    x 1.762520 0.000000 0.000000 
#    y 0.000000 1.756480 0.000000 
#    z 0.000000 0.000000 1.760370 
# 
# From -- ./inp_files/27303.got.cif
#   From: 2010.03.12/outbox.cif.g09.slc.cpg/sg62_14_cif.got.tgz:27303.got - 2010.04.10 19:12:36.
