data_PCOD8252738
_publ_section_title
;
Structure prediction by ZEFSAII (Michael W. Deem and Ramdas Pophale) SiO2 
 PCOD8252738
Probable space group: P N M A
;
_chemical_formula_sum "Si O2"
_cell_formula_units_Z 64
_cell_length_a 20.658936
_cell_length_b 8.835955
_cell_length_c 18.283934
_cell_angle_alpha 90.000000
_cell_angle_beta 90.000000
_cell_angle_gamma 90.000000
_cell_volume 3337.575437
_symmetry_space_group_name_H-M "P N M A"
_symmetry_group_IT_number 62
_symmetry_cell_setting 'orthorhombic'
loop_
_space_group_symop_operation_xyz
x,y,z
1/2-x,-y,1/2+z
1/2+x,1/2-y,1/2-z
-x,1/2+y,-z
-x,-y,-z
1/2+x,y,1/2-z
1/2-x,1/2+y,1/2+z
x,1/2-y,z
loop_
_atom_site_type_symbol
_atom_site_label
_atom_site_fract_x
_atom_site_fract_y
_atom_site_fract_z
Si Si1 0.143352 0.421187 0.315968
Si Si2 0.631789 0.071829 0.656349
Si Si3 0.124411 0.429546 0.677925
Si Si4 0.499210 0.924366 0.804478
Si Si5 0.638265 0.425224 0.355714
Si Si6 0.260626 0.928310 0.073235
Si Si7 0.490784 0.425829 0.651486
Si Si8 0.740971 0.572216 0.079924
O O1 0.168233 0.250000 0.328788
O O2 0.145684 0.461297 0.230003
O O3 0.187970 0.538843 0.358203
O O4 0.069633 0.437220 0.346142
O O5 0.640294 0.250000 0.661708
O O6 0.637543 0.010782 0.739526
O O7 0.562122 0.031353 0.619179
O O8 0.689658 0.006000 0.606847
O O9 0.113907 0.250000 0.673210
O O10 0.059826 0.515504 0.647373
O O11 0.184622 0.483971 0.629456
O O12 0.509271 0.750000 0.779146
O O13 0.496069 0.038362 0.736803
O O14 0.645551 0.250000 0.373307
O O15 0.691326 0.512735 0.401768
O O16 0.567294 0.477844 0.384241
O O17 0.257942 0.750000 0.069824
O O18 0.279393 0.990297 0.994051
O O19 0.475066 0.250000 0.640395
O O20 0.744138 0.750000 0.065852
#
# Coordination Sequence:
#
# PCOD8252738 Si02
#       8
#     8   8   8   8   8   8   8   8
#     4   9  19  35  54  79 109 137 168 212 262 312
#     4   8  16  32  54  79 103 130 169 215 259 307
#     4   9  18  34  56  79 103 134 174 217 262 317
#     4   9  17  30  51  80 110 135 167 216 266 311
#     4  10  20  35  56  83 110 136 174 221 265 313
#     4  11  23  38  54  75 107 144 180 219 267 319
#     4   9  16  30  53  79 107 137 171 213 263 315
#     4  11  22  36  54  76 105 141 181 221 262 312
#
# _framework density 19.175595999999999
#
# number of rings (size 3 to 8) (size 9 to 14) (size 15 to 20)
#    0.000    2.500    0.000    4.125    0.000    5.000 
#    0.000    8.750    0.000    0.000    0.000    0.000 
#    0.000    0.000    0.000    0.000    0.000    0.000 
#
# Total GULP energy -793320.823898 kJ/mol
# GULP energy per Si atom -12395.637873 kJ/mol
# Density = 1.913195 g / cm^3
# Si number density = 19.175596 Si / 1000 Ang^3
#
#
#
# Elastic Constant Matrix: (Units=GPa)
#
#
# Indices 1 2 3 4 5 6 
#
# 1 104.5412 27.6978 12.1698 0.0000 0.0000 0.0000
# 2 27.6978 51.1185 15.8799 0.0000 0.0000 0.0000
# 3 12.1698 15.8799 36.1715 0.0000 0.0000 0.0000
# 4 0.0000 0.0000 0.0000 24.8408 0.0000 0.0000
# 5 0.0000 0.0000 0.0000 0.0000 3.9138 0.0000
# 6 0.0000 0.0000 0.0000 0.0000 0.0000 31.8548
#
#
#
# Elastic Compliance Matrix: (Units=1/GPa)
#
#
# Indices 1 2 3 4 5 6 
#
# 1 0.011220 -0.005682 -0.001281 0.000000 0.000000 0.000000
# 2 -0.005682 0.025529 -0.009296 0.000000 0.000000 0.000000
# 3 -0.001281 -0.009296 0.032158 0.000000 0.000000 0.000000
# 4 0.000000 0.000000 0.000000 0.040256 0.000000 0.000000
# 5 0.000000 0.000000 0.000000 0.000000 0.255504 0.000000
# 6 0.000000 0.000000 0.000000 0.000000 0.000000 0.031392
#
#
# Mechanical properties :
#
#
# Convention : Reuss Voigt Hill
#
# Bulk Modulus (GPa) = 27.47982 33.70292 30.59137
# Shear Modulus (GPa) = 11.34545 21.19415 16.26980
#
# Velocity S-wave (km/s) = 2.43505 3.32816 2.91600
# Velocity P-wave (km/s) = 4.71886 5.69060 5.22736
#
# Compressibility (1/GPa) = 0.03639034
#
# Stress axis : x y z
#
# Youngs Moduli (GPa) = 89.12663 39.17175 31.09648
#
# Poissons Ratio (x) = 0.22256 0.03982
# Poissons Ratio (y) = 0.50638 0.28907
# Poissons Ratio (z) = 0.11414 0.36414
#
# Static dielectric constant tensor:
#      x y z
#    x 4.020650 0.000000 0.000000 
#    y 0.000000 3.395590 0.000000 
#    z 0.000000 0.000000 3.195400 
# 
# 
# High freq. dielectric constant tensor:
#      x y z
#    x 1.767750 0.000000 0.000000 
#    y 0.000000 1.741080 0.000000 
#    z 0.000000 0.000000 1.702600 
# 
# From -- ./inp_files/24816.got.cif
#   From: 2010.03.12/outbox.cif.g09.slc.cpg/sg62_13_cif.got.tgz:24816.got - 2010.04.10 19:12:36.
