data_PCOD8252692
_publ_section_title
;
Structure prediction by ZEFSAII (Michael W. Deem and Ramdas Pophale) SiO2 
 PCOD8252692
Probable space group: P N M A
;
_chemical_formula_sum "Si O2"
_cell_formula_units_Z 64
_cell_length_a 16.887259
_cell_length_b 9.191755
_cell_length_c 22.180199
_cell_angle_alpha 90.000000
_cell_angle_beta 90.000000
_cell_angle_gamma 90.000000
_cell_volume 3442.889170
_symmetry_space_group_name_H-M "P N M A"
_symmetry_group_IT_number 62
_symmetry_cell_setting 'orthorhombic'
loop_
_space_group_symop_operation_xyz
x,y,z
1/2-x,-y,1/2+z
1/2+x,1/2-y,1/2-z
-x,1/2+y,-z
-x,-y,-z
1/2+x,y,1/2-z
1/2-x,1/2+y,1/2+z
x,1/2-y,z
loop_
_atom_site_type_symbol
_atom_site_label
_atom_site_fract_x
_atom_site_fract_y
_atom_site_fract_z
Si Si1 0.666356 0.420709 0.717616
Si Si2 0.405955 0.079774 0.059133
Si Si3 0.856961 0.420112 0.891829
Si Si4 0.416985 0.916579 0.940615
Si Si5 0.462951 0.582054 0.378039
Si Si6 0.234250 0.414613 0.372792
Si Si7 0.788373 0.423269 0.337301
Si Si8 0.362220 0.417183 0.471228
O O1 0.672127 0.250000 0.731531
O O2 0.585742 0.463090 0.682005
O O3 0.740583 0.468379 0.676693
O O4 0.670145 0.511744 0.778450
O O5 0.398384 0.250000 0.050437
O O6 0.495045 0.033826 0.078806
O O7 0.344837 0.024553 0.108788
O O8 0.383540 0.008055 0.996115
O O9 0.835089 0.250000 0.887322
O O10 0.798387 0.510875 0.849024
O O11 0.944969 0.451045 0.866710
O O12 0.850786 0.476681 0.960864
O O13 0.417061 0.750000 0.961852
O O14 0.358839 0.940007 0.884133
O O15 0.448002 0.750000 0.392360
O O16 0.433437 0.497967 0.437188
O O17 0.250360 0.250000 0.349398
O O18 0.280483 0.440259 0.435476
O O19 0.782246 0.250000 0.331092
O O20 0.388001 0.250000 0.474890
#
# Coordination Sequence:
#
# PCOD8252692 Si02
#       8
#     8   8   8   8   8   8   8   8
#     4  10  21  38  56  73 101 140 179 219 266 314
#     4   9  19  34  52  77 109 139 172 217 264 313
#     4  10  20  35  55  81 111 139 174 219 264 317
#     4   9  17  32  55  81 109 139 173 213 261 315
#     4   9  19  35  55  79 108 141 175 217 264 314
#     4   9  17  31  52  78 107 138 176 216 255 309
#     4  11  23  38  54  75 105 142 182 223 267 313
#     4   9  17  29  51  82 113 144 172 207 260 316
#
# _framework density 18.589037999999999
#
# number of rings (size 3 to 8) (size 9 to 14) (size 15 to 20)
#    0.000    2.500    0.000    1.875    0.000    4.000 
#    2.250    2.500    0.000    0.000    0.000    0.000 
#    0.000    0.000    0.000    0.000    0.000    0.000 
#
# Total GULP energy -793638.745469 kJ/mol
# GULP energy per Si atom -12400.605398 kJ/mol
# Density = 1.854673 g / cm^3
# Si number density = 18.589038 Si / 1000 Ang^3
#
#
#
# Elastic Constant Matrix: (Units=GPa)
#
#
# Indices 1 2 3 4 5 6 
#
# 1 91.5996 34.7582 36.8477 0.0000 0.0000 0.0000
# 2 34.7582 54.2194 35.2549 0.0000 0.0000 0.0000
# 3 36.8477 35.2549 80.8984 0.0000 0.0000 0.0000
# 4 0.0000 0.0000 0.0000 32.4356 0.0000 0.0000
# 5 0.0000 0.0000 0.0000 0.0000 18.8446 0.0000
# 6 0.0000 0.0000 0.0000 0.0000 0.0000 26.7274
#
#
#
# Elastic Compliance Matrix: (Units=1/GPa)
#
#
# Indices 1 2 3 4 5 6 
#
# 1 0.015194 -0.007312 -0.003734 0.000000 0.000000 0.000000
# 2 -0.007312 0.029256 -0.009419 0.000000 0.000000 0.000000
# 3 -0.003734 -0.009419 0.018166 0.000000 0.000000 0.000000
# 4 0.000000 0.000000 0.000000 0.030830 0.000000 0.000000
# 5 0.000000 0.000000 0.000000 0.000000 0.053066 0.000000
# 6 0.000000 0.000000 0.000000 0.000000 0.000000 0.037415
#
#
# Mechanical properties :
#
#
# Convention : Reuss Voigt Hill
#
# Bulk Modulus (GPa) = 46.11258 48.93765 47.52511
# Shear Modulus (GPa) = 21.54382 23.59196 22.56789
#
# Velocity S-wave (km/s) = 3.40803 3.56635 3.48809
# Velocity P-wave (km/s) = 6.35188 6.58344 6.46870
#
# Compressibility (1/GPa) = 0.02168606
#
# Stress axis : x y z
#
# Youngs Moduli (GPa) = 65.81624 34.18149 55.04652
#
# Poissons Ratio (x) = 0.24995 0.20553
# Poissons Ratio (y) = 0.48128 0.51847
# Poissons Ratio (z) = 0.24575 0.32194
#
# Static dielectric constant tensor:
#      x y z
#    x 3.530460 0.000000 0.000000 
#    y 0.000000 3.369170 0.000000 
#    z 0.000000 0.000000 3.313580 
# 
# 
# High freq. dielectric constant tensor:
#      x y z
#    x 1.727120 0.000000 0.000000 
#    y 0.000000 1.718690 0.000000 
#    z 0.000000 0.000000 1.707110 
# 
# From -- ./inp_files/29848.got.cif
#   From: 2010.03.12/outbox.cif.g09.slc.cpg/sg62_15_cif.got.tgz:29848.got - 2010.04.10 19:12:36.
