data_PCOD8252804
_publ_section_title
;
Structure prediction by ZEFSAII (Michael W. Deem and Ramdas Pophale) SiO2 
 PCOD8252804
Probable space group: P N M A
;
_chemical_formula_sum "Si O2"
_cell_formula_units_Z 48
_cell_length_a 18.940065
_cell_length_b 8.815722
_cell_length_c 15.270851
_cell_angle_alpha 90.000000
_cell_angle_beta 90.000000
_cell_angle_gamma 90.000000
_cell_volume 2549.779301
_symmetry_space_group_name_H-M "P N M A"
_symmetry_group_IT_number 62
_symmetry_cell_setting 'orthorhombic'
loop_
_space_group_symop_operation_xyz
x,y,z
1/2-x,-y,1/2+z
1/2+x,1/2-y,1/2-z
-x,1/2+y,-z
-x,-y,-z
1/2+x,y,1/2-z
1/2-x,1/2+y,1/2+z
x,1/2-y,z
loop_
_atom_site_type_symbol
_atom_site_label
_atom_site_fract_x
_atom_site_fract_y
_atom_site_fract_z
Si Si1 0.326245 0.428265 0.146286
Si Si2 0.423397 0.929101 0.001752
Si Si3 0.175878 0.927973 0.156174
Si Si4 0.423937 0.072001 0.496405
Si Si5 0.326606 0.072513 0.344516
Si Si6 0.668939 0.429621 0.163225
O O1 0.327532 0.250000 0.127502
O O2 0.381654 0.511546 0.085239
O O3 0.247789 0.488546 0.128960
O O4 0.350012 0.465471 0.245638
O O5 0.429442 0.750000 0.008256
O O6 0.383593 0.978894 0.913433
O O7 0.500000 0.000000 0.000000
O O8 0.191562 0.750000 0.160949
O O9 0.117553 0.968469 0.084488
O O10 0.144889 0.987834 0.247940
O O11 0.433351 0.250000 0.484632
O O12 0.381221 0.000253 0.413740
O O13 0.500000 0.000000 0.500000
O O14 0.324918 0.250000 0.361762
O O15 0.247332 0.011691 0.361890
O O16 0.668640 0.250000 0.180304
#
# Coordination Sequence:
#
# PCOD8252804 Si02
#       6
#     8   8   8   8   8   8
#     4  10  20  36  59  84 108 141 185 227 272 329
#     4  11  23  38  56  80 113 150 186 228 280 334
#     4  10  20  35  57  84 111 141 180 229 278 322
#     4  10  21  36  53  76 109 145 179 217 265 320
#     4   8  16  34  57  77 101 137 179 219 263 319
#     4   9  19  37  59  79 103 142 186 226 274 330
#
# _framework density 18.825158999999999
#
# number of rings (size 3 to 8) (size 9 to 14) (size 15 to 20)
#    0.000    2.333    0.000    3.500    0.000    6.667 
#    0.000    9.167    0.000    0.000    0.000    0.000 
#    0.000    0.000    0.000    0.000    0.000    0.000 
#
# Total GULP energy -595231.443092 kJ/mol
# GULP energy per Si atom -12400.655064 kJ/mol
# Density = 1.878231 g / cm^3
# Si number density = 18.825159 Si / 1000 Ang^3
#
#
#
# Elastic Constant Matrix: (Units=GPa)
#
#
# Indices 1 2 3 4 5 6 
#
# 1 144.6119 48.6351 104.3803 0.0000 0.0000 0.0000
# 2 48.6351 53.4739 58.5446 0.0000 0.0000 0.0000
# 3 104.3803 58.5446 157.2540 0.0000 0.0000 0.0000
# 4 0.0000 0.0000 0.0000 31.9874 0.0000 0.0000
# 5 0.0000 0.0000 0.0000 0.0000 15.1035 0.0000
# 6 0.0000 0.0000 0.0000 0.0000 0.0000 34.6316
#
#
#
# Elastic Compliance Matrix: (Units=1/GPa)
#
#
# Indices 1 2 3 4 5 6 
#
# 1 0.013829 -0.004267 -0.007591 0.000000 0.000000 0.000000
# 2 -0.004267 0.032884 -0.009410 0.000000 0.000000 0.000000
# 3 -0.007591 -0.009410 0.014901 0.000000 0.000000 0.000000
# 4 0.000000 0.000000 0.000000 0.031262 0.000000 0.000000
# 5 0.000000 0.000000 0.000000 0.000000 0.066210 0.000000
# 6 0.000000 0.000000 0.000000 0.000000 0.000000 0.028875
#
#
# Mechanical properties :
#
#
# Convention : Reuss Voigt Hill
#
# Bulk Modulus (GPa) = 52.41586 86.49554 69.45570
# Shear Modulus (GPa) = 21.10978 25.92983 23.51981
#
# Velocity S-wave (km/s) = 3.35230 3.71536 3.53849
# Velocity P-wave (km/s) = 6.54888 8.02819 7.32597
#
# Compressibility (1/GPa) = 0.01907820
#
# Stress axis : x y z
#
# Youngs Moduli (GPa) = 72.31116 30.40969 67.11013
#
# Poissons Ratio (x) = 0.12977 0.50941
# Poissons Ratio (y) = 0.30857 0.63151
# Poissons Ratio (z) = 0.54889 0.28616
#
# Static dielectric constant tensor:
#      x y z
#    x 3.609140 0.000000 0.000000 
#    y 0.000000 3.346930 0.000000 
#    z 0.000000 0.000000 3.653220 
# 
# 
# High freq. dielectric constant tensor:
#      x y z
#    x 1.730530 0.000000 0.000000 
#    y 0.000000 1.720100 0.000000 
#    z 0.000000 0.000000 1.746500 
# 
# From -- ./inp_files/19554.got.cif
#   From: 2010.03.12/outbox.cif.g09.slc.cpg/sg62_10_cif.got.tgz:19554.got - 2010.04.10 19:12:36.
