data_PCOD8252558
_publ_section_title
;
Structure prediction by ZEFSAII (Michael W. Deem and Ramdas Pophale) SiO2 
 PCOD8252558
Probable space group: P N M A
;
_chemical_formula_sum "Si O2"
_cell_formula_units_Z 40
_cell_length_a 9.418993
_cell_length_b 14.480545
_cell_length_c 14.329151
_cell_angle_alpha 90.000000
_cell_angle_beta 90.000000
_cell_angle_gamma 90.000000
_cell_volume 1954.383741
_symmetry_space_group_name_H-M "P N M A"
_symmetry_group_IT_number 62
_symmetry_cell_setting 'orthorhombic'
loop_
_space_group_symop_operation_xyz
x,y,z
1/2-x,-y,1/2+z
1/2+x,1/2-y,1/2-z
-x,1/2+y,-z
-x,-y,-z
1/2+x,y,1/2-z
1/2-x,1/2+y,1/2+z
x,1/2-y,z
loop_
_atom_site_type_symbol
_atom_site_label
_atom_site_fract_x
_atom_site_fract_y
_atom_site_fract_z
Si Si1 0.326509 0.396290 0.484960
Si Si2 0.144527 0.387023 0.982953
Si Si3 0.171735 0.250000 0.143599
Si Si4 0.330546 0.147788 0.812040
Si Si5 0.862268 0.857577 0.345997
Si Si6 0.847788 0.250000 0.169071
O O1 0.324867 0.505270 0.472341
O O2 0.476925 0.364987 0.529712
O O3 0.195323 0.371248 0.550506
O O4 0.302158 0.342302 0.387737
O O5 0.231172 0.339423 0.901430
O O6 0.195637 0.342466 0.080987
O O7 0.279891 0.250000 0.228969
O O8 0.015273 0.250000 0.186688
O O9 0.367345 0.250000 0.775493
O O10 0.480154 0.096854 0.835858
O O11 0.244748 0.095060 0.729356
O O12 0.875662 0.750000 0.324141
#
# Coordination Sequence:
#
# PCOD8252558 Si02
#       6
#     8   8   4   8   8   4
#     4  10  21  38  60  86 116 152 196 245 298 351
#     4  10  21  38  60  86 116 152 196 245 298 351
#     4  10  22  40  61  84 117 158 197 244 294 354
#     4  10  20  34  56  84 113 147 186 233 288 346
#     4  10  20  34  56  84 113 147 186 233 288 346
#     4  10  22  40  61  84 117 158 197 244 294 354
#
# _framework density 20.466809000000001
#
# number of rings (size 3 to 8) (size 9 to 14) (size 15 to 20)
#    0.000    2.000    2.000    1.200    0.000    5.600 
#    0.000    4.000    0.000    0.000    0.000    0.000 
#    0.000    0.000    0.000    0.000    0.000    0.000 
#
# Total GULP energy -495782.404739 kJ/mol
# GULP energy per Si atom -12394.560118 kJ/mol
# Density = 2.042023 g / cm^3
# Si number density = 20.466809 Si / 1000 Ang^3
#
#
#
# Elastic Constant Matrix: (Units=GPa)
#
#
# Indices 1 2 3 4 5 6 
#
# 1 43.2043 2.8743 -2.6509 0.0000 0.0000 0.0000
# 2 2.8743 91.1276 17.3413 0.0000 0.0000 0.0000
# 3 -2.6509 17.3413 70.6386 0.0000 0.0000 0.0000
# 4 0.0000 0.0000 0.0000 7.7391 0.0000 0.0000
# 5 0.0000 0.0000 0.0000 0.0000 42.9301 0.0000
# 6 0.0000 0.0000 0.0000 0.0000 0.0000 17.9917
#
#
#
# Elastic Compliance Matrix: (Units=1/GPa)
#
#
# Indices 1 2 3 4 5 6 
#
# 1 0.023277 -0.000945 0.001105 0.000000 0.000000 0.000000
# 2 -0.000945 0.011550 -0.002871 0.000000 0.000000 0.000000
# 3 0.001105 -0.002871 0.014903 0.000000 0.000000 0.000000
# 4 0.000000 0.000000 0.000000 0.129214 0.000000 0.000000
# 5 0.000000 0.000000 0.000000 0.000000 0.023294 0.000000
# 6 0.000000 0.000000 0.000000 0.000000 0.000000 0.055581
#
#
# Mechanical properties :
#
#
# Convention : Reuss Voigt Hill
#
# Bulk Modulus (GPa) = 22.56871 26.67776 24.62323
# Shear Modulus (GPa) = 17.98512 26.22591 22.10552
#
# Velocity S-wave (km/s) = 2.96758 3.58353 3.29000
# Velocity P-wave (km/s) = 4.77420 5.49411 5.14675
#
# Compressibility (1/GPa) = 0.04430913
#
# Stress axis : x y z
#
# Youngs Moduli (GPa) = 42.96177 86.58212 67.10146
#
# Poissons Ratio (x) = 0.08178 -0.07417
# Poissons Ratio (y) = 0.04058 0.19264
# Poissons Ratio (z) = -0.04749 0.24856
#
# Static dielectric constant tensor:
#      x y z
#    x 4.021130 0.000000 0.000000 
#    y 0.000000 3.627560 0.000000 
#    z 0.000000 0.000000 3.499630 
# 
# 
# High freq. dielectric constant tensor:
#      x y z
#    x 1.809510 0.000000 0.000000 
#    y 0.000000 1.775120 0.000000 
#    z 0.000000 0.000000 1.793500 
# 
# From -- ./inp_files/11112.got.cif
#   From: 2010.03.12/outbox.cif.g09.slc.cpg/sg62_6_cif.got.tgz:11112.got - 2010.04.10 19:12:36.
