data_PCOD8252070
_publ_section_title
;
Structure prediction by ZEFSAII (Michael W. Deem and Ramdas Pophale) SiO2 
 PCOD8252070
Probable space group: P N M A
;
_chemical_formula_sum "Si O2"
_cell_formula_units_Z 64
_cell_length_a 24.029234
_cell_length_b 8.997356
_cell_length_c 15.445716
_cell_angle_alpha 90.000000
_cell_angle_beta 90.000000
_cell_angle_gamma 90.000000
_cell_volume 3339.357199
_symmetry_space_group_name_H-M "P N M A"
_symmetry_group_IT_number 62
_symmetry_cell_setting 'orthorhombic'
loop_
_space_group_symop_operation_xyz
x,y,z
1/2-x,-y,1/2+z
1/2+x,1/2-y,1/2-z
-x,1/2+y,-z
-x,-y,-z
1/2+x,y,1/2-z
1/2-x,1/2+y,1/2+z
x,1/2-y,z
loop_
_atom_site_type_symbol
_atom_site_label
_atom_site_fract_x
_atom_site_fract_y
_atom_site_fract_z
Si Si1 0.945428 0.073498 0.246768
Si Si2 0.377322 0.077421 0.659621
Si Si3 0.682231 0.573032 0.749297
Si Si4 0.873925 0.582208 0.667723
Si Si5 0.509767 0.083006 0.087558
Si Si6 0.242770 0.075108 0.408743
Si Si7 0.753581 0.424985 0.896654
Si Si8 0.019638 0.073678 0.086935
O O1 0.949271 0.250000 0.247464
O O2 0.881645 0.019377 0.242532
O O3 0.975344 0.009492 0.332987
O O4 0.979517 0.014825 0.163753
O O5 0.390177 0.250000 0.643970
O O6 0.314257 0.036311 0.638291
O O7 0.388352 0.034346 0.758228
O O8 0.417310 0.979439 0.600188
O O9 0.686878 0.750000 0.755992
O O10 0.713672 0.512771 0.662849
O O11 0.708576 0.505412 0.836198
O O12 0.866319 0.750000 0.705581
O O13 0.818951 0.528530 0.618824
O O14 0.924355 0.578738 0.601339
O O15 0.488191 0.250000 0.075968
O O16 0.500000 0.000000 0.000000
O O17 0.250879 0.250000 0.413385
O O18 0.251791 0.010605 0.505221
O O19 0.740787 0.250000 0.894466
O O20 0.017893 0.250000 0.079218
O O21 0.000000 0.000000 0.000000
#
# Coordination Sequence:
#
# PCOD8252070 Si02
#       8
#     8   8   8   8   8   8   8   8
#     4   9  20  38  59  82 115 152 189 232 285 343
#     4  11  22  37  60  87 116 150 194 244 294 342
#     4  10  20  37  61  83 108 150 193 229 277 343
#     4  10  19  37  61  81 108 150 196 238 285 342
#     4  10  21  37  56  83 114 150 190 234 286 340
#     4   9  19  35  58  82 108 148 193 227 278 348
#     4  10  22  38  57  85 118 151 188 239 293 343
#     4  11  23  41  63  87 118 155 196 242 290 348
#
# _framework density 19.165365000000001
#
# number of rings (size 3 to 8) (size 9 to 14) (size 15 to 20)
#    0.000    2.000    2.500    0.750    3.500    1.000 
#    0.000    2.500    0.000    0.000    0.000    0.000 
#    0.000    0.000    0.000    0.000    0.000    0.000 
#
# Total GULP energy -793588.922229 kJ/mol
# GULP energy per Si atom -12399.826910 kJ/mol
# Density = 1.912174 g / cm^3
# Si number density = 19.165365 Si / 1000 Ang^3
#
#
#
# Elastic Constant Matrix: (Units=GPa)
#
#
# Indices 1 2 3 4 5 6 
#
# 1 120.1500 32.1903 44.2325 0.0000 0.0000 0.0000
# 2 32.1903 44.9986 34.1263 0.0000 0.0000 0.0000
# 3 44.2325 34.1263 142.6748 0.0000 0.0000 0.0000
# 4 0.0000 0.0000 0.0000 33.7544 0.0000 0.0000
# 5 0.0000 0.0000 0.0000 0.0000 27.6697 0.0000
# 6 0.0000 0.0000 0.0000 0.0000 0.0000 21.0462
#
#
#
# Elastic Compliance Matrix: (Units=1/GPa)
#
#
# Indices 1 2 3 4 5 6 
#
# 1 0.010666 -0.006257 -0.001810 0.000000 0.000000 0.000000
# 2 -0.006257 0.030818 -0.005432 0.000000 0.000000 0.000000
# 3 -0.001810 -0.005432 0.008869 0.000000 0.000000 0.000000
# 4 0.000000 0.000000 0.000000 0.029626 0.000000 0.000000
# 5 0.000000 0.000000 0.000000 0.000000 0.036141 0.000000
# 6 0.000000 0.000000 0.000000 0.000000 0.000000 0.047515
#
#
# Mechanical properties :
#
#
# Convention : Reuss Voigt Hill
#
# Bulk Modulus (GPa) = 42.81587 58.76908 50.79247
# Shear Modulus (GPa) = 25.19950 29.64569 27.42260
#
# Velocity S-wave (km/s) = 3.63001 3.93725 3.78675
# Velocity P-wave (km/s) = 6.32124 7.16938 6.75863
#
# Compressibility (1/GPa) = 0.02335583
#
# Stress axis : x y z
#
# Youngs Moduli (GPa) = 93.75888 32.44832 112.74922
#
# Poissons Ratio (x) = 0.20303 0.20407
# Poissons Ratio (y) = 0.58666 0.61240
# Poissons Ratio (z) = 0.16970 0.17624
#
# Static dielectric constant tensor:
#      x y z
#    x 4.101850 0.000000 0.000000 
#    y 0.000000 3.385620 0.000000 
#    z 0.000000 0.000000 3.722400 
# 
# 
# High freq. dielectric constant tensor:
#      x y z
#    x 1.760360 0.000000 0.000000 
#    y 0.000000 1.713410 0.000000 
#    z 0.000000 0.000000 1.754820 
# 
# From -- ./inp_files/20903.got.cif
#   From: 2010.03.12/outbox.cif.g09.slc.cpg/sg62_11_cif.got.tgz:20903.got - 2010.04.10 19:12:36.
