data_PCOD8252586
_publ_section_title
;
Structure prediction by ZEFSAII (Michael W. Deem and Ramdas Pophale) SiO2 
 PCOD8252586
Probable space group: P N M A
;
_chemical_formula_sum "Si O2"
_cell_formula_units_Z 64
_cell_length_a 19.343674
_cell_length_b 8.980578
_cell_length_c 19.725829
_cell_angle_alpha 90.000000
_cell_angle_beta 90.000000
_cell_angle_gamma 90.000000
_cell_volume 3426.719197
_symmetry_space_group_name_H-M "P N M A"
_symmetry_group_IT_number 62
_symmetry_cell_setting 'orthorhombic'
loop_
_space_group_symop_operation_xyz
x,y,z
1/2-x,-y,1/2+z
1/2+x,1/2-y,1/2-z
-x,1/2+y,-z
-x,-y,-z
1/2+x,y,1/2-z
1/2-x,1/2+y,1/2+z
x,1/2-y,z
loop_
_atom_site_type_symbol
_atom_site_label
_atom_site_fract_x
_atom_site_fract_y
_atom_site_fract_z
Si Si1 0.896752 0.575666 0.818376
Si Si2 0.921677 0.575248 0.669490
Si Si3 0.781232 0.075346 0.635513
Si Si4 0.326364 0.581372 0.089801
Si Si5 0.434733 0.572581 0.535464
Si Si6 0.239162 0.918442 0.212855
Si Si7 0.965604 0.422834 0.436904
Si Si8 0.295297 0.075192 0.486773
O O1 0.892020 0.750000 0.821123
O O2 0.932759 0.524453 0.747851
O O3 0.937396 0.521062 0.885317
O O4 0.818769 0.519508 0.820794
O O5 0.903248 0.750000 0.664229
O O6 0.859865 0.483410 0.634820
O O7 0.992360 0.536060 0.631064
O O8 0.781190 0.250000 0.617305
O O9 0.746877 0.042422 0.708825
O O10 0.735740 0.983430 0.583294
O O11 0.350447 0.750000 0.074637
O O12 0.308991 0.559670 0.169441
O O13 0.386877 0.470826 0.070339
O O14 0.258820 0.541677 0.046390
O O15 0.500000 0.500000 0.500000
O O16 0.437436 0.750000 0.527426
O O17 0.365414 0.512857 0.500811
O O18 0.211831 0.750000 0.206689
O O19 0.967373 0.250000 0.451657
O O20 0.000000 0.500000 0.500000
O O21 0.311476 0.250000 0.480595
#
# Coordination Sequence:
#
# PCOD8252586 Si02
#       8
#     8   8   8   8   8   8   8   8
#     4   9  18  35  60  83 108 143 187 232 275 331
#     4   9  19  37  57  81 114 151 191 233 281 335
#     4  10  20  34  57  87 117 147 186 233 280 334
#     4  10  21  37  58  81 111 148 187 231 279 335
#     4  11  23  39  60  85 114 147 187 236 288 344
#     4   9  18  35  57  81 111 144 182 228 278 332
#     4  11  23  37  55  80 114 151 190 234 281 335
#     4  11  22  38  60  84 113 150 188 231 284 338
#
# _framework density 18.676756000000001
#
# number of rings (size 3 to 8) (size 9 to 14) (size 15 to 20)
#    0.000    2.000    1.250    2.250    0.000    6.500 
#    2.250    0.000    0.000    0.000    0.000    0.000 
#    0.000    0.000    0.000    0.000    0.000    0.000 
#
# Total GULP energy -793587.869632 kJ/mol
# GULP energy per Si atom -12399.810463 kJ/mol
# Density = 1.863425 g / cm^3
# Si number density = 18.676756 Si / 1000 Ang^3
#
#
#
# Elastic Constant Matrix: (Units=GPa)
#
#
# Indices 1 2 3 4 5 6 
#
# 1 95.4908 30.6139 56.2566 0.0000 0.0000 0.0000
# 2 30.6139 27.9103 46.8475 0.0000 0.0000 0.0000
# 3 56.2566 46.8475 122.3112 0.0000 0.0000 0.0000
# 4 0.0000 0.0000 0.0000 28.4237 0.0000 0.0000
# 5 0.0000 0.0000 0.0000 0.0000 25.8114 0.0000
# 6 0.0000 0.0000 0.0000 0.0000 0.0000 35.7402
#
#
#
# Elastic Compliance Matrix: (Units=1/GPa)
#
#
# Indices 1 2 3 4 5 6 
#
# 1 0.016295 -0.014823 -0.001817 0.000000 0.000000 0.000000
# 2 -0.014823 0.113818 -0.036777 0.000000 0.000000 0.000000
# 3 -0.001817 -0.036777 0.023098 0.000000 0.000000 0.000000
# 4 0.000000 0.000000 0.000000 0.035182 0.000000 0.000000
# 5 0.000000 0.000000 0.000000 0.000000 0.038743 0.000000
# 6 0.000000 0.000000 0.000000 0.000000 0.000000 0.027980
#
#
# Mechanical properties :
#
#
# Convention : Reuss Voigt Hill
#
# Bulk Modulus (GPa) = 21.56256 57.01648 39.28952
# Shear Modulus (GPa) = 13.24826 25.46136 19.35481
#
# Velocity S-wave (km/s) = 2.66624 3.69625 3.22266
# Velocity P-wave (km/s) = 4.58788 6.98646 5.91013
#
# Compressibility (1/GPa) = 0.04637668
#
# Stress axis : x y z
#
# Youngs Moduli (GPa) = 61.36810 8.78596 43.29410
#
# Poissons Ratio (x) = 0.13024 0.07868
# Poissons Ratio (y) = 0.90968 1.59221
# Poissons Ratio (z) = 0.11152 0.32312
#
# Static dielectric constant tensor:
#      x y z
#    x 3.289730 0.000000 0.000000 
#    y 0.000000 3.496310 0.000000 
#    z 0.000000 0.000000 4.138900 
# 
# 
# High freq. dielectric constant tensor:
#      x y z
#    x 1.706860 0.000000 0.000000 
#    y 0.000000 1.731180 0.000000 
#    z 0.000000 0.000000 1.743210 
# 
# From -- ./inp_files/27679.got.cif
#   From: 2010.03.12/outbox.cif.g09.slc.cpg/sg62_14_cif.got.tgz:27679.got - 2010.04.10 19:12:36.
