data_PCOD8252078
_publ_section_title
;
Structure prediction by ZEFSAII (Michael W. Deem and Ramdas Pophale) SiO2 
 PCOD8252078
Probable space group: P N M A
;
_chemical_formula_sum "Si O2"
_cell_formula_units_Z 56
_cell_length_a 15.980307
_cell_length_b 12.794133
_cell_length_c 13.815774
_cell_angle_alpha 90.000000
_cell_angle_beta 90.000000
_cell_angle_gamma 90.000000
_cell_volume 2824.692649
_symmetry_space_group_name_H-M "P N M A"
_symmetry_group_IT_number 62
_symmetry_cell_setting 'orthorhombic'
loop_
_space_group_symop_operation_xyz
x,y,z
1/2-x,-y,1/2+z
1/2+x,1/2-y,1/2-z
-x,1/2+y,-z
-x,-y,-z
1/2+x,y,1/2-z
1/2-x,1/2+y,1/2+z
x,1/2-y,z
loop_
_atom_site_type_symbol
_atom_site_label
_atom_site_fract_x
_atom_site_fract_y
_atom_site_fract_z
Si Si1 0.741000 0.030780 0.105361
Si Si2 0.581638 0.368137 0.027772
Si Si3 0.997032 0.637407 0.934873
Si Si4 0.362281 0.375618 0.764600
Si Si5 0.976238 0.974652 0.347896
Si Si6 0.871286 0.470709 0.936208
Si Si7 0.127503 0.633921 0.765806
O O1 0.676416 0.107035 0.053655
O O2 0.784801 0.100037 0.187545
O O3 0.697651 0.928262 0.153647
O O4 0.804897 0.000468 0.019701
O O5 0.560607 0.250000 0.054476
O O6 0.521190 0.438782 0.089394
O O7 0.565567 0.385901 0.914060
O O8 0.966218 0.750000 0.969065
O O9 0.055490 0.645127 0.843219
O O10 0.912133 0.579373 0.903230
O O11 0.049129 0.592829 0.024577
O O12 0.357180 0.250000 0.775988
O O13 0.457932 0.417103 0.776675
O O14 0.332381 0.410035 0.656572
O O15 0.899266 0.037152 0.300859
O O16 0.138868 0.750000 0.716460
#
# Coordination Sequence:
#
# PCOD8252078 Si02
#       7
#     8   8   8   8   8   8   8
#     4  10  24  39  58  88 127 160 205 251 302 373
#     4  10  21  39  61  83 116 159 201 251 304 361
#     4   9  18  34  60  85 112 152 194 242 300 355
#     4  11  23  41  63  89 125 166 205 258 314 364
#     4  10  21  38  62  90 116 152 210 254 298 368
#     4  10  20  38  58  87 124 157 200 254 301 369
#     4  10  19  37  61  87 118 152 194 250 304 355
#
# _framework density 19.825164999999998
#
# number of rings (size 3 to 8) (size 9 to 14) (size 15 to 20)
#    0.000    2.000    1.429    1.714    2.000    2.286 
#    0.000    2.143    0.000    0.000    0.000    0.000 
#    0.000    0.000    0.000    0.000    0.000    0.000 
#
# Total GULP energy -694001.166309 kJ/mol
# GULP energy per Si atom -12392.877970 kJ/mol
# Density = 1.978004 g / cm^3
# Si number density = 19.825165 Si / 1000 Ang^3
#
#
#
# Elastic Constant Matrix: (Units=GPa)
#
#
# Indices 1 2 3 4 5 6 
#
# 1 80.1480 36.0480 23.1518 0.0000 0.0000 0.0000
# 2 36.0480 127.4363 31.2360 0.0000 0.0000 0.0000
# 3 23.1518 31.2360 77.2554 0.0000 0.0000 0.0000
# 4 0.0000 0.0000 0.0000 16.6949 0.0000 0.0000
# 5 0.0000 0.0000 0.0000 0.0000 25.5834 0.0000
# 6 0.0000 0.0000 0.0000 0.0000 0.0000 9.9408
#
#
#
# Elastic Compliance Matrix: (Units=1/GPa)
#
#
# Indices 1 2 3 4 5 6 
#
# 1 0.014924 -0.003469 -0.003070 0.000000 0.000000 0.000000
# 2 -0.003469 0.009517 -0.002808 0.000000 0.000000 0.000000
# 3 -0.003070 -0.002808 0.014999 0.000000 0.000000 0.000000
# 4 0.000000 0.000000 0.000000 0.059899 0.000000 0.000000
# 5 0.000000 0.000000 0.000000 0.000000 0.039088 0.000000
# 6 0.000000 0.000000 0.000000 0.000000 0.000000 0.100596
#
#
# Mechanical properties :
#
#
# Convention : Reuss Voigt Hill
#
# Bulk Modulus (GPa) = 48.20212 51.74568 49.97390
# Shear Modulus (GPa) = 18.89420 23.40407 21.14913
#
# Velocity S-wave (km/s) = 3.09049 3.43960 3.26971
# Velocity P-wave (km/s) = 6.09107 6.47550 6.28623
#
# Compressibility (1/GPa) = 0.02074597
#
# Stress axis : x y z
#
# Youngs Moduli (GPa) = 67.00635 105.07862 66.66924
#
# Poissons Ratio (x) = 0.36453 0.20466
# Poissons Ratio (y) = 0.23245 0.18722
# Poissons Ratio (z) = 0.20569 0.29508
#
# Static dielectric constant tensor:
#      x y z
#    x 3.629970 0.000000 0.000000 
#    y 0.000000 3.885770 0.000000 
#    z 0.000000 0.000000 3.710840 
# 
# 
# High freq. dielectric constant tensor:
#      x y z
#    x 1.768150 0.000000 0.000000 
#    y 0.000000 1.778170 0.000000 
#    z 0.000000 0.000000 1.768560 
# 
# From -- ./inp_files/18997.got.cif
#   From: 2010.03.12/outbox.cif.g09.slc.cpg/sg62_10_cif.got.tgz:18997.got - 2010.04.10 19:12:36.
