data_PCOD8252958
_publ_section_title
;
Structure prediction by ZEFSAII (Michael W. Deem and Ramdas Pophale) SiO2 
 PCOD8252958
Probable space group: P N M A
;
_chemical_formula_sum "Si O2"
_cell_formula_units_Z 64
_cell_length_a 29.264709
_cell_length_b 8.919932
_cell_length_c 12.796844
_cell_angle_alpha 90.000000
_cell_angle_beta 90.000000
_cell_angle_gamma 90.000000
_cell_volume 3340.478103
_symmetry_space_group_name_H-M "P N M A"
_symmetry_group_IT_number 62
_symmetry_cell_setting 'orthorhombic'
loop_
_space_group_symop_operation_xyz
x,y,z
1/2-x,-y,1/2+z
1/2+x,1/2-y,1/2-z
-x,1/2+y,-z
-x,-y,-z
1/2+x,y,1/2-z
1/2-x,1/2+y,1/2+z
x,1/2-y,z
loop_
_atom_site_type_symbol
_atom_site_label
_atom_site_fract_x
_atom_site_fract_y
_atom_site_fract_z
Si Si1 0.703798 0.915656 0.350423
Si Si2 0.878936 0.075105 0.266532
Si Si3 0.621406 0.572054 0.221216
Si Si4 0.646279 0.574209 0.995107
Si Si5 0.259387 0.571461 0.969407
Si Si6 0.449304 0.426145 0.607732
Si Si7 0.554263 0.426445 0.606390
Si Si8 0.786702 0.916474 0.211903
O O1 0.682624 0.750000 0.361729
O O2 0.666839 0.000268 0.277351
O O3 0.713743 0.982646 0.465229
O O4 0.756700 0.904064 0.315517
O O5 0.883473 0.250000 0.242900
O O6 0.883768 0.041190 0.391030
O O7 0.918524 0.989746 0.205119
O O8 0.830034 0.022194 0.224791
O O9 0.623516 0.750000 0.217577
O O10 0.577858 0.518096 0.288903
O O11 0.619614 0.517007 0.100120
O O12 0.657792 0.750000 0.002856
O O13 0.693261 0.485592 0.982082
O O14 0.261155 0.750000 0.957254
O O15 0.251677 0.490307 0.860778
O O16 0.443431 0.250000 0.590731
O O17 0.501678 0.472125 0.625002
O O18 0.428881 0.504753 0.503927
O O19 0.561313 0.250000 0.601317
O O20 0.802351 0.750000 0.175376
#
# Coordination Sequence:
#
# PCOD8252958 Si02
#       8
#     8   8   8   8   8   8   8   8
#     4   9  18  31  51  76 107 144 181 220 270 326
#     4  11  23  37  56  83 111 148 192 233 280 334
#     4   9  17  34  58  82 107 142 185 227 277 333
#     4  10  20  36  57  79 108 148 192 233 276 327
#     4  11  21  33  50  78 112 149 188 226 276 333
#     4   9  19  37  64  88 110 143 183 228 280 343
#     4  10  21  38  59  86 115 144 179 228 288 340
#     4  11  21  36  54  77 109 148 188 230 276 323
#
# _framework density 19.158933999999999
#
# number of rings (size 3 to 8) (size 9 to 14) (size 15 to 20)
#    0.000    2.000    2.500    1.500    1.750    1.000 
#    0.000    1.250    0.000    0.000    0.000    0.000 
#    0.000    0.000    0.000    0.000    0.000    0.000 
#
# Total GULP energy -792975.954154 kJ/mol
# GULP energy per Si atom -12390.249284 kJ/mol
# Density = 1.911533 g / cm^3
# Si number density = 19.158934 Si / 1000 Ang^3
#
#
#
# Elastic Constant Matrix: (Units=GPa)
#
#
# Indices 1 2 3 4 5 6 
#
# 1 79.0812 17.4541 44.4400 0.0000 0.0000 0.0000
# 2 17.4541 51.7813 30.5929 0.0000 0.0000 0.0000
# 3 44.4400 30.5929 106.0432 0.0000 0.0000 0.0000
# 4 0.0000 0.0000 0.0000 21.1783 0.0000 0.0000
# 5 0.0000 0.0000 0.0000 0.0000 35.6677 0.0000
# 6 0.0000 0.0000 0.0000 0.0000 0.0000 25.7120
#
#
#
# Elastic Compliance Matrix: (Units=1/GPa)
#
#
# Indices 1 2 3 4 5 6 
#
# 1 0.016678 -0.001799 -0.006470 0.000000 0.000000 0.000000
# 2 -0.001799 0.023474 -0.006018 0.000000 0.000000 0.000000
# 3 -0.006470 -0.006018 0.013878 0.000000 0.000000 0.000000
# 4 0.000000 0.000000 0.000000 0.047218 0.000000 0.000000
# 5 0.000000 0.000000 0.000000 0.000000 0.028037 0.000000
# 6 0.000000 0.000000 0.000000 0.000000 0.000000 0.038892
#
#
# Mechanical properties :
#
#
# Convention : Reuss Voigt Hill
#
# Bulk Modulus (GPa) = 39.28510 46.87550 43.08030
# Shear Modulus (GPa) = 24.36199 26.13952 25.25075
#
# Velocity S-wave (km/s) = 3.56978 3.69772 3.63431
# Velocity P-wave (km/s) = 6.12703 6.53840 6.33605
#
# Compressibility (1/GPa) = 0.02545495
#
# Stress axis : x y z
#
# Youngs Moduli (GPa) = 59.95774 42.60036 72.05679
#
# Poissons Ratio (x) = 0.07664 0.46624
# Poissons Ratio (y) = 0.10787 0.43365
# Poissons Ratio (z) = 0.38796 0.25638
#
# Static dielectric constant tensor:
#      x y z
#    x 3.387150 0.000000 0.000000 
#    y 0.000000 3.308340 0.000000 
#    z 0.000000 0.000000 3.803990 
# 
# 
# High freq. dielectric constant tensor:
#      x y z
#    x 1.728340 0.000000 0.000000 
#    y 0.000000 1.723920 0.000000 
#    z 0.000000 0.000000 1.761440 
# 
# From -- ./inp_files/15831.got.cif
#   From: 2010.03.12/outbox.cif.g09.slc.cpg/sg62_8_cif.got.tgz:15831.got - 2010.04.10 19:12:36.
