data_PCOD8252016
_publ_section_title
;
Structure prediction by ZEFSAII (Michael W. Deem and Ramdas Pophale) SiO2 
 PCOD8252016
Probable space group: P N M A
;
_chemical_formula_sum "Si O2"
_cell_formula_units_Z 40
_cell_length_a 10.268842
_cell_length_b 9.079222
_cell_length_c 22.774967
_cell_angle_alpha 90.000000
_cell_angle_beta 90.000000
_cell_angle_gamma 90.000000
_cell_volume 2123.380689
_symmetry_space_group_name_H-M "P N M A"
_symmetry_group_IT_number 62
_symmetry_cell_setting 'orthorhombic'
loop_
_space_group_symop_operation_xyz
x,y,z
1/2-x,-y,1/2+z
1/2+x,1/2-y,1/2-z
-x,1/2+y,-z
-x,-y,-z
1/2+x,y,1/2-z
1/2-x,1/2+y,1/2+z
x,1/2-y,z
loop_
_atom_site_type_symbol
_atom_site_label
_atom_site_fract_x
_atom_site_fract_y
_atom_site_fract_z
Si Si1 0.272305 0.076886 0.121240
Si Si2 0.502571 0.078143 0.327741
Si Si3 0.479068 0.921706 0.808904
Si Si4 0.863085 0.422096 0.504006
Si Si5 0.250927 0.575774 0.372271
O O1 0.274050 0.250000 0.132007
O O2 0.399620 0.012761 0.154145
O O3 0.140386 0.013675 0.149466
O O4 0.276429 0.034619 0.052555
O O5 0.486845 0.250000 0.343258
O O6 0.490165 0.050729 0.258799
O O7 0.393142 0.987297 0.361111
O O8 0.454318 0.750000 0.822181
O O9 0.349557 0.008860 0.825768
O O10 0.892086 0.250000 0.504882
O O11 0.787497 0.473178 0.561977
O O12 0.000000 0.500000 0.500000
O O13 0.252435 0.750000 0.364832
#
# Coordination Sequence:
#
# PCOD8252016 Si02
#       5
#     8   8   8   8   8
#     4   9  18  34  57  82 108 141 186 237 273 313
#     4  10  21  37  58  84 111 145 189 231 275 328
#     4  10  19  36  62  84 106 144 192 233 272 327
#     4  10  20  36  57  80 109 147 189 230 278 333
#     4  11  23  36  54  84 118 149 182 226 284 341
#
# _framework density 18.837885
#
# number of rings (size 3 to 8) (size 9 to 14) (size 15 to 20)
#    0.000    2.000    2.000    1.800    0.000    5.600 
#    0.000    2.000    0.000    0.000    0.000    0.000 
#    0.000    0.000    0.000    0.000    0.000    0.000 
#
# Total GULP energy -496112.722255 kJ/mol
# GULP energy per Si atom -12402.818056 kJ/mol
# Density = 1.879501 g / cm^3
# Si number density = 18.837885 Si / 1000 Ang^3
#
#
#
# Elastic Constant Matrix: (Units=GPa)
#
#
# Indices 1 2 3 4 5 6 
#
# 1 125.2903 30.4615 34.4596 0.0000 0.0000 0.0000
# 2 30.4615 41.3585 31.7571 0.0000 0.0000 0.0000
# 3 34.4596 31.7571 96.2443 0.0000 0.0000 0.0000
# 4 0.0000 0.0000 0.0000 16.9934 0.0000 0.0000
# 5 0.0000 0.0000 0.0000 0.0000 28.3534 0.0000
# 6 0.0000 0.0000 0.0000 0.0000 0.0000 28.9944
#
#
#
# Elastic Compliance Matrix: (Units=1/GPa)
#
#
# Indices 1 2 3 4 5 6 
#
# 1 0.009886 -0.006112 -0.001523 0.000000 0.000000 0.000000
# 2 -0.006112 0.036162 -0.009744 0.000000 0.000000 0.000000
# 3 -0.001523 -0.009744 0.014151 0.000000 0.000000 0.000000
# 4 0.000000 0.000000 0.000000 0.058846 0.000000 0.000000
# 5 0.000000 0.000000 0.000000 0.000000 0.035269 0.000000
# 6 0.000000 0.000000 0.000000 0.000000 0.000000 0.034489
#
#
# Mechanical properties :
#
#
# Convention : Reuss Voigt Hill
#
# Bulk Modulus (GPa) = 39.30589 50.69439 45.00014
# Shear Modulus (GPa) = 21.54774 25.94924 23.74849
#
# Velocity S-wave (km/s) = 3.38576 3.71550 3.55445
# Velocity P-wave (km/s) = 6.01624 6.73616 6.38635
#
# Compressibility (1/GPa) = 0.02544148
#
# Stress axis : x y z
#
# Youngs Moduli (GPa) = 101.14951 27.65301 70.66823
#
# Poissons Ratio (x) = 0.16902 0.10762
# Poissons Ratio (y) = 0.61824 0.68858
# Poissons Ratio (z) = 0.15405 0.26945
#
# Static dielectric constant tensor:
#      x y z
#    x 4.348950 0.000000 0.000000 
#    y 0.000000 3.218160 0.000000 
#    z 0.000000 0.000000 3.750680 
# 
# 
# High freq. dielectric constant tensor:
#      x y z
#    x 1.739990 0.000000 0.000000 
#    y 0.000000 1.703920 0.000000 
#    z 0.000000 0.000000 1.747040 
# 
# From -- ./inp_files/26449.got.cif
#   From: 2010.03.12/outbox.cif.g09.slc.cpg/sg62_14_cif.got.tgz:26449.got - 2010.04.10 19:12:36.
