data_PCOD8252882
_publ_section_title
;
Structure prediction by ZEFSAII (Michael W. Deem and Ramdas Pophale) SiO2 
 PCOD8252882
Probable space group: P N M A
;
_chemical_formula_sum "Si O2"
_cell_formula_units_Z 56
_cell_length_a 16.312388
_cell_length_b 18.813757
_cell_length_c 9.158802
_cell_angle_alpha 90.000000
_cell_angle_beta 90.000000
_cell_angle_gamma 90.000000
_cell_volume 2810.811641
_symmetry_space_group_name_H-M "P N M A"
_symmetry_group_IT_number 62
_symmetry_cell_setting 'orthorhombic'
loop_
_space_group_symop_operation_xyz
x,y,z
1/2-x,-y,1/2+z
1/2+x,1/2-y,1/2-z
-x,1/2+y,-z
-x,-y,-z
1/2+x,y,1/2-z
1/2-x,1/2+y,1/2+z
x,1/2-y,z
loop_
_atom_site_type_symbol
_atom_site_label
_atom_site_fract_x
_atom_site_fract_y
_atom_site_fract_z
Si Si1 0.980970 0.169072 0.519662
Si Si2 0.566256 0.423855 0.570011
Si Si3 0.609340 0.925585 0.519708
Si Si4 0.217419 0.168511 0.975901
Si Si5 0.064720 0.459634 0.599829
Si Si6 0.844012 0.091484 0.343460
Si Si7 0.351114 0.171224 0.733852
O O1 0.006447 0.250000 0.484504
O O2 0.064450 0.120705 0.531582
O O3 0.918879 0.141216 0.396477
O O4 0.934937 0.162514 0.675100
O O5 0.485616 0.399722 0.481574
O O6 0.610764 0.489856 0.489334
O O7 0.627369 0.357404 0.568974
O O8 0.539569 0.451828 0.730473
O O9 0.654253 0.906126 0.669404
O O10 0.658346 0.886625 0.391929
O O11 0.212682 0.250000 0.027277
O O12 0.273219 0.158968 0.835084
O O13 0.256578 0.121959 0.106299
O O14 0.146166 0.509416 0.596087
O O15 0.000000 0.500000 0.500000
O O16 0.348984 0.250000 0.664845
#
# Coordination Sequence:
#
# PCOD8252882 Si02
#       7
#     8   8   8   8   8   8   8
#     4   9  16  30  53  82 111 146 193 242 292 349
#     4  10  21  36  58  89 119 150 196 250 299 353
#     4  10  20  35  59  88 115 146 199 247 286 353
#     4  10  22  40  59  83 119 158 198 243 302 362
#     4   9  17  32  57  86 113 145 195 245 294 353
#     4   9  19  34  56  83 115 161 198 235 296 364
#     4   9  18  33  57  82 109 150 192 239 294 357
#
# _framework density 19.923072000000001
#
# number of rings (size 3 to 8) (size 9 to 14) (size 15 to 20)
#    0.000    2.571    1.429    1.286    0.000    4.571 
#    0.000    0.000   12.571    0.000    0.000    0.000 
#    0.000    0.000    0.000    0.000    0.000    0.000 
#
# Total GULP energy -693840.958533 kJ/mol
# GULP energy per Si atom -12390.017117 kJ/mol
# Density = 1.987773 g / cm^3
# Si number density = 19.923072 Si / 1000 Ang^3
#
#
#
# Elastic Constant Matrix: (Units=GPa)
#
#
# Indices 1 2 3 4 5 6 
#
# 1 61.3354 35.4149 18.3392 0.0000 0.0000 0.0000
# 2 35.4149 105.1803 12.9174 0.0000 0.0000 0.0000
# 3 18.3392 12.9174 61.6607 0.0000 0.0000 0.0000
# 4 0.0000 0.0000 0.0000 27.0614 0.0000 0.0000
# 5 0.0000 0.0000 0.0000 0.0000 14.1657 0.0000
# 6 0.0000 0.0000 0.0000 0.0000 0.0000 32.2836
#
#
#
# Elastic Compliance Matrix: (Units=1/GPa)
#
#
# Indices 1 2 3 4 5 6 
#
# 1 0.021667 -0.006676 -0.005046 0.000000 0.000000 0.000000
# 2 -0.006676 0.011815 -0.000490 0.000000 0.000000 0.000000
# 3 -0.005046 -0.000490 0.017821 0.000000 0.000000 0.000000
# 4 0.000000 0.000000 0.000000 0.036953 0.000000 0.000000
# 5 0.000000 0.000000 0.000000 0.000000 0.070593 0.000000
# 6 0.000000 0.000000 0.000000 0.000000 0.000000 0.030975
#
#
# Mechanical properties :
#
#
# Convention : Reuss Voigt Hill
#
# Bulk Modulus (GPa) = 37.20084 40.16882 38.68483
# Shear Modulus (GPa) = 22.40066 25.46913 23.93490
#
# Velocity S-wave (km/s) = 3.35678 3.57931 3.46983
# Velocity P-wave (km/s) = 5.80833 6.10637 5.95921
#
# Compressibility (1/GPa) = 0.02688111
#
# Stress axis : x y z
#
# Youngs Moduli (GPa) = 46.15313 84.63537 56.11335
#
# Poissons Ratio (x) = 0.56500 0.28313
# Poissons Ratio (y) = 0.30811 0.02748
# Poissons Ratio (z) = 0.23288 0.04145
#
# Static dielectric constant tensor:
#      x y z
#    x 3.286970 0.000000 0.000000 
#    y 0.000000 3.995460 0.000000 
#    z 0.000000 0.000000 3.515580 
# 
# 
# High freq. dielectric constant tensor:
#      x y z
#    x 1.739190 0.000000 0.000000 
#    y 0.000000 1.789920 0.000000 
#    z 0.000000 0.000000 1.765130 
# 
# From -- ./inp_files/6803.got.cif
#   From: 2010.03.12/outbox.cif.g09.slc.cpg/sg62_4_cif.got.tgz:6803.got - 2010.04.10 19:12:36.
