data_PCOD8252529
_publ_section_title
;
Structure prediction by ZEFSAII (Michael W. Deem and Ramdas Pophale) SiO2 
 PCOD8252529
Probable space group: P N M A
;
_chemical_formula_sum "Si O2"
_cell_formula_units_Z 56
_cell_length_a 14.805039
_cell_length_b 9.050078
_cell_length_c 20.976111
_cell_angle_alpha 90.000000
_cell_angle_beta 90.000000
_cell_angle_gamma 90.000000
_cell_volume 2810.521103
_symmetry_space_group_name_H-M "P N M A"
_symmetry_group_IT_number 62
_symmetry_cell_setting 'orthorhombic'
loop_
_space_group_symop_operation_xyz
x,y,z
1/2-x,-y,1/2+z
1/2+x,1/2-y,1/2-z
-x,1/2+y,-z
-x,-y,-z
1/2+x,y,1/2-z
1/2-x,1/2+y,1/2+z
x,1/2-y,z
loop_
_atom_site_type_symbol
_atom_site_label
_atom_site_fract_x
_atom_site_fract_y
_atom_site_fract_z
Si Si1 0.425765 0.421961 0.691815
Si Si2 0.863742 0.084289 0.510245
Si Si3 0.263586 0.920621 0.761052
Si Si4 0.521653 0.078965 0.565620
Si Si5 0.062589 0.919994 0.720959
Si Si6 0.216064 0.423406 0.889690
Si Si7 0.958586 0.916515 0.406442
O O1 0.416080 0.250000 0.708367
O O2 0.337297 0.505188 0.715581
O O3 0.440326 0.446955 0.615985
O O4 0.515300 0.483169 0.725209
O O5 0.854992 0.250000 0.482526
O O6 0.773678 0.038341 0.547492
O O7 0.946867 0.076071 0.558230
O O8 0.877586 0.972690 0.451719
O O9 0.289032 0.750000 0.769899
O O10 0.169270 0.942432 0.725546
O O11 0.260811 0.993021 0.830479
O O12 0.534588 0.250000 0.549630
O O13 0.614935 0.018942 0.596499
O O14 0.500000 0.000000 0.500000
O O15 0.034078 0.750000 0.729367
O O16 0.029863 0.976085 0.652904
O O17 0.218780 0.250000 0.873748
O O18 0.935359 0.750000 0.384567
#
# Coordination Sequence:
#
# PCOD8252529 Si02
#       7
#     8   8   8   8   8   8   8
#     4  11  23  41  64  91 124 162 207 257 312 372
#     4   9  19  35  56  82 114 153 196 245 302 361
#     4  11  24  39  61  92 122 159 204 253 311 368
#     4  10  23  41  63  89 120 161 206 257 314 369
#     4  11  23  39  60  87 121 158 198 250 304 359
#     4  10  20  39  63  87 117 158 209 258 308 370
#     4  10  20  34  55  85 119 156 196 244 303 363
#
# _framework density 19.925128999999998
#
# number of rings (size 3 to 8) (size 9 to 14) (size 15 to 20)
#    0.000    1.714    1.429    2.571    0.000    6.857 
#    0.000    4.286    0.000    0.000    0.000    0.000 
#    0.000    0.000    0.000    0.000    0.000    0.000 
#
# Total GULP energy -694589.745856 kJ/mol
# GULP energy per Si atom -12403.388319 kJ/mol
# Density = 1.987978 g / cm^3
# Si number density = 19.925129 Si / 1000 Ang^3
#
#
#
# Elastic Constant Matrix: (Units=GPa)
#
#
# Indices 1 2 3 4 5 6 
#
# 1 77.2919 37.7618 27.4834 0.0000 0.0000 0.0000
# 2 37.7618 93.4593 45.8097 0.0000 0.0000 0.0000
# 3 27.4834 45.8097 98.6111 0.0000 0.0000 0.0000
# 4 0.0000 0.0000 0.0000 39.8574 0.0000 0.0000
# 5 0.0000 0.0000 0.0000 0.0000 25.6490 0.0000
# 6 0.0000 0.0000 0.0000 0.0000 0.0000 32.3133
#
#
#
# Elastic Compliance Matrix: (Units=1/GPa)
#
#
# Indices 1 2 3 4 5 6 
#
# 1 0.016400 -0.005679 -0.001933 0.000000 0.000000 0.000000
# 2 -0.005679 0.015821 -0.005767 0.000000 0.000000 0.000000
# 3 -0.001933 -0.005767 0.013358 0.000000 0.000000 0.000000
# 4 0.000000 0.000000 0.000000 0.025089 0.000000 0.000000
# 5 0.000000 0.000000 0.000000 0.000000 0.038988 0.000000
# 6 0.000000 0.000000 0.000000 0.000000 0.000000 0.030947
#
#
# Mechanical properties :
#
#
# Convention : Reuss Voigt Hill
#
# Bulk Modulus (GPa) = 53.12814 54.60803 53.86809
# Shear Modulus (GPa) = 28.79611 30.11775 29.45693
#
# Velocity S-wave (km/s) = 3.80572 3.89208 3.84914
# Velocity P-wave (km/s) = 6.78477 6.90390 6.84459
#
# Compressibility (1/GPa) = 0.01882242
#
# Stress axis : x y z
#
# Youngs Moduli (GPa) = 60.97692 63.20668 74.85887
#
# Poissons Ratio (x) = 0.35895 0.14466
# Poissons Ratio (y) = 0.34629 0.43171
# Poissons Ratio (z) = 0.11784 0.36451
#
# Static dielectric constant tensor:
#      x y z
#    x 3.680310 0.000000 0.000000 
#    y 0.000000 3.799730 0.000000 
#    z 0.000000 0.000000 3.572050 
# 
# 
# High freq. dielectric constant tensor:
#      x y z
#    x 1.779550 0.000000 0.000000 
#    y 0.000000 1.781670 0.000000 
#    z 0.000000 0.000000 1.779500 
# 
# From -- ./inp_files/27301.got.cif
#   From: 2010.03.12/outbox.cif.g09.slc.cpg/sg62_14_cif.got.tgz:27301.got - 2010.04.10 19:12:36.
