data_PCOD8252112
_publ_section_title
;
Structure prediction by ZEFSAII (Michael W. Deem and Ramdas Pophale) SiO2 
 PCOD8252112
Probable space group: P N M A
;
_chemical_formula_sum "Si O2"
_cell_formula_units_Z 40
_cell_length_a 9.351049
_cell_length_b 10.092732
_cell_length_c 20.462652
_cell_angle_alpha 90.000000
_cell_angle_beta 90.000000
_cell_angle_gamma 90.000000
_cell_volume 1931.216629
_symmetry_space_group_name_H-M "P N M A"
_symmetry_group_IT_number 62
_symmetry_cell_setting 'orthorhombic'
loop_
_space_group_symop_operation_xyz
x,y,z
1/2-x,-y,1/2+z
1/2+x,1/2-y,1/2-z
-x,1/2+y,-z
-x,-y,-z
1/2+x,y,1/2-z
1/2-x,1/2+y,1/2+z
x,1/2-y,z
loop_
_atom_site_type_symbol
_atom_site_label
_atom_site_fract_x
_atom_site_fract_y
_atom_site_fract_z
Si Si1 0.082443 0.250000 0.820449
Si Si2 0.150614 0.001288 0.460722
Si Si3 0.657860 0.250000 0.529738
Si Si4 0.776586 0.250000 0.848653
Si Si5 0.664284 0.750000 0.499096
Si Si6 0.822310 0.520519 0.268503
Si Si7 0.904961 0.901161 0.679576
O O1 0.110881 0.250000 0.896259
O O2 0.142086 0.114906 0.791946
O O3 0.915814 0.250000 0.802938
O O4 0.241547 0.875382 0.484809
O O5 0.256195 0.123302 0.472531
O O6 0.117957 0.002504 0.382975
O O7 0.000000 0.000000 0.500000
O O8 0.509160 0.250000 0.486588
O O9 0.814152 0.250000 0.922925
O O10 0.695844 0.385759 0.831869
O O11 0.689608 0.436731 0.242694
O O12 0.937298 0.414154 0.291290
O O13 0.878251 0.750000 0.657479
#
# Coordination Sequence:
#
# PCOD8252112 Si02
#       7
#     4   8   4   4   4   8   8
#     4  10  19  37  65  97 124 162 217 277 332 391
#     4  12  25  45  70 103 142 187 232 288 351 419
#     4  11  24  42  74  99 132 185 234 287 339 407
#     4  10  21  39  69  96 129 165 220 285 324 402
#     4  11  24  46  66 104 141 182 237 281 339 418
#     4  11  22  40  65  98 128 173 220 278 347 403
#     4  12  25  43  66  95 141 179 222 283 352 418
#
# _framework density 20.712332
#
# number of rings (size 3 to 8) (size 9 to 14) (size 15 to 20)
#    0.000    0.800    5.000    3.000    0.000    1.600 
#    0.000    0.000    0.000    0.000    0.000    0.000 
#    0.000    0.000    0.000    0.000    0.000    0.000 
#
# Total GULP energy -495746.397978 kJ/mol
# GULP energy per Si atom -12393.659949 kJ/mol
# Density = 2.066519 g / cm^3
# Si number density = 20.712332 Si / 1000 Ang^3
#
#
#
# Elastic Constant Matrix: (Units=GPa)
#
#
# Indices 1 2 3 4 5 6 
#
# 1 142.2777 54.0255 36.6698 0.0000 0.0000 0.0000
# 2 54.0255 123.9056 13.1086 0.0000 0.0000 0.0000
# 3 36.6698 13.1086 66.3114 0.0000 0.0000 0.0000
# 4 0.0000 0.0000 0.0000 -37.8796 0.0000 0.0000
# 5 0.0000 0.0000 0.0000 0.0000 34.0578 0.0000
# 6 0.0000 0.0000 0.0000 0.0000 0.0000 39.5335
#
#
#
# Elastic Compliance Matrix: (Units=1/GPa)
#
#
# Indices 1 2 3 4 5 6 
#
# 1 0.009619 -0.003709 -0.004586 0.000000 0.000000 0.000000
# 2 -0.003709 0.009673 0.000139 0.000000 0.000000 0.000000
# 3 -0.004586 0.000139 0.017589 0.000000 0.000000 0.000000
# 4 0.000000 0.000000 0.000000 -0.026399 0.000000 0.000000
# 5 0.000000 0.000000 0.000000 0.000000 0.029362 0.000000
# 6 0.000000 0.000000 0.000000 0.000000 0.000000 0.025295
#
#
# Mechanical properties :
#
#
# Convention : Reuss Voigt Hill
#
# Bulk Modulus (GPa) = 48.61737 60.01141 54.31439
# Shear Modulus (GPa) = 56.62094 22.38840 39.50467
#
# Velocity S-wave (km/s) = 5.23414 3.29130 4.37200
# Velocity P-wave (km/s) = 7.74931 6.59395 7.19486
#
# Compressibility (1/GPa) = 0.02056878
#
# Stress axis : x y z
#
# Youngs Moduli (GPa) = 103.96331 103.37942 56.85385
#
# Poissons Ratio (x) = 0.38342 0.26073
# Poissons Ratio (y) = 0.38558 -0.00789
# Poissons Ratio (z) = 0.47677 -0.01434
#
# Static dielectric constant tensor:
#      x y z
#    x 4.289390 0.000000 0.000000 
#    y 0.000000 3.795990 0.000000 
#    z 0.000000 0.000000 3.627960 
# 
# 
# High freq. dielectric constant tensor:
#      x y z
#    x 1.827660 0.000000 0.000000 
#    y 0.000000 1.814240 0.000000 
#    z 0.000000 0.000000 1.805380 
# 
# From -- ./inp_files/28645.got.cif
#   From: 2010.03.12/outbox.cif.g09.slc.cpg/sg62_15_cif.got.tgz:28645.got - 2010.04.10 19:12:36.
