data_PCOD8252498
_publ_section_title
;
Structure prediction by ZEFSAII (Michael W. Deem and Ramdas Pophale) SiO2 
 PCOD8252498
Probable space group: P N M A
;
_chemical_formula_sum "Si O2"
_cell_formula_units_Z 48
_cell_length_a 19.121621
_cell_length_b 14.487427
_cell_length_c 9.425981
_cell_angle_alpha 90.000000
_cell_angle_beta 90.000000
_cell_angle_gamma 90.000000
_cell_volume 2611.214367
_symmetry_space_group_name_H-M "P N M A"
_symmetry_group_IT_number 62
_symmetry_cell_setting 'orthorhombic'
loop_
_space_group_symop_operation_xyz
x,y,z
1/2-x,-y,1/2+z
1/2+x,1/2-y,1/2-z
-x,1/2+y,-z
-x,-y,-z
1/2+x,y,1/2-z
1/2-x,1/2+y,1/2+z
x,1/2-y,z
loop_
_atom_site_type_symbol
_atom_site_label
_atom_site_fract_x
_atom_site_fract_y
_atom_site_fract_z
Si Si1 0.432842 0.647526 0.209119
Si Si2 0.194882 0.354173 0.891138
Si Si3 0.032350 0.854617 0.526714
Si Si4 0.149125 0.856146 0.296793
Si Si5 0.022457 0.536485 0.812379
Si Si6 0.114679 0.502992 0.057936
O O1 0.458034 0.750000 0.254542
O O2 0.350235 0.634143 0.243822
O O3 0.476658 0.575361 0.302032
O O4 0.454659 0.633227 0.043288
O O5 0.183054 0.250000 0.949732
O O6 0.275660 0.371716 0.865288
O O7 0.172221 0.429273 0.007547
O O8 0.044908 0.750000 0.576769
O O9 0.090270 0.884594 0.411182
O O10 0.040365 0.918574 0.662660
O O11 0.138860 0.750000 0.248845
O O12 0.148159 0.922862 0.162155
O O13 0.945056 0.560165 0.866636
O O14 0.081832 0.562148 0.927247
#
# Coordination Sequence:
#
# PCOD8252498 Si02
#       6
#     8   8   8   8   8   8
#     4   9  17  32  54  77 104 144 182 216 268 325
#     4   9  20  37  55  77 111 148 181 221 271 330
#     4  10  20  34  56  81 107 144 183 226 272 321
#     4  10  21  38  58  80 110 148 186 224 275 332
#     4  10  20  34  54  84 112 136 180 236 274 320
#     4  10  21  35  56  83 108 143 181 226 283 326
#
# _framework density 18.382252999999999
#
# number of rings (size 3 to 8) (size 9 to 14) (size 15 to 20)
#    0.000    2.333    1.667    0.500    0.000    4.000 
#    0.000    1.667    0.000    1.000    0.000    0.000 
#    0.000    0.000    0.000    0.000    0.000    0.000 
#
# Total GULP energy -594792.685280 kJ/mol
# GULP energy per Si atom -12391.514277 kJ/mol
# Density = 1.834041 g / cm^3
# Si number density = 18.382253 Si / 1000 Ang^3
#
#
#
# Elastic Constant Matrix: (Units=GPa)
#
#
# Indices 1 2 3 4 5 6 
#
# 1 78.7791 40.8932 42.5986 0.0000 0.0000 0.0000
# 2 40.8932 95.3960 67.7621 0.0000 0.0000 0.0000
# 3 42.5986 67.7621 116.6022 0.0000 0.0000 0.0000
# 4 0.0000 0.0000 0.0000 29.5507 0.0000 0.0000
# 5 0.0000 0.0000 0.0000 0.0000 19.2864 0.0000
# 6 0.0000 0.0000 0.0000 0.0000 0.0000 20.8301
#
#
#
# Elastic Compliance Matrix: (Units=1/GPa)
#
#
# Indices 1 2 3 4 5 6 
#
# 1 0.017074 -0.004919 -0.003379 0.000000 0.000000 0.000000
# 2 -0.004919 0.019269 -0.009401 0.000000 0.000000 0.000000
# 3 -0.003379 -0.009401 0.015274 0.000000 0.000000 0.000000
# 4 0.000000 0.000000 0.000000 0.033840 0.000000 0.000000
# 5 0.000000 0.000000 0.000000 0.000000 0.051850 0.000000
# 6 0.000000 0.000000 0.000000 0.000000 0.000000 0.048007
#
#
# Mechanical properties :
#
#
# Convention : Reuss Voigt Hill
#
# Bulk Modulus (GPa) = 61.65555 65.92057 63.78806
# Shear Modulus (GPa) = 22.11225 23.23499 22.67362
#
# Velocity S-wave (km/s) = 3.47207 3.55912 3.51586
# Velocity P-wave (km/s) = 7.04892 7.26833 7.15947
#
# Compressibility (1/GPa) = 0.01621914
#
# Stress axis : x y z
#
# Youngs Moduli (GPa) = 58.56743 51.89741 65.47110
#
# Poissons Ratio (x) = 0.25527 0.22125
# Poissons Ratio (y) = 0.28808 0.61548
# Poissons Ratio (z) = 0.19792 0.48788
#
# Static dielectric constant tensor:
#      x y z
#    x 3.436980 0.000000 0.000000 
#    y 0.000000 3.439150 0.000000 
#    z 0.000000 0.000000 3.259740 
# 
# 
# High freq. dielectric constant tensor:
#      x y z
#    x 1.709820 0.000000 0.000000 
#    y 0.000000 1.714040 0.000000 
#    z 0.000000 0.000000 1.697640 
# 
# From -- ./inp_files/7667.got.cif
#   From: 2010.03.12/outbox.cif.g09.slc.cpg/sg62_4_cif.got.tgz:7667.got - 2010.04.10 19:12:36.
