data_PCOD8252407
_publ_section_title
;
Structure prediction by ZEFSAII (Michael W. Deem and Ramdas Pophale) SiO2 
 PCOD8252407
Probable space group: P N M A
;
_chemical_formula_sum "Si O2"
_cell_formula_units_Z 64
_cell_length_a 10.155502
_cell_length_b 12.960425
_cell_length_c 26.222994
_cell_angle_alpha 90.000000
_cell_angle_beta 90.000000
_cell_angle_gamma 90.000000
_cell_volume 3451.460558
_symmetry_space_group_name_H-M "P N M A"
_symmetry_group_IT_number 62
_symmetry_cell_setting 'orthorhombic'
loop_
_space_group_symop_operation_xyz
x,y,z
1/2-x,-y,1/2+z
1/2+x,1/2-y,1/2-z
-x,1/2+y,-z
-x,-y,-z
1/2+x,y,1/2-z
1/2-x,1/2+y,1/2+z
x,1/2-y,z
loop_
_atom_site_type_symbol
_atom_site_label
_atom_site_fract_x
_atom_site_fract_y
_atom_site_fract_z
Si Si1 0.498510 0.130327 0.832357
Si Si2 0.217773 0.630746 0.412450
Si Si3 0.468533 0.968247 0.369229
Si Si4 0.759303 0.370033 0.294859
Si Si5 0.463335 0.370386 0.453904
Si Si6 0.238060 0.470915 0.618000
Si Si7 0.784322 0.521096 0.990940
Si Si8 0.998365 0.470801 0.243190
O O1 0.481510 0.250000 0.818817
O O2 0.386052 0.090629 0.870785
O O3 0.639664 0.112938 0.858712
O O4 0.485149 0.068032 0.780225
O O5 0.194717 0.750000 0.424081
O O6 0.365060 0.613592 0.391315
O O7 0.192308 0.567559 0.464633
O O8 0.614782 0.923361 0.379503
O O9 0.453104 0.077289 0.398300
O O10 0.442876 0.985715 0.309810
O O11 0.737395 0.250000 0.304091
O O12 0.766750 0.423145 0.350042
O O13 0.894410 0.388654 0.264645
O O14 0.638448 0.415536 0.262470
O O15 0.441197 0.250000 0.446760
O O16 0.604329 0.393522 0.479054
O O17 0.350206 0.414420 0.490768
O O18 0.199085 0.497144 0.559593
#
# Coordination Sequence:
#
# PCOD8252407 Si02
#       8
#     8   8   8   8   8   8   8   8
#     4  10  22  38  53  73 105 143 177 213 258 305
#     4  10  20  34  53  76 102 133 170 211 258 311
#     4   9  19  34  52  77 101 128 169 214 259 305
#     4  10  20  34  54  78 104 136 173 213 261 312
#     4   9  17  30  50  78 108 133 164 210 262 311
#     4   9  20  35  52  76 105 135 173 216 255 306
#     4   9  18  31  50  76 104 136 170 211 258 302
#     4  10  20  36  54  76 105 136 172 216 259 307
#
# _framework density 18.542874000000001
#
# number of rings (size 3 to 8) (size 9 to 14) (size 15 to 20)
#    0.000    2.500    0.000    2.250    0.000    7.500 
#    0.000    7.500    0.000    6.750    0.000    0.000 
#    0.000    0.000    0.000    0.000    0.000    0.000 
#
# Total GULP energy -793704.296633 kJ/mol
# GULP energy per Si atom -12401.629635 kJ/mol
# Density = 1.850067 g / cm^3
# Si number density = 18.542874 Si / 1000 Ang^3
#
#
#
# Elastic Constant Matrix: (Units=GPa)
#
#
# Indices 1 2 3 4 5 6 
#
# 1 73.4425 26.3546 34.7003 0.0000 0.0000 0.0000
# 2 26.3546 71.3263 30.0634 0.0000 0.0000 0.0000
# 3 34.7003 30.0634 133.9597 0.0000 0.0000 0.0000
# 4 0.0000 0.0000 0.0000 18.4696 0.0000 0.0000
# 5 0.0000 0.0000 0.0000 0.0000 22.8660 0.0000
# 6 0.0000 0.0000 0.0000 0.0000 0.0000 19.5512
#
#
#
# Elastic Compliance Matrix: (Units=1/GPa)
#
#
# Indices 1 2 3 4 5 6 
#
# 1 0.016916 -0.004863 -0.003290 0.000000 0.000000 0.000000
# 2 -0.004863 0.016883 -0.002529 0.000000 0.000000 0.000000
# 3 -0.003290 -0.002529 0.008885 0.000000 0.000000 0.000000
# 4 0.000000 0.000000 0.000000 0.054143 0.000000 0.000000
# 5 0.000000 0.000000 0.000000 0.000000 0.043733 0.000000
# 6 0.000000 0.000000 0.000000 0.000000 0.000000 0.051148
#
#
# Mechanical properties :
#
#
# Convention : Reuss Voigt Hill
#
# Bulk Modulus (GPa) = 46.90874 51.21834 49.06354
# Shear Modulus (GPa) = 22.70871 24.68469 23.69670
#
# Velocity S-wave (km/s) = 3.50331 3.65255 3.57871
# Velocity P-wave (km/s) = 6.45884 6.74312 6.60251
#
# Compressibility (1/GPa) = 0.02131799
#
# Stress axis : x y z
#
# Youngs Moduli (GPa) = 59.11572 59.23080 112.55129
#
# Poissons Ratio (x) = 0.28807 0.37034
# Poissons Ratio (y) = 0.28751 0.28465
# Poissons Ratio (z) = 0.19451 0.14980
#
# Static dielectric constant tensor:
#      x y z
#    x 3.410510 0.000000 0.000000 
#    y 0.000000 3.102780 0.000000 
#    z 0.000000 0.000000 3.605320 
# 
# 
# High freq. dielectric constant tensor:
#      x y z
#    x 1.711100 0.000000 0.000000 
#    y 0.000000 1.702610 0.000000 
#    z 0.000000 0.000000 1.736010 
# 
# From -- ./inp_files/29494.got.cif
#   From: 2010.03.12/outbox.cif.g09.slc.cpg/sg62_15_cif.got.tgz:29494.got - 2010.04.10 19:12:36.
