data_PCOD8252788
_publ_section_title
;
Structure prediction by ZEFSAII (Michael W. Deem and Ramdas Pophale) SiO2 
 PCOD8252788
Probable space group: P N M A
;
_chemical_formula_sum "Si O2"
_cell_formula_units_Z 48
_cell_length_a 16.466941
_cell_length_b 8.882210
_cell_length_c 18.025367
_cell_angle_alpha 90.000000
_cell_angle_beta 90.000000
_cell_angle_gamma 90.000000
_cell_volume 2636.441154
_symmetry_space_group_name_H-M "P N M A"
_symmetry_group_IT_number 62
_symmetry_cell_setting 'orthorhombic'
loop_
_space_group_symop_operation_xyz
x,y,z
1/2-x,-y,1/2+z
1/2+x,1/2-y,1/2-z
-x,1/2+y,-z
-x,-y,-z
1/2+x,y,1/2-z
1/2-x,1/2+y,1/2+z
x,1/2-y,z
loop_
_atom_site_type_symbol
_atom_site_label
_atom_site_fract_x
_atom_site_fract_y
_atom_site_fract_z
Si Si1 0.488847 0.572358 0.579721
Si Si2 0.325205 0.428260 0.594098
Si Si3 0.917242 0.075693 0.476684
Si Si4 0.750591 0.073358 0.547309
Si Si5 0.150463 0.924559 0.834224
Si Si6 0.822911 0.425960 0.333665
O O1 0.500000 0.500000 0.500000
O O2 0.478263 0.750000 0.571343
O O3 0.410280 0.500919 0.619110
O O4 0.564919 0.529465 0.630756
O O5 0.332785 0.250000 0.592938
O O6 0.304297 0.484900 0.511666
O O7 0.258734 0.479960 0.653559
O O8 0.935669 0.250000 0.477590
O O9 0.845394 0.034158 0.534537
O O10 0.890403 0.024210 0.394015
O O11 0.000000 0.000000 0.500000
O O12 0.735176 0.250000 0.536496
O O13 0.723450 0.019926 0.628838
O O14 0.170543 0.750000 0.846661
O O15 0.144284 0.964231 0.747550
O O16 0.802307 0.250000 0.344445
#
# Coordination Sequence:
#
# PCOD8252788 Si02
#       6
#     8   8   8   8   8   8
#     4  11  21  34  56  86 117 149 186 230 277 335
#     4  11  21  35  56  82 110 147 190 226 272 335
#     4   9  19  36  58  81 107 142 184 230 275 327
#     4  10  20  35  57  81 111 145 182 229 280 330
#     4  10  21  37  58  83 112 145 188 231 281 342
#     4   9  20  40  59  79 110 147 186 234 286 332
#
# _framework density 18.206361000000001
#
# number of rings (size 3 to 8) (size 9 to 14) (size 15 to 20)
#    0.000    2.000    1.667    3.500    0.000    4.667 
#    3.000    0.000    0.000    0.000    0.000    0.000 
#    0.000    0.000    0.000    0.000    0.000    0.000 
#
# Total GULP energy -595289.559481 kJ/mol
# GULP energy per Si atom -12401.865823 kJ/mol
# Density = 1.816492 g / cm^3
# Si number density = 18.206361 Si / 1000 Ang^3
#
#
#
# Elastic Constant Matrix: (Units=GPa)
#
#
# Indices 1 2 3 4 5 6 
#
# 1 158.5722 67.6779 81.4395 0.0000 0.0000 0.0000
# 2 67.6779 90.6302 49.7751 0.0000 0.0000 0.0000
# 3 81.4395 49.7751 129.0201 0.0000 0.0000 0.0000
# 4 0.0000 0.0000 0.0000 27.7452 0.0000 0.0000
# 5 0.0000 0.0000 0.0000 0.0000 24.8358 0.0000
# 6 0.0000 0.0000 0.0000 0.0000 0.0000 35.6054
#
#
#
# Elastic Compliance Matrix: (Units=1/GPa)
#
#
# Indices 1 2 3 4 5 6 
#
# 1 0.011266 -0.005719 -0.004905 0.000000 0.000000 0.000000
# 2 -0.005719 0.016904 -0.002911 0.000000 0.000000 0.000000
# 3 -0.004905 -0.002911 0.011970 0.000000 0.000000 0.000000
# 4 0.000000 0.000000 0.000000 0.036042 0.000000 0.000000
# 5 0.000000 0.000000 0.000000 0.000000 0.040265 0.000000
# 6 0.000000 0.000000 0.000000 0.000000 0.000000 0.028086
#
#
# Mechanical properties :
#
#
# Convention : Reuss Voigt Hill
#
# Bulk Modulus (GPa) = 76.51745 86.22305 81.37025
# Shear Modulus (GPa) = 28.41560 29.59259 29.00410
#
# Velocity S-wave (km/s) = 3.95492 4.03600 3.99566
# Velocity P-wave (km/s) = 7.93563 8.31749 8.12880
#
# Compressibility (1/GPa) = 0.01306892
#
# Stress axis : x y z
#
# Youngs Moduli (GPa) = 88.75985 59.15929 83.54209
#
# Poissons Ratio (x) = 0.33834 0.40978
# Poissons Ratio (y) = 0.50764 0.24321
# Poissons Ratio (z) = 0.43537 0.17222
#
# Static dielectric constant tensor:
#      x y z
#    x 3.481550 0.000000 0.000000 
#    y 0.000000 3.357320 0.000000 
#    z 0.000000 0.000000 3.328380 
# 
# 
# High freq. dielectric constant tensor:
#      x y z
#    x 1.710840 0.000000 0.000000 
#    y 0.000000 1.709150 0.000000 
#    z 0.000000 0.000000 1.693080 
# 
# From -- ./inp_files/23762.got.cif
#   From: 2010.03.12/outbox.cif.g09.slc.cpg/sg62_12_cif.got.tgz:23762.got - 2010.04.10 19:12:36.
