data_PCOD8252430
_publ_section_title
;
Structure prediction by ZEFSAII (Michael W. Deem and Ramdas Pophale) SiO2 
 PCOD8252430
Probable space group: P N M A
;
_chemical_formula_sum "Si O2"
_cell_formula_units_Z 64
_cell_length_a 9.278302
_cell_length_b 14.210904
_cell_length_c 25.990622
_cell_angle_alpha 90.000000
_cell_angle_beta 90.000000
_cell_angle_gamma 90.000000
_cell_volume 3426.943016
_symmetry_space_group_name_H-M "P N M A"
_symmetry_group_IT_number 62
_symmetry_cell_setting 'orthorhombic'
loop_
_space_group_symop_operation_xyz
x,y,z
1/2-x,-y,1/2+z
1/2+x,1/2-y,1/2-z
-x,1/2+y,-z
-x,-y,-z
1/2+x,y,1/2-z
1/2-x,1/2+y,1/2+z
x,1/2-y,z
loop_
_atom_site_type_symbol
_atom_site_label
_atom_site_fract_x
_atom_site_fract_y
_atom_site_fract_z
Si Si1 0.019853 0.141837 0.308150
Si Si2 0.603558 0.410576 0.997420
Si Si3 0.017529 0.472743 0.118858
Si Si4 0.313196 0.536710 0.894590
Si Si5 0.411087 0.854763 0.520275
Si Si6 0.639361 0.856800 0.432365
Si Si7 0.185294 0.358538 0.203965
Si Si8 0.342493 0.148250 0.949741
O O1 0.035314 0.250000 0.325179
O O2 0.072504 0.076953 0.354493
O O3 0.120782 0.120499 0.259721
O O4 0.854576 0.117583 0.294930
O O5 0.678427 0.399528 0.053299
O O6 0.500000 0.500000 0.000000
O O7 0.716034 0.410196 0.950269
O O8 0.488665 0.330301 0.981805
O O9 0.062553 0.424971 0.066071
O O10 0.060824 0.583028 0.112693
O O11 0.104469 0.426899 0.165036
O O12 0.847619 0.459340 0.128602
O O13 0.359034 0.427991 0.904245
O O14 0.375853 0.750000 0.541453
O O15 0.547000 0.851259 0.483713
O O16 0.276753 0.895715 0.488104
O O17 0.667955 0.750000 0.412027
O O18 0.157747 0.250000 0.188101
O O19 0.289495 0.250000 0.927817
#
# Coordination Sequence:
#
# PCOD8252430 Si02
#       8
#     8   8   8   8   8   8   8   8
#     4  10  23  42  62  85 113 140 179 235 290 344
#     4  10  21  35  52  79 116 156 194 236 277 328
#     4  12  21  35  58  83 113 151 191 235 278 337
#     4  11  22  35  56  83 114 151 192 230 285 337
#     4  10  20  34  53  80 115 154 195 231 271 325
#     4  11  22  36  54  82 119 159 196 231 272 328
#     4  10  23  42  63  86 110 141 181 233 292 344
#     4  10  21  36  53  79 118 157 193 231 272 325
#
# _framework density 18.675536999999998
#
# number of rings (size 3 to 8) (size 9 to 14) (size 15 to 20)
#    0.000    1.500    2.500    3.375    5.250    3.000 
#    0.000    0.000    0.000    0.750    0.000    0.000 
#    0.000    0.000    0.000    0.000    0.000    0.000 
#
# Total GULP energy -793266.284978 kJ/mol
# GULP energy per Si atom -12394.785703 kJ/mol
# Density = 1.863303 g / cm^3
# Si number density = 18.675537 Si / 1000 Ang^3
#
#
#
# Elastic Constant Matrix: (Units=GPa)
#
#
# Indices 1 2 3 4 5 6 
#
# 1 126.5459 33.6486 34.7906 0.0000 0.0000 0.0000
# 2 33.6486 93.6435 44.3212 0.0000 0.0000 0.0000
# 3 34.7906 44.3212 69.0317 0.0000 0.0000 0.0000
# 4 0.0000 0.0000 0.0000 115.5966 0.0000 0.0000
# 5 0.0000 0.0000 0.0000 0.0000 36.2867 0.0000
# 6 0.0000 0.0000 0.0000 0.0000 0.0000 27.1264
#
#
#
# Elastic Compliance Matrix: (Units=1/GPa)
#
#
# Indices 1 2 3 4 5 6 
#
# 1 0.009341 -0.001621 -0.003667 0.000000 0.000000 0.000000
# 2 -0.001621 0.015622 -0.009213 0.000000 0.000000 0.000000
# 3 -0.003667 -0.009213 0.022249 0.000000 0.000000 0.000000
# 4 0.000000 0.000000 0.000000 0.008651 0.000000 0.000000
# 5 0.000000 0.000000 0.000000 0.000000 0.027558 0.000000
# 6 0.000000 0.000000 0.000000 0.000000 0.000000 0.036864
#
#
# Mechanical properties :
#
#
# Convention : Reuss Voigt Hill
#
# Bulk Modulus (GPa) = 54.91339 57.19354 56.05347
# Shear Modulus (GPa) = 32.18372 47.56600 39.87486
#
# Velocity S-wave (km/s) = 4.15578 5.05222 4.62577
# Velocity P-wave (km/s) = 7.24535 8.04516 7.65571
#
# Compressibility (1/GPa) = 0.01821049
#
# Stress axis : x y z
#
# Youngs Moduli (GPa) = 107.04929 64.01374 44.94524
#
# Poissons Ratio (x) = 0.10377 0.16482
# Poissons Ratio (y) = 0.17352 0.41407
# Poissons Ratio (z) = 0.39257 0.58975
#
# Static dielectric constant tensor:
#      x y z
#    x 3.838340 0.000000 0.000000 
#    y 0.000000 4.941020 0.000000 
#    z 0.000000 0.000000 3.203210 
# 
# 
# High freq. dielectric constant tensor:
#      x y z
#    x 1.751260 0.000000 0.000000 
#    y 0.000000 1.727410 0.000000 
#    z 0.000000 0.000000 1.682530 
# 
# From -- ./inp_files/28979.got.cif
#   From: 2010.03.12/outbox.cif.g09.slc.cpg/sg62_15_cif.got.tgz:28979.got - 2010.04.10 19:12:36.
