data_PCOD8252332
_publ_section_title
;
Structure prediction by ZEFSAII (Michael W. Deem and Ramdas Pophale) SiO2 
 PCOD8252332
Probable space group: P N M A
;
_chemical_formula_sum "Si O2"
_cell_formula_units_Z 64
_cell_length_a 30.421530
_cell_length_b 9.824114
_cell_length_c 10.202253
_cell_angle_alpha 90.000000
_cell_angle_beta 90.000000
_cell_angle_gamma 90.000000
_cell_volume 3049.092045
_symmetry_space_group_name_H-M "P N M A"
_symmetry_group_IT_number 62
_symmetry_cell_setting 'orthorhombic'
loop_
_space_group_symop_operation_xyz
x,y,z
1/2-x,-y,1/2+z
1/2+x,1/2-y,1/2-z
-x,1/2+y,-z
-x,-y,-z
1/2+x,y,1/2-z
1/2-x,1/2+y,1/2+z
x,1/2-y,z
loop_
_atom_site_type_symbol
_atom_site_label
_atom_site_fract_x
_atom_site_fract_y
_atom_site_fract_z
Si Si1 0.527772 0.395634 0.295496
Si Si2 0.722521 0.910995 0.705560
Si Si3 0.725320 0.904386 0.003557
Si Si4 0.449021 0.897851 0.270662
Si Si5 0.368001 0.098012 0.891106
Si Si6 0.621907 0.094779 0.344618
Si Si7 0.643983 0.408336 0.630678
Si Si8 0.549399 0.454242 0.016585
O O1 0.508575 0.250000 0.342533
O O2 0.489865 0.506256 0.304751
O O3 0.570446 0.439338 0.380420
O O4 0.548721 0.369749 0.150554
O O5 0.717851 0.750000 0.671513
O O6 0.753942 0.984699 0.600815
O O7 0.675995 0.987736 0.702899
O O8 0.740869 0.929080 0.853625
O O9 0.739132 0.750000 0.046269
O O10 0.672468 0.919616 0.008673
O O11 0.460190 0.750000 0.331053
O O12 0.405039 0.956870 0.333945
O O13 0.439599 0.874765 0.116014
O O14 0.370240 0.250000 0.834697
O O15 0.413788 0.071682 0.967201
O O16 0.359084 0.000703 0.768025
O O17 0.625763 0.250000 0.295686
O O18 0.650817 0.074238 0.474791
O O19 0.651741 0.250000 0.672588
O O20 0.500000 0.500000 0.000000
#
# Coordination Sequence:
#
# PCOD8252332 Si02
#       8
#     8   8   8   8   8   8   8   8
#     4   9  18  32  50  76 112 154 199 249 300 355
#     4  11  25  44  68  96 125 161 205 251 309 376
#     4  10  24  45  67  96 131 163 202 258 316 371
#     4  10  20  33  53  80 112 155 201 246 299 360
#     4  10  21  38  62  88 118 155 201 252 301 358
#     4   9  20  37  56  82 119 160 200 247 305 359
#     4  10  22  40  60  84 120 159 199 253 309 363
#     4   9  18  31  52  82 116 150 192 242 297 354
#
# _framework density 20.989854000000001
#
# number of rings (size 3 to 8) (size 9 to 14) (size 15 to 20)
#    0.000    2.250    0.000    1.500    1.750   10.000 
#    0.000    0.000    0.000    0.000    0.000    0.000 
#    0.000    0.000    0.000    0.000    0.000    0.000 
#
# Total GULP energy -792982.370093 kJ/mol
# GULP energy per Si atom -12390.349533 kJ/mol
# Density = 2.094208 g / cm^3
# Si number density = 20.989854 Si / 1000 Ang^3
#
#
#
# Elastic Constant Matrix: (Units=GPa)
#
#
# Indices 1 2 3 4 5 6 
#
# 1 63.3414 50.8586 29.0910 0.0000 0.0000 0.0000
# 2 50.8586 130.1567 42.4736 0.0000 0.0000 0.0000
# 3 29.0910 42.4736 77.5615 0.0000 0.0000 0.0000
# 4 0.0000 0.0000 0.0000 26.2373 0.0000 0.0000
# 5 0.0000 0.0000 0.0000 0.0000 32.0956 0.0000
# 6 0.0000 0.0000 0.0000 0.0000 0.0000 34.8154
#
#
#
# Elastic Compliance Matrix: (Units=1/GPa)
#
#
# Indices 1 2 3 4 5 6 
#
# 1 0.024380 -0.007966 -0.004782 0.000000 0.000000 0.000000
# 2 -0.007966 0.011958 -0.003560 0.000000 0.000000 0.000000
# 3 -0.004782 -0.003560 0.016636 0.000000 0.000000 0.000000
# 4 0.000000 0.000000 0.000000 0.038114 0.000000 0.000000
# 5 0.000000 0.000000 0.000000 0.000000 0.031157 0.000000
# 6 0.000000 0.000000 0.000000 0.000000 0.000000 0.028723
#
#
# Mechanical properties :
#
#
# Convention : Reuss Voigt Hill
#
# Bulk Modulus (GPa) = 49.12253 57.32290 53.22272
# Shear Modulus (GPa) = 26.26479 28.53874 27.40177
#
# Velocity S-wave (km/s) = 3.54122 3.69134 3.61706
# Velocity P-wave (km/s) = 6.33831 6.74811 6.54642
#
# Compressibility (1/GPa) = 0.02035726
#
# Stress axis : x y z
#
# Youngs Moduli (GPa) = 41.01779 83.62921 60.10987
#
# Poissons Ratio (x) = 0.66618 0.28744
# Poissons Ratio (y) = 0.32674 0.21401
# Poissons Ratio (z) = 0.19614 0.29775
#
# Static dielectric constant tensor:
#      x y z
#    x 3.843980 0.000000 0.000000 
#    y 0.000000 3.675010 0.000000 
#    z 0.000000 0.000000 5.023360 
# 
# 
# High freq. dielectric constant tensor:
#      x y z
#    x 1.823910 0.000000 0.000000 
#    y 0.000000 1.816230 0.000000 
#    z 0.000000 0.000000 1.821060 
# 
# From -- ./inp_files/15853.got.cif
#   From: 2010.03.12/outbox.cif.g09.slc.cpg/sg62_8_cif.got.tgz:15853.got - 2010.04.10 19:12:36.
