data_PCOD8252772
_publ_section_title
;
Structure prediction by ZEFSAII (Michael W. Deem and Ramdas Pophale) SiO2 
 PCOD8252772
Probable space group: P N M A
;
_chemical_formula_sum "Si O2"
_cell_formula_units_Z 64
_cell_length_a 30.379010
_cell_length_b 8.866800
_cell_length_c 11.979806
_cell_angle_alpha 90.000000
_cell_angle_beta 90.000000
_cell_angle_gamma 90.000000
_cell_volume 3226.935722
_symmetry_space_group_name_H-M "P N M A"
_symmetry_group_IT_number 62
_symmetry_cell_setting 'orthorhombic'
loop_
_space_group_symop_operation_xyz
x,y,z
1/2-x,-y,1/2+z
1/2+x,1/2-y,1/2-z
-x,1/2+y,-z
-x,-y,-z
1/2+x,y,1/2-z
1/2-x,1/2+y,1/2+z
x,1/2-y,z
loop_
_atom_site_type_symbol
_atom_site_label
_atom_site_fract_x
_atom_site_fract_y
_atom_site_fract_z
Si Si1 0.173851 0.423332 0.008156
Si Si2 0.044922 0.575207 0.785964
Si Si3 0.291004 0.428386 0.295081
Si Si4 0.553512 0.425367 0.253544
Si Si5 0.873154 0.429134 0.352654
Si Si6 0.073170 0.078039 0.001235
Si Si7 0.375076 0.072174 0.896538
Si Si8 0.201475 0.572536 0.230672
O O1 0.186278 0.250000 0.035541
O O2 0.205657 0.485605 0.912373
O O3 0.123967 0.437574 0.966048
O O4 0.178489 0.527736 0.115780
O O5 0.054311 0.750000 0.803175
O O6 0.083251 0.504937 0.708188
O O7 0.044029 0.505803 0.909504
O O8 0.997950 0.546165 0.727772
O O9 0.292664 0.250000 0.315480
O O10 0.329951 0.482774 0.213387
O O11 0.245561 0.475738 0.239140
O O12 0.566056 0.250000 0.249812
O O13 0.565394 0.491794 0.375839
O O14 0.581056 0.508073 0.159086
O O15 0.875211 0.250000 0.357016
O O16 0.871067 0.493810 0.478320
O O17 0.057247 0.250000 0.003047
O O18 0.380230 0.250000 0.897486
O O19 0.331281 0.024520 0.830089
O O20 0.211986 0.750000 0.232868
#
# Coordination Sequence:
#
# PCOD8252772 Si02
#       8
#     8   8   8   8   8   8   8   8
#     4  11  22  39  63  88 122 159 194 245 299 353
#     4  10  20  36  60  85 116 154 196 241 292 357
#     4  11  23  40  64  90 120 158 198 246 301 356
#     4  10  21  37  57  86 118 152 193 244 297 347
#     4   9  20  39  59  83 115 154 194 236 293 352
#     4  10  20  35  56  85 121 152 190 243 297 345
#     4  10  22  40  60  81 114 156 195 240 291 353
#     4  11  24  40  61  90 119 154 202 247 296 361
#
# _framework density 19.833057
#
# number of rings (size 3 to 8) (size 9 to 14) (size 15 to 20)
#    0.000    1.750    2.500    1.500    1.750    2.500 
#    0.000    1.875    0.000    0.000    0.000    0.000 
#    0.000    0.000    0.000    0.000    0.000    0.000 
#
# Total GULP energy -793834.190440 kJ/mol
# GULP energy per Si atom -12403.659226 kJ/mol
# Density = 1.978792 g / cm^3
# Si number density = 19.833057 Si / 1000 Ang^3
#
#
#
# Elastic Constant Matrix: (Units=GPa)
#
#
# Indices 1 2 3 4 5 6 
#
# 1 109.4584 30.9786 45.7539 0.0000 0.0000 0.0000
# 2 30.9786 33.7134 26.7483 0.0000 0.0000 0.0000
# 3 45.7539 26.7483 136.1106 0.0000 0.0000 0.0000
# 4 0.0000 0.0000 0.0000 27.2027 0.0000 0.0000
# 5 0.0000 0.0000 0.0000 0.0000 26.2759 0.0000
# 6 0.0000 0.0000 0.0000 0.0000 0.0000 29.3469
#
#
#
# Elastic Compliance Matrix: (Units=1/GPa)
#
#
# Indices 1 2 3 4 5 6 
#
# 1 0.012972 -0.010023 -0.002391 0.000000 0.000000 0.000000
# 2 -0.010023 0.042885 -0.005059 0.000000 0.000000 0.000000
# 3 -0.002391 -0.005059 0.009145 0.000000 0.000000 0.000000
# 4 0.000000 0.000000 0.000000 0.036761 0.000000 0.000000
# 5 0.000000 0.000000 0.000000 0.000000 0.038058 0.000000
# 6 0.000000 0.000000 0.000000 0.000000 0.000000 0.034075
#
#
# Mechanical properties :
#
#
# Convention : Reuss Voigt Hill
#
# Bulk Modulus (GPa) = 33.26972 54.02712 43.64842
# Shear Modulus (GPa) = 22.84576 28.28519 25.56547
#
# Velocity S-wave (km/s) = 3.39765 3.78056 3.59421
# Velocity P-wave (km/s) = 5.67480 6.80859 6.26739
#
# Compressibility (1/GPa) = 0.03005736
#
# Stress axis : x y z
#
# Youngs Moduli (GPa) = 77.08977 23.31818 109.35218
#
# Poissons Ratio (x) = 0.23371 0.26145
# Poissons Ratio (y) = 0.77265 0.55316
# Poissons Ratio (z) = 0.18431 0.11796
#
# Static dielectric constant tensor:
#      x y z
#    x 3.658500 0.000000 0.000000 
#    y 0.000000 3.385710 0.000000 
#    z 0.000000 0.000000 3.732960 
# 
# 
# High freq. dielectric constant tensor:
#      x y z
#    x 1.783500 0.000000 0.000000 
#    y 0.000000 1.754840 0.000000 
#    z 0.000000 0.000000 1.777640 
# 
# From -- ./inp_files/15760.got.cif
#   From: 2010.03.12/outbox.cif.g09.slc.cpg/sg62_8_cif.got.tgz:15760.got - 2010.04.10 19:12:36.
