data_PCOD8252775
_publ_section_title
;
Structure prediction by ZEFSAII (Michael W. Deem and Ramdas Pophale) SiO2 
 PCOD8252775
Probable space group: P N M A
;
_chemical_formula_sum "Si O2"
_cell_formula_units_Z 64
_cell_length_a 23.906067
_cell_length_b 8.883241
_cell_length_c 15.299856
_cell_angle_alpha 90.000000
_cell_angle_beta 90.000000
_cell_angle_gamma 90.000000
_cell_volume 3249.128744
_symmetry_space_group_name_H-M "P N M A"
_symmetry_group_IT_number 62
_symmetry_cell_setting 'orthorhombic'
loop_
_space_group_symop_operation_xyz
x,y,z
1/2-x,-y,1/2+z
1/2+x,1/2-y,1/2-z
-x,1/2+y,-z
-x,-y,-z
1/2+x,y,1/2-z
1/2-x,1/2+y,1/2+z
x,1/2-y,z
loop_
_atom_site_type_symbol
_atom_site_label
_atom_site_fract_x
_atom_site_fract_y
_atom_site_fract_z
Si Si1 0.944437 0.571691 0.253168
Si Si2 0.627378 0.577100 0.896165
Si Si3 0.142917 0.576172 0.407318
Si Si4 0.140871 0.571787 0.082063
Si Si5 0.251124 0.576230 0.648315
Si Si6 0.569905 0.928750 0.253912
Si Si7 0.248437 0.576439 0.850988
Si Si8 0.634173 0.072011 0.597051
O O1 0.945210 0.750000 0.255800
O O2 0.918426 0.516046 0.343739
O O3 0.908417 0.513323 0.171135
O O4 0.007089 0.506071 0.244141
O O5 0.623478 0.750000 0.866361
O O6 0.689392 0.515979 0.874452
O O7 0.613959 0.557213 0.998548
O O8 0.158978 0.750000 0.389507
O O9 0.100066 0.514930 0.334414
O O10 0.199045 0.478151 0.407226
O O11 0.139107 0.750000 0.076221
O O12 0.204902 0.520011 0.092881
O O13 0.103634 0.509826 0.162264
O O14 0.115418 0.503066 0.993721
O O15 0.257286 0.750000 0.620283
O O16 0.263399 0.551852 0.750024
O O17 0.568451 0.750000 0.256005
O O18 0.234921 0.750000 0.872012
O O19 0.196023 0.476230 0.876589
O O20 0.631806 0.250000 0.586778
#
# Coordination Sequence:
#
# PCOD8252775 Si02
#       8
#     8   8   8   8   8   8   8   8
#     4  10  22  40  60  80 111 154 196 239 284 340
#     4  10  21  37  58  85 116 149 185 232 288 338
#     4  10  20  37  61  86 117 155 188 229 287 347
#     4  11  22  37  61  87 115 152 193 236 287 347
#     4  10  20  35  56  85 122 151 182 234 289 343
#     4   9  20  39  59  83 114 151 195 237 285 342
#     4  11  21  35  59  88 118 150 188 236 285 340
#     4  11  23  38  58  84 115 152 194 239 293 344
#
# _framework density 19.697589000000001
#
# number of rings (size 3 to 8) (size 9 to 14) (size 15 to 20)
#    0.000    1.750    2.500    1.875    0.000    4.000 
#    0.000    1.875    0.000    0.000    0.000    0.000 
#    0.000    0.000    0.000    0.000    0.000    0.000 
#
# Total GULP energy -793906.864715 kJ/mol
# GULP energy per Si atom -12404.794761 kJ/mol
# Density = 1.965276 g / cm^3
# Si number density = 19.697589 Si / 1000 Ang^3
#
#
#
# Elastic Constant Matrix: (Units=GPa)
#
#
# Indices 1 2 3 4 5 6 
#
# 1 136.4701 22.5914 54.9991 0.0000 0.0000 0.0000
# 2 22.5914 44.3148 33.4444 0.0000 0.0000 0.0000
# 3 54.9991 33.4444 113.8877 0.0000 0.0000 0.0000
# 4 0.0000 0.0000 0.0000 30.4801 0.0000 0.0000
# 5 0.0000 0.0000 0.0000 0.0000 15.5439 0.0000
# 6 0.0000 0.0000 0.0000 0.0000 0.0000 14.8331
#
#
#
# Elastic Compliance Matrix: (Units=1/GPa)
#
#
# Indices 1 2 3 4 5 6 
#
# 1 0.009199 -0.001718 -0.003938 0.000000 0.000000 0.000000
# 2 -0.001718 0.029312 -0.007778 0.000000 0.000000 0.000000
# 3 -0.003938 -0.007778 0.012967 0.000000 0.000000 0.000000
# 4 0.000000 0.000000 0.000000 0.032808 0.000000 0.000000
# 5 0.000000 0.000000 0.000000 0.000000 0.064334 0.000000
# 6 0.000000 0.000000 0.000000 0.000000 0.000000 0.067417
#
#
# Mechanical properties :
#
#
# Convention : Reuss Voigt Hill
#
# Bulk Modulus (GPa) = 40.63467 57.41582 49.02525
# Shear Modulus (GPa) = 19.91181 24.41393 22.16287
#
# Velocity S-wave (km/s) = 3.18288 3.52438 3.35797
# Velocity P-wave (km/s) = 5.84651 6.76562 6.32279
#
# Compressibility (1/GPa) = 0.02460952
#
# Stress axis : x y z
#
# Youngs Moduli (GPa) = 108.70728 34.11604 77.12164
#
# Poissons Ratio (x) = 0.05860 0.30371
# Poissons Ratio (y) = 0.18671 0.59987
# Poissons Ratio (z) = 0.42809 0.26536
#
# Static dielectric constant tensor:
#      x y z
#    x 3.631350 0.000000 0.000000 
#    y 0.000000 3.370910 0.000000 
#    z 0.000000 0.000000 3.782850 
# 
# 
# High freq. dielectric constant tensor:
#      x y z
#    x 1.762720 0.000000 0.000000 
#    y 0.000000 1.749820 0.000000 
#    z 0.000000 0.000000 1.783770 
# 
# From -- ./inp_files/20978.got.cif
#   From: 2010.03.12/outbox.cif.g09.slc.cpg/sg62_11_cif.got.tgz:20978.got - 2010.04.10 19:12:36.
