data_PCOD8252761
_publ_section_title
;
Structure prediction by ZEFSAII (Michael W. Deem and Ramdas Pophale) SiO2 
 PCOD8252761
Probable space group: P N M A
;
_chemical_formula_sum "Si O2"
_cell_formula_units_Z 64
_cell_length_a 24.735535
_cell_length_b 8.940752
_cell_length_c 14.617869
_cell_angle_alpha 90.000000
_cell_angle_beta 90.000000
_cell_angle_gamma 90.000000
_cell_volume 3232.804353
_symmetry_space_group_name_H-M "P N M A"
_symmetry_group_IT_number 62
_symmetry_cell_setting 'orthorhombic'
loop_
_space_group_symop_operation_xyz
x,y,z
1/2-x,-y,1/2+z
1/2+x,1/2-y,1/2-z
-x,1/2+y,-z
-x,-y,-z
1/2+x,y,1/2-z
1/2-x,1/2+y,1/2+z
x,1/2-y,z
loop_
_atom_site_type_symbol
_atom_site_label
_atom_site_fract_x
_atom_site_fract_y
_atom_site_fract_z
Si Si1 0.852876 0.420489 0.853944
Si Si2 0.481626 0.073102 0.406983
Si Si3 0.950701 0.427194 0.553480
Si Si4 0.255803 0.422014 0.156980
Si Si5 0.169532 0.575573 0.490988
Si Si6 0.742573 0.575734 0.630558
Si Si7 0.367083 0.421239 0.442876
Si Si8 0.439956 0.926082 0.754805
O O1 0.855145 0.250000 0.818901
O O2 0.791804 0.468680 0.873087
O O3 0.880115 0.527566 0.778709
O O4 0.882860 0.439645 0.950714
O O5 0.484874 0.250000 0.420532
O O6 0.419509 0.020987 0.387051
O O7 0.517527 0.021897 0.321868
O O8 0.500000 0.000000 0.500000
O O9 0.956708 0.250000 0.548386
O O10 0.892727 0.480221 0.512295
O O11 0.955724 0.481829 0.656784
O O12 0.000000 0.500000 0.500000
O O13 0.238517 0.250000 0.141973
O O14 0.306869 0.461919 0.091970
O O15 0.267779 0.454329 0.262608
O O16 0.171431 0.750000 0.470398
O O17 0.203781 0.501252 0.409042
O O18 0.749543 0.750000 0.608784
O O19 0.689498 0.499650 0.583368
O O20 0.356829 0.250000 0.416700
O O21 0.441333 0.750000 0.774842
#
# Coordination Sequence:
#
# PCOD8252761 Si02
#       8
#     8   8   8   8   8   8   8   8
#     4  11  20  34  58  85 118 157 199 244 295 354
#     4  10  20  35  56  83 117 155 195 239 290 350
#     4  11  25  45  67  90 118 156 203 256 308 362
#     4  10  21  36  58  86 117 152 196 246 297 356
#     4  10  22  40  61  87 118 153 193 243 297 351
#     4  10  20  36  58  85 115 152 193 235 288 352
#     4   9  18  33  54  81 112 151 191 237 293 348
#     4  11  23  38  61  91 121 160 205 251 301 359
#
# _framework density 19.797052999999998
#
# number of rings (size 3 to 8) (size 9 to 14) (size 15 to 20)
#    0.000    1.750    2.500    1.875    0.000    5.000 
#    0.000    4.375    0.000    1.500    0.000    0.000 
#    0.000    0.000    0.000    0.000    0.000    0.000 
#
# Total GULP energy -793449.511333 kJ/mol
# GULP energy per Si atom -12397.648615 kJ/mol
# Density = 1.975199 g / cm^3
# Si number density = 19.797053 Si / 1000 Ang^3
#
#
#
# Elastic Constant Matrix: (Units=GPa)
#
#
# Indices 1 2 3 4 5 6 
#
# 1 159.9261 44.1745 74.6030 0.0000 0.0000 0.0000
# 2 44.1745 50.5187 39.9552 0.0000 0.0000 0.0000
# 3 74.6030 39.9552 116.1651 0.0000 0.0000 0.0000
# 4 0.0000 0.0000 0.0000 29.6243 0.0000 0.0000
# 5 0.0000 0.0000 0.0000 0.0000 34.9428 0.0000
# 6 0.0000 0.0000 0.0000 0.0000 0.0000 27.9366
#
#
#
# Elastic Compliance Matrix: (Units=1/GPa)
#
#
# Indices 1 2 3 4 5 6 
#
# 1 0.009738 -0.004902 -0.004568 0.000000 0.000000 0.000000
# 2 -0.004902 0.029660 -0.007053 0.000000 0.000000 0.000000
# 3 -0.004568 -0.007053 0.013968 0.000000 0.000000 0.000000
# 4 0.000000 0.000000 0.000000 0.033756 0.000000 0.000000
# 5 0.000000 0.000000 0.000000 0.000000 0.028618 0.000000
# 6 0.000000 0.000000 0.000000 0.000000 0.000000 0.035795
#
#
# Mechanical properties :
#
#
# Convention : Reuss Voigt Hill
#
# Bulk Modulus (GPa) = 49.21492 71.56394 60.38943
# Shear Modulus (GPa) = 26.12964 29.69256 27.91110
#
# Velocity S-wave (km/s) = 3.63695 3.87699 3.75889
# Velocity P-wave (km/s) = 6.52305 7.50124 7.02918
#
# Compressibility (1/GPa) = 0.02031904
#
# Stress axis : x y z
#
# Youngs Moduli (GPa) = 102.69377 33.71584 71.59377
#
# Poissons Ratio (x) = 0.16529 0.32701
# Poissons Ratio (y) = 0.50344 0.50496
# Poissons Ratio (z) = 0.46906 0.23780
#
# Static dielectric constant tensor:
#      x y z
#    x 3.981270 0.000000 0.000000 
#    y 0.000000 3.444960 0.000000 
#    z 0.000000 0.000000 3.769780 
# 
# 
# High freq. dielectric constant tensor:
#      x y z
#    x 1.784010 0.000000 0.000000 
#    y 0.000000 1.754900 0.000000 
#    z 0.000000 0.000000 1.773490 
# 
# From -- ./inp_files/20836.got.cif
#   From: 2010.03.12/outbox.cif.g09.slc.cpg/sg62_11_cif.got.tgz:20836.got - 2010.04.10 19:12:36.
