data_PCOD8252563
_publ_section_title
;
Structure prediction by ZEFSAII (Michael W. Deem and Ramdas Pophale) SiO2 
 PCOD8252563
Probable space group: P N M A
;
_chemical_formula_sum "Si O2"
_cell_formula_units_Z 48
_cell_length_a 9.486014
_cell_length_b 8.779828
_cell_length_c 28.717733
_cell_angle_alpha 90.000000
_cell_angle_beta 90.000000
_cell_angle_gamma 90.000000
_cell_volume 2391.772800
_symmetry_space_group_name_H-M "P N M A"
_symmetry_group_IT_number 62
_symmetry_cell_setting 'orthorhombic'
loop_
_space_group_symop_operation_xyz
x,y,z
1/2-x,-y,1/2+z
1/2+x,1/2-y,1/2-z
-x,1/2+y,-z
-x,-y,-z
1/2+x,y,1/2-z
1/2-x,1/2+y,1/2+z
x,1/2-y,z
loop_
_atom_site_type_symbol
_atom_site_label
_atom_site_fract_x
_atom_site_fract_y
_atom_site_fract_z
Si Si1 0.607679 0.928554 0.535480
Si Si2 0.981524 0.931473 0.300237
Si Si3 0.804130 0.924903 0.387202
Si Si4 0.202051 0.430073 0.784898
Si Si5 0.985246 0.924637 0.127841
Si Si6 0.355228 0.429579 0.014579
O O1 0.617353 0.750000 0.526645
O O2 0.500000 0.000000 0.500000
O O3 0.561214 0.961613 0.587633
O O4 0.755288 0.007079 0.525584
O O5 0.984355 0.750000 0.297151
O O6 0.923175 0.982291 0.350858
O O7 0.873017 0.996009 0.261425
O O8 0.139742 0.997537 0.292109
O O9 0.831611 0.750000 0.401298
O O10 0.651888 0.942329 0.362592
O O11 0.808111 0.024062 0.433705
O O12 0.214652 0.250000 0.780977
O O13 0.100920 0.477215 0.827158
O O14 0.949686 0.750000 0.114226
O O15 0.360029 0.250000 0.011942
O O16 0.500000 0.500000 0.000000
#
# Coordination Sequence:
#
# PCOD8252563 Si02
#       6
#     8   8   8   8   8   8
#     4  12  24  41  63  90 122 162 207 252 302 362
#     4   9  17  30  51  81 117 155 198 248 299 354
#     4  10  20  35  56  84 119 158 201 249 301 357
#     4   9  17  30  51  82 117 155 198 247 299 353
#     4  10  20  34  56  85 119 158 201 249 300 356
#     4  12  26  43  63  88 122 162 205 254 307 365
#
# _framework density 20.068795999999999
#
# number of rings (size 3 to 8) (size 9 to 14) (size 15 to 20)
#    0.000    1.667    1.667    4.000    2.333    4.000 
#    0.000    0.000    0.000    1.000    0.000    0.000 
#    0.000    0.000    0.000    0.000    0.000    0.000 
#
# Total GULP energy -595208.863006 kJ/mol
# GULP energy per Si atom -12400.184646 kJ/mol
# Density = 2.002312 g / cm^3
# Si number density = 20.068796 Si / 1000 Ang^3
#
#
#
# Elastic Constant Matrix: (Units=GPa)
#
#
# Indices 1 2 3 4 5 6 
#
# 1 135.5508 29.5670 30.6748 0.0000 0.0000 0.0000
# 2 29.5670 94.9611 24.8837 0.0000 0.0000 0.0000
# 3 30.6748 24.8837 85.6296 0.0000 0.0000 0.0000
# 4 0.0000 0.0000 0.0000 21.4882 0.0000 0.0000
# 5 0.0000 0.0000 0.0000 0.0000 44.2454 0.0000
# 6 0.0000 0.0000 0.0000 0.0000 0.0000 19.4771
#
#
#
# Elastic Compliance Matrix: (Units=1/GPa)
#
#
# Indices 1 2 3 4 5 6 
#
# 1 0.008354 -0.001967 -0.002421 0.000000 0.000000 0.000000
# 2 -0.001967 0.011862 -0.002742 0.000000 0.000000 0.000000
# 3 -0.002421 -0.002742 0.013342 0.000000 0.000000 0.000000
# 4 0.000000 0.000000 0.000000 0.046537 0.000000 0.000000
# 5 0.000000 0.000000 0.000000 0.000000 0.022601 0.000000
# 6 0.000000 0.000000 0.000000 0.000000 0.000000 0.051342
#
#
# Mechanical properties :
#
#
# Convention : Reuss Voigt Hill
#
# Bulk Modulus (GPa) = 51.81972 54.04361 52.93166
# Shear Modulus (GPa) = 28.61519 32.44319 30.52919
#
# Velocity S-wave (km/s) = 3.78015 4.02506 3.90452
# Velocity P-wave (km/s) = 6.70297 6.97059 6.83809
#
# Compressibility (1/GPa) = 0.01929767
#
# Stress axis : x y z
#
# Youngs Moduli (GPa) = 119.70020 84.30561 74.94855
#
# Poissons Ratio (x) = 0.16580 0.18146
# Poissons Ratio (y) = 0.23542 0.20554
# Poissons Ratio (z) = 0.28982 0.23120
#
# Static dielectric constant tensor:
#      x y z
#    x 3.983620 0.000000 0.000000 
#    y 0.000000 3.299420 0.000000 
#    z 0.000000 0.000000 3.344880 
# 
# 
# High freq. dielectric constant tensor:
#      x y z
#    x 1.804030 0.000000 0.000000 
#    y 0.000000 1.739590 0.000000 
#    z 0.000000 0.000000 1.791050 
# 
# From -- ./inp_files/31971.got.cif
#   From: 2010.03.12/outbox.cif.g09.slc.cpg/sg62_16_cif.got.tgz:31971.got - 2010.04.10 19:12:36.
