data_PCOD8252338
_publ_section_title
;
Structure prediction by ZEFSAII (Michael W. Deem and Ramdas Pophale) SiO2 
 PCOD8252338
Probable space group: P N M A
;
_chemical_formula_sum "Si O2"
_cell_formula_units_Z 40
_cell_length_a 23.377063
_cell_length_b 10.995641
_cell_length_c 7.985292
_cell_angle_alpha 90.000000
_cell_angle_beta 90.000000
_cell_angle_gamma 90.000000
_cell_volume 2052.585710
_symmetry_space_group_name_H-M "P N M A"
_symmetry_group_IT_number 62
_symmetry_cell_setting 'orthorhombic'
loop_
_space_group_symop_operation_xyz
x,y,z
1/2-x,-y,1/2+z
1/2+x,1/2-y,1/2-z
-x,1/2+y,-z
-x,-y,-z
1/2+x,y,1/2-z
1/2-x,1/2+y,1/2+z
x,1/2-y,z
loop_
_atom_site_type_symbol
_atom_site_label
_atom_site_fract_x
_atom_site_fract_y
_atom_site_fract_z
Si Si1 0.926711 0.967173 0.664698
Si Si2 0.098578 0.888714 0.008367
Si Si3 0.052376 0.612924 0.661622
Si Si4 0.802673 0.882467 0.663109
Si Si5 0.777808 0.384344 0.869710
O O1 0.920816 0.047894 0.498553
O O2 0.871193 0.882413 0.669024
O O3 0.929862 0.047466 0.831998
O O4 0.983612 0.887238 0.656002
O O5 0.077875 0.750000 0.017034
O O6 0.075660 0.947644 0.834423
O O7 0.167243 0.901068 0.010013
O O8 0.074711 0.750000 0.652887
O O9 0.784193 0.750000 0.741988
O O10 0.780559 0.886588 0.473507
O O11 0.775015 0.001479 0.746220
O O12 0.782738 0.250000 0.779721
#
# Coordination Sequence:
#
# PCOD8252338 Si02
#       5
#     8   8   8   8   8
#     4  10  20  34  53  78 111 142 181 229 279 328
#     4   9  18  34  53  76 105 138 185 231 272 332
#     4  10  20  33  54  79 106 145 185 225 279 333
#     4  10  21  37  57  81 114 147 183 233 284 330
#     4   9  20  36  55  80 109 143 186 230 277 335
#
# _framework density 19.487614000000001
#
# number of rings (size 3 to 8) (size 9 to 14) (size 15 to 20)
#    0.000    2.400    0.000    1.800    2.800    1.600 
#    0.000    0.000    0.000    6.000    0.000    0.000 
#    0.000    0.000    0.000    0.000    0.000    0.000 
#
# Total GULP energy -495708.283536 kJ/mol
# GULP energy per Si atom -12392.707088 kJ/mol
# Density = 1.944326 g / cm^3
# Si number density = 19.487614 Si / 1000 Ang^3
#
#
#
# Elastic Constant Matrix: (Units=GPa)
#
#
# Indices 1 2 3 4 5 6 
#
# 1 30.6252 13.8148 5.5714 0.0000 0.0000 0.0000
# 2 13.8148 131.2048 50.3969 0.0000 0.0000 0.0000
# 3 5.5714 50.3969 120.9915 0.0000 0.0000 0.0000
# 4 0.0000 0.0000 0.0000-8521.3180 0.0000 0.0000
# 5 0.0000 0.0000 0.0000 0.0000 30.7430 0.0000
# 6 0.0000 0.0000 0.0000 0.0000 0.0000 -13.0756
#
#
#
# Elastic Compliance Matrix: (Units=1/GPa)
#
#
# Indices 1 2 3 4 5 6 
#
# 1 0.034282 -0.003575 -0.000089 0.000000 0.000000 0.000000
# 2 -0.003575 0.009446 -0.003770 0.000000 0.000000 0.000000
# 3 -0.000089 -0.003770 0.009839 0.000000 0.000000 0.000000
# 4 0.000000 0.000000 0.000000 -0.000117 0.000000 0.000000
# 5 0.000000 0.000000 0.000000 0.000000 0.032528 0.000000
# 6 0.000000 0.000000 0.000000 0.000000 0.000000 -0.076478
#
#
# Mechanical properties :
#
#
# Convention : Reuss Voigt Hill
#
# Bulk Modulus (GPa) = 25.84096 46.93198 36.38647
# Shear Modulus (GPa) = 134.16200 -1686.52756 -776.18278
#
# Velocity S-wave (km/s) = 8.30628 -29.45020 -19.97899
# Velocity P-wave (km/s) = 10.26067 33.64943 22.66057
#
# Compressibility (1/GPa) = 0.03869825
#
# Stress axis : x y z
#
# Youngs Moduli (GPa) = 29.16989 105.86248 101.63121
#
# Poissons Ratio (x) = 0.37849 0.00909
# Poissons Ratio (y) = 0.10429 0.38315
# Poissons Ratio (z) = 0.00261 0.39910
#
# Static dielectric constant tensor:
#      x y z
#    x 3.480570 0.000000 0.000000 
#    y 0.000000 3.637530 0.000000 
#    z 0.000000 0.000000 3.483500 
# 
# 
# High freq. dielectric constant tensor:
#      x y z
#    x 1.760520 0.000000 0.000000 
#    y 0.000000 1.760700 0.000000 
#    z 0.000000 0.000000 1.745090 
# 
# From -- ./inp_files/3034.got.cif
#   From: 2010.03.12/outbox.cif.g09.slc.cpg/sg62_2_cif.got.tgz:3034.got - 2010.04.10 19:12:36.
