data_PCOD8252982
_publ_section_title
;
Structure prediction by ZEFSAII (Michael W. Deem and Ramdas Pophale) SiO2 
 PCOD8252982
Probable space group: P N M A
;
_chemical_formula_sum "Si O2"
_cell_formula_units_Z 48
_cell_length_a 16.990145
_cell_length_b 19.388996
_cell_length_c 7.615235
_cell_angle_alpha 90.000000
_cell_angle_beta 90.000000
_cell_angle_gamma 90.000000
_cell_volume 2508.624828
_symmetry_space_group_name_H-M "P N M A"
_symmetry_group_IT_number 62
_symmetry_cell_setting 'orthorhombic'
loop_
_space_group_symop_operation_xyz
x,y,z
1/2-x,-y,1/2+z
1/2+x,1/2-y,1/2-z
-x,1/2+y,-z
-x,-y,-z
1/2+x,y,1/2-z
1/2-x,1/2+y,1/2+z
x,1/2-y,z
loop_
_atom_site_type_symbol
_atom_site_label
_atom_site_fract_x
_atom_site_fract_y
_atom_site_fract_z
Si Si1 0.084748 0.465344 0.477509
Si Si2 0.157055 0.171437 0.392767
Si Si3 0.289192 0.171768 0.681448
Si Si4 0.181441 0.172475 0.995768
Si Si5 0.089087 0.449836 0.857175
Si Si6 0.402306 0.449964 0.657846
O O1 0.085734 0.384351 0.414553
O O2 0.127386 0.467208 0.667251
O O3 0.130497 0.510056 0.330759
O O4 0.000000 0.500000 0.500000
O O5 0.124099 0.250000 0.413069
O O6 0.221533 0.155069 0.540491
O O7 0.198336 0.161994 0.202503
O O8 0.318043 0.250000 0.660054
O O9 0.365100 0.125235 0.646254
O O10 0.259140 0.157221 0.879910
O O11 0.152572 0.250000 0.957329
O O12 0.111248 0.124674 0.929833
O O13 0.995813 0.446634 0.836928
O O14 0.122683 0.508010 0.985565
#
# Coordination Sequence:
#
# PCOD8252982 Si02
#       6
#     8   8   8   8   8   8
#     4  10  20  36  57  83 113 144 184 235 281 337
#     4  10  20  37  59  82 113 150 192 237 284 339
#     4  10  22  39  57  82 113 151 193 236 286 341
#     4  10  20  36  59  82 109 145 191 235 278 338
#     4  10  20  37  57  83 114 149 185 228 283 338
#     4  10  22  37  56  82 119 146 185 238 282 337
#
# _framework density 19.133987999999999
#
# number of rings (size 3 to 8) (size 9 to 14) (size 15 to 20)
#    0.000    2.000    3.333    0.000    0.000    3.333 
#    0.000    2.500    0.000    0.000    0.000    0.000 
#    0.000    0.000    0.000    0.000    0.000    0.000 
#
# Total GULP energy -594820.715966 kJ/mol
# GULP energy per Si atom -12392.098249 kJ/mol
# Density = 1.909044 g / cm^3
# Si number density = 19.133988 Si / 1000 Ang^3
#
#
#
# Elastic Constant Matrix: (Units=GPa)
#
#
# Indices 1 2 3 4 5 6 
#
# 1 34.7092 53.0291 31.3036 0.0000 0.0000 0.0000
# 2 53.0291 148.7363 61.4496 0.0000 0.0000 0.0000
# 3 31.3036 61.4496 154.4743 0.0000 0.0000 0.0000
# 4 0.0000 0.0000 0.0000 31.2571 0.0000 0.0000
# 5 0.0000 0.0000 0.0000 0.0000 14.1757 0.0000
# 6 0.0000 0.0000 0.0000 0.0000 0.0000 38.3560
#
#
#
# Elastic Compliance Matrix: (Units=1/GPa)
#
#
# Indices 1 2 3 4 5 6 
#
# 1 0.066142 -0.021593 -0.004814 0.000000 0.000000 0.000000
# 2 -0.021593 0.015095 -0.001629 0.000000 0.000000 0.000000
# 3 -0.004814 -0.001629 0.008097 0.000000 0.000000 0.000000
# 4 0.000000 0.000000 0.000000 0.031993 0.000000 0.000000
# 5 0.000000 0.000000 0.000000 0.000000 0.070543 0.000000
# 6 0.000000 0.000000 0.000000 0.000000 0.000000 0.026072
#
#
# Mechanical properties :
#
#
# Convention : Reuss Voigt Hill
#
# Bulk Modulus (GPa) = 30.06380 69.94271 50.00325
# Shear Modulus (GPa) = 17.53769 29.56694 23.55231
#
# Velocity S-wave (km/s) = 3.03078 3.93524 3.51225
# Velocity P-wave (km/s) = 5.29092 7.56847 6.52976
#
# Compressibility (1/GPa) = 0.03326260
#
# Stress axis : x y z
#
# Youngs Moduli (GPa) = 15.11897 66.24775 123.50133
#
# Poissons Ratio (x) = 1.43048 0.59451
# Poissons Ratio (y) = 0.32646 0.20118
# Poissons Ratio (z) = 0.07278 0.10792
#
# Static dielectric constant tensor:
#      x y z
#    x 2.925820 0.000000 0.000000 
#    y 0.000000 3.695180 0.000000 
#    z 0.000000 0.000000 4.280450 
# 
# 
# High freq. dielectric constant tensor:
#      x y z
#    x 1.690790 0.000000 0.000000 
#    y 0.000000 1.756310 0.000000 
#    z 0.000000 0.000000 1.776200 
# 
# From -- ./inp_files/7780.got.cif
#   From: 2010.03.12/outbox.cif.g09.slc.cpg/sg62_4_cif.got.tgz:7780.got - 2010.04.10 19:12:36.
