data_PCOD8252715
_publ_section_title
;
Structure prediction by ZEFSAII (Michael W. Deem and Ramdas Pophale) SiO2 
 PCOD8252715
Probable space group: P N M A
;
_chemical_formula_sum "Si O2"
_cell_formula_units_Z 48
_cell_length_a 8.812940
_cell_length_b 18.130218
_cell_length_c 17.248039
_cell_angle_alpha 90.000000
_cell_angle_beta 90.000000
_cell_angle_gamma 90.000000
_cell_volume 2755.900699
_symmetry_space_group_name_H-M "P N M A"
_symmetry_group_IT_number 62
_symmetry_cell_setting 'orthorhombic'
loop_
_space_group_symop_operation_xyz
x,y,z
1/2-x,-y,1/2+z
1/2+x,1/2-y,1/2-z
-x,1/2+y,-z
-x,-y,-z
1/2+x,y,1/2-z
1/2-x,1/2+y,1/2+z
x,1/2-y,z
loop_
_atom_site_type_symbol
_atom_site_label
_atom_site_fract_x
_atom_site_fract_y
_atom_site_fract_z
Si Si1 0.319271 0.969350 0.682280
Si Si2 0.569586 0.942265 0.938175
Si Si3 0.002886 0.168446 0.148262
Si Si4 0.437421 0.535217 0.421667
Si Si5 0.277798 0.567230 0.849698
Si Si6 0.312837 0.832571 0.495347
O O1 0.182113 0.982610 0.622444
O O2 0.377071 0.884556 0.690162
O O3 0.278238 0.983193 0.771327
O O4 0.453598 0.022207 0.651935
O O5 0.439930 0.906766 0.882982
O O6 0.659736 0.875032 0.978606
O O7 0.500000 0.000000 0.000000
O O8 0.007656 0.250000 0.185914
O O9 0.056782 0.171556 0.059799
O O10 0.832161 0.137910 0.156429
O O11 0.500000 0.500000 0.500000
O O12 0.282037 0.490811 0.412333
O O13 0.395700 0.621610 0.427084
O O14 0.268665 0.750000 0.467558
#
# Coordination Sequence:
#
# PCOD8252715 Si02
#       6
#     8   8   8   8   8   8
#     4  10  21  33  52  79 109 140 185 216 264 318
#     4  11  19  32  54  81 107 137 178 227 265 306
#     4   9  19  34  51  73 110 150 178 204 259 329
#     4  11  17  37  58  75 101 147 185 218 256 320
#     4  11  20  32  53  83 109 137 180 221 262 318
#     4  10  20  35  56  81 106 140 183 227 270 316
#
# _framework density 17.417172999999998
#
# number of rings (size 3 to 8) (size 9 to 14) (size 15 to 20)
#    0.000    1.667    6.667    2.000    0.000    1.333 
#    0.000    3.333    0.000    1.000    0.000    0.000 
#    0.000    0.000    0.000    0.000    0.000    0.000 
#
# Total GULP energy -594639.370080 kJ/mol
# GULP energy per Si atom -12388.320210 kJ/mol
# Density = 1.737753 g / cm^3
# Si number density = 17.417173 Si / 1000 Ang^3
#
#
#
# Elastic Constant Matrix: (Units=GPa)
#
#
# Indices 1 2 3 4 5 6 
#
# 1 108.5688 35.7421 39.9688 0.0000 0.0000 0.0000
# 2 35.7421 103.7653 43.6883 0.0000 0.0000 0.0000
# 3 39.9688 43.6883 77.2499 0.0000 0.0000 0.0000
# 4 0.0000 0.0000 0.0000 17.4288 0.0000 0.0000
# 5 0.0000 0.0000 0.0000 0.0000 27.3008 0.0000
# 6 0.0000 0.0000 0.0000 0.0000 0.0000 23.0068
#
#
#
# Elastic Compliance Matrix: (Units=1/GPa)
#
#
# Indices 1 2 3 4 5 6 
#
# 1 0.011668 -0.001939 -0.004940 0.000000 0.000000 0.000000
# 2 -0.001939 0.012971 -0.006333 0.000000 0.000000 0.000000
# 3 -0.004940 -0.006333 0.019082 0.000000 0.000000 0.000000
# 4 0.000000 0.000000 0.000000 0.057376 0.000000 0.000000
# 5 0.000000 0.000000 0.000000 0.000000 0.036629 0.000000
# 6 0.000000 0.000000 0.000000 0.000000 0.000000 0.043465
#
#
# Mechanical properties :
#
#
# Convention : Reuss Voigt Hill
#
# Bulk Modulus (GPa) = 57.81097 58.70915 58.26006
# Shear Modulus (GPa) = 23.43219 24.89295 24.16257
#
# Velocity S-wave (km/s) = 3.67188 3.78460 3.72867
# Velocity P-wave (km/s) = 7.15828 7.27175 7.21524
#
# Compressibility (1/GPa) = 0.01729775
#
# Stress axis : x y z
#
# Youngs Moduli (GPa) = 85.70577 77.09372 52.40409
#
# Poissons Ratio (x) = 0.14948 0.25889
# Poissons Ratio (y) = 0.16618 0.33185
# Poissons Ratio (z) = 0.42341 0.48820
#
# Static dielectric constant tensor:
#      x y z
#    x 3.682680 0.000000 0.000000 
#    y 0.000000 3.397620 0.000000 
#    z 0.000000 0.000000 3.180620 
# 
# 
# High freq. dielectric constant tensor:
#      x y z
#    x 1.689530 0.000000 0.000000 
#    y 0.000000 1.643970 0.000000 
#    z 0.000000 0.000000 1.662020 
# 
# From -- ./inp_files/22342.got.cif
#   From: 2010.03.12/outbox.cif.g09.slc.cpg/sg62_12_cif.got.tgz:22342.got - 2010.04.10 19:12:36.
