data_PCOD8252193
_publ_section_title
;
Structure prediction by ZEFSAII (Michael W. Deem and Ramdas Pophale) SiO2 
 PCOD8252193
Probable space group: P N M A
;
_chemical_formula_sum "Si O2"
_cell_formula_units_Z 64
_cell_length_a 20.331780
_cell_length_b 9.009460
_cell_length_c 22.038715
_cell_angle_alpha 90.000000
_cell_angle_beta 90.000000
_cell_angle_gamma 90.000000
_cell_volume 4037.015640
_symmetry_space_group_name_H-M "P N M A"
_symmetry_group_IT_number 62
_symmetry_cell_setting 'orthorhombic'
loop_
_space_group_symop_operation_xyz
x,y,z
1/2-x,-y,1/2+z
1/2+x,1/2-y,1/2-z
-x,1/2+y,-z
-x,-y,-z
1/2+x,y,1/2-z
1/2-x,1/2+y,1/2+z
x,1/2-y,z
loop_
_atom_site_type_symbol
_atom_site_label
_atom_site_fract_x
_atom_site_fract_y
_atom_site_fract_z
Si Si1 0.350373 0.585505 0.247357
Si Si2 0.649222 0.923881 0.240474
Si Si3 0.566151 0.078411 0.149043
Si Si4 0.264031 0.419484 0.327575
Si Si5 0.932263 0.574271 0.362733
Si Si6 0.682467 0.576296 0.936186
Si Si7 0.187380 0.416414 0.440792
Si Si8 0.767749 0.414958 0.847823
O O1 0.362060 0.750000 0.274106
O O2 0.335967 0.474132 0.303942
O O3 0.413019 0.534093 0.207134
O O4 0.290187 0.585768 0.200903
O O5 0.636450 0.750000 0.231299
O O6 0.665062 0.959890 0.311678
O O7 0.586274 0.013169 0.215234
O O8 0.712188 0.970016 0.201818
O O9 0.549048 0.250000 0.157484
O O10 0.624373 0.052468 0.101313
O O11 0.503150 0.993402 0.123044
O O12 0.251720 0.250000 0.306126
O O13 0.254112 0.430720 0.400229
O O14 0.933060 0.750000 0.372745
O O15 0.880906 0.507166 0.410334
O O16 0.672067 0.750000 0.928418
O O17 0.749609 0.528573 0.901438
O O18 0.690580 0.536925 0.006577
O O19 0.182856 0.250000 0.468087
O O20 0.775346 0.250000 0.875866
#
# Coordination Sequence:
#
# PCOD8252193 Si02
#       8
#     8   8   8   8   8   8   8   8
#     4   8  15  27  43  62  82 107 137 170 214 261
#     4   9  16  27  44  63  83 109 137 168 214 264
#     4  10  20  32  46  64  85 112 148 186 216 246
#     4   9  16  26  43  64  83 106 137 176 217 253
#     4  10  20  33  46  60  85 119 148 177 215 258
#     4  11  21  30  44  64  84 112 150 186 216 247
#     4   9  19  33  44  58  85 117 146 177 216 257
#     4   8  15  28  44  61  83 110 137 169 214 262
#
# _framework density 15.853294999999999
#
# number of rings (size 3 to 8) (size 9 to 14) (size 15 to 20)
#    0.000    2.750    0.000    4.875    0.000    9.000 
#    0.000    0.000    0.000    0.000    0.000    0.000 
#    0.000    1.000    0.000    3.250    0.000    4.500 
#
# Total GULP energy -793044.934769 kJ/mol
# GULP energy per Si atom -12391.327106 kJ/mol
# Density = 1.581721 g / cm^3
# Si number density = 15.853295 Si / 1000 Ang^3
#
#
#
# Elastic Constant Matrix: (Units=GPa)
#
#
# Indices 1 2 3 4 5 6 
#
# 1 18.3365 23.8684 34.3066 0.0000 0.0000 0.0000
# 2 23.8684 97.0646 49.3776 0.0000 0.0000 0.0000
# 3 34.3066 49.3776 74.7247 0.0000 0.0000 0.0000
# 4 0.0000 0.0000 0.0000 26.1437 0.0000 0.0000
# 5 0.0000 0.0000 0.0000 0.0000 15.4212 0.0000
# 6 0.0000 0.0000 0.0000 0.0000 0.0000 22.0771
#
#
#
# Elastic Compliance Matrix: (Units=1/GPa)
#
#
# Indices 1 2 3 4 5 6 
#
# 1 0.390047 -0.007257 -0.174278 0.000000 0.000000 0.000000
# 2 -0.007257 0.015654 -0.007013 0.000000 0.000000 0.000000
# 3 -0.174278 -0.007013 0.098028 0.000000 0.000000 0.000000
# 4 0.000000 0.000000 0.000000 0.038250 0.000000 0.000000
# 5 0.000000 0.000000 0.000000 0.000000 0.064846 0.000000
# 6 0.000000 0.000000 0.000000 0.000000 0.000000 0.045296
#
#
# Mechanical properties :
#
#
# Convention : Reuss Voigt Hill
#
# Bulk Modulus (GPa) = 7.89670 45.02565 26.46118
# Shear Modulus (GPa) = 4.66667 18.23329 11.44998
#
# Velocity S-wave (km/s) = 1.71757 3.39503 2.69038
# Velocity P-wave (km/s) = 2.98753 6.62053 5.13599
#
# Compressibility (1/GPa) = 0.12663516
#
# Stress axis : x y z
#
# Youngs Moduli (GPa) = 2.56380 63.88054 10.20114
#
# Poissons Ratio (x) = 0.46357 1.77783
# Poissons Ratio (y) = 0.01860 0.07154
# Poissons Ratio (z) = 0.44681 0.44797
#
# Static dielectric constant tensor:
#      x y z
#    x 3.043650 0.000000 0.000000 
#    y 0.000000 3.119260 0.000000 
#    z 0.000000 0.000000 3.103190 
# 
# 
# High freq. dielectric constant tensor:
#      x y z
#    x 1.569710 0.000000 0.000000 
#    y 0.000000 1.621350 0.000000 
#    z 0.000000 0.000000 1.587500 
# 
# From -- ./inp_files/27873.got.cif
#   From: 2010.03.12/outbox.cif.g09.slc.cpg/sg62_14_cif.got.tgz:27873.got - 2010.04.10 19:12:36.
