data_PCOD8252186
_publ_section_title
;
Structure prediction by ZEFSAII (Michael W. Deem and Ramdas Pophale) SiO2 
 PCOD8252186
Probable space group: P N M A
;
_chemical_formula_sum "Si O2"
_cell_formula_units_Z 64
_cell_length_a 14.281224
_cell_length_b 8.893260
_cell_length_c 30.017355
_cell_angle_alpha 90.000000
_cell_angle_beta 90.000000
_cell_angle_gamma 90.000000
_cell_volume 3812.403345
_symmetry_space_group_name_H-M "P N M A"
_symmetry_group_IT_number 62
_symmetry_cell_setting 'orthorhombic'
loop_
_space_group_symop_operation_xyz
x,y,z
1/2-x,-y,1/2+z
1/2+x,1/2-y,1/2-z
-x,1/2+y,-z
-x,-y,-z
1/2+x,y,1/2-z
1/2-x,1/2+y,1/2+z
x,1/2-y,z
loop_
_atom_site_type_symbol
_atom_site_label
_atom_site_fract_x
_atom_site_fract_y
_atom_site_fract_z
Si Si1 0.287215 0.928107 0.289221
Si Si2 0.485204 0.075884 0.277745
Si Si3 0.398393 0.424790 0.948067
Si Si4 0.827199 0.426132 0.797396
Si Si5 0.097043 0.575665 0.548998
Si Si6 0.823694 0.920508 0.632512
Si Si7 0.181654 0.076735 0.628381
Si Si8 0.478131 0.082921 0.176166
O O1 0.292108 0.750000 0.288658
O O2 0.232688 0.987425 0.245076
O O3 0.391424 0.991422 0.291336
O O4 0.237149 0.981757 0.333946
O O5 0.473819 0.250000 0.289898
O O6 0.507441 0.047455 0.226234
O O7 0.574273 0.009338 0.303441
O O8 0.398607 0.250000 0.935906
O O9 0.503022 0.484889 0.940490
O O10 0.322029 0.508259 0.917044
O O11 0.367037 0.454055 0.998998
O O12 0.844882 0.250000 0.790864
O O13 0.774039 0.461688 0.843450
O O14 0.074564 0.750000 0.556958
O O15 0.177549 0.521558 0.583207
O O16 0.785342 0.750000 0.631421
O O17 0.930936 0.926685 0.646343
O O18 0.178714 0.250000 0.614713
O O19 0.094016 0.041915 0.660129
O O20 0.432963 0.250000 0.172489
#
# Coordination Sequence:
#
# PCOD8252186 Si02
#       8
#     8   8   8   8   8   8   8   8
#     4  11  22  36  53  74 104 139 175 214 256 305
#     4  11  22  36  53  73 101 137 176 219 259 298
#     4  10  20  33  50  73 102 137 173 210 257 309
#     4  10  22  36  51  74 102 136 175 213 254 304
#     4  10  20  33  49  73 104 136 171 212 258 308
#     4  11  21  34  51  76 105 137 177 214 256 305
#     4  11  21  33  51  75 102 137 178 213 254 308
#     4  10  20  31  47  72 104 137 171 213 255 298
#
# _framework density 16.787310999999999
#
# number of rings (size 3 to 8) (size 9 to 14) (size 15 to 20)
#    0.000    1.500    3.750    2.250    0.000    4.000 
#    0.000    0.000    0.000    0.000    0.000    0.875 
#    0.000    0.000    0.000    0.000    0.000    0.000 
#
# Total GULP energy -793697.164805 kJ/mol
# GULP energy per Si atom -12401.518200 kJ/mol
# Density = 1.674910 g / cm^3
# Si number density = 16.787311 Si / 1000 Ang^3
#
#
#
# Elastic Constant Matrix: (Units=GPa)
#
#
# Indices 1 2 3 4 5 6 
#
# 1 60.1958 31.9593 20.2520 0.0000 0.0000 0.0000
# 2 31.9593 73.8580 35.4893 0.0000 0.0000 0.0000
# 3 20.2520 35.4893 84.9811 0.0000 0.0000 0.0000
# 4 0.0000 0.0000 0.0000 12.6875 0.0000 0.0000
# 5 0.0000 0.0000 0.0000 0.0000 18.0383 0.0000
# 6 0.0000 0.0000 0.0000 0.0000 0.0000 26.7096
#
#
#
# Elastic Compliance Matrix: (Units=1/GPa)
#
#
# Indices 1 2 3 4 5 6 
#
# 1 0.021733 -0.008651 -0.001566 0.000000 0.000000 0.000000
# 2 -0.008651 0.020383 -0.006450 0.000000 0.000000 0.000000
# 3 -0.001566 -0.006450 0.014834 0.000000 0.000000 0.000000
# 4 0.000000 0.000000 0.000000 0.078817 0.000000 0.000000
# 5 0.000000 0.000000 0.000000 0.000000 0.055438 0.000000
# 6 0.000000 0.000000 0.000000 0.000000 0.000000 0.037440
#
#
# Mechanical properties :
#
#
# Convention : Reuss Voigt Hill
#
# Bulk Modulus (GPa) = 42.34844 43.82624 43.08734
# Shear Modulus (GPa) = 18.52872 20.24269 19.38571
#
# Velocity S-wave (km/s) = 3.32585 3.47628 3.40190
# Velocity P-wave (km/s) = 6.32690 6.50201 6.41505
#
# Compressibility (1/GPa) = 0.02361362
#
# Stress axis : x y z
#
# Youngs Moduli (GPa) = 46.01374 49.06167 67.41134
#
# Poissons Ratio (x) = 0.42445 0.10558
# Poissons Ratio (y) = 0.39809 0.43482
# Poissons Ratio (z) = 0.07207 0.31646
#
# Static dielectric constant tensor:
#      x y z
#    x 2.910710 0.000000 0.000000 
#    y 0.000000 3.275220 0.000000 
#    z 0.000000 0.000000 3.301580 
# 
# 
# High freq. dielectric constant tensor:
#      x y z
#    x 1.613610 0.000000 0.000000 
#    y 0.000000 1.662080 0.000000 
#    z 0.000000 0.000000 1.645590 
# 
# From -- ./inp_files/32519.got.cif
#   From: 2010.03.12/outbox.cif.g09.slc.cpg/sg62_17_cif.got.tgz:32519.got - 2010.04.10 19:12:36.
