data_PCOD8252322
_publ_section_title
;
Structure prediction by ZEFSAII (Michael W. Deem and Ramdas Pophale) SiO2 
 PCOD8252322
Probable space group: P N M A
;
_chemical_formula_sum "Si O2"
_cell_formula_units_Z 64
_cell_length_a 15.247839
_cell_length_b 9.018233
_cell_length_c 24.496441
_cell_angle_alpha 90.000000
_cell_angle_beta 90.000000
_cell_angle_gamma 90.000000
_cell_volume 3368.470446
_symmetry_space_group_name_H-M "P N M A"
_symmetry_group_IT_number 62
_symmetry_cell_setting 'orthorhombic'
loop_
_space_group_symop_operation_xyz
x,y,z
1/2-x,-y,1/2+z
1/2+x,1/2-y,1/2-z
-x,1/2+y,-z
-x,-y,-z
1/2+x,y,1/2-z
1/2-x,1/2+y,1/2+z
x,1/2-y,z
loop_
_atom_site_type_symbol
_atom_site_label
_atom_site_fract_x
_atom_site_fract_y
_atom_site_fract_z
Si Si1 0.310815 0.426958 0.448147
Si Si2 0.180801 0.575395 0.366232
Si Si3 0.687262 0.922149 0.846662
Si Si4 0.487032 0.423792 0.393869
Si Si5 0.545258 0.080283 0.278897
Si Si6 0.826285 0.926085 0.937631
Si Si7 0.993300 0.580858 0.657027
Si Si8 0.780585 0.423660 0.755714
O O1 0.308636 0.250000 0.448590
O O2 0.230832 0.485945 0.412395
O O3 0.402169 0.492254 0.423755
O O4 0.297791 0.489407 0.508268
O O5 0.187393 0.750000 0.377049
O O6 0.222214 0.529281 0.307868
O O7 0.078557 0.528790 0.368263
O O8 0.698552 0.750000 0.833777
O O9 0.756396 0.975297 0.891889
O O10 0.588643 0.955502 0.868320
O O11 0.700626 0.005782 0.789153
O O12 0.484215 0.250000 0.402774
O O13 0.482367 0.464488 0.329463
O O14 0.577344 0.483749 0.420149
O O15 0.576919 0.250000 0.286438
O O16 0.495538 0.056412 0.222124
O O17 0.630237 0.978793 0.283206
O O18 0.823771 0.750000 0.947144
O O19 0.964635 0.750000 0.644746
O O20 0.775394 0.250000 0.761680
#
# Coordination Sequence:
#
# PCOD8252322 Si02
#       8
#     8   8   8   8   8   8   8   8
#     4  11  23  37  58  84 110 146 197 244 279 330
#     4  10  22  40  57  79 115 154 187 229 290 341
#     4  10  20  35  59  86 113 150 190 230 282 338
#     4   9  18  33  55  84 114 147 184 227 280 334
#     4   9  16  32  54  79 112 145 179 221 274 332
#     4  10  20  38  58  79 115 152 186 228 283 344
#     4   9  19  34  58  87 112 143 187 235 278 332
#     4  10  20  33  52  81 115 148 183 225 274 332
#
# _framework density 18.99972
#
# number of rings (size 3 to 8) (size 9 to 14) (size 15 to 20)
#    0.000    2.250    1.250    1.500    1.750    2.500 
#    0.000    2.500    0.000    0.000    0.000    0.000 
#    0.000    0.000    0.000    0.000    0.000    0.000 
#
# Total GULP energy -793578.484916 kJ/mol
# GULP energy per Si atom -12399.663827 kJ/mol
# Density = 1.895648 g / cm^3
# Si number density = 18.999720 Si / 1000 Ang^3
#
#
#
# Elastic Constant Matrix: (Units=GPa)
#
#
# Indices 1 2 3 4 5 6 
#
# 1 104.5540 30.2845 44.0137 0.0000 0.0000 0.0000
# 2 30.2845 46.9748 29.6648 0.0000 0.0000 0.0000
# 3 44.0137 29.6648 78.3613 0.0000 0.0000 0.0000
# 4 0.0000 0.0000 0.0000 27.5234 0.0000 0.0000
# 5 0.0000 0.0000 0.0000 0.0000 24.1926 0.0000
# 6 0.0000 0.0000 0.0000 0.0000 0.0000 17.6760
#
#
#
# Elastic Compliance Matrix: (Units=1/GPa)
#
#
# Indices 1 2 3 4 5 6 
#
# 1 0.013397 -0.005106 -0.005592 0.000000 0.000000 0.000000
# 2 -0.005106 0.029922 -0.008460 0.000000 0.000000 0.000000
# 3 -0.005592 -0.008460 0.019105 0.000000 0.000000 0.000000
# 4 0.000000 0.000000 0.000000 0.036333 0.000000 0.000000
# 5 0.000000 0.000000 0.000000 0.000000 0.041335 0.000000
# 6 0.000000 0.000000 0.000000 0.000000 0.000000 0.056574
#
#
# Mechanical properties :
#
#
# Convention : Reuss Voigt Hill
#
# Bulk Modulus (GPa) = 41.47795 48.64623 45.06209
# Shear Modulus (GPa) = 20.57466 22.27354 21.42410
#
# Velocity S-wave (km/s) = 3.29430 3.42761 3.36162
# Velocity P-wave (km/s) = 6.02894 6.42837 6.23186
#
# Compressibility (1/GPa) = 0.02410920
#
# Stress axis : x y z
#
# Youngs Moduli (GPa) = 74.64094 33.42029 52.34265
#
# Poissons Ratio (x) = 0.17064 0.29271
# Poissons Ratio (y) = 0.38110 0.44280
# Poissons Ratio (z) = 0.41740 0.28272
#
# Static dielectric constant tensor:
#      x y z
#    x 3.549150 0.000000 0.000000 
#    y 0.000000 3.298860 0.000000 
#    z 0.000000 0.000000 3.476840 
# 
# 
# High freq. dielectric constant tensor:
#      x y z
#    x 1.738230 0.000000 0.000000 
#    y 0.000000 1.722150 0.000000 
#    z 0.000000 0.000000 1.732550 
# 
# From -- ./inp_files/29735.got.cif
#   From: 2010.03.12/outbox.cif.g09.slc.cpg/sg62_15_cif.got.tgz:29735.got - 2010.04.10 19:12:36.
