data_PCOD8252859
_publ_section_title
;
Structure prediction by ZEFSAII (Michael W. Deem and Ramdas Pophale) SiO2 
 PCOD8252859
Probable space group: P N M A
;
_chemical_formula_sum "Si O2"
_cell_formula_units_Z 32
_cell_length_a 7.792566
_cell_length_b 11.780416
_cell_length_c 18.127787
_cell_angle_alpha 90.000000
_cell_angle_beta 90.000000
_cell_angle_gamma 90.000000
_cell_volume 1664.124850
_symmetry_space_group_name_H-M "P N M A"
_symmetry_group_IT_number 62
_symmetry_cell_setting 'orthorhombic'
loop_
_space_group_symop_operation_xyz
x,y,z
1/2-x,-y,1/2+z
1/2+x,1/2-y,1/2-z
-x,1/2+y,-z
-x,-y,-z
1/2+x,y,1/2-z
1/2-x,1/2+y,1/2+z
x,1/2-y,z
loop_
_atom_site_type_symbol
_atom_site_label
_atom_site_fract_x
_atom_site_fract_y
_atom_site_fract_z
Si Si1 0.024065 0.486290 0.085474
Si Si2 0.347470 0.540794 0.900219
Si Si3 0.372004 0.750000 0.648768
Si Si4 0.522267 0.250000 0.187265
Si Si5 0.847553 0.618040 0.431303
O O1 0.078749 0.358006 0.100758
O O2 0.175848 0.571821 0.109981
O O3 0.838352 0.512483 0.122033
O O4 0.000000 0.500000 0.000000
O O5 0.383305 0.638061 0.841087
O O6 0.488510 0.442609 0.894968
O O7 0.342472 0.595867 0.981392
O O8 0.170343 0.750000 0.659707
O O9 0.476370 0.750000 0.724655
O O10 0.864644 0.750000 0.414821
#
# Coordination Sequence:
#
# PCOD8252859 Si02
#       5
#     8   8   4   4   8
#     4  10  22  36  57  88 125 156 204 253 306 365
#     4  10  20  36  56  90 121 161 199 257 302 357
#     4  12  24  40  62  99 121 169 201 260 320 361
#     4  12  22  40  66  91 133 155 211 260 308 381
#     4  10  20  35  58  87 124 160 204 246 306 364
#
# _framework density 19.229327999999999
#
# number of rings (size 3 to 8) (size 9 to 14) (size 15 to 20)
#    0.000    1.500    3.750    2.250    5.250    1.000 
#    0.000    0.000    0.000    1.500    0.000    0.000 
#    0.000    0.000    0.000    0.000    0.000    0.000 
#
# Total GULP energy -396749.699076 kJ/mol
# GULP energy per Si atom -12398.428096 kJ/mol
# Density = 1.918556 g / cm^3
# Si number density = 19.229328 Si / 1000 Ang^3
#
#
#
# Elastic Constant Matrix: (Units=GPa)
#
#
# Indices 1 2 3 4 5 6 
#
# 1 197.6980 83.5719 23.4465 0.0000 0.0000 0.0000
# 2 83.5719 171.8527 42.9567 0.0000 0.0000 0.0000
# 3 23.4465 42.9567 64.7668 0.0000 0.0000 0.0000
# 4 0.0000 0.0000 0.0000 16.4727 0.0000 0.0000
# 5 0.0000 0.0000 0.0000 0.0000 23.3430 0.0000
# 6 0.0000 0.0000 0.0000 0.0000 0.0000 25.5938
#
#
#
# Elastic Compliance Matrix: (Units=1/GPa)
#
#
# Indices 1 2 3 4 5 6 
#
# 1 0.006372 -0.003023 -0.000302 0.000000 0.000000 0.000000
# 2 -0.003023 0.008410 -0.004483 0.000000 0.000000 0.000000
# 3 -0.000302 -0.004483 0.018523 0.000000 0.000000 0.000000
# 4 0.000000 0.000000 0.000000 0.060707 0.000000 0.000000
# 5 0.000000 0.000000 0.000000 0.000000 0.042839 0.000000
# 6 0.000000 0.000000 0.000000 0.000000 0.000000 0.039072
#
#
# Mechanical properties :
#
#
# Convention : Reuss Voigt Hill
#
# Bulk Modulus (GPa) = 56.53489 81.58530 69.06009
# Shear Modulus (GPa) = 25.32480 32.03807 28.68143
#
# Velocity S-wave (km/s) = 3.63297 4.08622 3.86624
# Velocity P-wave (km/s) = 6.86018 8.04876 7.47813
#
# Compressibility (1/GPa) = 0.01768819
#
# Stress axis : x y z
#
# Youngs Moduli (GPa) = 156.93601 118.90807 53.98759
#
# Poissons Ratio (x) = 0.35950 0.01628
# Poissons Ratio (y) = 0.47447 0.24205
# Poissons Ratio (z) = 0.04732 0.53311
#
# Static dielectric constant tensor:
#      x y z
#    x 4.408770 0.000000 0.000000 
#    y 0.000000 3.574530 0.000000 
#    z 0.000000 0.000000 3.223280 
# 
# 
# High freq. dielectric constant tensor:
#      x y z
#    x 1.783470 0.000000 0.000000 
#    y 0.000000 1.741250 0.000000 
#    z 0.000000 0.000000 1.708090 
# 
# From -- ./inp_files/16455.got.cif
#   From: 2010.03.12/outbox.cif.g09.slc.cpg/sg62_9_cif.got.tgz:16455.got - 2010.04.10 19:12:36.
