data_PCOD8252230
_publ_section_title
;
Structure prediction by ZEFSAII (Michael W. Deem and Ramdas Pophale) SiO2 
 PCOD8252230
Probable space group: P N M A
;
_chemical_formula_sum "Si O2"
_cell_formula_units_Z 56
_cell_length_a 20.220773
_cell_length_b 8.908630
_cell_length_c 16.354478
_cell_angle_alpha 90.000000
_cell_angle_beta 90.000000
_cell_angle_gamma 90.000000
_cell_volume 2946.085608
_symmetry_space_group_name_H-M "P N M A"
_symmetry_group_IT_number 62
_symmetry_cell_setting 'orthorhombic'
loop_
_space_group_symop_operation_xyz
x,y,z
1/2-x,-y,1/2+z
1/2+x,1/2-y,1/2-z
-x,1/2+y,-z
-x,-y,-z
1/2+x,y,1/2-z
1/2-x,1/2+y,1/2+z
x,1/2-y,z
loop_
_atom_site_type_symbol
_atom_site_label
_atom_site_fract_x
_atom_site_fract_y
_atom_site_fract_z
Si Si1 0.529290 0.926390 0.259713
Si Si2 0.703070 0.428532 0.679642
Si Si3 0.848789 0.072209 0.655145
Si Si4 0.545599 0.428415 0.431439
Si Si5 0.683624 0.427835 0.499281
Si Si6 0.670661 0.572300 0.972712
Si Si7 0.391075 0.574548 0.179962
O O1 0.535765 0.750000 0.278870
O O2 0.592083 0.992475 0.210392
O O3 0.465886 0.960966 0.204502
O O4 0.521788 0.014075 0.344083
O O5 0.697805 0.250000 0.679607
O O6 0.778905 0.480285 0.693662
O O7 0.677466 0.490369 0.592114
O O8 0.657774 0.495768 0.751534
O O9 0.853188 0.250000 0.654666
O O10 0.854257 0.016021 0.561577
O O11 0.500000 0.500000 0.500000
O O12 0.539636 0.250000 0.436268
O O13 0.621304 0.483405 0.446225
O O14 0.684801 0.250000 0.504483
O O15 0.753064 0.481953 0.459503
O O16 0.665792 0.750000 0.965741
O O17 0.622699 0.500523 0.906564
O O18 0.378297 0.750000 0.170985
#
# Coordination Sequence:
#
# PCOD8252230 Si02
#       7
#     8   8   8   8   8   8   8
#     4  10  21  36  53  77 107 141 179 222 266 315
#     4   8  14  28  50  72  97 134 173 209 254 315
#     4   8  16  32  53  74  98 135 180 217 257 315
#     4  11  22  36  55  80 110 144 178 218 271 324
#     4   8  16  32  53  75 101 134 174 218 263 312
#     4   9  18  34  55  77 101 136 180 221 265 317
#     4  10  20  32  50  77 107 137 173 218 270 317
#
# _framework density 19.008274
#
# number of rings (size 3 to 8) (size 9 to 14) (size 15 to 20)
#    0.000    2.857    0.000    3.000    2.000    3.429 
#    0.000    1.429    0.000    3.429    0.000    0.000 
#    0.000    0.000    0.000    0.000    0.000    0.000 
#
# Total GULP energy -694208.267688 kJ/mol
# GULP energy per Si atom -12396.576209 kJ/mol
# Density = 1.896501 g / cm^3
# Si number density = 19.008274 Si / 1000 Ang^3
#
#
#
# Elastic Constant Matrix: (Units=GPa)
#
#
# Indices 1 2 3 4 5 6 
#
# 1 106.0005 31.3096 42.9732 0.0000 0.0000 0.0000
# 2 31.3096 31.3986 27.6499 0.0000 0.0000 0.0000
# 3 42.9732 27.6499 85.3654 0.0000 0.0000 0.0000
# 4 0.0000 0.0000 0.0000 26.6339 0.0000 0.0000
# 5 0.0000 0.0000 0.0000 0.0000 38.5519 0.0000
# 6 0.0000 0.0000 0.0000 0.0000 0.0000 13.6116
#
#
#
# Elastic Compliance Matrix: (Units=1/GPa)
#
#
# Indices 1 2 3 4 5 6 
#
# 1 0.014106 -0.010931 -0.003561 0.000000 0.000000 0.000000
# 2 -0.010931 0.053028 -0.011673 0.000000 0.000000 0.000000
# 3 -0.003561 -0.011673 0.017288 0.000000 0.000000 0.000000
# 4 0.000000 0.000000 0.000000 0.037546 0.000000 0.000000
# 5 0.000000 0.000000 0.000000 0.000000 0.025939 0.000000
# 6 0.000000 0.000000 0.000000 0.000000 0.000000 0.073467
#
#
# Mechanical properties :
#
#
# Convention : Reuss Voigt Hill
#
# Bulk Modulus (GPa) = 31.15975 47.40334 39.28155
# Shear Modulus (GPa) = 17.58090 23.81494 20.69792
#
# Velocity S-wave (km/s) = 3.04453 3.54343 3.30341
# Velocity P-wave (km/s) = 5.36537 6.46016 5.93805
#
# Compressibility (1/GPa) = 0.03209268
#
# Stress axis : x y z
#
# Youngs Moduli (GPa) = 70.89192 18.85807 57.84444
#
# Poissons Ratio (x) = 0.20613 0.20596
# Poissons Ratio (y) = 0.77489 0.67523
# Poissons Ratio (z) = 0.25242 0.22014
#
# Static dielectric constant tensor:
#      x y z
#    x 3.862430 0.000000 0.000000 
#    y 0.000000 2.966800 0.000000 
#    z 0.000000 0.000000 3.639800 
# 
# 
# High freq. dielectric constant tensor:
#      x y z
#    x 1.751730 0.000000 0.000000 
#    y 0.000000 1.687850 0.000000 
#    z 0.000000 0.000000 1.744790 
# 
# From -- ./inp_files/20196.got.cif
#   From: 2010.03.12/outbox.cif.g09.slc.cpg/sg62_11_cif.got.tgz:20196.got - 2010.04.10 19:12:36.
