data_PCOD8252245
_publ_section_title
;
Structure prediction by ZEFSAII (Michael W. Deem and Ramdas Pophale) SiO2 
 PCOD8252245
Probable space group: P N M A
;
_chemical_formula_sum "Si O2"
_cell_formula_units_Z 40
_cell_length_a 5.051914
_cell_length_b 16.158808
_cell_length_c 31.374695
_cell_angle_alpha 90.000000
_cell_angle_beta 90.000000
_cell_angle_gamma 90.000000
_cell_volume 2561.207602
_symmetry_space_group_name_H-M "P N M A"
_symmetry_group_IT_number 62
_symmetry_cell_setting 'orthorhombic'
loop_
_space_group_symop_operation_xyz
x,y,z
1/2-x,-y,1/2+z
1/2+x,1/2-y,1/2-z
-x,1/2+y,-z
-x,-y,-z
1/2+x,y,1/2-z
1/2-x,1/2+y,1/2+z
x,1/2-y,z
loop_
_atom_site_type_symbol
_atom_site_label
_atom_site_fract_x
_atom_site_fract_y
_atom_site_fract_z
Si Si1 0.361790 0.154787 0.513987
Si Si2 0.760761 0.402309 0.079928
Si Si3 0.258259 0.154090 0.128205
Si Si4 0.749401 0.151440 0.275367
Si Si5 0.109566 0.941438 0.463461
O O1 0.418637 0.250000 0.523918
O O2 0.264707 0.143187 0.465586
O O3 0.629041 0.104532 0.520856
O O4 0.127755 0.123506 0.545999
O O5 0.551170 0.355607 0.109500
O O6 0.682095 0.499585 0.076387
O O7 0.050004 0.398139 0.100778
O O8 0.174713 0.250000 0.126896
O O9 0.257084 0.119054 0.176258
O O10 0.494453 0.116064 0.251337
O O11 0.756675 0.250000 0.275610
O O12 0.000000 0.000000 0.500000
#
# Coordination Sequence:
#
# PCOD8252245 Si02
#       5
#     8   8   8   8   8
#     4  11  20  32  48  64  83 113 153 188 217 254
#     4  11  20  31  44  63  88 112 143 187 227 253
#     4  11  20  29  44  65  85 112 151 187 217 247
#     4   9  17  29  42  57  81 111 143 178 211 248
#     4  10  20  33  45  61  86 116 143 178 227 270
#
# _framework density 15.617634000000001
#
# number of rings (size 3 to 8) (size 9 to 14) (size 15 to 20)
#    0.000    1.600    0.000    9.600    0.000    3.200 
#    0.000    0.000    0.000    0.000    0.000    0.000 
#    0.000    0.000    0.000    0.000    0.000  252.000 
#
# Total GULP energy -495978.588446 kJ/mol
# GULP energy per Si atom -12399.464711 kJ/mol
# Density = 1.558209 g / cm^3
# Si number density = 15.617634 Si / 1000 Ang^3
#
#
#
# Elastic Constant Matrix: (Units=GPa)
#
#
# Indices 1 2 3 4 5 6 
#
# 1 87.7722 24.9679 15.7596 0.0000 0.0000 0.0000
# 2 24.9679 68.8337 27.6806 0.0000 0.0000 0.0000
# 3 15.7596 27.6806 51.3226 0.0000 0.0000 0.0000
# 4 0.0000 0.0000 0.0000 10.0906 0.0000 0.0000
# 5 0.0000 0.0000 0.0000 0.0000 21.2581 0.0000
# 6 0.0000 0.0000 0.0000 0.0000 0.0000 26.0387
#
#
#
# Elastic Compliance Matrix: (Units=1/GPa)
#
#
# Indices 1 2 3 4 5 6 
#
# 1 0.012837 -0.003922 -0.001827 0.000000 0.000000 0.000000
# 2 -0.003922 0.019749 -0.009448 0.000000 0.000000 0.000000
# 3 -0.001827 -0.009448 0.025141 0.000000 0.000000 0.000000
# 4 0.000000 0.000000 0.000000 0.099102 0.000000 0.000000
# 5 0.000000 0.000000 0.000000 0.000000 0.047041 0.000000
# 6 0.000000 0.000000 0.000000 0.000000 0.000000 0.038404
#
#
# Mechanical properties :
#
#
# Convention : Reuss Voigt Hill
#
# Bulk Modulus (GPa) = 36.58254 38.30497 37.44375
# Shear Modulus (GPa) = 17.74448 20.77886 19.26167
#
# Velocity S-wave (km/s) = 3.37439 3.65152 3.51569
# Velocity P-wave (km/s) = 6.21745 6.50831 6.36454
#
# Compressibility (1/GPa) = 0.02733544
#
# Stress axis : x y z
#
# Youngs Moduli (GPa) = 77.90187 50.63427 39.77574
#
# Poissons Ratio (x) = 0.19857 0.07265
# Poissons Ratio (y) = 0.30551 0.37578
# Poissons Ratio (z) = 0.14230 0.47837
#
# Static dielectric constant tensor:
#      x y z
#    x 3.287780 0.000000 0.000000 
#    y 0.000000 3.045530 0.000000 
#    z 0.000000 0.000000 2.939920 
# 
# 
# High freq. dielectric constant tensor:
#      x y z
#    x 1.629170 0.000000 0.000000 
#    y 0.000000 1.564770 0.000000 
#    z 0.000000 0.000000 1.569500 
# 
# From -- ./inp_files/30324.got.cif
#   From: 2010.03.12/outbox.cif.g09.slc.cpg/sg62_16_cif.got.tgz:30324.got - 2010.04.10 19:12:36.
