data_PCOD8252883
_publ_section_title
;
Structure prediction by ZEFSAII (Michael W. Deem and Ramdas Pophale) SiO2 
 PCOD8252883
Probable space group: P N M A
;
_chemical_formula_sum "Si O2"
_cell_formula_units_Z 48
_cell_length_a 23.185694
_cell_length_b 8.973565
_cell_length_c 11.520231
_cell_angle_alpha 90.000000
_cell_angle_beta 90.000000
_cell_angle_gamma 90.000000
_cell_volume 2396.880048
_symmetry_space_group_name_H-M "P N M A"
_symmetry_group_IT_number 62
_symmetry_cell_setting 'orthorhombic'
loop_
_space_group_symop_operation_xyz
x,y,z
1/2-x,-y,1/2+z
1/2+x,1/2-y,1/2-z
-x,1/2+y,-z
-x,-y,-z
1/2+x,y,1/2-z
1/2-x,1/2+y,1/2+z
x,1/2-y,z
loop_
_atom_site_type_symbol
_atom_site_label
_atom_site_fract_x
_atom_site_fract_y
_atom_site_fract_z
Si Si1 0.436432 0.927643 0.997909
Si Si2 0.056055 0.079548 0.039991
Si Si3 0.226297 0.918679 0.126758
Si Si4 0.873833 0.925878 0.741422
Si Si5 0.354179 0.413714 0.412570
Si Si6 0.842285 0.078181 0.353167
O O1 0.443253 0.750000 0.007631
O O2 0.399676 0.991526 0.105340
O O3 0.400151 0.972282 0.882615
O O4 0.500000 0.000000 0.000000
O O5 0.041390 0.250000 0.048054
O O6 0.078731 0.021393 0.164315
O O7 0.102715 0.046943 0.941415
O O8 0.000000 0.000000 0.000000
O O9 0.239196 0.750000 0.167590
O O10 0.198626 0.921247 0.000162
O O11 0.186525 0.993444 0.227239
O O12 0.284683 0.005752 0.097043
O O13 0.862189 0.750000 0.749315
O O14 0.384198 0.250000 0.423141
O O15 0.333055 0.439805 0.283442
O O16 0.847608 0.250000 0.391827
#
# Coordination Sequence:
#
# PCOD8252883 Si02
#       6
#     8   8   8   8   8   8
#     4  11  25  44  64  90 125 167 213 256 308 370
#     4  10  20  35  59  88 116 151 194 243 298 353
#     4  10  21  39  64  94 121 154 202 253 304 366
#     4   9  21  41  62  85 121 162 198 247 307 363
#     4   9  21  40  59  83 119 156 195 244 301 357
#     4  11  24  41  63  90 124 164 201 250 310 365
#
# _framework density 20.026033999999999
#
# number of rings (size 3 to 8) (size 9 to 14) (size 15 to 20)
#    0.000    2.000    0.000    2.000    4.667    4.000 
#    0.000    0.000    0.000    0.000    0.000    0.000 
#    0.000    0.000    0.000    0.000    0.000    0.000 
#
# Total GULP energy -595056.239087 kJ/mol
# GULP energy per Si atom -12397.004981 kJ/mol
# Density = 1.998045 g / cm^3
# Si number density = 20.026034 Si / 1000 Ang^3
#
#
#
# Elastic Constant Matrix: (Units=GPa)
#
#
# Indices 1 2 3 4 5 6 
#
# 1 119.9032 51.8225 39.7846 0.0000 0.0000 0.0000
# 2 51.8225 85.2984 37.8119 0.0000 0.0000 0.0000
# 3 39.7846 37.8119 85.6239 0.0000 0.0000 0.0000
# 4 0.0000 0.0000 0.0000 29.5834 0.0000 0.0000
# 5 0.0000 0.0000 0.0000 0.0000 22.4388 0.0000
# 6 0.0000 0.0000 0.0000 0.0000 0.0000 43.9791
#
#
#
# Elastic Compliance Matrix: (Units=1/GPa)
#
#
# Indices 1 2 3 4 5 6 
#
# 1 0.011860 -0.005922 -0.002896 0.000000 0.000000 0.000000
# 2 -0.005922 0.017534 -0.004991 0.000000 0.000000 0.000000
# 3 -0.002896 -0.004991 0.015229 0.000000 0.000000 0.000000
# 4 0.000000 0.000000 0.000000 0.033803 0.000000 0.000000
# 5 0.000000 0.000000 0.000000 0.000000 0.044566 0.000000
# 6 0.000000 0.000000 0.000000 0.000000 0.000000 0.022738
#
#
# Mechanical properties :
#
#
# Convention : Reuss Voigt Hill
#
# Bulk Modulus (GPa) = 58.80696 61.07370 59.94033
# Shear Modulus (GPa) = 27.93039 29.96069 28.94554
#
# Velocity S-wave (km/s) = 3.73862 3.87212 3.80596
# Velocity P-wave (km/s) = 6.93292 7.11017 7.02211
#
# Compressibility (1/GPa) = 0.01700479
#
# Stress axis : x y z
#
# Youngs Moduli (GPa) = 84.31417 57.03150 65.66554
#
# Poissons Ratio (x) = 0.33775 0.19014
# Poissons Ratio (y) = 0.49932 0.32777
# Poissons Ratio (z) = 0.24414 0.28467
#
# Static dielectric constant tensor:
#      x y z
#    x 6.816010 0.000000 0.000000 
#    y 0.000000 3.887530 0.000000 
#    z 0.000000 0.000000 3.704830 
# 
# 
# High freq. dielectric constant tensor:
#      x y z
#    x 1.784470 0.000000 0.000000 
#    y 0.000000 1.789740 0.000000 
#    z 0.000000 0.000000 1.783350 
# 
# From -- ./inp_files/15157.got.cif
#   From: 2010.03.12/outbox.cif.g09.slc.cpg/sg62_8_cif.got.tgz:15157.got - 2010.04.10 19:12:36.
