data_PCOD8252985
_publ_section_title
;
Structure prediction by ZEFSAII (Michael W. Deem and Ramdas Pophale) SiO2 
 PCOD8252985
Probable space group: P N M A
;
_chemical_formula_sum "Si O2"
_cell_formula_units_Z 48
_cell_length_a 30.657080
_cell_length_b 8.683538
_cell_length_c 9.315153
_cell_angle_alpha 90.000000
_cell_angle_beta 90.000000
_cell_angle_gamma 90.000000
_cell_volume 2479.804757
_symmetry_space_group_name_H-M "P N M A"
_symmetry_group_IT_number 62
_symmetry_cell_setting 'orthorhombic'
loop_
_space_group_symop_operation_xyz
x,y,z
1/2-x,-y,1/2+z
1/2+x,1/2-y,1/2-z
-x,1/2+y,-z
-x,-y,-z
1/2+x,y,1/2-z
1/2-x,1/2+y,1/2+z
x,1/2-y,z
loop_
_atom_site_type_symbol
_atom_site_label
_atom_site_fract_x
_atom_site_fract_y
_atom_site_fract_z
Si Si1 0.870399 0.431629 0.413382
Si Si2 0.539190 0.430958 0.911844
Si Si3 0.964528 0.429433 0.103300
Si Si4 0.290668 0.069841 0.605879
Si Si5 0.133424 0.927948 0.907417
Si Si6 0.706819 0.428194 0.086040
O O1 0.877437 0.250000 0.405622
O O2 0.915115 0.504558 0.472078
O O3 0.860363 0.498231 0.253054
O O4 0.832352 0.471831 0.522847
O O5 0.539102 0.250000 0.928691
O O6 0.532038 0.477507 0.748692
O O7 0.500000 0.500000 0.000000
O O8 0.973819 0.250000 0.131551
O O9 0.916056 0.452878 0.037373
O O10 0.000000 0.500000 0.000000
O O11 0.295849 0.250000 0.642541
O O12 0.333035 0.000466 0.522629
O O13 0.249692 0.037020 0.505019
O O14 0.284103 0.975876 0.751116
O O15 0.145786 0.750000 0.895906
O O16 0.693858 0.250000 0.079046
#
# Coordination Sequence:
#
# PCOD8252985 Si02
#       6
#     8   8   8   8   8   8
#     4  10  20  38  61  83 112 150 188 231 286 341
#     4  11  22  38  59  85 116 151 193 239 288 342
#     4  10  20  36  57  83 115 153 196 240 288 340
#     4  10  21  38  58  80 110 148 188 231 281 335
#     4   8  17  35  58  80 105 143 189 232 276 331
#     4  11  23  37  56  85 115 145 187 235 282 337
#
# _framework density 19.356363000000002
#
# number of rings (size 3 to 8) (size 9 to 14) (size 15 to 20)
#    0.000    2.000    0.000    5.000    0.000    4.000 
#    0.000   10.000    0.000    0.000    0.000    0.000 
#    0.000    0.000    0.000    0.000    0.000    0.000 
#
# Total GULP energy -595252.664354 kJ/mol
# GULP energy per Si atom -12401.097174 kJ/mol
# Density = 1.931231 g / cm^3
# Si number density = 19.356363 Si / 1000 Ang^3
#
#
#
# Elastic Constant Matrix: (Units=GPa)
#
#
# Indices 1 2 3 4 5 6 
#
# 1 132.7871 45.9557 59.8553 0.0000 0.0000 0.0000
# 2 45.9557 93.0904 32.2609 0.0000 0.0000 0.0000
# 3 59.8553 32.2609 95.0475 0.0000 0.0000 0.0000
# 4 0.0000 0.0000 0.0000 31.2048 0.0000 0.0000
# 5 0.0000 0.0000 0.0000 0.0000 43.2263 0.0000
# 6 0.0000 0.0000 0.0000 0.0000 0.0000 29.9886
#
#
#
# Elastic Compliance Matrix: (Units=1/GPa)
#
#
# Indices 1 2 3 4 5 6 
#
# 1 0.011482 -0.003584 -0.006014 0.000000 0.000000 0.000000
# 2 -0.003584 0.013293 -0.002255 0.000000 0.000000 0.000000
# 3 -0.006014 -0.002255 0.015074 0.000000 0.000000 0.000000
# 4 0.000000 0.000000 0.000000 0.032046 0.000000 0.000000
# 5 0.000000 0.000000 0.000000 0.000000 0.023134 0.000000
# 6 0.000000 0.000000 0.000000 0.000000 0.000000 0.033346
#
#
# Mechanical properties :
#
#
# Convention : Reuss Voigt Hill
#
# Bulk Modulus (GPa) = 61.94798 66.34098 64.14448
# Shear Modulus (GPa) = 31.75349 33.07417 32.41383
#
# Velocity S-wave (km/s) = 4.05466 4.13812 4.09661
# Velocity P-wave (km/s) = 7.34805 7.56174 7.45566
#
# Compressibility (1/GPa) = 0.01614258
#
# Stress axis : x y z
#
# Youngs Moduli (GPa) = 87.09048 75.22738 66.34001
#
# Poissons Ratio (x) = 0.26963 0.39899
# Poissons Ratio (y) = 0.31214 0.14958
# Poissons Ratio (z) = 0.52379 0.16962
#
# Static dielectric constant tensor:
#      x y z
#    x -0.250840 0.000000 0.000000 
#    y 0.000000 3.456610 0.000000 
#    z 0.000000 0.000000 3.491210 
# 
# 
# High freq. dielectric constant tensor:
#      x y z
#    x 1.769430 0.000000 0.000000 
#    y 0.000000 1.746360 0.000000 
#    z 0.000000 0.000000 1.751590 
# 
# From -- ./inp_files/10282.got.cif
#   From: 2010.03.12/outbox.cif.g09.slc.cpg/sg62_6_cif.got.tgz:10282.got - 2010.04.10 19:12:36.
