data_PCOD8252117
_publ_section_title
;
Structure prediction by ZEFSAII (Michael W. Deem and Ramdas Pophale) SiO2 
 PCOD8252117
Probable space group: P N M A
;
_chemical_formula_sum "Si O2"
_cell_formula_units_Z 48
_cell_length_a 5.252796
_cell_length_b 14.672381
_cell_length_c 27.006945
_cell_angle_alpha 90.000000
_cell_angle_beta 90.000000
_cell_angle_gamma 90.000000
_cell_volume 2081.452912
_symmetry_space_group_name_H-M "P N M A"
_symmetry_group_IT_number 62
_symmetry_cell_setting 'orthorhombic'
loop_
_space_group_symop_operation_xyz
x,y,z
1/2-x,-y,1/2+z
1/2+x,1/2-y,1/2-z
-x,1/2+y,-z
-x,-y,-z
1/2+x,y,1/2-z
1/2-x,1/2+y,1/2+z
x,1/2-y,z
loop_
_atom_site_type_symbol
_atom_site_label
_atom_site_fract_x
_atom_site_fract_y
_atom_site_fract_z
Si Si1 0.916231 0.250000 0.060833
Si Si2 0.084447 0.750000 0.623240
Si Si3 0.329355 0.250000 0.616005
Si Si4 0.051766 0.943093 0.634576
Si Si5 0.673821 0.750000 0.179185
Si Si6 0.276185 0.562794 0.966180
Si Si7 0.843395 0.052653 0.720233
Si Si8 0.156004 0.559996 0.070012
O O1 0.707821 0.250000 0.104993
O O2 0.885799 0.157304 0.029185
O O3 0.204048 0.250000 0.080719
O O4 0.123520 0.843008 0.656334
O O5 0.540245 0.250000 0.658832
O O6 0.373955 0.334737 0.580861
O O7 0.043175 0.250000 0.637406
O O8 0.976058 0.921748 0.577502
O O9 0.849624 0.996076 0.668744
O O10 0.284836 0.011633 0.623201
O O11 0.641771 0.839259 0.212721
O O12 0.107791 0.476563 0.950533
O O13 0.366470 0.546917 0.024351
O O14 0.088057 0.022325 0.752047
#
# Coordination Sequence:
#
# PCOD8252117 Si02
#       8
#     4   4   4   8   4   8   8   8
#     4  10  19  38  58  91 128 165 223 257 316 395
#     4  10  22  38  67  91 119 173 210 264 332 396
#     4  12  25  41  68 104 137 191 216 289 328 410
#     4  11  23  43  67  93 135 173 229 280 348 404
#     4  12  24  47  71  96 144 175 229 270 354 403
#     4  10  22  38  64  95 134 182 223 279 330 412
#     4  12  27  45  73 102 131 175 229 286 343 409
#     4  11  22  39  62  96 137 179 229 270 337 405
#
# _framework density 23.060814000000001
#
# number of rings (size 3 to 8) (size 9 to 14) (size 15 to 20)
#    0.000    1.000    3.333    3.500    2.333    0.000 
#    0.000    2.500    0.000    0.000    0.000    0.000 
#    0.000    0.000    0.000    0.000    0.000    0.000 
#
# Total GULP energy -594777.341319 kJ/mol
# GULP energy per Si atom -12391.194611 kJ/mol
# Density = 2.300833 g / cm^3
# Si number density = 23.060814 Si / 1000 Ang^3
#
#
#
# Elastic Constant Matrix: (Units=GPa)
#
#
# Indices 1 2 3 4 5 6 
#
# 1 69.0265 1.7025 21.6754 0.0000 0.0000 0.0000
# 2 1.7025 155.8543 29.1841 0.0000 0.0000 0.0000
# 3 21.6754 29.1841 72.8015 0.0000 0.0000 0.0000
# 4 0.0000 0.0000 0.0000 -85.5499 0.0000 0.0000
# 5 0.0000 0.0000 0.0000 0.0000 39.0455 0.0000
# 6 0.0000 0.0000 0.0000 0.0000 0.0000 26.6189
#
#
#
# Elastic Compliance Matrix: (Units=1/GPa)
#
#
# Indices 1 2 3 4 5 6 
#
# 1 0.016068 0.000779 -0.005096 0.000000 0.000000 0.000000
# 2 0.000779 0.006975 -0.003028 0.000000 0.000000 0.000000
# 3 -0.005096 -0.003028 0.016467 0.000000 0.000000 0.000000
# 4 0.000000 0.000000 0.000000 -0.011689 0.000000 0.000000
# 5 0.000000 0.000000 0.000000 0.000000 0.025611 0.000000
# 6 0.000000 0.000000 0.000000 0.000000 0.000000 0.037567
#
#
# Mechanical properties :
#
#
# Convention : Reuss Voigt Hill
#
# Bulk Modulus (GPa) = 40.29098 44.75625 42.52361
# Shear Modulus (GPa) = 43.87384 12.36426 28.11905
#
# Velocity S-wave (km/s) = 4.36653 2.31802 3.49570
# Velocity P-wave (km/s) = 6.55223 5.15891 5.89686
#
# Compressibility (1/GPa) = 0.02481945
#
# Stress axis : x y z
#
# Youngs Moduli (GPa) = 62.23440 143.37512 60.72723
#
# Poissons Ratio (x) = -0.11166 0.30948
# Poissons Ratio (y) = -0.04847 0.18387
# Poissons Ratio (z) = 0.31716 0.43412
#
# Static dielectric constant tensor:
#      x y z
#    x 4.007900 0.000000 0.000000 
#    y 0.000000 4.989430 0.000000 
#    z 0.000000 0.000000 4.077180 
# 
# 
# High freq. dielectric constant tensor:
#      x y z
#    x 1.902830 0.000000 0.000000 
#    y 0.000000 1.940170 0.000000 
#    z 0.000000 0.000000 1.889320 
# 
# From -- ./inp_files/30444.got.cif
#   From: 2010.03.12/outbox.cif.g09.slc.cpg/sg62_16_cif.got.tgz:30444.got - 2010.04.10 19:12:36.
