data_PCOD8252536
_publ_section_title
;
Structure prediction by ZEFSAII (Michael W. Deem and Ramdas Pophale) SiO2 
 PCOD8252536
Probable space group: P N M A
;
_chemical_formula_sum "Si O2"
_cell_formula_units_Z 48
_cell_length_a 21.476699
_cell_length_b 10.319119
_cell_length_c 10.353767
_cell_angle_alpha 90.000000
_cell_angle_beta 90.000000
_cell_angle_gamma 90.000000
_cell_volume 2294.608186
_symmetry_space_group_name_H-M "P N M A"
_symmetry_group_IT_number 62
_symmetry_cell_setting 'orthorhombic'
loop_
_space_group_symop_operation_xyz
x,y,z
1/2-x,-y,1/2+z
1/2+x,1/2-y,1/2-z
-x,1/2+y,-z
-x,-y,-z
1/2+x,y,1/2-z
1/2-x,1/2+y,1/2+z
x,1/2-y,z
loop_
_atom_site_type_symbol
_atom_site_label
_atom_site_fract_x
_atom_site_fract_y
_atom_site_fract_z
Si Si1 0.652037 0.103276 0.576269
Si Si2 0.999897 0.389003 0.371477
Si Si3 0.367357 0.396572 0.215511
Si Si4 0.788255 0.402023 0.517592
Si Si5 0.451105 0.536110 0.610284
Si Si6 0.909496 0.102107 0.656376
O O1 0.656747 0.250000 0.632480
O O2 0.719875 0.041064 0.545042
O O3 0.608033 0.109256 0.451204
O O4 0.621056 0.003960 0.676114
O O5 0.021514 0.250000 0.432992
O O6 0.925383 0.402145 0.383600
O O7 0.961549 0.484316 0.576114
O O8 0.014811 0.375562 0.216829
O O9 0.359716 0.250000 0.272279
O O10 0.307916 0.437344 0.128846
O O11 0.782763 0.250000 0.531266
O O12 0.840272 0.450381 0.620931
O O13 0.500000 0.500000 0.500000
O O14 0.422588 0.412329 0.689909
O O15 0.918707 0.250000 0.613137
#
# Coordination Sequence:
#
# PCOD8252536 Si02
#       6
#     8   8   8   8   8   8
#     4  11  22  38  60  84 115 153 192 237 289 344
#     4   9  19  34  54  84 115 147 187 235 287 335
#     4  10  21  38  59  85 116 150 191 239 291 342
#     4   9  21  40  59  81 117 157 190 233 291 345
#     4  10  20  34  55  88 111 144 186 239 284 333
#     4   9  20  37  58  83 112 152 194 231 282 343
#
# _framework density 20.918603999999998
#
# number of rings (size 3 to 8) (size 9 to 14) (size 15 to 20)
#    1.000    1.333    1.667    0.500    2.333    4.667 
#    0.000    2.500    0.000    0.000    0.000    0.000 
#    0.000    0.000    0.000    0.000    0.000    0.000 
#
# Total GULP energy -594662.978119 kJ/mol
# GULP energy per Si atom -12388.812044 kJ/mol
# Density = 2.087099 g / cm^3
# Si number density = 20.918604 Si / 1000 Ang^3
#
#
#
# Elastic Constant Matrix: (Units=GPa)
#
#
# Indices 1 2 3 4 5 6 
#
# 1 115.4439 27.7745 14.8064 0.0000 0.0000 0.0000
# 2 27.7745 110.1395 9.7011 0.0000 0.0000 0.0000
# 3 14.8064 9.7011 47.4245 0.0000 0.0000 0.0000
# 4 0.0000 0.0000 0.0000 18.0261 0.0000 0.0000
# 5 0.0000 0.0000 0.0000 0.0000 32.0157 0.0000
# 6 0.0000 0.0000 0.0000 0.0000 0.0000 27.0320
#
#
#
# Elastic Compliance Matrix: (Units=1/GPa)
#
#
# Indices 1 2 3 4 5 6 
#
# 1 0.009509 -0.002176 -0.002524 0.000000 0.000000 0.000000
# 2 -0.002176 0.009744 -0.001314 0.000000 0.000000 0.000000
# 3 -0.002524 -0.001314 0.022143 0.000000 0.000000 0.000000
# 4 0.000000 0.000000 0.000000 0.055475 0.000000 0.000000
# 5 0.000000 0.000000 0.000000 0.000000 0.031235 0.000000
# 6 0.000000 0.000000 0.000000 0.000000 0.000000 0.036993
#
#
# Mechanical properties :
#
#
# Convention : Reuss Voigt Hill
#
# Bulk Modulus (GPa) = 34.04940 41.95242 38.00091
# Shear Modulus (GPa) = 26.75004 30.12983 28.43993
#
# Velocity S-wave (km/s) = 3.57987 3.79929 3.69121
# Velocity P-wave (km/s) = 5.77925 6.27254 6.03094
#
# Compressibility (1/GPa) = 0.02936910
#
# Stress axis : x y z
#
# Youngs Moduli (GPa) = 105.15939 102.62946 45.16124
#
# Poissons Ratio (x) = 0.22329 0.11398
# Poissons Ratio (y) = 0.22880 0.05934
# Poissons Ratio (z) = 0.26541 0.13484
#
# Static dielectric constant tensor:
#      x y z
#    x 4.127940 0.000000 0.000000 
#    y 0.000000 3.478330 0.000000 
#    z 0.000000 0.000000 3.615230 
# 
# 
# High freq. dielectric constant tensor:
#      x y z
#    x 1.828280 0.000000 0.000000 
#    y 0.000000 1.798190 0.000000 
#    z 0.000000 0.000000 1.819430 
# 
# From -- ./inp_files/9302.got.cif
#   From: 2010.03.12/outbox.cif.g09.slc.cpg/sg62_5_cif.got.tgz:9302.got - 2010.04.10 19:12:36.
