data_PCOD8252726
_publ_section_title
;
Structure prediction by ZEFSAII (Michael W. Deem and Ramdas Pophale) SiO2 
 PCOD8252726
Probable space group: P N M A
;
_chemical_formula_sum "Si O2"
_cell_formula_units_Z 64
_cell_length_a 14.155024
_cell_length_b 9.287600
_cell_length_c 24.610025
_cell_angle_alpha 90.000000
_cell_angle_beta 90.000000
_cell_angle_gamma 90.000000
_cell_volume 3235.386491
_symmetry_space_group_name_H-M "P N M A"
_symmetry_group_IT_number 62
_symmetry_cell_setting 'orthorhombic'
loop_
_space_group_symop_operation_xyz
x,y,z
1/2-x,-y,1/2+z
1/2+x,1/2-y,1/2-z
-x,1/2+y,-z
-x,-y,-z
1/2+x,y,1/2-z
1/2-x,1/2+y,1/2+z
x,1/2-y,z
loop_
_atom_site_type_symbol
_atom_site_label
_atom_site_fract_x
_atom_site_fract_y
_atom_site_fract_z
Si Si1 0.277861 0.919757 0.693083
Si Si2 0.974584 0.412221 0.947053
Si Si3 0.765227 0.080248 0.591170
Si Si4 0.528690 0.582913 0.053865
Si Si5 0.220299 0.590889 0.007557
Si Si6 0.514714 0.084220 0.340710
Si Si7 0.658588 0.085539 0.894667
Si Si8 0.311092 0.083524 0.305548
O O1 0.269450 0.750000 0.688256
O O2 0.387708 0.968768 0.687324
O O3 0.237672 0.973509 0.750640
O O4 0.211179 0.982597 0.646759
O O5 0.016532 0.250000 0.948462
O O6 0.861321 0.410155 0.946900
O O7 0.010924 0.490789 0.893383
O O8 0.000000 0.500000 0.000000
O O9 0.753462 0.250000 0.595893
O O10 0.871608 0.029908 0.577913
O O11 0.701350 0.022533 0.540948
O O12 0.732108 0.010450 0.646697
O O13 0.533649 0.750000 0.037945
O O14 0.453879 0.557078 0.103162
O O15 0.500000 0.500000 0.000000
O O16 0.228322 0.750000 0.980910
O O17 0.312095 0.551898 0.042810
O O18 0.525113 0.250000 0.358947
O O19 0.425132 0.063841 0.300576
O O20 0.682537 0.250000 0.878822
O O21 0.286115 0.250000 0.316311
#
# Coordination Sequence:
#
# PCOD8252726 Si02
#       8
#     8   8   8   8   8   8   8   8
#     4  10  22  40  63  88 114 150 199 247 285 336
#     4  11  22  35  54  84 117 152 193 235 287 346
#     4  11  23  37  57  88 120 152 196 246 289 340
#     4  10  21  36  56  84 119 156 194 236 289 348
#     4  10  20  35  56  81 114 154 190 230 288 352
#     4  10  21  39  61  85 116 151 191 238 288 344
#     4  10  20  37  59  84 115 152 192 236 290 347
#     4  10  23  42  61  84 117 157 194 235 294 352
#
# _framework density 19.781254000000001
#
# number of rings (size 3 to 8) (size 9 to 14) (size 15 to 20)
#    0.000    1.750    2.500    1.500    0.000    7.500 
#    0.000    1.250    0.000    0.000    0.000    0.000 
#    0.000    0.000    0.000    0.000    0.000    0.000 
#
# Total GULP energy -793532.364174 kJ/mol
# GULP energy per Si atom -12398.943190 kJ/mol
# Density = 1.973623 g / cm^3
# Si number density = 19.781254 Si / 1000 Ang^3
#
#
#
# Elastic Constant Matrix: (Units=GPa)
#
#
# Indices 1 2 3 4 5 6 
#
# 1 89.9784 29.6014 47.3652 0.0000 0.0000 0.0000
# 2 29.6014 69.7848 47.3920 0.0000 0.0000 0.0000
# 3 47.3652 47.3920 112.8195 0.0000 0.0000 0.0000
# 4 0.0000 0.0000 0.0000 33.4554 0.0000 0.0000
# 5 0.0000 0.0000 0.0000 0.0000 30.8821 0.0000
# 6 0.0000 0.0000 0.0000 0.0000 0.0000 27.1304
#
#
#
# Elastic Compliance Matrix: (Units=1/GPa)
#
#
# Indices 1 2 3 4 5 6 
#
# 1 0.014662 -0.002853 -0.004957 0.000000 0.000000 0.000000
# 2 -0.002853 0.020604 -0.007458 0.000000 0.000000 0.000000
# 3 -0.004957 -0.007458 0.014078 0.000000 0.000000 0.000000
# 4 0.000000 0.000000 0.000000 0.029891 0.000000 0.000000
# 5 0.000000 0.000000 0.000000 0.000000 0.032381 0.000000
# 6 0.000000 0.000000 0.000000 0.000000 0.000000 0.036859
#
#
# Mechanical properties :
#
#
# Convention : Reuss Voigt Hill
#
# Bulk Modulus (GPa) = 53.16665 57.92220 55.54443
# Shear Modulus (GPa) = 26.98631 28.17518 27.58075
#
# Velocity S-wave (km/s) = 3.69756 3.77813 3.73807
# Velocity P-wave (km/s) = 6.72049 6.95538 6.83894
#
# Compressibility (1/GPa) = 0.01880878
#
# Stress axis : x y z
#
# Youngs Moduli (GPa) = 68.20472 48.53324 71.03496
#
# Poissons Ratio (x) = 0.13845 0.35213
# Poissons Ratio (y) = 0.19457 0.52975
# Poissons Ratio (z) = 0.33810 0.36194
#
# Static dielectric constant tensor:
#      x y z
#    x 4.079180 0.000000 0.000000 
#    y 0.000000 3.560810 0.000000 
#    z 0.000000 0.000000 3.410140 
# 
# 
# High freq. dielectric constant tensor:
#      x y z
#    x 1.792460 0.000000 0.000000 
#    y 0.000000 1.767670 0.000000 
#    z 0.000000 0.000000 1.751880 
# 
# From -- ./inp_files/29772.got.cif
#   From: 2010.03.12/outbox.cif.g09.slc.cpg/sg62_15_cif.got.tgz:29772.got - 2010.04.10 19:12:36.
