data_PCOD8252416
_publ_section_title
;
Structure prediction by ZEFSAII (Michael W. Deem and Ramdas Pophale) SiO2 
 PCOD8252416
Probable space group: P N M A
;
_chemical_formula_sum "Si O2"
_cell_formula_units_Z 40
_cell_length_a 7.608860
_cell_length_b 16.744604
_cell_length_c 15.228828
_cell_angle_alpha 90.000000
_cell_angle_beta 90.000000
_cell_angle_gamma 90.000000
_cell_volume 1940.264582
_symmetry_space_group_name_H-M "P N M A"
_symmetry_group_IT_number 62
_symmetry_cell_setting 'orthorhombic'
loop_
_space_group_symop_operation_xyz
x,y,z
1/2-x,-y,1/2+z
1/2+x,1/2-y,1/2-z
-x,1/2+y,-z
-x,-y,-z
1/2+x,y,1/2-z
1/2-x,1/2+y,1/2+z
x,1/2-y,z
loop_
_atom_site_type_symbol
_atom_site_label
_atom_site_fract_x
_atom_site_fract_y
_atom_site_fract_z
Si Si1 0.260976 0.158516 0.463835
Si Si2 0.355310 0.158351 0.014536
Si Si3 0.048497 0.448428 0.083241
Si Si4 0.543383 0.839868 0.171432
Si Si5 0.184511 0.600576 0.152246
O O1 0.281499 0.250000 0.436563
O O2 0.377628 0.106415 0.394456
O O3 0.351972 0.144478 0.559305
O O4 0.056744 0.132756 0.462907
O O5 0.323529 0.250000 0.041701
O O6 0.222079 0.104443 0.068701
O O7 0.320804 0.146013 0.909523
O O8 0.095146 0.512806 0.159153
O O9 0.000000 0.500000 0.000000
O O10 0.464758 0.750000 0.158782
O O11 0.629274 0.844631 0.266362
O O12 0.394190 0.906950 0.161903
#
# Coordination Sequence:
#
# PCOD8252416 Si02
#       5
#     8   8   8   8   8
#     4   9  18  34  55  78 104 136 181 226 267 319
#     4   9  19  36  57  80 106 143 185 227 272 324
#     4  10  21  33  50  80 113 145 177 223 273 322
#     4  10  20  34  53  77 111 148 180 215 265 329
#     4  10  21  33  48  80 114 142 177 216 269 325
#
# _framework density 20.615743999999999
#
# number of rings (size 3 to 8) (size 9 to 14) (size 15 to 20)
#    0.000    2.400    0.000    3.600    5.600    7.200 
#    0.000    0.000    0.000    0.000    0.000    5.600 
#    0.000    0.000    0.000    0.000    0.000    0.000 
#
# Total GULP energy -495576.770944 kJ/mol
# GULP energy per Si atom -12389.419274 kJ/mol
# Density = 2.056882 g / cm^3
# Si number density = 20.615744 Si / 1000 Ang^3
#
#
#
# Elastic Constant Matrix: (Units=GPa)
#
#
# Indices 1 2 3 4 5 6 
#
# 1 82.0181 42.8494 5.7019 0.0000 0.0000 0.0000
# 2 42.8494 85.6062 9.5264 0.0000 0.0000 0.0000
# 3 5.7019 9.5264 23.7921 0.0000 0.0000 0.0000
# 4 0.0000 0.0000 0.0000 24.1709 0.0000 0.0000
# 5 0.0000 0.0000 0.0000 0.0000 19.0494 0.0000
# 6 0.0000 0.0000 0.0000 0.0000 0.0000 45.2659
#
#
#
# Elastic Compliance Matrix: (Units=1/GPa)
#
#
# Indices 1 2 3 4 5 6 
#
# 1 0.016520 -0.008194 -0.000678 0.000000 0.000000 0.000000
# 2 -0.008194 0.016290 -0.004559 0.000000 0.000000 0.000000
# 3 -0.000678 -0.004559 0.044019 0.000000 0.000000 0.000000
# 4 0.000000 0.000000 0.000000 0.041372 0.000000 0.000000
# 5 0.000000 0.000000 0.000000 0.000000 0.052495 0.000000
# 6 0.000000 0.000000 0.000000 0.000000 0.000000 0.022092
#
#
# Mechanical properties :
#
#
# Convention : Reuss Voigt Hill
#
# Bulk Modulus (GPa) = 20.01314 34.17465 27.09390
# Shear Modulus (GPa) = 21.15905 26.58646 23.87276
#
# Velocity S-wave (km/s) = 3.20715 3.59502 3.40661
# Velocity P-wave (km/s) = 4.84182 5.81766 5.35203
#
# Compressibility (1/GPa) = 0.04996716
#
# Stress axis : x y z
#
# Youngs Moduli (GPa) = 60.53188 61.38762 22.71755
#
# Poissons Ratio (x) = 0.50298 0.01541
# Poissons Ratio (y) = 0.49597 0.10357
# Poissons Ratio (z) = 0.04107 0.27986
#
# Static dielectric constant tensor:
#      x y z
#    x 3.871430 0.000000 0.000000 
#    y 0.000000 3.959510 0.000000 
#    z 0.000000 0.000000 3.429510 
# 
# 
# High freq. dielectric constant tensor:
#      x y z
#    x 1.811210 0.000000 0.000000 
#    y 0.000000 1.808590 0.000000 
#    z 0.000000 0.000000 1.750560 
# 
# From -- ./inp_files/16647.got.cif
#   From: 2010.03.12/outbox.cif.g09.slc.cpg/sg62_9_cif.got.tgz:16647.got - 2010.04.10 19:12:36.
