data_PCOD8252135
_publ_section_title
;
Structure prediction by ZEFSAII (Michael W. Deem and Ramdas Pophale) SiO2 
 PCOD8252135
Probable space group: P N M A
;
_chemical_formula_sum "Si O2"
_cell_formula_units_Z 40
_cell_length_a 11.712796
_cell_length_b 13.791066
_cell_length_c 13.204680
_cell_angle_alpha 90.000000
_cell_angle_beta 90.000000
_cell_angle_gamma 90.000000
_cell_volume 2132.977613
_symmetry_space_group_name_H-M "P N M A"
_symmetry_group_IT_number 62
_symmetry_cell_setting 'orthorhombic'
loop_
_space_group_symop_operation_xyz
x,y,z
1/2-x,-y,1/2+z
1/2+x,1/2-y,1/2-z
-x,1/2+y,-z
-x,-y,-z
1/2+x,y,1/2-z
1/2-x,1/2+y,1/2+z
x,1/2-y,z
loop_
_atom_site_type_symbol
_atom_site_label
_atom_site_fract_x
_atom_site_fract_y
_atom_site_fract_z
Si Si1 0.197317 0.250000 0.356831
Si Si2 0.084622 0.750000 0.370754
Si Si3 0.553010 0.750000 0.629063
Si Si4 0.485408 0.750000 0.415676
Si Si5 0.635080 0.387326 0.308010
Si Si6 0.757981 0.750000 0.960268
Si Si7 0.816168 0.750000 0.403404
Si Si8 0.637983 0.884038 0.301712
O O1 0.326895 0.250000 0.317613
O O2 0.147131 0.152653 0.306368
O O3 0.179081 0.250000 0.475489
O O4 0.134568 0.750000 0.485575
O O5 0.134365 0.654502 0.313912
O O6 0.947429 0.750000 0.368140
O O7 0.573178 0.750000 0.509102
O O8 0.487697 0.849209 0.655953
O O9 0.354181 0.750000 0.450537
O O10 0.519600 0.845694 0.351763
O O11 0.727982 0.344251 0.387901
O O12 0.642044 0.501520 0.306194
O O13 0.750357 0.844181 0.359807
#
# Coordination Sequence:
#
# PCOD8252135 Si02
#       8
#     4   4   4   4   8   4   4   8
#     4  10  19  39  55  80 120 154 184 230 293 348
#     4  10  23  38  59  81 120 157 187 234 295 341
#     4   9  17  36  55  81 108 157 182 232 293 328
#     4   8  17  35  57  75 109 141 183 239 282 330
#     4   9  22  36  57  88 114 146 201 239 282 337
#     4   9  20  38  58  81 114 150 189 235 298 330
#     4  10  22  40  60  80 119 157 189 228 299 345
#     4  10  21  37  58  88 111 147 199 240 280 338
#
# _framework density 18.753126999999999
#
# number of rings (size 3 to 8) (size 9 to 14) (size 15 to 20)
#    0.000    3.200    2.000    0.000    5.600    9.600 
#    0.000    2.000    0.000    0.000    0.000    0.000 
#    0.000    0.000    0.000    0.000    0.000    0.000 
#
# Total GULP energy -495555.662562 kJ/mol
# GULP energy per Si atom -12388.891564 kJ/mol
# Density = 1.871044 g / cm^3
# Si number density = 18.753127 Si / 1000 Ang^3
#
#
#
# Elastic Constant Matrix: (Units=GPa)
#
#
# Indices 1 2 3 4 5 6 
#
# 1 64.5698 30.4051 28.5903 0.0000 0.0000 0.0000
# 2 30.4051 200.1736 50.5357 0.0000 0.0000 0.0000
# 3 28.5903 50.5357 110.0403 0.0000 0.0000 0.0000
# 4 0.0000 0.0000 0.0000 5.0089 0.0000 0.0000
# 5 0.0000 0.0000 0.0000 0.0000 28.1919 0.0000
# 6 0.0000 0.0000 0.0000 0.0000 0.0000 8.8345
#
#
#
# Elastic Compliance Matrix: (Units=1/GPa)
#
#
# Indices 1 2 3 4 5 6 
#
# 1 0.018033 -0.001760 -0.003877 0.000000 0.000000 0.000000
# 2 -0.001760 0.005823 -0.002217 0.000000 0.000000 0.000000
# 3 -0.003877 -0.002217 0.011113 0.000000 0.000000 0.000000
# 4 0.000000 0.000000 0.000000 0.199643 0.000000 0.000000
# 5 0.000000 0.000000 0.000000 0.000000 0.035471 0.000000
# 6 0.000000 0.000000 0.000000 0.000000 0.000000 0.113193
#
#
# Mechanical properties :
#
#
# Convention : Reuss Voigt Hill
#
# Bulk Modulus (GPa) = 51.91951 65.98289 58.95120
# Shear Modulus (GPa) = 12.33340 26.09057 19.21199
#
# Velocity S-wave (km/s) = 2.56729 3.73401 3.20420
# Velocity P-wave (km/s) = 6.04433 7.33838 6.72256
#
# Compressibility (1/GPa) = 0.01926058
#
# Stress axis : x y z
#
# Youngs Moduli (GPa) = 55.45522 171.74262 89.98607
#
# Poissons Ratio (x) = 0.30232 0.34885
# Poissons Ratio (y) = 0.09762 0.19947
# Poissons Ratio (z) = 0.21499 0.38070
#
# Static dielectric constant tensor:
#      x y z
#    x 3.381720 0.000000 0.000000 
#    y 0.000000 3.090650 0.000000 
#    z 0.000000 0.000000 3.570240 
# 
# 
# High freq. dielectric constant tensor:
#      x y z
#    x 1.722800 0.000000 0.000000 
#    y 0.000000 1.702930 0.000000 
#    z 0.000000 0.000000 1.741890 
# 
# From -- ./inp_files/17900.got.cif
#   From: 2010.03.12/outbox.cif.g09.slc.cpg/sg62_9_cif.got.tgz:17900.got - 2010.04.10 19:12:36.
