data_PCOD8252732
_publ_section_title
;
Structure prediction by ZEFSAII (Michael W. Deem and Ramdas Pophale) SiO2 
 PCOD8252732
Probable space group: P N M A
;
_chemical_formula_sum "Si O2"
_cell_formula_units_Z 64
_cell_length_a 12.651125
_cell_length_b 9.569610
_cell_length_c 26.529295
_cell_angle_alpha 90.000000
_cell_angle_beta 90.000000
_cell_angle_gamma 90.000000
_cell_volume 3211.804444
_symmetry_space_group_name_H-M "P N M A"
_symmetry_group_IT_number 62
_symmetry_cell_setting 'orthorhombic'
loop_
_space_group_symop_operation_xyz
x,y,z
1/2-x,-y,1/2+z
1/2+x,1/2-y,1/2-z
-x,1/2+y,-z
-x,-y,-z
1/2+x,y,1/2-z
1/2-x,1/2+y,1/2+z
x,1/2-y,z
loop_
_atom_site_type_symbol
_atom_site_label
_atom_site_fract_x
_atom_site_fract_y
_atom_site_fract_z
Si Si1 0.512777 0.910901 0.050456
Si Si2 0.248578 0.400791 0.945310
Si Si3 0.709183 0.085704 0.313104
Si Si4 0.876560 0.085216 0.721353
Si Si5 0.419541 0.405151 0.471182
Si Si6 0.916160 0.585327 0.343879
Si Si7 0.330324 0.599096 0.335699
Si Si8 0.000785 0.098452 0.141577
O O1 0.489969 0.750000 0.036938
O O2 0.631817 0.934726 0.069207
O O3 0.440026 0.957714 0.097774
O O4 0.500000 0.000000 0.000000
O O5 0.242392 0.250000 0.973960
O O6 0.196620 0.524923 0.978009
O O7 0.179768 0.387616 0.895327
O O8 0.734107 0.250000 0.302723
O O9 0.626735 0.065373 0.359576
O O10 0.640220 0.015250 0.268754
O O11 0.816901 0.003573 0.324302
O O12 0.872926 0.250000 0.735651
O O13 0.779042 0.041532 0.685710
O O14 0.984709 0.049644 0.691961
O O15 0.500000 0.500000 0.500000
O O16 0.414118 0.250000 0.494785
O O17 0.456327 0.398921 0.414188
O O18 0.889958 0.750000 0.340932
O O19 0.356065 0.750000 0.311475
O O20 0.431419 0.503707 0.322998
O O21 0.985499 0.250000 0.166777
#
# Coordination Sequence:
#
# PCOD8252732 Si02
#       8
#     8   8   8   8   8   8   8   8
#     4  10  21  38  61  89 122 161 204 252 306 364
#     4   9  17  34  56  80 110 146 189 241 296 347
#     4  11  25  41  58  86 124 162 198 243 304 365
#     4  10  21  39  63  88 114 150 198 248 296 352
#     4  10  20  35  56  82 112 150 194 242 294 350
#     4  10  22  43  65  88 123 163 208 256 303 363
#     4   9  17  33  60  85 105 139 188 239 288 342
#     4   9  21  39  55  78 117 153 185 234 294 350
#
# _framework density 19.926492
#
# number of rings (size 3 to 8) (size 9 to 14) (size 15 to 20)
#    0.000    2.250    1.250    0.750    1.750    4.500 
#    0.000    3.750    0.000    0.000    0.000    0.000 
#    0.000    0.000    0.000    0.000    0.000    0.000 
#
# Total GULP energy -792949.435317 kJ/mol
# GULP energy per Si atom -12389.834927 kJ/mol
# Density = 1.988114 g / cm^3
# Si number density = 19.926492 Si / 1000 Ang^3
#
#
#
# Elastic Constant Matrix: (Units=GPa)
#
#
# Indices 1 2 3 4 5 6 
#
# 1 140.8646 73.7934 30.4052 0.0000 0.0000 0.0000
# 2 73.7934 117.8013 40.5737 0.0000 0.0000 0.0000
# 3 30.4052 40.5737 59.7312 0.0000 0.0000 0.0000
# 4 0.0000 0.0000 0.0000 23.2708 0.0000 0.0000
# 5 0.0000 0.0000 0.0000 0.0000 30.8057 0.0000
# 6 0.0000 0.0000 0.0000 0.0000 0.0000 36.5404
#
#
#
# Elastic Compliance Matrix: (Units=1/GPa)
#
#
# Indices 1 2 3 4 5 6 
#
# 1 0.010628 -0.006258 -0.001159 0.000000 0.000000 0.000000
# 2 -0.006258 0.014767 -0.006845 0.000000 0.000000 0.000000
# 3 -0.001159 -0.006845 0.021981 0.000000 0.000000 0.000000
# 4 0.000000 0.000000 0.000000 0.042972 0.000000 0.000000
# 5 0.000000 0.000000 0.000000 0.000000 0.032461 0.000000
# 6 0.000000 0.000000 0.000000 0.000000 0.000000 0.027367
#
#
# Mechanical properties :
#
#
# Convention : Reuss Voigt Hill
#
# Bulk Modulus (GPa) = 53.04618 67.54907 60.29762
# Shear Modulus (GPa) = 27.02936 29.69837 28.36387
#
# Velocity S-wave (km/s) = 3.68700 3.86475 3.77692
# Velocity P-wave (km/s) = 6.69358 7.34083 7.02467
#
# Compressibility (1/GPa) = 0.01885150
#
# Stress axis : x y z
#
# Youngs Moduli (GPa) = 94.09487 67.71963 45.49359
#
# Poissons Ratio (x) = 0.42381 0.05272
# Poissons Ratio (y) = 0.58887 0.31140
# Poissons Ratio (z) = 0.10903 0.46354
#
# Static dielectric constant tensor:
#      x y z
#    x 3.761670 0.000000 0.000000 
#    y 0.000000 4.018090 0.000000 
#    z 0.000000 0.000000 3.487920 
# 
# 
# High freq. dielectric constant tensor:
#      x y z
#    x 1.787510 0.000000 0.000000 
#    y 0.000000 1.780580 0.000000 
#    z 0.000000 0.000000 1.756190 
# 
# From -- ./inp_files/32553.got.cif
#   From: 2010.03.12/outbox.cif.g09.slc.cpg/sg62_17_cif.got.tgz:32553.got - 2010.04.10 19:12:36.
