data_PCOD8252981
_publ_section_title
;
Structure prediction by ZEFSAII (Michael W. Deem and Ramdas Pophale) SiO2 
 PCOD8252981
Probable space group: P N M A
;
_chemical_formula_sum "Si O2"
_cell_formula_units_Z 64
_cell_length_a 14.717333
_cell_length_b 8.978549
_cell_length_c 25.623790
_cell_angle_alpha 90.000000
_cell_angle_beta 90.000000
_cell_angle_gamma 90.000000
_cell_volume 3385.935182
_symmetry_space_group_name_H-M "P N M A"
_symmetry_group_IT_number 62
_symmetry_cell_setting 'orthorhombic'
loop_
_space_group_symop_operation_xyz
x,y,z
1/2-x,-y,1/2+z
1/2+x,1/2-y,1/2-z
-x,1/2+y,-z
-x,-y,-z
1/2+x,y,1/2-z
1/2-x,1/2+y,1/2+z
x,1/2-y,z
loop_
_atom_site_type_symbol
_atom_site_label
_atom_site_fract_x
_atom_site_fract_y
_atom_site_fract_z
Si Si1 0.167464 0.574692 0.111443
Si Si2 0.371954 0.920778 0.872015
Si Si3 0.989882 0.926138 0.444517
Si Si4 0.903075 0.424144 0.999903
Si Si5 0.490252 0.924555 0.325873
Si Si6 0.333382 0.076289 0.388840
Si Si7 0.493516 0.418429 0.218203
Si Si8 0.852340 0.424663 0.370692
O O1 0.185554 0.750000 0.118155
O O2 0.250450 0.483316 0.135948
O O3 0.078742 0.521405 0.142806
O O4 0.154868 0.529438 0.050851
O O5 0.384514 0.750000 0.891569
O O6 0.267204 0.967333 0.870486
O O7 0.413709 0.938311 0.814433
O O8 0.422028 0.031350 0.911171
O O9 0.981873 0.750000 0.449945
O O10 0.898414 0.988024 0.418314
O O11 0.000000 0.000000 0.500000
O O12 0.922253 0.250000 0.998687
O O13 0.846977 0.473299 0.051041
O O14 0.000000 0.500000 0.000000
O O15 0.480254 0.750000 0.330048
O O16 0.401144 0.993527 0.350808
O O17 0.497981 0.969087 0.265826
O O18 0.351884 0.250000 0.382625
O O19 0.485203 0.250000 0.239343
O O20 0.406688 0.457952 0.182515
O O21 0.853915 0.250000 0.383492
#
# Coordination Sequence:
#
# PCOD8252981 Si02
#       8
#     8   8   8   8   8   8   8   8
#     4  10  22  38  56  86 122 156 192 238 292 346
#     4   9  20  39  60  85 115 148 192 243 292 346
#     4  11  22  37  58  85 118 155 194 238 286 343
#     4  10  20  36  57  82 117 157 192 234 290 343
#     4  11  23  38  58  84 117 153 197 245 290 346
#     4  10  21  37  60  87 116 154 195 237 290 346
#     4   9  20  40  61  81 113 149 190 244 297 351
#     4  10  22  40  61  87 115 151 196 242 292 349
#
# _framework density 18.901720000000001
#
# number of rings (size 3 to 8) (size 9 to 14) (size 15 to 20)
#    0.000    2.000    1.250    2.625    1.750    5.500 
#    0.000    3.750    0.000    0.000    0.000    0.000 
#    0.000    0.000    0.000    0.000    0.000    0.000 
#
# Total GULP energy -793829.815065 kJ/mol
# GULP energy per Si atom -12403.590860 kJ/mol
# Density = 1.885870 g / cm^3
# Si number density = 18.901720 Si / 1000 Ang^3
#
#
#
# Elastic Constant Matrix: (Units=GPa)
#
#
# Indices 1 2 3 4 5 6 
#
# 1 151.0349 45.2690 52.4850 0.0000 0.0000 0.0000
# 2 45.2690 68.4524 33.6603 0.0000 0.0000 0.0000
# 3 52.4850 33.6603 108.1243 0.0000 0.0000 0.0000
# 4 0.0000 0.0000 0.0000 31.5761 0.0000 0.0000
# 5 0.0000 0.0000 0.0000 0.0000 10.4322 0.0000
# 6 0.0000 0.0000 0.0000 0.0000 0.0000 34.4260
#
#
#
# Elastic Compliance Matrix: (Units=1/GPa)
#
#
# Indices 1 2 3 4 5 6 
#
# 1 0.008999 -0.004491 -0.002970 0.000000 0.000000 0.000000
# 2 -0.004491 0.019490 -0.003888 0.000000 0.000000 0.000000
# 3 -0.002970 -0.003888 0.011901 0.000000 0.000000 0.000000
# 4 0.000000 0.000000 0.000000 0.031670 0.000000 0.000000
# 5 0.000000 0.000000 0.000000 0.000000 0.095857 0.000000
# 6 0.000000 0.000000 0.000000 0.000000 0.000000 0.029048
#
#
# Mechanical properties :
#
#
# Convention : Reuss Voigt Hill
#
# Bulk Modulus (GPa) = 56.52054 65.60448 61.06251
# Shear Modulus (GPa) = 22.16714 28.36669 25.26692
#
# Velocity S-wave (km/s) = 3.42827 3.87815 3.66013
# Velocity P-wave (km/s) = 6.75559 7.40520 7.08784
#
# Compressibility (1/GPa) = 0.01769268
#
# Stress axis : x y z
#
# Youngs Moduli (GPa) = 111.12148 51.30783 84.02865
#
# Poissons Ratio (x) = 0.23041 0.24959
# Poissons Ratio (y) = 0.49902 0.32667
# Poissons Ratio (z) = 0.33006 0.19947
#
# Static dielectric constant tensor:
#      x y z
#    x 3.590280 0.000000 0.000000 
#    y 0.000000 3.413140 0.000000 
#    z 0.000000 0.000000 3.548610 
# 
# 
# High freq. dielectric constant tensor:
#      x y z
#    x 1.741400 0.000000 0.000000 
#    y 0.000000 1.732780 0.000000 
#    z 0.000000 0.000000 1.737950 
# 
# From -- ./inp_files/29900.got.cif
#   From: 2010.03.12/outbox.cif.g09.slc.cpg/sg62_15_cif.got.tgz:29900.got - 2010.04.10 19:12:36.
