data_PCOD8252784
_publ_section_title
;
Structure prediction by ZEFSAII (Michael W. Deem and Ramdas Pophale) SiO2 
 PCOD8252784
Probable space group: P N M A
;
_chemical_formula_sum "Si O2"
_cell_formula_units_Z 64
_cell_length_a 8.893054
_cell_length_b 14.063494
_cell_length_c 24.012595
_cell_angle_alpha 90.000000
_cell_angle_beta 90.000000
_cell_angle_gamma 90.000000
_cell_volume 3003.193102
_symmetry_space_group_name_H-M "P N M A"
_symmetry_group_IT_number 62
_symmetry_cell_setting 'orthorhombic'
loop_
_space_group_symop_operation_xyz
x,y,z
1/2-x,-y,1/2+z
1/2+x,1/2-y,1/2-z
-x,1/2+y,-z
-x,-y,-z
1/2+x,y,1/2-z
1/2-x,1/2+y,1/2+z
x,1/2-y,z
loop_
_atom_site_type_symbol
_atom_site_label
_atom_site_fract_x
_atom_site_fract_y
_atom_site_fract_z
Si Si1 0.540463 0.980453 0.195479
Si Si2 0.325188 0.640133 0.866115
Si Si3 0.759716 0.005688 0.859186
Si Si4 0.563910 0.935288 0.952431
Si Si5 0.988567 0.862547 0.900031
Si Si6 0.165771 0.355934 0.991841
Si Si7 0.960012 0.141539 0.804437
Si Si8 0.249730 0.858981 0.373956
O O1 0.572450 0.928606 0.253240
O O2 0.600341 0.915374 0.143964
O O3 0.629839 0.080463 0.189231
O O4 0.362505 0.000679 0.190645
O O5 0.335376 0.750000 0.849928
O O6 0.437130 0.617141 0.916706
O O7 0.158209 0.611012 0.884748
O O8 0.667151 0.006156 0.916192
O O9 0.876938 0.917106 0.857336
O O10 0.850221 0.105119 0.853557
O O11 0.670239 0.855118 0.979274
O O12 0.500000 0.000000 0.000000
O O13 0.956105 0.750000 0.894841
O O14 0.955073 0.899001 0.963811
O O15 0.111716 0.250000 0.979228
O O16 0.179195 0.405793 0.930725
O O17 0.918882 0.250000 0.788347
O O18 0.131398 0.134110 0.823815
O O19 0.203159 0.750000 0.385361
#
# Coordination Sequence:
#
# PCOD8252784 Si02
#       8
#     8   8   8   8   8   8   8   8
#     4  11  22  38  60  85 115 154 201 252 305 358
#     4  10  21  38  61  89 122 160 203 250 300 358
#     4  10  22  37  58  87 119 156 202 249 298 362
#     4  10  20  35  56  88 124 162 199 240 293 354
#     4   9  19  37  61  88 122 161 197 241 298 357
#     4   9  17  32  54  81 115 154 193 234 285 345
#     4  11  24  42  62  85 117 157 201 254 311 361
#     4  10  21  37  59  87 120 158 201 246 293 353
#
# _framework density 21.310652000000001
#
# number of rings (size 3 to 8) (size 9 to 14) (size 15 to 20)
#    0.000    2.000    0.000    3.750    0.000    6.000 
#    0.000    6.250    0.000    5.250    0.000    0.000 
#    0.000    0.000    0.000    0.000    0.000    0.000 
#
# Total GULP energy -793199.137097 kJ/mol
# GULP energy per Si atom -12393.736517 kJ/mol
# Density = 2.126215 g / cm^3
# Si number density = 21.310652 Si / 1000 Ang^3
#
#
#
# Elastic Constant Matrix: (Units=GPa)
#
#
# Indices 1 2 3 4 5 6 
#
# 1 114.5630 42.1782 37.9590 0.0000 0.0000 0.0000
# 2 42.1782 99.7528 47.4192 0.0000 0.0000 0.0000
# 3 37.9590 47.4192 90.2882 0.0000 0.0000 0.0000
# 4 0.0000 0.0000 0.0000 29.3277 0.0000 0.0000
# 5 0.0000 0.0000 0.0000 0.0000 27.9840 0.0000
# 6 0.0000 0.0000 0.0000 0.0000 0.0000 30.9874
#
#
#
# Elastic Compliance Matrix: (Units=1/GPa)
#
#
# Indices 1 2 3 4 5 6 
#
# 1 0.010870 -0.003230 -0.002874 0.000000 0.000000 0.000000
# 2 -0.003230 0.014320 -0.006163 0.000000 0.000000 0.000000
# 3 -0.002874 -0.006163 0.015520 0.000000 0.000000 0.000000
# 4 0.000000 0.000000 0.000000 0.034097 0.000000 0.000000
# 5 0.000000 0.000000 0.000000 0.000000 0.035735 0.000000
# 6 0.000000 0.000000 0.000000 0.000000 0.000000 0.032271
#
#
# Mechanical properties :
#
#
# Convention : Reuss Voigt Hill
#
# Bulk Modulus (GPa) = 61.81399 62.19076 62.00238
# Shear Modulus (GPa) = 28.94520 29.46299 29.20409
#
# Velocity S-wave (km/s) = 3.68944 3.72230 3.70591
# Velocity P-wave (km/s) = 6.87157 6.90799 6.88980
#
# Compressibility (1/GPa) = 0.01617757
#
# Stress axis : x y z
#
# Youngs Moduli (GPa) = 91.99472 69.83108 64.43095
#
# Poissons Ratio (x) = 0.22557 0.18514
# Poissons Ratio (y) = 0.29716 0.39708
# Poissons Ratio (z) = 0.26435 0.43036
#
# Static dielectric constant tensor:
#      x y z
#    x 4.059010 0.000000 0.000000 
#    y 0.000000 3.838270 0.000000 
#    z 0.000000 0.000000 3.832170 
# 
# 
# High freq. dielectric constant tensor:
#      x y z
#    x 1.844410 0.000000 0.000000 
#    y 0.000000 1.828870 0.000000 
#    z 0.000000 0.000000 1.827510 
# 
# From -- ./inp_files/28996.got.cif
#   From: 2010.03.12/outbox.cif.g09.slc.cpg/sg62_15_cif.got.tgz:28996.got - 2010.04.10 19:12:36.
