data_PCOD8252720
_publ_section_title
;
Structure prediction by ZEFSAII (Michael W. Deem and Ramdas Pophale) SiO2 
 PCOD8252720
Probable space group: P N M A
;
_chemical_formula_sum "Si O2"
_cell_formula_units_Z 64
_cell_length_a 12.689420
_cell_length_b 9.354151
_cell_length_c 28.811423
_cell_angle_alpha 90.000000
_cell_angle_beta 90.000000
_cell_angle_gamma 90.000000
_cell_volume 3419.879918
_symmetry_space_group_name_H-M "P N M A"
_symmetry_group_IT_number 62
_symmetry_cell_setting 'orthorhombic'
loop_
_space_group_symop_operation_xyz
x,y,z
1/2-x,-y,1/2+z
1/2+x,1/2-y,1/2-z
-x,1/2+y,-z
-x,-y,-z
1/2+x,y,1/2-z
1/2-x,1/2+y,1/2+z
x,1/2-y,z
loop_
_atom_site_type_symbol
_atom_site_label
_atom_site_fract_x
_atom_site_fract_y
_atom_site_fract_z
Si Si1 0.110643 0.081657 0.884779
Si Si2 0.966467 0.413234 0.199615
Si Si3 0.291190 0.417178 0.036712
Si Si4 0.133679 0.590072 0.700242
Si Si5 0.668154 0.911535 0.317385
Si Si6 0.611245 0.910099 0.422015
Si Si7 0.829772 0.083644 0.568077
Si Si8 0.525702 0.915481 0.894591
O O1 0.102335 0.250000 0.873169
O O2 0.215965 0.040362 0.911893
O O3 0.009787 0.036846 0.916368
O O4 0.109324 0.995650 0.836433
O O5 0.979491 0.250000 0.182706
O O6 0.921813 0.420112 0.250820
O O7 0.078413 0.488723 0.203232
O O8 0.270610 0.250000 0.042258
O O9 0.177300 0.490029 0.043578
O O10 0.377687 0.472401 0.073632
O O11 0.333870 0.456962 0.985972
O O12 0.180687 0.750000 0.692343
O O13 0.222433 0.470979 0.700881
O O14 0.050957 0.557234 0.659275
O O15 0.652719 0.750000 0.299182
O O16 0.668673 0.916248 0.372684
O O17 0.613015 0.750000 0.442383
O O18 0.851227 0.250000 0.575882
O O19 0.919231 0.998847 0.594893
O O20 0.505633 0.750000 0.905841
#
# Coordination Sequence:
#
# PCOD8252720 Si02
#       8
#     8   8   8   8   8   8   8   8
#     4   9  20  39  56  78 115 150 185 234 285 334
#     4  10  21  36  57  83 111 146 186 229 281 336
#     4  10  20  35  57  83 110 146 187 231 282 333
#     4  10  21  37  57  82 111 144 185 234 280 329
#     4  10  20  35  56  81 110 144 181 228 280 330
#     4   9  18  33  55  80 107 141 181 229 278 328
#     4  10  22  38  56  80 114 152 187 230 282 335
#     4  10  21  37  56  80 112 146 185 234 281 333
#
# _framework density 18.714108
#
# number of rings (size 3 to 8) (size 9 to 14) (size 15 to 20)
#    0.000    2.250    1.250    1.875    0.000    6.500 
#    0.000    3.750    0.000    0.000    0.000    0.000 
#    0.000    0.000    0.000    0.000    0.000    0.000 
#
# Total GULP energy -793684.954684 kJ/mol
# GULP energy per Si atom -12401.327417 kJ/mol
# Density = 1.867151 g / cm^3
# Si number density = 18.714108 Si / 1000 Ang^3
#
#
#
# Elastic Constant Matrix: (Units=GPa)
#
#
# Indices 1 2 3 4 5 6 
#
# 1 112.7006 53.5056 36.3708 0.0000 0.0000 0.0000
# 2 53.5056 81.2903 34.7044 0.0000 0.0000 0.0000
# 3 36.3708 34.7044 51.5742 0.0000 0.0000 0.0000
# 4 0.0000 0.0000 0.0000 26.8403 0.0000 0.0000
# 5 0.0000 0.0000 0.0000 0.0000 21.1461 0.0000
# 6 0.0000 0.0000 0.0000 0.0000 0.0000 35.1229
#
#
#
# Elastic Compliance Matrix: (Units=1/GPa)
#
#
# Indices 1 2 3 4 5 6 
#
# 1 0.013792 -0.006911 -0.005076 0.000000 0.000000 0.000000
# 2 -0.006911 0.020723 -0.009071 0.000000 0.000000 0.000000
# 3 -0.005076 -0.009071 0.029073 0.000000 0.000000 0.000000
# 4 0.000000 0.000000 0.000000 0.037257 0.000000 0.000000
# 5 0.000000 0.000000 0.000000 0.000000 0.047290 0.000000
# 6 0.000000 0.000000 0.000000 0.000000 0.000000 0.028471
#
#
# Mechanical properties :
#
#
# Convention : Reuss Voigt Hill
#
# Bulk Modulus (GPa) = 46.57120 54.96964 50.77042
# Shear Modulus (GPa) = 22.13561 24.68749 23.41155
#
# Velocity S-wave (km/s) = 3.44296 3.63601 3.54080
# Velocity P-wave (km/s) = 6.38318 6.86036 6.62607
#
# Compressibility (1/GPa) = 0.02147250
#
# Stress axis : x y z
#
# Youngs Moduli (GPa) = 72.50417 48.25564 34.39624
#
# Poissons Ratio (x) = 0.33350 0.17460
# Poissons Ratio (y) = 0.50108 0.31200
# Poissons Ratio (z) = 0.36803 0.43771
#
# Static dielectric constant tensor:
#      x y z
#    x 3.381060 0.000000 0.000000 
#    y 0.000000 3.527910 0.000000 
#    z 0.000000 0.000000 3.369880 
# 
# 
# High freq. dielectric constant tensor:
#      x y z
#    x 1.728070 0.000000 0.000000 
#    y 0.000000 1.727760 0.000000 
#    z 0.000000 0.000000 1.721790 
# 
# From -- ./inp_files/32474.got.cif
#   From: 2010.03.12/outbox.cif.g09.slc.cpg/sg62_17_cif.got.tgz:32474.got - 2010.04.10 19:12:36.
