data_PCOD8252700
_publ_section_title
;
Structure prediction by ZEFSAII (Michael W. Deem and Ramdas Pophale) SiO2 
 PCOD8252700
Probable space group: P N M A
;
_chemical_formula_sum "Si O2"
_cell_formula_units_Z 64
_cell_length_a 24.640208
_cell_length_b 8.939440
_cell_length_c 15.317918
_cell_angle_alpha 90.000000
_cell_angle_beta 90.000000
_cell_angle_gamma 90.000000
_cell_volume 3374.072605
_symmetry_space_group_name_H-M "P N M A"
_symmetry_group_IT_number 62
_symmetry_cell_setting 'orthorhombic'
loop_
_space_group_symop_operation_xyz
x,y,z
1/2-x,-y,1/2+z
1/2+x,1/2-y,1/2-z
-x,1/2+y,-z
-x,-y,-z
1/2+x,y,1/2-z
1/2-x,1/2+y,1/2+z
x,1/2-y,z
loop_
_atom_site_type_symbol
_atom_site_label
_atom_site_fract_x
_atom_site_fract_y
_atom_site_fract_z
Si Si1 0.443517 0.425817 0.823871
Si Si2 0.668841 0.078506 0.493568
Si Si3 0.614546 0.572479 0.001477
Si Si4 0.778404 0.926783 0.461821
Si Si5 0.137260 0.077581 0.194923
Si Si6 0.849318 0.578447 0.184034
Si Si7 0.739475 0.575075 0.782072
Si Si8 0.066336 0.073515 0.670172
O O1 0.439862 0.250000 0.819071
O O2 0.407894 0.485095 0.744437
O O3 0.505144 0.480603 0.811960
O O4 0.422059 0.482031 0.917469
O O5 0.688591 0.250000 0.481254
O O6 0.634194 0.033664 0.408048
O O7 0.633864 0.058051 0.582068
O O8 0.721486 0.975220 0.502558
O O9 0.619415 0.750000 0.996451
O O10 0.673556 0.501121 0.017684
O O11 0.588429 0.512693 0.913074
O O12 0.784626 0.750000 0.465354
O O13 0.784495 0.982593 0.362846
O O14 0.123804 0.250000 0.209611
O O15 0.197111 0.038295 0.232145
O O16 0.833926 0.750000 0.203228
O O17 0.795682 0.478000 0.199545
O O18 0.899329 0.527329 0.244250
O O19 0.731181 0.750000 0.800053
O O20 0.069525 0.250000 0.651379
#
# Coordination Sequence:
#
# PCOD8252700 Si02
#       8
#     8   8   8   8   8   8   8   8
#     4  10  23  39  57  81 113 151 194 239 287 339
#     4   9  20  38  57  82 116 151 187 235 288 343
#     4  11  22  36  55  82 114 152 187 232 288 341
#     4  11  21  34  54  82 114 150 187 228 281 340
#     4   9  20  38  57  79 112 150 189 236 285 334
#     4  10  20  35  59  85 113 150 189 232 290 344
#     4  10  20  35  55  82 116 148 185 234 284 338
#     4  10  21  39  59  84 114 148 192 239 283 339
#
# _framework density 18.968174999999999
#
# number of rings (size 3 to 8) (size 9 to 14) (size 15 to 20)
#    0.000    2.000    1.250    3.000    1.750    4.500 
#    0.000    0.625    0.000    0.000    0.000    0.000 
#    0.000    0.000    0.000    0.000    0.000    0.000 
#
# Total GULP energy -793644.260602 kJ/mol
# GULP energy per Si atom -12400.691572 kJ/mol
# Density = 1.892500 g / cm^3
# Si number density = 18.968175 Si / 1000 Ang^3
#
#
#
# Elastic Constant Matrix: (Units=GPa)
#
#
# Indices 1 2 3 4 5 6 
#
# 1 95.8605 29.5557 65.4857 0.0000 0.0000 0.0000
# 2 29.5557 53.2601 34.4013 0.0000 0.0000 0.0000
# 3 65.4857 34.4013 137.2815 0.0000 0.0000 0.0000
# 4 0.0000 0.0000 0.0000 26.3369 0.0000 0.0000
# 5 0.0000 0.0000 0.0000 0.0000 25.0895 0.0000
# 6 0.0000 0.0000 0.0000 0.0000 0.0000 28.5280
#
#
#
# Elastic Compliance Matrix: (Units=1/GPa)
#
#
# Indices 1 2 3 4 5 6 
#
# 1 0.016461 -0.004847 -0.006637 0.000000 0.000000 0.000000
# 2 -0.004847 0.023829 -0.003659 0.000000 0.000000 0.000000
# 3 -0.006637 -0.003659 0.011367 0.000000 0.000000 0.000000
# 4 0.000000 0.000000 0.000000 0.037970 0.000000 0.000000
# 5 0.000000 0.000000 0.000000 0.000000 0.039857 0.000000
# 6 0.000000 0.000000 0.000000 0.000000 0.000000 0.035053
#
#
# Mechanical properties :
#
#
# Convention : Reuss Voigt Hill
#
# Bulk Modulus (GPa) = 46.79542 60.58750 53.69146
# Shear Modulus (GPa) = 24.75888 26.45483 25.60686
#
# Velocity S-wave (km/s) = 3.61679 3.73861 3.67821
# Velocity P-wave (km/s) = 6.49351 7.11669 6.81223
#
# Compressibility (1/GPa) = 0.02136961
#
# Stress axis : x y z
#
# Youngs Moduli (GPa) = 60.75145 41.96541 87.97158
#
# Poissons Ratio (x) = 0.20342 0.58389
# Poissons Ratio (y) = 0.29448 0.32189
# Poissons Ratio (z) = 0.40322 0.15355
#
# Static dielectric constant tensor:
#      x y z
#    x 3.543890 0.000000 0.000000 
#    y 0.000000 3.402770 0.000000 
#    z 0.000000 0.000000 3.546910 
# 
# 
# High freq. dielectric constant tensor:
#      x y z
#    x 1.725670 0.000000 0.000000 
#    y 0.000000 1.734330 0.000000 
#    z 0.000000 0.000000 1.741860 
# 
# From -- ./inp_files/20905.got.cif
#   From: 2010.03.12/outbox.cif.g09.slc.cpg/sg62_11_cif.got.tgz:20905.got - 2010.04.10 19:12:36.
