data_PCOD8252367
_publ_section_title
;
Structure prediction by ZEFSAII (Michael W. Deem and Ramdas Pophale) SiO2 
 PCOD8252367
Probable space group: P N M A
;
_chemical_formula_sum "Si O2"
_cell_formula_units_Z 48
_cell_length_a 11.491652
_cell_length_b 18.741431
_cell_length_c 12.057870
_cell_angle_alpha 90.000000
_cell_angle_beta 90.000000
_cell_angle_gamma 90.000000
_cell_volume 2596.903498
_symmetry_space_group_name_H-M "P N M A"
_symmetry_group_IT_number 62
_symmetry_cell_setting 'orthorhombic'
loop_
_space_group_symop_operation_xyz
x,y,z
1/2-x,-y,1/2+z
1/2+x,1/2-y,1/2-z
-x,1/2+y,-z
-x,-y,-z
1/2+x,y,1/2-z
1/2-x,1/2+y,1/2+z
x,1/2-y,z
loop_
_atom_site_type_symbol
_atom_site_label
_atom_site_fract_x
_atom_site_fract_y
_atom_site_fract_z
Si Si1 0.753508 0.830141 0.443048
Si Si2 0.823565 0.479198 0.985269
Si Si3 0.033181 0.032428 0.827456
Si Si4 0.079381 0.670520 0.243751
Si Si5 0.579876 0.533729 0.906702
Si Si6 0.022282 0.670142 0.483197
O O1 0.725419 0.750000 0.490297
O O2 0.691291 0.893965 0.511711
O O3 0.704083 0.837102 0.317410
O O4 0.890512 0.844759 0.442682
O O5 0.711126 0.510739 0.926333
O O6 0.925450 0.496878 0.898703
O O7 0.849163 0.518366 0.102129
O O8 0.016592 0.116431 0.805229
O O9 0.036827 0.988769 0.713763
O O10 0.027059 0.750000 0.227160
O O11 0.101332 0.656312 0.374200
O O12 0.500000 0.500000 0.000000
O O13 0.564707 0.619179 0.917919
O O14 0.035871 0.750000 0.529358
#
# Coordination Sequence:
#
# PCOD8252367 Si02
#       6
#     8   8   8   8   8   8
#     4   9  17  31  52  75 105 145 184 227 275 328
#     4  10  22  37  57  85 115 147 187 234 277 330
#     4  10  22  38  56  84 116 146 186 234 277 331
#     4   9  17  31  52  78 108 141 177 227 288 336
#     4  12  22  35  59  84 108 148 185 226 279 331
#     4  10  20  34  50  79 112 141 186 229 275 332
#
# _framework density 18.483552
#
# number of rings (size 3 to 8) (size 9 to 14) (size 15 to 20)
#    0.000    2.000    3.333    0.000    2.333    1.333 
#    0.000    3.333    0.000    3.000    0.000    0.000 
#    0.000    0.000    0.000    0.000    0.000    0.000 
#
# Total GULP energy -594945.320200 kJ/mol
# GULP energy per Si atom -12394.694171 kJ/mol
# Density = 1.844148 g / cm^3
# Si number density = 18.483552 Si / 1000 Ang^3
#
#
#
# Elastic Constant Matrix: (Units=GPa)
#
#
# Indices 1 2 3 4 5 6 
#
# 1 65.4602 37.6709 29.5816 0.0000 0.0000 0.0000
# 2 37.6709 133.5455 56.3458 0.0000 0.0000 0.0000
# 3 29.5816 56.3458 99.5085 0.0000 0.0000 0.0000
# 4 0.0000 0.0000 0.0000 30.9961 0.0000 0.0000
# 5 0.0000 0.0000 0.0000 0.0000 18.1602 0.0000
# 6 0.0000 0.0000 0.0000 0.0000 0.0000 23.1862
#
#
#
# Elastic Compliance Matrix: (Units=1/GPa)
#
#
# Indices 1 2 3 4 5 6 
#
# 1 0.019098 -0.003931 -0.003452 0.000000 0.000000 0.000000
# 2 -0.003931 0.010648 -0.004861 0.000000 0.000000 0.000000
# 3 -0.003452 -0.004861 0.013828 0.000000 0.000000 0.000000
# 4 0.000000 0.000000 0.000000 0.032262 0.000000 0.000000
# 5 0.000000 0.000000 0.000000 0.000000 0.055065 0.000000
# 6 0.000000 0.000000 0.000000 0.000000 0.000000 0.043129
#
#
# Mechanical properties :
#
#
# Convention : Reuss Voigt Hill
#
# Bulk Modulus (GPa) = 52.39039 60.63453 56.51246
# Shear Modulus (GPa) = 24.40457 26.12956 25.26707
#
# Velocity S-wave (km/s) = 3.63759 3.76395 3.70131
# Velocity P-wave (km/s) = 6.78591 7.19483 6.99336
#
# Compressibility (1/GPa) = 0.01908747
#
# Stress axis : x y z
#
# Youngs Moduli (GPa) = 52.36024 93.91667 72.31841
#
# Poissons Ratio (x) = 0.36919 0.24962
# Poissons Ratio (y) = 0.20583 0.35151
# Poissons Ratio (z) = 0.18073 0.45649
#
# Static dielectric constant tensor:
#      x y z
#    x 3.411500 0.000000 0.000000 
#    y 0.000000 3.858990 0.000000 
#    z 0.000000 0.000000 3.408890 
# 
# 
# High freq. dielectric constant tensor:
#      x y z
#    x 1.710050 0.000000 0.000000 
#    y 0.000000 1.731220 0.000000 
#    z 0.000000 0.000000 1.690920 
# 
# From -- ./inp_files/12265.got.cif
#   From: 2010.03.12/outbox.cif.g09.slc.cpg/sg62_7_cif.got.tgz:12265.got - 2010.04.10 19:12:36.
