data_PCOD8252816
_publ_section_title
;
Structure prediction by ZEFSAII (Michael W. Deem and Ramdas Pophale) SiO2 
 PCOD8252816
Probable space group: P N M A
;
_chemical_formula_sum "Si O2"
_cell_formula_units_Z 64
_cell_length_a 15.213694
_cell_length_b 9.006783
_cell_length_c 23.884892
_cell_angle_alpha 90.000000
_cell_angle_beta 90.000000
_cell_angle_gamma 90.000000
_cell_volume 3272.861732
_symmetry_space_group_name_H-M "P N M A"
_symmetry_group_IT_number 62
_symmetry_cell_setting 'orthorhombic'
loop_
_space_group_symop_operation_xyz
x,y,z
1/2-x,-y,1/2+z
1/2+x,1/2-y,1/2-z
-x,1/2+y,-z
-x,-y,-z
1/2+x,y,1/2-z
1/2-x,1/2+y,1/2+z
x,1/2-y,z
loop_
_atom_site_type_symbol
_atom_site_label
_atom_site_fract_x
_atom_site_fract_y
_atom_site_fract_z
Si Si1 0.590852 0.923941 0.128490
Si Si2 0.650358 0.423632 0.748909
Si Si3 0.915296 0.426225 0.356065
Si Si4 0.254767 0.575168 0.447235
Si Si5 0.851700 0.078447 0.750465
Si Si6 0.085919 0.079285 0.144822
Si Si7 0.747990 0.073845 0.425904
Si Si8 0.611806 0.922096 0.632578
O O1 0.568811 0.750000 0.128662
O O2 0.662649 0.963515 0.081890
O O3 0.628612 0.978747 0.188051
O O4 0.503296 0.015652 0.113894
O O5 0.627891 0.250000 0.748099
O O6 0.588745 0.504171 0.794023
O O7 0.750876 0.454083 0.765747
O O8 0.633993 0.487961 0.688006
O O9 0.916952 0.250000 0.350988
O O10 0.833400 0.483947 0.392801
O O11 0.275014 0.750000 0.442910
O O12 0.248681 0.516258 0.510609
O O13 0.333977 0.487131 0.418855
O O14 0.874477 0.250000 0.754554
O O15 0.913914 0.996821 0.794526
O O16 0.107909 0.250000 0.155631
O O17 0.160011 0.010388 0.103801
O O18 0.990726 0.057319 0.117073
O O19 0.746970 0.250000 0.426264
O O20 0.635326 0.750000 0.642049
#
# Coordination Sequence:
#
# PCOD8252816 Si02
#       8
#     8   8   8   8   8   8   8   8
#     4  10  21  38  58  84 115 150 192 238 287 346
#     4  11  21  37  60  86 117 154 192 234 286 347
#     4  11  22  37  59  89 118 152 192 236 291 345
#     4  10  21  41  63  81 110 157 201 237 286 345
#     4  10  20  35  57  85 113 147 190 233 283 340
#     4  10  21  38  58  84 117 152 187 230 289 346
#     4   9  20  39  61  82 112 154 197 238 286 345
#     4  11  23  37  58  89 120 150 189 241 293 343
#
# _framework density 19.554751
#
# number of rings (size 3 to 8) (size 9 to 14) (size 15 to 20)
#    0.000    1.750    2.500    1.875    0.000    5.500 
#    0.000    1.875    0.000    0.000    0.000    0.000 
#    0.000    0.000    0.000    0.000    0.000    0.000 
#
# Total GULP energy -793866.195858 kJ/mol
# GULP energy per Si atom -12404.159310 kJ/mol
# Density = 1.951024 g / cm^3
# Si number density = 19.554751 Si / 1000 Ang^3
#
#
#
# Elastic Constant Matrix: (Units=GPa)
#
#
# Indices 1 2 3 4 5 6 
#
# 1 108.4631 49.5565 46.9690 0.0000 0.0000 0.0000
# 2 49.5565 62.4349 35.4943 0.0000 0.0000 0.0000
# 3 46.9690 35.4943 130.7058 0.0000 0.0000 0.0000
# 4 0.0000 0.0000 0.0000 24.5175 0.0000 0.0000
# 5 0.0000 0.0000 0.0000 0.0000 18.2194 0.0000
# 6 0.0000 0.0000 0.0000 0.0000 0.0000 32.3821
#
#
#
# Elastic Compliance Matrix: (Units=1/GPa)
#
#
# Indices 1 2 3 4 5 6 
#
# 1 0.015167 -0.010572 -0.002579 0.000000 0.000000 0.000000
# 2 -0.010572 0.026310 -0.003346 0.000000 0.000000 0.000000
# 3 -0.002579 -0.003346 0.009486 0.000000 0.000000 0.000000
# 4 0.000000 0.000000 0.000000 0.040787 0.000000 0.000000
# 5 0.000000 0.000000 0.000000 0.000000 0.054886 0.000000
# 6 0.000000 0.000000 0.000000 0.000000 0.000000 0.030881
#
#
# Mechanical properties :
#
#
# Convention : Reuss Voigt Hill
#
# Bulk Modulus (GPa) = 55.65108 62.84926 59.25017
# Shear Modulus (GPa) = 23.09442 26.32940 24.71191
#
# Velocity S-wave (km/s) = 3.44032 3.67337 3.55875
# Velocity P-wave (km/s) = 6.65597 7.08530 6.87399
#
# Compressibility (1/GPa) = 0.01796910
#
# Stress axis : x y z
#
# Youngs Moduli (GPa) = 65.93215 38.00805 105.41655
#
# Poissons Ratio (x) = 0.40183 0.27190
# Poissons Ratio (y) = 0.69705 0.35269
# Poissons Ratio (z) = 0.17006 0.12716
#
# Static dielectric constant tensor:
#      x y z
#    x 3.761140 0.000000 0.000000 
#    y 0.000000 3.383840 0.000000 
#    z 0.000000 0.000000 3.570740 
# 
# 
# High freq. dielectric constant tensor:
#      x y z
#    x 1.776520 0.000000 0.000000 
#    y 0.000000 1.746630 0.000000 
#    z 0.000000 0.000000 1.757890 
# 
# From -- ./inp_files/29878.got.cif
#   From: 2010.03.12/outbox.cif.g09.slc.cpg/sg62_15_cif.got.tgz:29878.got - 2010.04.10 19:12:36.
