data_PCOD8252272
_publ_section_title
;
Structure prediction by ZEFSAII (Michael W. Deem and Ramdas Pophale) SiO2 
 PCOD8252272
Probable space group: P N M A
;
_chemical_formula_sum "Si O2"
_cell_formula_units_Z 40
_cell_length_a 9.584134
_cell_length_b 13.938210
_cell_length_c 16.189555
_cell_angle_alpha 90.000000
_cell_angle_beta 90.000000
_cell_angle_gamma 90.000000
_cell_volume 2162.692590
_symmetry_space_group_name_H-M "P N M A"
_symmetry_group_IT_number 62
_symmetry_cell_setting 'orthorhombic'
loop_
_space_group_symop_operation_xyz
x,y,z
1/2-x,-y,1/2+z
1/2+x,1/2-y,1/2-z
-x,1/2+y,-z
-x,-y,-z
1/2+x,y,1/2-z
1/2-x,1/2+y,1/2+z
x,1/2-y,z
loop_
_atom_site_type_symbol
_atom_site_label
_atom_site_fract_x
_atom_site_fract_y
_atom_site_fract_z
Si Si1 0.459992 0.858414 0.925838
Si Si2 0.215397 0.637406 0.806575
Si Si3 0.485559 0.092891 0.445258
Si Si4 0.264948 0.442255 0.124738
Si Si5 0.735754 0.646509 0.436196
O O1 0.516057 0.750000 0.923287
O O2 0.368676 0.878479 0.844055
O O3 0.593506 0.927929 0.927064
O O4 0.369212 0.876399 0.007170
O O5 0.175125 0.750000 0.804367
O O6 0.211077 0.592163 0.716851
O O7 0.102031 0.579737 0.860892
O O8 0.642697 0.121765 0.418225
O O9 0.399663 0.164401 0.504738
O O10 0.500000 0.000000 0.500000
O O11 0.222082 0.555906 0.125470
O O12 0.755310 0.750000 0.389791
#
# Coordination Sequence:
#
# PCOD8252272 Si02
#       5
#     8   8   8   8   8
#     4   9  18  31  48  72 100 128 160 203 255 304
#     4  10  20  33  50  76 108 133 158 208 272 313
#     4   9  19  34  53  76 101 135 173 209 254 310
#     4  11  19  29  51  79 101 128 170 213 253 305
#     4   9  19  35  50  67 100 140 170 203 251 306
#
# _framework density 18.495462
#
# number of rings (size 3 to 8) (size 9 to 14) (size 15 to 20)
#    0.000    2.400    0.000    4.200    0.000    4.800 
#    0.000    0.000    0.000   12.000    0.000    5.600 
#    0.000    0.000    0.000    0.000    0.000    0.000 
#
# Total GULP energy -495535.483933 kJ/mol
# GULP energy per Si atom -12388.387098 kJ/mol
# Density = 1.845337 g / cm^3
# Si number density = 18.495462 Si / 1000 Ang^3
#
#
#
# Elastic Constant Matrix: (Units=GPa)
#
#
# Indices 1 2 3 4 5 6 
#
# 1 116.8174 43.4468 34.5183 0.0000 0.0000 0.0000
# 2 43.4468 90.7854 35.3154 0.0000 0.0000 0.0000
# 3 34.5183 35.3154 71.8679 0.0000 0.0000 0.0000
# 4 0.0000 0.0000 0.0000 18.5601 0.0000 0.0000
# 5 0.0000 0.0000 0.0000 0.0000 22.0708 0.0000
# 6 0.0000 0.0000 0.0000 0.0000 0.0000 17.2911
#
#
#
# Elastic Compliance Matrix: (Units=1/GPa)
#
#
# Indices 1 2 3 4 5 6 
#
# 1 0.011027 -0.003977 -0.003342 0.000000 0.000000 0.000000
# 2 -0.003977 0.015053 -0.005486 0.000000 0.000000 0.000000
# 3 -0.003342 -0.005486 0.018216 0.000000 0.000000 0.000000
# 4 0.000000 0.000000 0.000000 0.053879 0.000000 0.000000
# 5 0.000000 0.000000 0.000000 0.000000 0.045309 0.000000
# 6 0.000000 0.000000 0.000000 0.000000 0.000000 0.057833
#
#
# Mechanical properties :
#
#
# Convention : Reuss Voigt Hill
#
# Bulk Modulus (GPa) = 53.52179 56.22576 54.87378
# Shear Modulus (GPa) = 21.44491 22.66374 22.05432
#
# Velocity S-wave (km/s) = 3.40879 3.50432 3.45689
# Velocity P-wave (km/s) = 6.67036 6.84394 6.75771
#
# Compressibility (1/GPa) = 0.01868398
#
# Stress axis : x y z
#
# Youngs Moduli (GPa) = 90.68595 66.43389 54.89801
#
# Poissons Ratio (x) = 0.26422 0.18347
# Poissons Ratio (y) = 0.36067 0.30120
# Poissons Ratio (z) = 0.30307 0.36449
#
# Static dielectric constant tensor:
#      x y z
#    x 4.007530 0.000000 0.000000 
#    y 0.000000 3.482870 0.000000 
#    z 0.000000 0.000000 3.203750 
# 
# 
# High freq. dielectric constant tensor:
#      x y z
#    x 1.731640 0.000000 0.000000 
#    y 0.000000 1.707430 0.000000 
#    z 0.000000 0.000000 1.692970 
# 
# From -- ./inp_files/16681.got.cif
#   From: 2010.03.12/outbox.cif.g09.slc.cpg/sg62_9_cif.got.tgz:16681.got - 2010.04.10 19:12:36.
