data_PCOD8252372
_publ_section_title
;
Structure prediction by ZEFSAII (Michael W. Deem and Ramdas Pophale) SiO2 
 PCOD8252372
Probable space group: P N M A
;
_chemical_formula_sum "Si O2"
_cell_formula_units_Z 48
_cell_length_a 9.715721
_cell_length_b 8.914058
_cell_length_c 31.368655
_cell_angle_alpha 90.000000
_cell_angle_beta 90.000000
_cell_angle_gamma 90.000000
_cell_volume 2716.729435
_symmetry_space_group_name_H-M "P N M A"
_symmetry_group_IT_number 62
_symmetry_cell_setting 'orthorhombic'
loop_
_space_group_symop_operation_xyz
x,y,z
1/2-x,-y,1/2+z
1/2+x,1/2-y,1/2-z
-x,1/2+y,-z
-x,-y,-z
1/2+x,y,1/2-z
1/2-x,1/2+y,1/2+z
x,1/2-y,z
loop_
_atom_site_type_symbol
_atom_site_label
_atom_site_fract_x
_atom_site_fract_y
_atom_site_fract_z
Si Si1 0.078126 0.070855 0.790351
Si Si2 0.609148 0.573619 0.214195
Si Si3 0.088836 0.427253 0.463286
Si Si4 0.398301 0.425106 0.878837
Si Si5 0.890881 0.424158 0.127041
Si Si6 0.596634 0.920912 0.533350
O O1 0.068287 0.250000 0.795540
O O2 0.234253 0.013815 0.782027
O O3 0.985721 0.007440 0.751642
O O4 0.020376 0.989631 0.833450
O O5 0.615896 0.750000 0.219781
O O6 0.539938 0.534794 0.168071
O O7 0.074977 0.250000 0.465135
O O8 0.030728 0.482750 0.417279
O O9 0.246679 0.482299 0.468419
O O10 0.000000 0.500000 0.500000
O O11 0.413420 0.250000 0.889089
O O12 0.239812 0.468526 0.875469
O O13 0.849481 0.250000 0.134326
O O14 0.966528 0.439966 0.081159
O O15 0.600261 0.750000 0.519379
O O16 0.500000 0.000000 0.500000
#
# Coordination Sequence:
#
# PCOD8252372 Si02
#       6
#     8   8   8   8   8   8
#     4   9  16  29  47  67  89 120 156 190 229 277
#     4   8  15  27  46  68  90 115 151 190 225 269
#     4  10  20  34  51  74 100 128 162 201 241 288
#     4   9  16  29  49  70  92 125 161 194 234 284
#     4   9  17  30  46  68  95 122 154 194 233 282
#     4   9  19  33  50  71  96 124 159 199 240 284
#
# _framework density 17.668303000000002
#
# number of rings (size 3 to 8) (size 9 to 14) (size 15 to 20)
#    0.000    3.000    0.000    3.500    0.000    4.000 
#    0.000    5.833    0.000    4.000    0.000    0.000 
#    0.000    0.000    0.000    0.000    0.000    0.000 
#
# Total GULP energy -594670.334443 kJ/mol
# GULP energy per Si atom -12388.965301 kJ/mol
# Density = 1.762809 g / cm^3
# Si number density = 17.668303 Si / 1000 Ang^3
#
#
#
# Elastic Constant Matrix: (Units=GPa)
#
#
# Indices 1 2 3 4 5 6 
#
# 1 55.1134 26.5021 62.5480 0.0000 0.0000 0.0000
# 2 26.5021 56.1954 56.2513 0.0000 0.0000 0.0000
# 3 62.5480 56.2513 183.9412 0.0000 0.0000 0.0000
# 4 0.0000 0.0000 0.0000 34.2414 0.0000 0.0000
# 5 0.0000 0.0000 0.0000 0.0000 32.0300 0.0000
# 6 0.0000 0.0000 0.0000 0.0000 0.0000 17.9184
#
#
#
# Elastic Compliance Matrix: (Units=1/GPa)
#
#
# Indices 1 2 3 4 5 6 
#
# 1 0.030817 -0.005828 -0.008697 0.000000 0.000000 0.000000
# 2 -0.005828 0.026748 -0.006198 0.000000 0.000000 0.000000
# 3 -0.008697 -0.006198 0.010289 0.000000 0.000000 0.000000
# 4 0.000000 0.000000 0.000000 0.029204 0.000000 0.000000
# 5 0.000000 0.000000 0.000000 0.000000 0.031221 0.000000
# 6 0.000000 0.000000 0.000000 0.000000 0.000000 0.055808
#
#
# Mechanical properties :
#
#
# Convention : Reuss Voigt Hill
#
# Bulk Modulus (GPa) = 37.86695 65.09477 51.48086
# Shear Modulus (GPa) = 21.33691 26.83454 24.08572
#
# Velocity S-wave (km/s) = 3.47888 3.90140 3.69618
# Velocity P-wave (km/s) = 6.13314 7.56421 6.88595
#
# Compressibility (1/GPa) = 0.02640825
#
# Stress axis : x y z
#
# Youngs Moduli (GPa) = 32.44972 37.38640 97.18899
#
# Poissons Ratio (x) = 0.21789 0.84524
# Poissons Ratio (y) = 0.18912 0.60237
# Poissons Ratio (z) = 0.28221 0.23172
#
# Static dielectric constant tensor:
#      x y z
#    x 2.796840 0.000000 0.000000 
#    y 0.000000 3.205690 0.000000 
#    z 0.000000 0.000000 3.956070 
# 
# 
# High freq. dielectric constant tensor:
#      x y z
#    x 1.630870 0.000000 0.000000 
#    y 0.000000 1.673950 0.000000 
#    z 0.000000 0.000000 1.708910 
# 
# From -- ./inp_files/29262.got.cif
#   From: 2010.03.12/outbox.cif.g09.slc.cpg/sg62_15_cif.got.tgz:29262.got - 2010.04.10 19:12:36.
