data_PCOD8252481
_publ_section_title
;
Structure prediction by ZEFSAII (Michael W. Deem and Ramdas Pophale) SiO2 
 PCOD8252481
Probable space group: P N M A
;
_chemical_formula_sum "Si O2"
_cell_formula_units_Z 64
_cell_length_a 12.556572
_cell_length_b 9.204657
_cell_length_c 28.386584
_cell_angle_alpha 90.000000
_cell_angle_beta 90.000000
_cell_angle_gamma 90.000000
_cell_volume 3280.891242
_symmetry_space_group_name_H-M "P N M A"
_symmetry_group_IT_number 62
_symmetry_cell_setting 'orthorhombic'
loop_
_space_group_symop_operation_xyz
x,y,z
1/2-x,-y,1/2+z
1/2+x,1/2-y,1/2-z
-x,1/2+y,-z
-x,-y,-z
1/2+x,y,1/2-z
1/2-x,1/2+y,1/2+z
x,1/2-y,z
loop_
_atom_site_type_symbol
_atom_site_label
_atom_site_fract_x
_atom_site_fract_y
_atom_site_fract_z
Si Si1 0.566904 0.913770 0.574173
Si Si2 0.536001 0.584000 0.097638
Si Si3 0.238206 0.916553 0.463252
Si Si4 0.036322 0.918306 0.210176
Si Si5 0.653888 0.911288 0.678687
Si Si6 0.327702 0.418637 0.069685
Si Si7 0.871308 0.078928 0.891394
Si Si8 0.638707 0.584818 0.193241
O O1 0.544476 0.750000 0.555849
O O2 0.608246 0.910868 0.626748
O O3 0.655546 0.987481 0.541349
O O4 0.456986 0.004875 0.573366
O O5 0.508681 0.750000 0.082807
O O6 0.647503 0.535766 0.073794
O O7 0.445167 0.475937 0.080549
O O8 0.545659 0.571490 0.154265
O O9 0.271010 0.750000 0.454079
O O10 0.191826 0.941667 0.514763
O O11 0.007896 0.750000 0.213338
O O12 0.102323 0.954195 0.163125
O O13 0.101070 0.969923 0.255791
O O14 0.924934 0.001786 0.212606
O O15 0.665417 0.750000 0.699056
O O16 0.767187 0.984378 0.676359
O O17 0.319351 0.250000 0.084018
O O18 0.243812 0.510498 0.099901
O O19 0.869623 0.250000 0.901818
O O20 0.679889 0.750000 0.196161
#
# Coordination Sequence:
#
# PCOD8252481 Si02
#       8
#     8   8   8   8   8   8   8   8
#     4  10  20  35  59  87 114 145 187 237 286 338
#     4  10  21  38  60  84 113 149 192 237 284 339
#     4  10  21  38  60  86 113 150 194 236 285 339
#     4   9  20  37  58  83 109 146 192 234 279 333
#     4  10  20  34  54  82 114 146 179 228 288 338
#     4  11  24  39  57  83 119 155 190 235 288 344
#     4  10  21  39  60  81 113 154 194 236 285 342
#     4  10  20  36  60  85 110 145 191 238 278 333
#
# _framework density 19.506895
#
# number of rings (size 3 to 8) (size 9 to 14) (size 15 to 20)
#    0.000    2.000    1.250    1.875    0.000    5.500 
#    0.000    5.000    0.000    0.000    0.000    0.000 
#    0.000    0.000    0.000    0.000    0.000    0.000 
#
# Total GULP energy -793783.816002 kJ/mol
# GULP energy per Si atom -12402.872125 kJ/mol
# Density = 1.946250 g / cm^3
# Si number density = 19.506895 Si / 1000 Ang^3
#
#
#
# Elastic Constant Matrix: (Units=GPa)
#
#
# Indices 1 2 3 4 5 6 
#
# 1 50.2029 30.3702 22.8629 0.0000 0.0000 0.0000
# 2 30.3702 91.8428 32.2377 0.0000 0.0000 0.0000
# 3 22.8629 32.2377 65.5230 0.0000 0.0000 0.0000
# 4 0.0000 0.0000 0.0000 20.2643 0.0000 0.0000
# 5 0.0000 0.0000 0.0000 0.0000 17.2560 0.0000
# 6 0.0000 0.0000 0.0000 0.0000 0.0000 37.5562
#
#
#
# Elastic Compliance Matrix: (Units=1/GPa)
#
#
# Indices 1 2 3 4 5 6 
#
# 1 0.026729 -0.006727 -0.006017 0.000000 0.000000 0.000000
# 2 -0.006727 0.014854 -0.004961 0.000000 0.000000 0.000000
# 3 -0.006017 -0.004961 0.019802 0.000000 0.000000 0.000000
# 4 0.000000 0.000000 0.000000 0.049348 0.000000 0.000000
# 5 0.000000 0.000000 0.000000 0.000000 0.057951 0.000000
# 6 0.000000 0.000000 0.000000 0.000000 0.000000 0.026627
#
#
# Mechanical properties :
#
#
# Convention : Reuss Voigt Hill
#
# Bulk Modulus (GPa) = 38.49773 42.05671 40.27722
# Shear Modulus (GPa) = 20.88749 23.15515 22.02132
#
# Velocity S-wave (km/s) = 3.27582 3.44906 3.36355
# Velocity P-wave (km/s) = 5.83835 6.12112 5.98140
#
# Compressibility (1/GPa) = 0.02597556
#
# Stress axis : x y z
#
# Youngs Moduli (GPa) = 37.41320 67.32255 50.49948
#
# Poissons Ratio (x) = 0.45285 0.30385
# Poissons Ratio (y) = 0.25166 0.25053
# Poissons Ratio (z) = 0.22511 0.33399
#
# Static dielectric constant tensor:
#      x y z
#    x 3.533800 0.000000 0.000000 
#    y 0.000000 3.666890 0.000000 
#    z 0.000000 0.000000 3.614250 
# 
# 
# High freq. dielectric constant tensor:
#      x y z
#    x 1.759020 0.000000 0.000000 
#    y 0.000000 1.763750 0.000000 
#    z 0.000000 0.000000 1.757280 
# 
# From -- ./inp_files/32436.got.cif
#   From: 2010.03.12/outbox.cif.g09.slc.cpg/sg62_17_cif.got.tgz:32436.got - 2010.04.10 19:12:36.
