data_PCOD8252043
_publ_section_title
;
Structure prediction by ZEFSAII (Michael W. Deem and Ramdas Pophale) SiO2 
 PCOD8252043
Probable space group: P N M A
;
_chemical_formula_sum "Si O2"
_cell_formula_units_Z 56
_cell_length_a 13.592386
_cell_length_b 20.012710
_cell_length_c 9.656283
_cell_angle_alpha 90.000000
_cell_angle_beta 90.000000
_cell_angle_gamma 90.000000
_cell_volume 2626.706729
_symmetry_space_group_name_H-M "P N M A"
_symmetry_group_IT_number 62
_symmetry_cell_setting 'orthorhombic'
loop_
_space_group_symop_operation_xyz
x,y,z
1/2-x,-y,1/2+z
1/2+x,1/2-y,1/2-z
-x,1/2+y,-z
-x,-y,-z
1/2+x,y,1/2-z
1/2-x,1/2+y,1/2+z
x,1/2-y,z
loop_
_atom_site_type_symbol
_atom_site_label
_atom_site_fract_x
_atom_site_fract_y
_atom_site_fract_z
Si Si1 0.826005 0.453686 0.204545
Si Si2 0.529991 0.172787 0.132154
Si Si3 0.266945 0.946362 0.515804
Si Si4 0.587118 0.674551 0.373970
Si Si5 0.746267 0.174723 0.080237
Si Si6 0.639978 0.828829 0.064944
Si Si7 0.020576 0.091576 0.097325
O O1 0.806486 0.472727 0.363932
O O2 0.794766 0.375716 0.190188
O O3 0.940149 0.461148 0.157789
O O4 0.758535 0.500445 0.107962
O O5 0.509146 0.250000 0.139210
O O6 0.632405 0.156750 0.054367
O O7 0.440034 0.142707 0.044290
O O8 0.534736 0.148343 0.288669
O O9 0.237990 0.872615 0.459992
O O10 0.377658 0.946454 0.574519
O O11 0.547059 0.750000 0.391457
O O12 0.697615 0.668410 0.434593
O O13 0.514162 0.624519 0.453232
O O14 0.593295 0.654986 0.213982
O O15 0.756631 0.250000 0.141964
O O16 0.665698 0.750000 0.051129
#
# Coordination Sequence:
#
# PCOD8252043 Si02
#       7
#     8   8   8   8   8   8   8
#     4  11  25  44  65  94 131 169 216 268 323 386
#     4  10  19  36  66 100 129 160 212 274 323 379
#     4  12  26  44  66  95 132 174 219 269 330 392
#     4   9  20  38  62  95 134 169 209 264 328 384
#     4   9  19  38  67  94 124 166 212 262 322 380
#     4  10  23  42  65  97 133 170 217 271 324 388
#     4  11  22  42  65  96 126 169 220 269 323 388
#
# _framework density 21.319472000000001
#
# number of rings (size 3 to 8) (size 9 to 14) (size 15 to 20)
#    0.000    1.714    2.857    0.857    4.000    3.429 
#    0.000    4.286    0.000    0.000    0.000    0.000 
#    0.000    0.000    0.000    0.000    0.000    0.000 
#
# Total GULP energy -694400.719617 kJ/mol
# GULP energy per Si atom -12400.012850 kJ/mol
# Density = 2.127095 g / cm^3
# Si number density = 21.319472 Si / 1000 Ang^3
#
#
#
# Elastic Constant Matrix: (Units=GPa)
#
#
# Indices 1 2 3 4 5 6 
#
# 1 73.6114 28.9261 20.5441 0.0000 0.0000 0.0000
# 2 28.9261 49.2567 23.2338 0.0000 0.0000 0.0000
# 3 20.5441 23.2338 102.0770 0.0000 0.0000 0.0000
# 4 0.0000 0.0000 0.0000 27.1920 0.0000 0.0000
# 5 0.0000 0.0000 0.0000 0.0000 22.2262 0.0000
# 6 0.0000 0.0000 0.0000 0.0000 0.0000 19.9258
#
#
#
# Elastic Compliance Matrix: (Units=1/GPa)
#
#
# Indices 1 2 3 4 5 6 
#
# 1 0.017825 -0.009831 -0.001350 0.000000 0.000000 0.000000
# 2 -0.009831 0.028166 -0.004432 0.000000 0.000000 0.000000
# 3 -0.001350 -0.004432 0.011077 0.000000 0.000000 0.000000
# 4 0.000000 0.000000 0.000000 0.036776 0.000000 0.000000
# 5 0.000000 0.000000 0.000000 0.000000 0.044992 0.000000
# 6 0.000000 0.000000 0.000000 0.000000 0.000000 0.050186
#
#
# Mechanical properties :
#
#
# Convention : Reuss Voigt Hill
#
# Bulk Modulus (GPa) = 38.69743 41.15033 39.92388
# Shear Modulus (GPa) = 21.84736 24.01822 22.93279
#
# Velocity S-wave (km/s) = 3.20466 3.36011 3.28330
# Velocity P-wave (km/s) = 5.64657 5.86493 5.75679
#
# Compressibility (1/GPa) = 0.02584151
#
# Stress axis : x y z
#
# Youngs Moduli (GPa) = 56.10203 35.50424 90.27706
#
# Poissons Ratio (x) = 0.34904 0.12185
# Poissons Ratio (y) = 0.55153 0.40013
# Poissons Ratio (z) = 0.07573 0.15736
#
# Static dielectric constant tensor:
#      x y z
#    x 3.966640 0.000000 0.000000 
#    y 0.000000 3.731840 0.000000 
#    z 0.000000 0.000000 3.932550 
# 
# 
# High freq. dielectric constant tensor:
#      x y z
#    x 1.834250 0.000000 0.000000 
#    y 0.000000 1.825890 0.000000 
#    z 0.000000 0.000000 1.836080 
# 
# From -- ./inp_files/6764.got.cif
#   From: 2010.03.12/outbox.cif.g09.slc.cpg/sg62_4_cif.got.tgz:6764.got - 2010.04.10 19:12:36.
