data_PCOD8252028
_publ_section_title
;
Structure prediction by ZEFSAII (Michael W. Deem and Ramdas Pophale) SiO2 
 PCOD8252028
Probable space group: P N M A
;
_chemical_formula_sum "Si O2"
_cell_formula_units_Z 64
_cell_length_a 23.612489
_cell_length_b 8.778628
_cell_length_c 15.269113
_cell_angle_alpha 90.000000
_cell_angle_beta 90.000000
_cell_angle_gamma 90.000000
_cell_volume 3165.062014
_symmetry_space_group_name_H-M "P N M A"
_symmetry_group_IT_number 62
_symmetry_cell_setting 'orthorhombic'
loop_
_space_group_symop_operation_xyz
x,y,z
1/2-x,-y,1/2+z
1/2+x,1/2-y,1/2-z
-x,1/2+y,-z
-x,-y,-z
1/2+x,y,1/2-z
1/2-x,1/2+y,1/2+z
x,1/2-y,z
loop_
_atom_site_type_symbol
_atom_site_label
_atom_site_fract_x
_atom_site_fract_y
_atom_site_fract_z
Si Si1 0.128719 0.570964 0.579977
Si Si2 0.251758 0.570059 0.848894
Si Si3 0.131539 0.425710 0.093949
Si Si4 0.140438 0.424960 0.896907
Si Si5 0.253349 0.069765 0.149469
Si Si6 0.437136 0.072388 0.255184
Si Si7 0.622578 0.070862 0.100024
Si Si8 0.942836 0.071672 0.759692
O O1 0.130976 0.750000 0.563182
O O2 0.191650 0.503811 0.599417
O O3 0.088029 0.531056 0.660654
O O4 0.103238 0.490594 0.494370
O O5 0.242283 0.750000 0.859337
O O6 0.205585 0.478110 0.904715
O O7 0.245379 0.514666 0.749309
O O8 0.313245 0.518942 0.882204
O O9 0.128754 0.250000 0.125136
O O10 0.195582 0.488569 0.105060
O O11 0.089705 0.523149 0.152895
O O12 0.112930 0.442881 0.993119
O O13 0.137198 0.250000 0.865945
O O14 0.108563 0.533440 0.829295
O O15 0.256866 0.250000 0.146759
O O16 0.452142 0.250000 0.261976
O O17 0.492169 0.972587 0.272086
O O18 0.616135 0.250000 0.102192
O O19 0.581480 0.006927 0.173706
O O20 0.937116 0.250000 0.747707
#
# Coordination Sequence:
#
# PCOD8252028 Si02
#       8
#     8   8   8   8   8   8   8   8
#     4  10  21  39  64  92 121 159 204 249 302 359
#     4  10  19  36  62  90 124 166 204 242 299 368
#     4  10  21  40  64  90 125 165 200 245 306 367
#     4  11  23  38  63  96 127 159 201 254 305 358
#     4   9  16  34  62  89 122 161 200 243 297 360
#     4  11  24  44  67  87 119 166 207 252 308 366
#     4  11  23  40  64  92 126 164 201 247 306 367
#     4  12  26  43  64  90 120 156 207 264 305 358
#
# _framework density 20.220773999999999
#
# number of rings (size 3 to 8) (size 9 to 14) (size 15 to 20)
#    0.000    1.500    2.500    3.000    0.000    5.000 
#    0.000    0.625    0.000    0.000    0.000    0.000 
#    0.000    0.000    0.000    0.000    0.000    0.000 
#
# Total GULP energy -793878.869950 kJ/mol
# GULP energy per Si atom -12404.357343 kJ/mol
# Density = 2.017475 g / cm^3
# Si number density = 20.220774 Si / 1000 Ang^3
#
#
#
# Elastic Constant Matrix: (Units=GPa)
#
#
# Indices 1 2 3 4 5 6 
#
# 1 75.3965 22.5316 12.4173 0.0000 0.0000 0.0000
# 2 22.5316 46.5477 23.3386 0.0000 0.0000 0.0000
# 3 12.4173 23.3386 90.4467 0.0000 0.0000 0.0000
# 4 0.0000 0.0000 0.0000 30.9773 0.0000 0.0000
# 5 0.0000 0.0000 0.0000 0.0000 8.0008 0.0000
# 6 0.0000 0.0000 0.0000 0.0000 0.0000 27.6208
#
#
#
# Elastic Compliance Matrix: (Units=1/GPa)
#
#
# Indices 1 2 3 4 5 6 
#
# 1 0.015510 -0.007397 -0.000221 0.000000 0.000000 0.000000
# 2 -0.007397 0.028204 -0.006262 0.000000 0.000000 0.000000
# 3 -0.000221 -0.006262 0.012702 0.000000 0.000000 0.000000
# 4 0.000000 0.000000 0.000000 0.032282 0.000000 0.000000
# 5 0.000000 0.000000 0.000000 0.000000 0.124988 0.000000
# 6 0.000000 0.000000 0.000000 0.000000 0.000000 0.036205
#
#
# Mechanical properties :
#
#
# Convention : Reuss Voigt Hill
#
# Bulk Modulus (GPa) = 34.89602 36.55177 35.72389
# Shear Modulus (GPa) = 17.40933 23.59334 20.50134
#
# Velocity S-wave (km/s) = 2.93740 3.41953 3.18759
# Velocity P-wave (km/s) = 5.36651 5.80573 5.59043
#
# Compressibility (1/GPa) = 0.02865656
#
# Stress axis : x y z
#
# Youngs Moduli (GPa) = 64.47409 35.45642 78.72553
#
# Poissons Ratio (x) = 0.26227 0.01737
# Poissons Ratio (y) = 0.47692 0.49298
# Poissons Ratio (z) = 0.01423 0.22203
#
# Static dielectric constant tensor:
#      x y z
#    x 3.708840 0.000000 0.000000 
#    y 0.000000 3.443550 0.000000 
#    z 0.000000 0.000000 3.722850 
# 
# 
# High freq. dielectric constant tensor:
#      x y z
#    x 1.790030 0.000000 0.000000 
#    y 0.000000 1.775440 0.000000 
#    z 0.000000 0.000000 1.802440 
# 
# From -- ./inp_files/20807.got.cif
#   From: 2010.03.12/outbox.cif.g09.slc.cpg/sg62_11_cif.got.tgz:20807.got - 2010.04.10 19:12:36.
