data_PCOD8252281
_publ_section_title
;
Structure prediction by ZEFSAII (Michael W. Deem and Ramdas Pophale) SiO2 
 PCOD8252281
Probable space group: P N M A
;
_chemical_formula_sum "Si O2"
_cell_formula_units_Z 64
_cell_length_a 8.544914
_cell_length_b 14.870807
_cell_length_c 26.555317
_cell_angle_alpha 90.000000
_cell_angle_beta 90.000000
_cell_angle_gamma 90.000000
_cell_volume 3374.377942
_symmetry_space_group_name_H-M "P N M A"
_symmetry_group_IT_number 62
_symmetry_cell_setting 'orthorhombic'
loop_
_space_group_symop_operation_xyz
x,y,z
1/2-x,-y,1/2+z
1/2+x,1/2-y,1/2-z
-x,1/2+y,-z
-x,-y,-z
1/2+x,y,1/2-z
1/2-x,1/2+y,1/2+z
x,1/2-y,z
loop_
_atom_site_type_symbol
_atom_site_label
_atom_site_fract_x
_atom_site_fract_y
_atom_site_fract_z
Si Si1 0.726054 0.147032 0.211538
Si Si2 0.728489 0.649707 0.545795
Si Si3 0.896104 0.647256 0.991611
Si Si4 0.214857 0.034345 0.096698
Si Si5 0.858966 0.476948 0.131464
Si Si6 0.370959 0.147507 0.182860
Si Si7 0.232140 0.646876 0.408288
Si Si8 0.063941 0.079499 0.535028
O O1 0.768316 0.250000 0.196294
O O2 0.841214 0.077410 0.183322
O O3 0.546740 0.124007 0.199655
O O4 0.753201 0.133359 0.270725
O O5 0.714683 0.750000 0.568925
O O6 0.575265 0.620594 0.515118
O O7 0.745273 0.579030 0.591039
O O8 0.868252 0.648828 0.505918
O O9 0.861193 0.750000 0.980727
O O10 0.787425 0.596688 0.952285
O O11 0.857355 0.622144 0.048663
O O12 0.320735 0.081103 0.138796
O O13 0.041971 0.014384 0.118036
O O14 0.305200 0.946718 0.076644
O O15 0.778438 0.576100 0.135808
O O16 0.360640 0.250000 0.163260
O O17 0.246351 0.750000 0.388818
O O18 0.063112 0.631583 0.432097
O O19 0.000000 0.000000 0.500000
#
# Coordination Sequence:
#
# PCOD8252281 Si02
#       8
#     8   8   8   8   8   8   8   8
#     4  10  21  37  58  85 119 150 183 227 276 334
#     4  10  20  33  51  75 107 145 183 225 273 329
#     4   9  18  32  49  73 105 143 183 222 268 322
#     4  11  21  34  54  78 109 150 187 228 276 332
#     4  11  21  36  56  80 108 145 191 232 280 337
#     4  10  21  36  56  85 118 151 185 224 275 336
#     4  11  22  36  53  76 107 145 187 236 282 329
#     4  12  21  34  50  75 110 147 188 232 278 330
#
# _framework density 18.966459
#
# number of rings (size 3 to 8) (size 9 to 14) (size 15 to 20)
#    0.000    1.500    2.500    3.375    0.000    4.500 
#    0.000    0.625    0.000    0.000    0.000    8.750 
#    0.000    0.000    0.000    0.000    0.000    0.000 
#
# Total GULP energy -793442.447982 kJ/mol
# GULP energy per Si atom -12397.538250 kJ/mol
# Density = 1.892329 g / cm^3
# Si number density = 18.966459 Si / 1000 Ang^3
#
#
#
# Elastic Constant Matrix: (Units=GPa)
#
#
# Indices 1 2 3 4 5 6 
#
# 1 53.7087 26.9068 -2.4119 0.0000 0.0000 0.0000
# 2 26.9068 76.5573 36.6973 0.0000 0.0000 0.0000
# 3 -2.4119 36.6973 31.4672 0.0000 0.0000 0.0000
# 4 0.0000 0.0000 0.0000 25.4251 0.0000 0.0000
# 5 0.0000 0.0000 0.0000 0.0000 33.9601 0.0000
# 6 0.0000 0.0000 0.0000 0.0000 0.0000 28.1623
#
#
#
# Elastic Compliance Matrix: (Units=1/GPa)
#
#
# Indices 1 2 3 4 5 6 
#
# 1 0.036548 -0.032173 0.040322 0.000000 0.000000 0.000000
# 2 -0.032173 0.057942 -0.070039 0.000000 0.000000 0.000000
# 3 0.040322 -0.070039 0.116550 0.000000 0.000000 0.000000
# 4 0.000000 0.000000 0.000000 0.039331 0.000000 0.000000
# 5 0.000000 0.000000 0.000000 0.000000 0.029446 0.000000
# 6 0.000000 0.000000 0.000000 0.000000 0.000000 0.035508
#
#
# Mechanical properties :
#
#
# Convention : Reuss Voigt Hill
#
# Bulk Modulus (GPa) = 11.46007 31.56862 21.51435
# Shear Modulus (GPa) = 10.67937 24.21223 17.44580
#
# Velocity S-wave (km/s) = 2.37548 3.57680 3.03615
# Velocity P-wave (km/s) = 3.68500 5.80850 4.86404
#
# Compressibility (1/GPa) = 0.08725948
#
# Stress axis : x y z
#
# Youngs Moduli (GPa) = 27.36158 17.25853 8.58002
#
# Poissons Ratio (x) = 0.55526 -0.34596
# Poissons Ratio (y) = 0.88030 0.60094
# Poissons Ratio (z) = -1.10327 1.20877
#
# Static dielectric constant tensor:
#      x y z
#    x 3.630460 0.000000 0.000000 
#    y 0.000000 3.437770 0.000000 
#    z 0.000000 0.000000 3.614760 
# 
# 
# High freq. dielectric constant tensor:
#      x y z
#    x 1.751800 0.000000 0.000000 
#    y 0.000000 1.726320 0.000000 
#    z 0.000000 0.000000 1.709220 
# 
# From -- ./inp_files/28992.got.cif
#   From: 2010.03.12/outbox.cif.g09.slc.cpg/sg62_15_cif.got.tgz:28992.got - 2010.04.10 19:12:36.
