data_PCOD8252279
_publ_section_title
;
Structure prediction by ZEFSAII (Michael W. Deem and Ramdas Pophale) SiO2 
 PCOD8252279
Probable space group: P N M A
;
_chemical_formula_sum "Si O2"
_cell_formula_units_Z 48
_cell_length_a 23.449850
_cell_length_b 22.078301
_cell_length_c 4.966575
_cell_angle_alpha 90.000000
_cell_angle_beta 90.000000
_cell_angle_gamma 90.000000
_cell_volume 2571.359013
_symmetry_space_group_name_H-M "P N M A"
_symmetry_group_IT_number 62
_symmetry_cell_setting 'orthorhombic'
loop_
_space_group_symop_operation_xyz
x,y,z
1/2-x,-y,1/2+z
1/2+x,1/2-y,1/2-z
-x,1/2+y,-z
-x,-y,-z
1/2+x,y,1/2-z
1/2-x,1/2+y,1/2+z
x,1/2-y,z
loop_
_atom_site_type_symbol
_atom_site_label
_atom_site_fract_x
_atom_site_fract_y
_atom_site_fract_z
Si Si1 0.745686 0.920364 0.483340
Si Si2 0.687216 0.455685 0.475698
Si Si3 0.996846 0.419894 0.735270
Si Si4 0.561156 0.046188 0.264498
Si Si5 0.412680 0.182133 0.919803
Si Si6 0.662823 0.682818 0.590733
O O1 0.797427 0.929276 0.270653
O O2 0.714021 0.856458 0.466560
O O3 0.698276 0.972616 0.451374
O O4 0.770777 0.920447 0.780148
O O5 0.623573 0.442574 0.381284
O O6 0.051276 0.431198 0.539980
O O7 0.951812 0.474777 0.749132
O O8 0.967257 0.360596 0.614229
O O9 0.019786 0.414907 0.039716
O O10 0.431917 0.250000 0.011543
O O11 0.386032 0.185608 0.628048
O O12 0.366932 0.156141 0.138080
O O13 0.687364 0.750000 0.650383
#
# Coordination Sequence:
#
# PCOD8252279 Si02
#       6
#     8   8   8   8   8   8
#     4  10  20  33  52  75 101 133 167 208 255 300
#     4  10  20  33  51  75 102 134 168 207 253 302
#     4  10  20  33  52  76 102 134 167 208 256 302
#     4  10  20  33  51  75 103 134 168 207 253 304
#     4  10  20  34  54  78 103 132 167 210 257 303
#     4  10  20  34  54  78 103 132 167 211 258 303
#
# _framework density 18.667171
#
# number of rings (size 3 to 8) (size 9 to 14) (size 15 to 20)
#    0.000    2.000    0.000    4.000    0.000    5.333 
#    0.000    0.000    0.000    6.000    0.000    0.000 
#    0.000    0.000    0.000    0.000    0.000    0.000 
#
# Total GULP energy -594939.377017 kJ/mol
# GULP energy per Si atom -12394.570355 kJ/mol
# Density = 1.862468 g / cm^3
# Si number density = 18.667171 Si / 1000 Ang^3
#
#
#
# Elastic Constant Matrix: (Units=GPa)
#
#
# Indices 1 2 3 4 5 6 
#
# 1 72.9423 46.4472 5.7835 0.0000 0.0000 0.0000
# 2 46.4472 80.9129 19.6837 0.0000 0.0000 0.0000
# 3 5.7835 19.6837 82.3851 0.0000 0.0000 0.0000
# 4 0.0000 0.0000 0.0000 20.1213 0.0000 0.0000
# 5 0.0000 0.0000 0.0000 0.0000 21.4538 0.0000
# 6 0.0000 0.0000 0.0000 0.0000 0.0000 24.0860
#
#
#
# Elastic Compliance Matrix: (Units=1/GPa)
#
#
# Indices 1 2 3 4 5 6 
#
# 1 0.021792 -0.012887 0.001549 0.000000 0.000000 0.000000
# 2 -0.012887 0.020742 -0.004051 0.000000 0.000000 0.000000
# 3 0.001549 -0.004051 0.012997 0.000000 0.000000 0.000000
# 4 0.000000 0.000000 0.000000 0.049699 0.000000 0.000000
# 5 0.000000 0.000000 0.000000 0.000000 0.046612 0.000000
# 6 0.000000 0.000000 0.000000 0.000000 0.000000 0.041518
#
#
# Mechanical properties :
#
#
# Convention : Reuss Voigt Hill
#
# Bulk Modulus (GPa) = 40.39688 42.22992 41.31340
# Shear Modulus (GPa) = 21.51572 24.08728 22.80150
#
# Velocity S-wave (km/s) = 3.39867 3.59605 3.49875
# Velocity P-wave (km/s) = 6.09007 6.31773 6.20494
#
# Compressibility (1/GPa) = 0.02475439
#
# Stress axis : x y z
#
# Youngs Moduli (GPa) = 45.88764 48.21169 76.93923
#
# Poissons Ratio (x) = 0.62128 -0.11918
# Poissons Ratio (y) = 0.59133 0.31169
# Poissons Ratio (z) = -0.07108 0.19531
#
# Static dielectric constant tensor:
#      x y z
#    x 3.128130 0.000000 0.000000 
#    y 0.000000 3.431810 0.000000 
#    z 0.000000 0.000000 3.703150 
# 
# 
# High freq. dielectric constant tensor:
#      x y z
#    x 1.704940 0.000000 0.000000 
#    y 0.000000 1.700800 0.000000 
#    z 0.000000 0.000000 1.751150 
# 
# From -- ./inp_files/1718.got.cif
#   From: 2010.03.12/outbox.cif.g09.slc.cpg/sg62_1_cif.got.tgz:1718.got - 2010.04.10 19:12:36.
