data_PCOD8252980
_publ_section_title
;
Structure prediction by ZEFSAII (Michael W. Deem and Ramdas Pophale) SiO2 
 PCOD8252980
Probable space group: P N M A
;
_chemical_formula_sum "Si O2"
_cell_formula_units_Z 48
_cell_length_a 13.049209
_cell_length_b 17.299953
_cell_length_c 10.601007
_cell_angle_alpha 90.000000
_cell_angle_beta 90.000000
_cell_angle_gamma 90.000000
_cell_volume 2393.184776
_symmetry_space_group_name_H-M "P N M A"
_symmetry_group_IT_number 62
_symmetry_cell_setting 'orthorhombic'
loop_
_space_group_symop_operation_xyz
x,y,z
1/2-x,-y,1/2+z
1/2+x,1/2-y,1/2-z
-x,1/2+y,-z
-x,-y,-z
1/2+x,y,1/2-z
1/2-x,1/2+y,1/2+z
x,1/2-y,z
loop_
_atom_site_type_symbol
_atom_site_label
_atom_site_fract_x
_atom_site_fract_y
_atom_site_fract_z
Si Si1 0.864533 0.932306 0.823676
Si Si2 0.999270 0.970366 0.359474
Si Si3 0.254724 0.159346 0.378208
Si Si4 0.111458 0.838307 0.244630
Si Si5 0.222717 0.428571 0.625789
Si Si6 0.523090 0.837374 0.530522
O O1 0.789783 0.871909 0.753326
O O2 0.927728 0.890702 0.933624
O O3 0.946626 0.967013 0.727527
O O4 0.798714 0.998739 0.890898
O O5 0.059075 0.888567 0.353997
O O6 0.883004 0.957476 0.313705
O O7 0.000000 0.000000 0.500000
O O8 0.228689 0.250000 0.394075
O O9 0.201489 0.111517 0.491217
O O10 0.377047 0.145724 0.383294
O O11 0.111942 0.750000 0.288713
O O12 0.228090 0.866395 0.222240
O O13 0.050123 0.852257 0.114908
O O14 0.487312 0.750000 0.551651
#
# Coordination Sequence:
#
# PCOD8252980 Si02
#       6
#     8   8   8   8   8   8
#     4  11  21  35  60  87 118 157 200 247 300 358
#     4  11  22  39  57  89 125 153 198 248 303 364
#     4  10  20  36  57  82 115 155 196 242 299 361
#     4   9  21  40  62  87 116 158 206 248 298 363
#     4  10  21  36  59  83 118 156 196 241 298 357
#     4   9  19  37  58  85 115 152 204 249 299 358
#
# _framework density 20.056954999999999
#
# number of rings (size 3 to 8) (size 9 to 14) (size 15 to 20)
#    0.000    2.000    1.667    3.000    0.000    8.667 
#    0.000    0.000    0.000    1.000    0.000    0.000 
#    0.000    0.000    0.000    0.000    0.000    0.000 
#
# Total GULP energy -595264.532975 kJ/mol
# GULP energy per Si atom -12401.344437 kJ/mol
# Density = 2.001130 g / cm^3
# Si number density = 20.056955 Si / 1000 Ang^3
#
#
#
# Elastic Constant Matrix: (Units=GPa)
#
#
# Indices 1 2 3 4 5 6 
#
# 1 79.1574 40.3775 26.5468 0.0000 0.0000 0.0000
# 2 40.3775 126.2063 42.6816 0.0000 0.0000 0.0000
# 3 26.5468 42.6816 58.1301 0.0000 0.0000 0.0000
# 4 0.0000 0.0000 0.0000 30.6666 0.0000 0.0000
# 5 0.0000 0.0000 0.0000 0.0000 19.1944 0.0000
# 6 0.0000 0.0000 0.0000 0.0000 0.0000 27.9555
#
#
#
# Elastic Compliance Matrix: (Units=1/GPa)
#
#
# Indices 1 2 3 4 5 6 
#
# 1 0.016016 -0.003526 -0.004725 0.000000 0.000000 0.000000
# 2 -0.003526 0.011317 -0.006699 0.000000 0.000000 0.000000
# 3 -0.004725 -0.006699 0.024280 0.000000 0.000000 0.000000
# 4 0.000000 0.000000 0.000000 0.032609 0.000000 0.000000
# 5 0.000000 0.000000 0.000000 0.000000 0.052099 0.000000
# 6 0.000000 0.000000 0.000000 0.000000 0.000000 0.035771
#
#
# Mechanical properties :
#
#
# Convention : Reuss Voigt Hill
#
# Bulk Modulus (GPa) = 46.05786 53.63395 49.84591
# Shear Modulus (GPa) = 23.89705 25.82247 24.85976
#
# Velocity S-wave (km/s) = 3.45550 3.59201 3.52441
# Velocity P-wave (km/s) = 6.23971 6.63342 6.43957
#
# Compressibility (1/GPa) = 0.02171182
#
# Stress axis : x y z
#
# Youngs Moduli (GPa) = 62.43595 88.36029 41.18671
#
# Poissons Ratio (x) = 0.31157 0.19462
# Poissons Ratio (y) = 0.22016 0.27592
# Poissons Ratio (z) = 0.29503 0.59196
#
# Static dielectric constant tensor:
#      x y z
#    x 3.854180 0.000000 0.000000 
#    y 0.000000 3.834980 0.000000 
#    z 0.000000 0.000000 3.326940 
# 
# 
# High freq. dielectric constant tensor:
#      x y z
#    x 1.785260 0.000000 0.000000 
#    y 0.000000 1.797680 0.000000 
#    z 0.000000 0.000000 1.756190 
# 
# From -- ./inp_files/12244.got.cif
#   From: 2010.03.12/outbox.cif.g09.slc.cpg/sg62_7_cif.got.tgz:12244.got - 2010.04.10 19:12:36.
