data_PCOD8252604
_publ_section_title
;
Structure prediction by ZEFSAII (Michael W. Deem and Ramdas Pophale) SiO2 
 PCOD8252604
Probable space group: P N M A
;
_chemical_formula_sum "Si O2"
_cell_formula_units_Z 40
_cell_length_a 17.214292
_cell_length_b 18.036320
_cell_length_c 6.473500
_cell_angle_alpha 90.000000
_cell_angle_beta 90.000000
_cell_angle_gamma 90.000000
_cell_volume 2009.908328
_symmetry_space_group_name_H-M "P N M A"
_symmetry_group_IT_number 62
_symmetry_cell_setting 'orthorhombic'
loop_
_space_group_symop_operation_xyz
x,y,z
1/2-x,-y,1/2+z
1/2+x,1/2-y,1/2-z
-x,1/2+y,-z
-x,-y,-z
1/2+x,y,1/2-z
1/2-x,1/2+y,1/2+z
x,1/2-y,z
loop_
_atom_site_type_symbol
_atom_site_label
_atom_site_fract_x
_atom_site_fract_y
_atom_site_fract_z
Si Si1 0.887186 0.954665 0.362729
Si Si2 0.771994 0.836316 0.313842
Si Si3 0.361931 0.166927 0.002216
Si Si4 0.161265 0.581867 0.889531
Si Si5 0.939356 0.458467 0.731430
O O1 0.858597 0.871364 0.305401
O O2 0.968826 0.970366 0.249347
O O3 0.823741 0.012475 0.265190
O O4 0.898243 0.972551 0.608324
O O5 0.776980 0.750000 0.379852
O O6 0.735944 0.889808 0.488789
O O7 0.723511 0.845323 0.101876
O O8 0.389764 0.250000 0.962902
O O9 0.361958 0.151752 0.246845
O O10 0.426740 0.115955 0.899964
O O11 0.093988 0.554474 0.042310
#
# Coordination Sequence:
#
# PCOD8252604 Si02
#       5
#     8   8   8   8   8
#     4  10  21  35  58  82 115 146 191 237 284 338
#     4  10  22  36  54  83 116 148 188 237 287 337
#     4   9  19  36  55  79 112 150 190 232 281 340
#     4  10  20  34  59  79 110 149 189 234 282 339
#     4   9  20  37  55  86 112 146 192 239 279 340
#
# _framework density 19.901406000000001
#
# number of rings (size 3 to 8) (size 9 to 14) (size 15 to 20)
#    0.000    2.400    0.000    1.200    8.400    1.600 
#    0.000    0.000    0.000    2.400    0.000    0.000 
#    0.000    0.000    0.000    0.000    0.000    0.000 
#
# Total GULP energy -495614.627963 kJ/mol
# GULP energy per Si atom -12390.365699 kJ/mol
# Density = 1.985611 g / cm^3
# Si number density = 19.901406 Si / 1000 Ang^3
#
#
#
# Elastic Constant Matrix: (Units=GPa)
#
#
# Indices 1 2 3 4 5 6 
#
# 1 56.9771 40.6077 24.8465 0.0000 0.0000 0.0000
# 2 40.6077 108.7141 27.2839 0.0000 0.0000 0.0000
# 3 24.8465 27.2839 94.8225 0.0000 0.0000 0.0000
# 4 0.0000 0.0000 0.0000 29.9219 0.0000 0.0000
# 5 0.0000 0.0000 0.0000 0.0000 15.2608 0.0000
# 6 0.0000 0.0000 0.0000 0.0000 0.0000 26.8405
#
#
#
# Elastic Compliance Matrix: (Units=1/GPa)
#
#
# Indices 1 2 3 4 5 6 
#
# 1 0.025402 -0.008426 -0.004231 0.000000 0.000000 0.000000
# 2 -0.008426 0.012710 -0.001449 0.000000 0.000000 0.000000
# 3 -0.004231 -0.001449 0.012072 0.000000 0.000000 0.000000
# 4 0.000000 0.000000 0.000000 0.033420 0.000000 0.000000
# 5 0.000000 0.000000 0.000000 0.000000 0.065527 0.000000
# 6 0.000000 0.000000 0.000000 0.000000 0.000000 0.037257
#
#
# Mechanical properties :
#
#
# Convention : Reuss Voigt Hill
#
# Bulk Modulus (GPa) = 45.51799 49.55441 47.53620
# Shear Modulus (GPa) = 22.53022 25.58969 24.05995
#
# Velocity S-wave (km/s) = 3.36831 3.58973 3.48078
# Velocity P-wave (km/s) = 6.16836 6.49119 6.33183
#
# Compressibility (1/GPa) = 0.02196934
#
# Stress axis : x y z
#
# Youngs Moduli (GPa) = 39.36770 78.68114 82.83802
#
# Poissons Ratio (x) = 0.66298 0.35053
# Poissons Ratio (y) = 0.33172 0.12004
# Poissons Ratio (z) = 0.16658 0.11401
#
# Static dielectric constant tensor:
#      x y z
#    x 3.363350 0.000000 0.000000 
#    y 0.000000 3.620430 0.000000 
#    z 0.000000 0.000000 3.799020 
# 
# 
# High freq. dielectric constant tensor:
#      x y z
#    x 1.751980 0.000000 0.000000 
#    y 0.000000 1.774690 0.000000 
#    z 0.000000 0.000000 1.781590 
# 
# From -- ./inp_files/1555.got.cif
#   From: 2010.03.12/outbox.cif.g09.slc.cpg/sg62_1_cif.got.tgz:1555.got - 2010.04.10 19:12:36.
