data_PCOD8252115
_publ_section_title
;
Structure prediction by ZEFSAII (Michael W. Deem and Ramdas Pophale) SiO2 
 PCOD8252115
Probable space group: P N M A
;
_chemical_formula_sum "Si O2"
_cell_formula_units_Z 48
_cell_length_a 26.391310
_cell_length_b 14.421289
_cell_length_c 5.245048
_cell_angle_alpha 90.000000
_cell_angle_beta 90.000000
_cell_angle_gamma 90.000000
_cell_volume 1996.248005
_symmetry_space_group_name_H-M "P N M A"
_symmetry_group_IT_number 62
_symmetry_cell_setting 'orthorhombic'
loop_
_space_group_symop_operation_xyz
x,y,z
1/2-x,-y,1/2+z
1/2+x,1/2-y,1/2-z
-x,1/2+y,-z
-x,-y,-z
1/2+x,y,1/2-z
1/2-x,1/2+y,1/2+z
x,1/2-y,z
loop_
_atom_site_type_symbol
_atom_site_label
_atom_site_fract_x
_atom_site_fract_y
_atom_site_fract_z
Si Si1 0.635067 0.944517 0.967200
Si Si2 0.805718 0.750000 0.653626
Si Si3 0.372147 0.750000 0.349441
Si Si4 0.033125 0.934353 0.261293
Si Si5 0.926961 0.562585 0.149274
Si Si6 0.436917 0.250000 0.544391
Si Si7 0.275004 0.543126 0.849226
Si Si8 0.373286 0.250000 0.045138
O O1 0.660980 0.843911 0.912553
O O2 0.624643 0.006336 0.717716
O O3 0.577414 0.915878 0.038148
O O4 0.666783 0.006006 0.170387
O O5 0.847051 0.750000 0.429872
O O6 0.772448 0.844858 0.631665
O O7 0.829622 0.750000 0.933469
O O8 0.409873 0.833832 0.386909
O O9 0.030045 0.843227 0.079028
O O10 0.974070 0.945546 0.359617
O O11 0.049357 0.026653 0.111292
O O12 0.417263 0.250000 0.255617
O O13 0.391176 0.250000 0.750693
O O14 0.243939 0.504409 0.611474
#
# Coordination Sequence:
#
# PCOD8252115 Si02
#       8
#     8   4   4   8   8   4   8   4
#     4  11  23  43  67  96 143 184 237 296 371 430
#     4  12  26  52  80 106 153 187 252 310 387 452
#     4  12  25  44  75 108 145 207 236 312 369 452
#     4  10  22  38  64  98 142 189 238 297 349 446
#     4  11  22  39  65 100 140 190 243 286 364 436
#     4  10  19  38  55  92 130 171 225 274 335 405
#     4  12  29  49  80 110 144 192 252 318 383 456
#     4  10  22  36  66  90 126 179 217 280 347 421
#
# _framework density 24.045109
#
# number of rings (size 3 to 8) (size 9 to 14) (size 15 to 20)
#    0.000    1.000    3.333    3.000    2.333    1.333 
#    0.000    1.667    0.000    0.000    0.000    0.000 
#    0.000    0.000    0.000    0.000    0.000    0.000 
#
# Total GULP energy -594634.315426 kJ/mol
# GULP energy per Si atom -12388.214905 kJ/mol
# Density = 2.399038 g / cm^3
# Si number density = 24.045109 Si / 1000 Ang^3
#
#
#
# Elastic Constant Matrix: (Units=GPa)
#
#
# Indices 1 2 3 4 5 6 
#
# 1 59.8995 45.7222 19.2815 0.0000 0.0000 0.0000
# 2 45.7222 222.2348 24.5397 0.0000 0.0000 0.0000
# 3 19.2815 24.5397 80.2269 0.0000 0.0000 0.0000
# 4 0.0000 0.0000 0.0000 95.1410 0.0000 0.0000
# 5 0.0000 0.0000 0.0000 0.0000 38.1263 0.0000
# 6 0.0000 0.0000 0.0000 0.0000 0.0000 73.0776
#
#
#
# Elastic Compliance Matrix: (Units=1/GPa)
#
#
# Indices 1 2 3 4 5 6 
#
# 1 0.020886 -0.003874 -0.003835 0.000000 0.000000 0.000000
# 2 -0.003874 0.005375 -0.000713 0.000000 0.000000 0.000000
# 3 -0.003835 -0.000713 0.013604 0.000000 0.000000 0.000000
# 4 0.000000 0.000000 0.000000 0.010511 0.000000 0.000000
# 5 0.000000 0.000000 0.000000 0.000000 0.026229 0.000000
# 6 0.000000 0.000000 0.000000 0.000000 0.000000 0.013684
#
#
# Mechanical properties :
#
#
# Convention : Reuss Voigt Hill
#
# Bulk Modulus (GPa) = 43.43586 60.16087 51.79837
# Shear Modulus (GPa) = 43.55153 59.45683 51.50418
#
# Velocity S-wave (km/s) = 4.26049 4.97804 4.63318
# Velocity P-wave (km/s) = 6.50430 7.62335 7.08595
#
# Compressibility (1/GPa) = 0.02302245
#
# Stress axis : x y z
#
# Youngs Moduli (GPa) = 47.87945 186.03110 73.50527
#
# Poissons Ratio (x) = 0.72060 0.28188
# Poissons Ratio (y) = 0.18546 0.05243
# Poissons Ratio (z) = 0.18361 0.13269
#
# Static dielectric constant tensor:
#      x y z
#    x 4.445490 0.000000 0.000000 
#    y 0.000000 5.318110 0.000000 
#    z 0.000000 0.000000 4.059400 
# 
# 
# High freq. dielectric constant tensor:
#      x y z
#    x 1.938730 0.000000 0.000000 
#    y 0.000000 1.991730 0.000000 
#    z 0.000000 0.000000 1.939380 
# 
# From -- ./inp_files/3228.got.cif
#   From: 2010.03.12/outbox.cif.g09.slc.cpg/sg62_2_cif.got.tgz:3228.got - 2010.04.10 19:12:36.
