data_PCOD8252674
_publ_section_title
;
Structure prediction by ZEFSAII (Michael W. Deem and Ramdas Pophale) SiO2 
 PCOD8252674
Probable space group: P N M A
;
_chemical_formula_sum "Si O2"
_cell_formula_units_Z 64
_cell_length_a 15.767798
_cell_length_b 9.114781
_cell_length_c 22.195162
_cell_angle_alpha 90.000000
_cell_angle_beta 90.000000
_cell_angle_gamma 90.000000
_cell_volume 3189.889251
_symmetry_space_group_name_H-M "P N M A"
_symmetry_group_IT_number 62
_symmetry_cell_setting 'orthorhombic'
loop_
_space_group_symop_operation_xyz
x,y,z
1/2-x,-y,1/2+z
1/2+x,1/2-y,1/2-z
-x,1/2+y,-z
-x,-y,-z
1/2+x,y,1/2-z
1/2-x,1/2+y,1/2+z
x,1/2-y,z
loop_
_atom_site_type_symbol
_atom_site_label
_atom_site_fract_x
_atom_site_fract_y
_atom_site_fract_z
Si Si1 0.108017 0.916644 0.533578
Si Si2 0.113914 0.910353 0.028966
Si Si3 0.945281 0.424638 0.202780
Si Si4 0.404757 0.074694 0.777902
Si Si5 0.228848 0.085986 0.104882
Si Si6 0.570729 0.412804 0.578007
Si Si7 0.734146 0.579683 0.761027
Si Si8 0.537430 0.578085 0.091378
O O1 0.076401 0.750000 0.539635
O O2 0.205484 0.933237 0.550415
O O3 0.096767 0.971594 0.464731
O O4 0.054741 0.009268 0.581642
O O5 0.153741 0.750000 0.017121
O O6 0.015470 0.893727 0.041735
O O7 0.152401 0.977553 0.090227
O O8 0.133849 0.009654 0.969979
O O9 0.959834 0.250000 0.202729
O O10 0.939839 0.483398 0.135223
O O11 0.856689 0.468053 0.234484
O O12 0.025137 0.500815 0.235049
O O13 0.408412 0.250000 0.769244
O O14 0.422885 0.023406 0.846162
O O15 0.310211 0.018426 0.764652
O O16 0.191537 0.250000 0.106752
O O17 0.272622 0.048237 0.167946
O O18 0.605178 0.250000 0.595943
O O19 0.752979 0.750000 0.746732
O O20 0.525290 0.750000 0.093957
#
# Coordination Sequence:
#
# PCOD8252674 Si02
#       8
#     8   8   8   8   8   8   8   8
#     4   9  18  34  56  80 106 139 179 225 279 337
#     4  10  21  36  56  83 112 144 185 232 281 338
#     4  11  23  40  62  87 118 156 198 244 293 347
#     4  11  23  38  58  85 118 156 195 238 290 347
#     4  10  20  35  55  79 109 144 183 228 281 336
#     4  10  21  38  59  83 112 147 187 232 287 344
#     4  10  23  40  58  84 116 153 198 244 290 347
#     4   9  19  35  54  79 109 140 179 225 275 334
#
# _framework density 20.063393999999999
#
# number of rings (size 3 to 8) (size 9 to 14) (size 15 to 20)
#    0.000    2.000    0.000    3.000    0.000    8.500 
#    0.000    1.250    0.000    0.000    0.000    0.000 
#    0.000    0.000    0.000    0.000    0.000    0.000 
#
# Total GULP energy -793486.212167 kJ/mol
# GULP energy per Si atom -12398.222065 kJ/mol
# Density = 2.001773 g / cm^3
# Si number density = 20.063394 Si / 1000 Ang^3
#
#
#
# Elastic Constant Matrix: (Units=GPa)
#
#
# Indices 1 2 3 4 5 6 
#
# 1 55.3986 24.2254 16.8815 0.0000 0.0000 0.0000
# 2 24.2254 81.0564 37.3864 0.0000 0.0000 0.0000
# 3 16.8815 37.3864 100.1798 0.0000 0.0000 0.0000
# 4 0.0000 0.0000 0.0000 23.4998 0.0000 0.0000
# 5 0.0000 0.0000 0.0000 0.0000 28.4187 0.0000
# 6 0.0000 0.0000 0.0000 0.0000 0.0000 29.0625
#
#
#
# Elastic Compliance Matrix: (Units=1/GPa)
#
#
# Indices 1 2 3 4 5 6 
#
# 1 0.020936 -0.005592 -0.001441 0.000000 0.000000 0.000000
# 2 -0.005592 0.016396 -0.005177 0.000000 0.000000 0.000000
# 3 -0.001441 -0.005177 0.012157 0.000000 0.000000 0.000000
# 4 0.000000 0.000000 0.000000 0.042554 0.000000 0.000000
# 5 0.000000 0.000000 0.000000 0.000000 0.035188 0.000000
# 6 0.000000 0.000000 0.000000 0.000000 0.000000 0.034409
#
#
# Mechanical properties :
#
#
# Convention : Reuss Voigt Hill
#
# Bulk Modulus (GPa) = 39.89027 43.73571 41.81299
# Shear Modulus (GPa) = 25.71824 26.73898 26.22861
#
# Velocity S-wave (km/s) = 3.58418 3.65461 3.61956
# Velocity P-wave (km/s) = 6.08718 6.29717 6.19306
#
# Compressibility (1/GPa) = 0.02506877
#
# Stress axis : x y z
#
# Youngs Moduli (GPa) = 47.76552 60.99001 82.25931
#
# Poissons Ratio (x) = 0.34109 0.11852
# Poissons Ratio (y) = 0.26713 0.42582
# Poissons Ratio (z) = 0.06882 0.31572
#
# Static dielectric constant tensor:
#      x y z
#    x 3.499840 0.000000 0.000000 
#    y 0.000000 3.842160 0.000000 
#    z 0.000000 0.000000 3.831200 
# 
# 
# High freq. dielectric constant tensor:
#      x y z
#    x 1.770180 0.000000 0.000000 
#    y 0.000000 1.788400 0.000000 
#    z 0.000000 0.000000 1.794410 
# 
# From -- ./inp_files/29731.got.cif
#   From: 2010.03.12/outbox.cif.g09.slc.cpg/sg62_15_cif.got.tgz:29731.got - 2010.04.10 19:12:36.
