data_PCOD8252431
_publ_section_title
;
Structure prediction by ZEFSAII (Michael W. Deem and Ramdas Pophale) SiO2 
 PCOD8252431
Probable space group: P N M A
;
_chemical_formula_sum "Si O2"
_cell_formula_units_Z 64
_cell_length_a 23.253630
_cell_length_b 9.701298
_cell_length_c 14.875524
_cell_angle_alpha 90.000000
_cell_angle_beta 90.000000
_cell_angle_gamma 90.000000
_cell_volume 3355.775323
_symmetry_space_group_name_H-M "P N M A"
_symmetry_group_IT_number 62
_symmetry_cell_setting 'orthorhombic'
loop_
_space_group_symop_operation_xyz
x,y,z
1/2-x,-y,1/2+z
1/2+x,1/2-y,1/2-z
-x,1/2+y,-z
-x,-y,-z
1/2+x,y,1/2-z
1/2-x,1/2+y,1/2+z
x,1/2-y,z
loop_
_atom_site_type_symbol
_atom_site_label
_atom_site_fract_x
_atom_site_fract_y
_atom_site_fract_z
Si Si1 0.369973 0.594976 0.197958
Si Si2 0.474932 0.906685 0.923794
Si Si3 0.534535 0.592391 0.743715
Si Si4 0.740614 0.909780 0.062077
Si Si5 0.642114 0.097498 0.000705
Si Si6 0.239862 0.587708 0.230221
Si Si7 0.331032 0.588423 0.587758
Si Si8 0.463364 0.591259 0.566943
O O1 0.377113 0.750000 0.235441
O O2 0.407436 0.497870 0.262921
O O3 0.390722 0.580194 0.094907
O O4 0.303382 0.552763 0.196011
O O5 0.493698 0.750000 0.943304
O O6 0.497639 0.957287 0.828450
O O7 0.405667 0.920351 0.922051
O O8 0.500000 0.000000 0.000000
O O9 0.554533 0.750000 0.750766
O O10 0.492282 0.567066 0.662259
O O11 0.726282 0.750000 0.058403
O O12 0.740651 0.959912 0.165327
O O13 0.799468 0.941602 0.007682
O O14 0.690647 0.984928 0.008847
O O15 0.670433 0.250000 0.005549
O O16 0.225127 0.750000 0.220200
O O17 0.195254 0.499613 0.170488
O O18 0.326550 0.750000 0.613765
O O19 0.397070 0.543263 0.572942
O O20 0.500000 0.500000 0.500000
O O21 0.466722 0.750000 0.536022
#
# Coordination Sequence:
#
# PCOD8252431 Si02
#       8
#     8   8   8   8   8   8   8   8
#     4  10  20  36  59  85 115 150 192 238 288 349
#     4  10  20  34  53  80 116 151 185 227 278 339
#     4  10  22  38  57  84 117 152 193 242 287 340
#     4  10  22  38  58  85 115 151 192 236 292 350
#     4  10  20  35  56  83 114 151 190 230 282 345
#     4  10  22  39  59  87 120 152 192 243 294 350
#     4  10  22  41  64  88 119 156 197 244 297 353
#     4  10  24  44  64  87 116 157 206 253 298 347
#
# _framework density 19.071598000000002
#
# number of rings (size 3 to 8) (size 9 to 14) (size 15 to 20)
#    0.000    2.000    2.500    0.000    3.500    3.000 
#    0.000    0.000    0.000    0.000    0.000    0.000 
#    0.000    0.000    0.000    0.000    0.000    0.000 
#
# Total GULP energy -793494.442149 kJ/mol
# GULP energy per Si atom -12398.350659 kJ/mol
# Density = 1.902819 g / cm^3
# Si number density = 19.071598 Si / 1000 Ang^3
#
#
#
# Elastic Constant Matrix: (Units=GPa)
#
#
# Indices 1 2 3 4 5 6 
#
# 1 134.4044 66.7210 57.2478 0.0000 0.0000 0.0000
# 2 66.7210 75.1553 57.6593 0.0000 0.0000 0.0000
# 3 57.2478 57.6593 106.6638 0.0000 0.0000 0.0000
# 4 0.0000 0.0000 0.0000 29.6362 0.0000 0.0000
# 5 0.0000 0.0000 0.0000 0.0000 27.5530 0.0000
# 6 0.0000 0.0000 0.0000 0.0000 0.0000 33.8615
#
#
#
# Elastic Compliance Matrix: (Units=1/GPa)
#
#
# Indices 1 2 3 4 5 6 
#
# 1 0.013408 -0.010905 -0.001301 0.000000 0.000000 0.000000
# 2 -0.010905 0.031603 -0.011231 0.000000 0.000000 0.000000
# 3 -0.001301 -0.011231 0.016145 0.000000 0.000000 0.000000
# 4 0.000000 0.000000 0.000000 0.033742 0.000000 0.000000
# 5 0.000000 0.000000 0.000000 0.000000 0.036294 0.000000
# 6 0.000000 0.000000 0.000000 0.000000 0.000000 0.029532
#
#
# Mechanical properties :
#
#
# Convention : Reuss Voigt Hill
#
# Bulk Modulus (GPa) = 70.02011 75.49776 72.75893
# Shear Modulus (GPa) = 23.54501 27.18317 25.36409
#
# Velocity S-wave (km/s) = 3.51744 3.77944 3.65079
# Velocity P-wave (km/s) = 7.30004 7.66277 7.48360
#
# Compressibility (1/GPa) = 0.01428161
#
# Stress axis : x y z
#
# Youngs Moduli (GPa) = 74.58307 31.64233 61.93902
#
# Poissons Ratio (x) = 0.34505 0.08061
# Poissons Ratio (y) = 0.81331 0.69564
# Poissons Ratio (z) = 0.09706 0.35538
#
# Static dielectric constant tensor:
#      x y z
#    x 3.482510 0.000000 0.000000 
#    y 0.000000 3.572650 0.000000 
#    z 0.000000 0.000000 3.444280 
# 
# 
# High freq. dielectric constant tensor:
#      x y z
#    x 1.743270 0.000000 0.000000 
#    y 0.000000 1.736920 0.000000 
#    z 0.000000 0.000000 1.744860 
# 
# From -- ./inp_files/20930.got.cif
#   From: 2010.03.12/outbox.cif.g09.slc.cpg/sg62_11_cif.got.tgz:20930.got - 2010.04.10 19:12:36.
