data_PCOD8252555
_publ_section_title
;
Structure prediction by ZEFSAII (Michael W. Deem and Ramdas Pophale) SiO2 
 PCOD8252555
Probable space group: P N M A
;
_chemical_formula_sum "Si O2"
_cell_formula_units_Z 56
_cell_length_a 17.413946
_cell_length_b 9.238060
_cell_length_c 19.054261
_cell_angle_alpha 90.000000
_cell_angle_beta 90.000000
_cell_angle_gamma 90.000000
_cell_volume 3065.279507
_symmetry_space_group_name_H-M "P N M A"
_symmetry_group_IT_number 62
_symmetry_cell_setting 'orthorhombic'
loop_
_space_group_symop_operation_xyz
x,y,z
1/2-x,-y,1/2+z
1/2+x,1/2-y,1/2-z
-x,1/2+y,-z
-x,-y,-z
1/2+x,y,1/2-z
1/2-x,1/2+y,1/2+z
x,1/2-y,z
loop_
_atom_site_type_symbol
_atom_site_label
_atom_site_fract_x
_atom_site_fract_y
_atom_site_fract_z
Si Si1 0.482799 0.917809 0.841855
Si Si2 0.870718 0.920372 0.393273
Si Si3 0.202522 0.084642 0.958958
Si Si4 0.937914 0.583813 0.817160
Si Si5 0.031365 0.079588 0.931794
Si Si6 0.149022 0.080585 0.446135
Si Si7 0.278393 0.915950 0.619634
O O1 0.501213 0.750000 0.856659
O O2 0.454081 0.944319 0.763708
O O3 0.417279 0.975417 0.894521
O O4 0.558485 0.010684 0.852928
O O5 0.872185 0.750000 0.381992
O O6 0.874861 0.964029 0.475144
O O7 0.792821 0.982753 0.359408
O O8 0.225631 0.250000 0.947010
O O9 0.193116 0.049637 0.041183
O O10 0.121843 0.047251 0.922468
O O11 0.270160 0.990684 0.924491
O O12 0.954470 0.750000 0.839219
O O13 0.848589 0.546900 0.829039
O O14 0.991028 0.478641 0.862247
O O15 0.015925 0.250000 0.940583
O O16 0.000000 0.000000 0.000000
O O17 0.161161 0.250000 0.438379
O O18 0.251888 0.750000 0.627283
#
# Coordination Sequence:
#
# PCOD8252555 Si02
#       7
#     8   8   8   8   8   8   8
#     4  10  21  38  57  79 110 147 187 228 277 333
#     4  10  20  34  56  84 111 140 183 231 279 331
#     4   9  18  33  54  81 109 138 175 222 274 325
#     4  10  21  38  57  79 109 148 190 228 275 333
#     4  11  21  35  57  83 113 146 185 229 274 326
#     4   9  19  35  56  83 110 140 182 233 277 324
#     4   9  17  34  56  77 106 141 180 223 272 327
#
# _framework density 18.269131999999999
#
# number of rings (size 3 to 8) (size 9 to 14) (size 15 to 20)
#    0.000    2.286    1.429    1.286    0.000    3.429 
#    2.571    0.000    0.000    0.000    0.000    0.000 
#    0.000    0.000    0.000    0.000    0.000    0.000 
#
# Total GULP energy -694581.074420 kJ/mol
# GULP energy per Si atom -12403.233472 kJ/mol
# Density = 1.822755 g / cm^3
# Si number density = 18.269132 Si / 1000 Ang^3
#
#
#
# Elastic Constant Matrix: (Units=GPa)
#
#
# Indices 1 2 3 4 5 6 
#
# 1 160.4147 74.9818 66.3580 0.0000 0.0000 0.0000
# 2 74.9818 79.8511 44.2872 0.0000 0.0000 0.0000
# 3 66.3580 44.2872 75.4770 0.0000 0.0000 0.0000
# 4 0.0000 0.0000 0.0000 24.4420 0.0000 0.0000
# 5 0.0000 0.0000 0.0000 0.0000 21.3985 0.0000
# 6 0.0000 0.0000 0.0000 0.0000 0.0000 37.0218
#
#
#
# Elastic Compliance Matrix: (Units=1/GPa)
#
#
# Indices 1 2 3 4 5 6 
#
# 1 0.012828 -0.008584 -0.006241 0.000000 0.000000 0.000000
# 2 -0.008584 0.024309 -0.006717 0.000000 0.000000 0.000000
# 3 -0.006241 -0.006717 0.022677 0.000000 0.000000 0.000000
# 4 0.000000 0.000000 0.000000 0.040913 0.000000 0.000000
# 5 0.000000 0.000000 0.000000 0.000000 0.046732 0.000000
# 6 0.000000 0.000000 0.000000 0.000000 0.000000 0.027011
#
#
# Mechanical properties :
#
#
# Convention : Reuss Voigt Hill
#
# Bulk Modulus (GPa) = 59.77172 76.33299 68.05235
# Shear Modulus (GPa) = 22.40815 25.24685 23.82750
#
# Velocity S-wave (km/s) = 3.50602 3.72148 3.61536
# Velocity P-wave (km/s) = 7.01270 7.76782 7.39990
#
# Compressibility (1/GPa) = 0.01673032
#
# Stress axis : x y z
#
# Youngs Moduli (GPa) = 77.95317 41.13629 44.09670
#
# Poissons Ratio (x) = 0.35313 0.27522
# Poissons Ratio (y) = 0.66918 0.29618
# Poissons Ratio (z) = 0.48653 0.27630
#
# Static dielectric constant tensor:
#      x y z
#    x 3.524070 0.000000 0.000000 
#    y 0.000000 3.374700 0.000000 
#    z 0.000000 0.000000 3.215070 
# 
# 
# High freq. dielectric constant tensor:
#      x y z
#    x 1.720300 0.000000 0.000000 
#    y 0.000000 1.707520 0.000000 
#    z 0.000000 0.000000 1.688960 
# 
# From -- ./inp_files/27574.got.cif
#   From: 2010.03.12/outbox.cif.g09.slc.cpg/sg62_14_cif.got.tgz:27574.got - 2010.04.10 19:12:36.
