data_PCOD8252612
_publ_section_title
;
Structure prediction by ZEFSAII (Michael W. Deem and Ramdas Pophale) SiO2 
 PCOD8252612
Probable space group: P N M A
;
_chemical_formula_sum "Si O2"
_cell_formula_units_Z 64
_cell_length_a 9.425842
_cell_length_b 19.433581
_cell_length_c 18.338900
_cell_angle_alpha 90.000000
_cell_angle_beta 90.000000
_cell_angle_gamma 90.000000
_cell_volume 3359.280530
_symmetry_space_group_name_H-M "P N M A"
_symmetry_group_IT_number 62
_symmetry_cell_setting 'orthorhombic'
loop_
_space_group_symop_operation_xyz
x,y,z
1/2-x,-y,1/2+z
1/2+x,1/2-y,1/2-z
-x,1/2+y,-z
-x,-y,-z
1/2+x,y,1/2-z
1/2-x,1/2+y,1/2+z
x,1/2-y,z
loop_
_atom_site_type_symbol
_atom_site_label
_atom_site_fract_x
_atom_site_fract_y
_atom_site_fract_z
Si Si1 0.355913 0.828956 0.404302
Si Si2 0.719686 0.065114 0.188340
Si Si3 0.150026 0.590772 0.306663
Si Si4 0.895565 0.421456 0.859036
Si Si5 0.278005 0.670840 0.568539
Si Si6 0.090519 0.065558 0.585228
Si Si7 0.457303 0.922750 0.668141
Si Si8 0.006672 0.910156 0.571274
O O1 0.397730 0.750000 0.392359
O O2 0.249182 0.850787 0.340293
O O3 0.496309 0.874304 0.402607
O O4 0.282772 0.841229 0.482032
O O5 0.641869 0.088296 0.261834
O O6 0.633244 0.096724 0.120627
O O7 0.879422 0.094308 0.188043
O O8 0.726999 0.982551 0.182848
O O9 0.122544 0.606968 0.222608
O O10 0.998499 0.591856 0.346004
O O11 0.751215 0.413384 0.903032
O O12 0.948472 0.499686 0.860598
O O13 0.296954 0.750000 0.590264
O O14 0.405541 0.628991 0.605819
O O15 0.123426 0.645664 0.595498
O O16 0.037184 0.102190 0.512102
O O17 0.081211 0.983580 0.580381
#
# Coordination Sequence:
#
# PCOD8252612 Si02
#       8
#     8   8   8   8   8   8   8   8
#     4  11  24  41  58  87 128 167 207 252 311 374
#     4  10  22  36  65  96 121 151 199 262 311 360
#     4  10  20  38  59  89 123 159 201 254 311 364
#     4  11  22  35  63  92 123 161 206 262 302 365
#     4  11  24  43  63  86 126 172 206 251 314 371
#     4  10  20  34  60  92 120 153 205 257 307 354
#     4  11  22  39  63  94 127 158 203 259 313 364
#     4  10  20  38  60  90 121 155 205 254 304 370
#
# _framework density 19.051697999999998
#
# number of rings (size 3 to 8) (size 9 to 14) (size 15 to 20)
#    0.000    1.500    3.750    1.500    8.750    1.000 
#    0.000    4.375    0.000    0.000    0.000    0.000 
#    0.000    0.000    0.000    0.000    0.000    0.000 
#
# Total GULP energy -793929.669465 kJ/mol
# GULP energy per Si atom -12405.151085 kJ/mol
# Density = 1.900834 g / cm^3
# Si number density = 19.051698 Si / 1000 Ang^3
#
#
#
# Elastic Constant Matrix: (Units=GPa)
#
#
# Indices 1 2 3 4 5 6 
#
# 1 134.5894 46.2497 28.0526 0.0000 0.0000 0.0000
# 2 46.2497 78.6562 40.5769 0.0000 0.0000 0.0000
# 3 28.0526 40.5769 65.8860 0.0000 0.0000 0.0000
# 4 0.0000 0.0000 0.0000 24.4210 0.0000 0.0000
# 5 0.0000 0.0000 0.0000 0.0000 29.2013 0.0000
# 6 0.0000 0.0000 0.0000 0.0000 0.0000 24.7573
#
#
#
# Elastic Compliance Matrix: (Units=1/GPa)
#
#
# Indices 1 2 3 4 5 6 
#
# 1 0.009345 -0.005045 -0.000872 0.000000 0.000000 0.000000
# 2 -0.005045 0.021358 -0.011005 0.000000 0.000000 0.000000
# 3 -0.000872 -0.011005 0.022327 0.000000 0.000000 0.000000
# 4 0.000000 0.000000 0.000000 0.040948 0.000000 0.000000
# 5 0.000000 0.000000 0.000000 0.000000 0.034245 0.000000
# 6 0.000000 0.000000 0.000000 0.000000 0.000000 0.040392
#
#
# Mechanical properties :
#
#
# Convention : Reuss Voigt Hill
#
# Bulk Modulus (GPa) = 52.12420 56.54332 54.33376
# Shear Modulus (GPa) = 23.94007 26.62609 25.28308
#
# Velocity S-wave (km/s) = 3.54868 3.74247 3.64686
# Velocity P-wave (km/s) = 6.64903 6.95831 6.80542
#
# Compressibility (1/GPa) = 0.01918495
#
# Stress axis : x y z
#
# Youngs Moduli (GPa) = 107.00351 46.82181 44.78958
#
# Poissons Ratio (x) = 0.23623 0.03905
# Poissons Ratio (y) = 0.53988 0.49292
# Poissons Ratio (z) = 0.09328 0.51528
#
# Static dielectric constant tensor:
#      x y z
#    x 3.519510 0.000000 0.000000 
#    y 0.000000 3.230320 0.000000 
#    z 0.000000 0.000000 3.551600 
# 
# 
# High freq. dielectric constant tensor:
#      x y z
#    x 1.753760 0.000000 0.000000 
#    y 0.000000 1.708070 0.000000 
#    z 0.000000 0.000000 1.749930 
# 
# From -- ./inp_files/22551.got.cif
#   From: 2010.03.12/outbox.cif.g09.slc.cpg/sg62_12_cif.got.tgz:22551.got - 2010.04.10 19:12:36.
