data_PCOD8252833
_publ_section_title
;
Structure prediction by ZEFSAII (Michael W. Deem and Ramdas Pophale) SiO2 
 PCOD8252833
Probable space group: P N M A
;
_chemical_formula_sum "Si O2"
_cell_formula_units_Z 56
_cell_length_a 15.109585
_cell_length_b 8.724779
_cell_length_c 20.894968
_cell_angle_alpha 90.000000
_cell_angle_beta 90.000000
_cell_angle_gamma 90.000000
_cell_volume 2754.537452
_symmetry_space_group_name_H-M "P N M A"
_symmetry_group_IT_number 62
_symmetry_cell_setting 'orthorhombic'
loop_
_space_group_symop_operation_xyz
x,y,z
1/2-x,-y,1/2+z
1/2+x,1/2-y,1/2-z
-x,1/2+y,-z
-x,-y,-z
1/2+x,y,1/2-z
1/2-x,1/2+y,1/2+z
x,1/2-y,z
loop_
_atom_site_type_symbol
_atom_site_label
_atom_site_fract_x
_atom_site_fract_y
_atom_site_fract_z
Si Si1 0.510495 0.417513 0.097860
Si Si2 0.566606 0.930951 0.449770
Si Si3 0.213305 0.428873 0.973527
Si Si4 0.996831 0.569619 0.188143
Si Si5 0.378744 0.582765 0.024088
Si Si6 0.312932 0.068288 0.334929
Si Si7 0.630495 0.931020 0.200385
O O1 0.493574 0.250000 0.130025
O O2 0.418776 0.512811 0.090255
O O3 0.582473 0.513451 0.136567
O O4 0.543908 0.388607 0.026411
O O5 0.570426 0.750000 0.456709
O O6 0.537312 0.981321 0.379386
O O7 0.500000 0.000000 0.500000
O O8 0.660994 0.003748 0.465782
O O9 0.195202 0.250000 0.964756
O O10 0.185278 0.508869 0.907630
O O11 0.313788 0.461567 0.991241
O O12 0.978784 0.750000 0.191600
O O13 0.903144 0.485271 0.200202
O O14 0.069296 0.517866 0.240284
O O15 0.334934 0.750000 0.039413
O O16 0.307505 0.250000 0.335886
O O17 0.228089 0.005376 0.295864
O O18 0.643467 0.750000 0.197720
#
# Coordination Sequence:
#
# PCOD8252833 Si02
#       7
#     8   8   8   8   8   8   8
#     4  10  20  35  58  88 123 160 203 255 309 365
#     4  11  22  39  64  93 124 159 202 256 315 372
#     4  12  23  37  61  91 125 162 203 254 309 374
#     4  10  24  45  67  92 124 166 210 258 316 379
#     4  10  20  35  57  87 123 161 204 255 309 367
#     4  12  24  40  66  95 123 163 209 259 312 373
#     4  11  23  42  67  92 125 170 214 258 312 380
#
# _framework density 20.330093000000002
#
# number of rings (size 3 to 8) (size 9 to 14) (size 15 to 20)
#    0.000    1.143    2.857    4.286    0.000    2.857 
#    2.571    0.000    0.000    0.000    0.000    0.000 
#    0.000    0.000    0.000    0.000    0.000    0.000 
#
# Total GULP energy -694341.871366 kJ/mol
# GULP energy per Si atom -12398.961989 kJ/mol
# Density = 2.028382 g / cm^3
# Si number density = 20.330093 Si / 1000 Ang^3
#
#
#
# Elastic Constant Matrix: (Units=GPa)
#
#
# Indices 1 2 3 4 5 6 
#
# 1 118.8101 62.0079 64.4990 0.0000 0.0000 0.0000
# 2 62.0079 131.5063 46.3798 0.0000 0.0000 0.0000
# 3 64.4990 46.3798 79.1920 0.0000 0.0000 0.0000
# 4 0.0000 0.0000 0.0000 23.9317 0.0000 0.0000
# 5 0.0000 0.0000 0.0000 0.0000 36.4595 0.0000
# 6 0.0000 0.0000 0.0000 0.0000 0.0000 39.2512
#
#
#
# Elastic Compliance Matrix: (Units=1/GPa)
#
#
# Indices 1 2 3 4 5 6 
#
# 1 0.016488 -0.003829 -0.011186 0.000000 0.000000 0.000000
# 2 -0.003829 0.010473 -0.003015 0.000000 0.000000 0.000000
# 3 -0.011186 -0.003015 0.023504 0.000000 0.000000 0.000000
# 4 0.000000 0.000000 0.000000 0.041786 0.000000 0.000000
# 5 0.000000 0.000000 0.000000 0.000000 0.027428 0.000000
# 6 0.000000 0.000000 0.000000 0.000000 0.000000 0.025477
#
#
# Mechanical properties :
#
#
# Convention : Reuss Voigt Hill
#
# Bulk Modulus (GPa) = 69.42352 75.03133 72.22742
# Shear Modulus (GPa) = 26.87916 30.36992 28.62454
#
# Velocity S-wave (km/s) = 3.64006 3.86922 3.75639
# Velocity P-wave (km/s) = 7.20341 7.54637 7.37688
#
# Compressibility (1/GPa) = 0.01440434
#
# Stress axis : x y z
#
# Youngs Moduli (GPa) = 60.64991 95.48298 42.54583
#
# Poissons Ratio (x) = 0.36563 0.47593
# Poissons Ratio (y) = 0.23225 0.12827
# Poissons Ratio (z) = 0.67845 0.28787
#
# Static dielectric constant tensor:
#      x y z
#    x 3.332560 0.000000 0.000000 
#    y 0.000000 4.011610 0.000000 
#    z 0.000000 0.000000 3.319840 
# 
# 
# High freq. dielectric constant tensor:
#      x y z
#    x 1.800350 0.000000 0.000000 
#    y 0.000000 1.810450 0.000000 
#    z 0.000000 0.000000 1.771150 
# 
# From -- ./inp_files/27296.got.cif
#   From: 2010.03.12/outbox.cif.g09.slc.cpg/sg62_14_cif.got.tgz:27296.got - 2010.04.10 19:12:36.
