data_PCOD8252711
_publ_section_title
;
Structure prediction by ZEFSAII (Michael W. Deem and Ramdas Pophale) SiO2 
 PCOD8252711
Probable space group: P N M A
;
_chemical_formula_sum "Si O2"
_cell_formula_units_Z 40
_cell_length_a 13.544189
_cell_length_b 8.609332
_cell_length_c 18.553423
_cell_angle_alpha 90.000000
_cell_angle_beta 90.000000
_cell_angle_gamma 90.000000
_cell_volume 2163.448231
_symmetry_space_group_name_H-M "P N M A"
_symmetry_group_IT_number 62
_symmetry_cell_setting 'orthorhombic'
loop_
_space_group_symop_operation_xyz
x,y,z
1/2-x,-y,1/2+z
1/2+x,1/2-y,1/2-z
-x,1/2+y,-z
-x,-y,-z
1/2+x,y,1/2-z
1/2-x,1/2+y,1/2+z
x,1/2-y,z
loop_
_atom_site_type_symbol
_atom_site_label
_atom_site_fract_x
_atom_site_fract_y
_atom_site_fract_z
Si Si1 0.611008 0.068731 0.281301
Si Si2 0.710278 0.567558 0.145235
Si Si3 0.387366 0.069536 0.279595
Si Si4 0.108944 0.566659 0.502791
Si Si5 0.710625 0.067118 0.857525
O O1 0.630205 0.250000 0.268861
O O2 0.498770 0.033819 0.304126
O O3 0.633440 0.981004 0.206933
O O4 0.681624 0.007279 0.344645
O O5 0.728446 0.750000 0.149672
O O6 0.815206 0.482221 0.155936
O O7 0.666153 0.515990 0.069118
O O8 0.371875 0.250000 0.262150
O O9 0.362918 0.974701 0.207425
O O10 0.102452 0.750000 0.510775
O O11 0.168426 0.496961 0.568742
O O12 0.000000 0.500000 0.500000
O O13 0.721862 0.250000 0.862590
#
# Coordination Sequence:
#
# PCOD8252711 Si02
#       5
#     8   8   8   8   8
#     4  10  20  35  56  80 107 140 177 218 263 313
#     4  10  21  35  54  80 108 139 176 219 264 314
#     4  10  20  35  57  81 107 141 178 220 267 315
#     4  11  23  38  56  80 110 142 177 219 268 319
#     4  11  22  35  55  81 109 142 179 220 265 315
#
# _framework density 18.489003
#
# number of rings (size 3 to 8) (size 9 to 14) (size 15 to 20)
#    0.000    1.600    0.000    7.800    0.000    9.600 
#    0.000    1.000    0.000    0.000    0.000    0.000 
#    0.000    0.000    0.000    0.000    0.000    0.000 
#
# Total GULP energy -496138.713539 kJ/mol
# GULP energy per Si atom -12403.467838 kJ/mol
# Density = 1.844692 g / cm^3
# Si number density = 18.489003 Si / 1000 Ang^3
#
#
#
# Elastic Constant Matrix: (Units=GPa)
#
#
# Indices 1 2 3 4 5 6 
#
# 1 168.3950 39.6885 67.9901 0.0000 0.0000 0.0000
# 2 39.6885 36.6603 19.7411 0.0000 0.0000 0.0000
# 3 67.9901 19.7411 103.7557 0.0000 0.0000 0.0000
# 4 0.0000 0.0000 0.0000 32.3011 0.0000 0.0000
# 5 0.0000 0.0000 0.0000 0.0000 25.3144 0.0000
# 6 0.0000 0.0000 0.0000 0.0000 0.0000 29.8468
#
#
#
# Elastic Compliance Matrix: (Units=1/GPa)
#
#
# Indices 1 2 3 4 5 6 
#
# 1 0.009795 -0.007964 -0.004903 0.000000 0.000000 0.000000
# 2 -0.007964 0.036866 -0.001796 0.000000 0.000000 0.000000
# 3 -0.004903 -0.001796 0.013193 0.000000 0.000000 0.000000
# 4 0.000000 0.000000 0.000000 0.030959 0.000000 0.000000
# 5 0.000000 0.000000 0.000000 0.000000 0.039503 0.000000
# 6 0.000000 0.000000 0.000000 0.000000 0.000000 0.033504
#
#
# Mechanical properties :
#
#
# Convention : Reuss Voigt Hill
#
# Bulk Modulus (GPa) = 32.75663 62.62782 47.69223
# Shear Modulus (GPa) = 24.59149 29.58523 27.08836
#
# Velocity S-wave (km/s) = 3.65096 4.00453 3.83182
# Velocity P-wave (km/s) = 5.96053 7.43830 6.74004
#
# Compressibility (1/GPa) = 0.03052817
#
# Stress axis : x y z
#
# Youngs Moduli (GPa) = 102.09116 27.12519 75.79862
#
# Poissons Ratio (x) = 0.21602 0.37167
# Poissons Ratio (y) = 0.81304 0.13611
# Poissons Ratio (z) = 0.50060 0.04871
#
# Static dielectric constant tensor:
#      x y z
#    x 3.362920 0.000000 0.000000 
#    y 0.000000 3.595800 0.000000 
#    z 0.000000 0.000000 3.377300 
# 
# 
# High freq. dielectric constant tensor:
#      x y z
#    x 1.728750 0.000000 0.000000 
#    y 0.000000 1.737920 0.000000 
#    z 0.000000 0.000000 1.704060 
# 
# From -- ./inp_files/23451.got.cif
#   From: 2010.03.12/outbox.cif.g09.slc.cpg/sg62_12_cif.got.tgz:23451.got - 2010.04.10 19:12:36.
