data_PCOD8252534
_publ_section_title
;
Structure prediction by ZEFSAII (Michael W. Deem and Ramdas Pophale) SiO2 
 PCOD8252534
Probable space group: P N M A
;
_chemical_formula_sum "Si O2"
_cell_formula_units_Z 48
_cell_length_a 11.771791
_cell_length_b 8.840035
_cell_length_c 23.885372
_cell_angle_alpha 90.000000
_cell_angle_beta 90.000000
_cell_angle_gamma 90.000000
_cell_volume 2485.584528
_symmetry_space_group_name_H-M "P N M A"
_symmetry_group_IT_number 62
_symmetry_cell_setting 'orthorhombic'
loop_
_space_group_symop_operation_xyz
x,y,z
1/2-x,-y,1/2+z
1/2+x,1/2-y,1/2-z
-x,1/2+y,-z
-x,-y,-z
1/2+x,y,1/2-z
1/2-x,1/2+y,1/2+z
x,1/2-y,z
loop_
_atom_site_type_symbol
_atom_site_label
_atom_site_fract_x
_atom_site_fract_y
_atom_site_fract_z
Si Si1 0.031008 0.572593 0.103226
Si Si2 0.750247 0.927734 0.462544
Si Si3 0.323668 0.071221 0.705587
Si Si4 0.371903 0.071965 0.139453
Si Si5 0.897161 0.424878 0.671137
Si Si6 0.215665 0.425765 0.923600
O O1 0.013418 0.750000 0.107788
O O2 0.121386 0.529503 0.055124
O O3 0.078157 0.514064 0.162998
O O4 0.908513 0.501249 0.088984
O O5 0.771352 0.750000 0.459653
O O6 0.838936 0.004039 0.420618
O O7 0.772871 0.987250 0.524744
O O8 0.304593 0.250000 0.700087
O O9 0.358433 0.022455 0.767503
O O10 0.205223 0.993414 0.689403
O O11 0.357341 0.250000 0.136990
O O12 0.501279 0.030052 0.151380
O O13 0.936047 0.250000 0.671228
O O14 0.790902 0.451712 0.630898
O O15 0.207104 0.250000 0.939768
#
# Coordination Sequence:
#
# PCOD8252534 Si02
#       6
#     8   8   8   8   8   8
#     4   8  16  32  56  85 113 142 184 234 283 334
#     4  10  20  37  59  82 112 152 193 235 284 345
#     4   9  19  37  62  86 112 148 193 236 280 341
#     4  11  23  39  59  82 115 152 190 237 287 340
#     4  10  22  37  59  86 115 152 193 235 282 341
#     4  10  20  34  55  87 117 145 186 237 288 336
#
# _framework density 19.311350999999998
#
# number of rings (size 3 to 8) (size 9 to 14) (size 15 to 20)
#    0.000    2.333    0.000    3.500    2.333    2.000 
#    0.000    3.333    0.000    0.000    0.000    0.000 
#    0.000    0.000    0.000    0.000    0.000    0.000 
#
# Total GULP energy -595299.761449 kJ/mol
# GULP energy per Si atom -12402.078364 kJ/mol
# Density = 1.926740 g / cm^3
# Si number density = 19.311351 Si / 1000 Ang^3
#
#
#
# Elastic Constant Matrix: (Units=GPa)
#
#
# Indices 1 2 3 4 5 6 
#
# 1 64.9931 25.5220 21.6884 0.0000 0.0000 0.0000
# 2 25.5220 68.2711 32.4315 0.0000 0.0000 0.0000
# 3 21.6884 32.4315 116.7055 0.0000 0.0000 0.0000
# 4 0.0000 0.0000 0.0000 25.0815 0.0000 0.0000
# 5 0.0000 0.0000 0.0000 0.0000 17.7181 0.0000
# 6 0.0000 0.0000 0.0000 0.0000 0.0000 22.5013
#
#
#
# Elastic Compliance Matrix: (Units=1/GPa)
#
#
# Indices 1 2 3 4 5 6 
#
# 1 0.018332 -0.006031 -0.001731 0.000000 0.000000 0.000000
# 2 -0.006031 0.018859 -0.004120 0.000000 0.000000 0.000000
# 3 -0.001731 -0.004120 0.010035 0.000000 0.000000 0.000000
# 4 0.000000 0.000000 0.000000 0.039870 0.000000 0.000000
# 5 0.000000 0.000000 0.000000 0.000000 0.056440 0.000000
# 6 0.000000 0.000000 0.000000 0.000000 0.000000 0.044442
#
#
# Mechanical properties :
#
#
# Convention : Reuss Voigt Hill
#
# Bulk Modulus (GPa) = 42.62061 45.47262 44.04661
# Shear Modulus (GPa) = 22.77254 24.41535 23.59395
#
# Velocity S-wave (km/s) = 3.43772 3.55956 3.49917
# Velocity P-wave (km/s) = 6.15430 6.36334 6.25969
#
# Compressibility (1/GPa) = 0.02346283
#
# Stress axis : x y z
#
# Youngs Moduli (GPa) = 54.54900 53.02441 99.64960
#
# Poissons Ratio (x) = 0.31979 0.17248
# Poissons Ratio (y) = 0.32898 0.41056
# Poissons Ratio (z) = 0.09442 0.21846
#
# Static dielectric constant tensor:
#      x y z
#    x 3.571880 0.000000 0.000000 
#    y 0.000000 3.276660 0.000000 
#    z 0.000000 0.000000 3.665030 
# 
# 
# High freq. dielectric constant tensor:
#      x y z
#    x 1.752760 0.000000 0.000000 
#    y 0.000000 1.728380 0.000000 
#    z 0.000000 0.000000 1.760990 
# 
# From -- ./inp_files/29256.got.cif
#   From: 2010.03.12/outbox.cif.g09.slc.cpg/sg62_15_cif.got.tgz:29256.got - 2010.04.10 19:12:36.
