data_PCOD8252685
_publ_section_title
;
Structure prediction by ZEFSAII (Michael W. Deem and Ramdas Pophale) SiO2 
 PCOD8252685
Probable space group: P N M A
;
_chemical_formula_sum "Si O2"
_cell_formula_units_Z 64
_cell_length_a 24.951834
_cell_length_b 9.026302
_cell_length_c 14.976371
_cell_angle_alpha 90.000000
_cell_angle_beta 90.000000
_cell_angle_gamma 90.000000
_cell_volume 3373.020048
_symmetry_space_group_name_H-M "P N M A"
_symmetry_group_IT_number 62
_symmetry_cell_setting 'orthorhombic'
loop_
_space_group_symop_operation_xyz
x,y,z
1/2-x,-y,1/2+z
1/2+x,1/2-y,1/2-z
-x,1/2+y,-z
-x,-y,-z
1/2+x,y,1/2-z
1/2-x,1/2+y,1/2+z
x,1/2-y,z
loop_
_atom_site_type_symbol
_atom_site_label
_atom_site_fract_x
_atom_site_fract_y
_atom_site_fract_z
Si Si1 0.964410 0.579396 0.126147
Si Si2 0.958372 0.425242 0.306107
Si Si3 0.679008 0.577023 0.200456
Si Si4 0.693468 0.920407 0.397343
Si Si5 0.075271 0.078799 0.359632
Si Si6 0.779667 0.075319 0.510473
Si Si7 0.924542 0.418247 0.960076
Si Si8 0.383828 0.922303 0.053471
O O1 0.952206 0.750000 0.148741
O O2 0.945848 0.474774 0.206099
O O3 0.027349 0.552063 0.108974
O O4 0.929052 0.532357 0.041417
O O5 0.953929 0.250000 0.316479
O O6 0.913983 0.500524 0.366398
O O7 0.017186 0.484300 0.333494
O O8 0.667111 0.750000 0.198666
O O9 0.707528 0.534266 0.294484
O O10 0.621132 0.501817 0.196069
O O11 0.716250 0.530842 0.115876
O O12 0.709018 0.750000 0.415481
O O13 0.630398 0.947631 0.408678
O O14 0.723699 0.021549 0.469365
O O15 0.079840 0.250000 0.334871
O O16 0.082062 0.050158 0.464531
O O17 0.785253 0.250000 0.498426
O O18 0.825771 0.995508 0.454577
O O19 0.928107 0.250000 0.996679
O O20 0.376022 0.750000 0.074393
#
# Coordination Sequence:
#
# PCOD8252685 Si02
#       8
#     8   8   8   8   8   8   8   8
#     4  10  20  35  55  80 111 147 183 221 274 332
#     4  11  21  33  51  80 114 146 181 222 271 328
#     4   9  19  36  58  82 109 142 182 229 279 329
#     4  10  20  37  60  83 108 145 187 231 281 331
#     4   9  19  33  53  81 111 142 180 226 273 323
#     4  10  21  38  57  81 111 144 183 233 282 328
#     4   9  19  36  57  80 108 142 182 229 279 328
#     4  10  20  36  55  76 107 146 184 224 273 328
#
# _framework density 18.974094999999998
#
# number of rings (size 3 to 8) (size 9 to 14) (size 15 to 20)
#    0.000    2.250    0.000    2.625    0.000    4.500 
#    2.250    0.000    0.000    0.000    0.000    0.000 
#    0.000    0.000    0.000    0.000    0.000    0.000 
#
# Total GULP energy -793723.769758 kJ/mol
# GULP energy per Si atom -12401.933902 kJ/mol
# Density = 1.893091 g / cm^3
# Si number density = 18.974095 Si / 1000 Ang^3
#
#
#
# Elastic Constant Matrix: (Units=GPa)
#
#
# Indices 1 2 3 4 5 6 
#
# 1 59.9716 31.5473 45.6526 0.0000 0.0000 0.0000
# 2 31.5473 69.8368 40.1220 0.0000 0.0000 0.0000
# 3 45.6526 40.1220 100.6665 0.0000 0.0000 0.0000
# 4 0.0000 0.0000 0.0000 31.3750 0.0000 0.0000
# 5 0.0000 0.0000 0.0000 0.0000 25.3117 0.0000
# 6 0.0000 0.0000 0.0000 0.0000 0.0000 32.8114
#
#
#
# Elastic Compliance Matrix: (Units=1/GPa)
#
#
# Indices 1 2 3 4 5 6 
#
# 1 0.027811 -0.006896 -0.009864 0.000000 0.000000 0.000000
# 2 -0.006896 0.020282 -0.004956 0.000000 0.000000 0.000000
# 3 -0.009864 -0.004956 0.016382 0.000000 0.000000 0.000000
# 4 0.000000 0.000000 0.000000 0.031873 0.000000 0.000000
# 5 0.000000 0.000000 0.000000 0.000000 0.039507 0.000000
# 6 0.000000 0.000000 0.000000 0.000000 0.000000 0.030477
#
#
# Mechanical properties :
#
#
# Convention : Reuss Voigt Hill
#
# Bulk Modulus (GPa) = 47.52207 51.67985 49.60096
# Shear Modulus (GPa) = 23.06505 25.44315 24.25410
#
# Velocity S-wave (km/s) = 3.49034 3.66586 3.57918
# Velocity P-wave (km/s) = 6.42988 6.72415 6.57866
#
# Compressibility (1/GPa) = 0.02104285
#
# Stress axis : x y z
#
# Youngs Moduli (GPa) = 35.95721 49.30575 61.04118
#
# Poissons Ratio (x) = 0.34002 0.60210
# Poissons Ratio (y) = 0.24796 0.30253
# Poissons Ratio (z) = 0.35467 0.24437
#
# Static dielectric constant tensor:
#      x y z
#    x 3.336930 0.000000 0.000000 
#    y 0.000000 3.473430 0.000000 
#    z 0.000000 0.000000 3.523260 
# 
# 
# High freq. dielectric constant tensor:
#      x y z
#    x 1.723700 0.000000 0.000000 
#    y 0.000000 1.740460 0.000000 
#    z 0.000000 0.000000 1.742570 
# 
# From -- ./inp_files/20970.got.cif
#   From: 2010.03.12/outbox.cif.g09.slc.cpg/sg62_11_cif.got.tgz:20970.got - 2010.04.10 19:12:36.
