data_PCOD8252744
_publ_section_title
;
Structure prediction by ZEFSAII (Michael W. Deem and Ramdas Pophale) SiO2 
 PCOD8252744
Probable space group: P N M A
;
_chemical_formula_sum "Si O2"
_cell_formula_units_Z 40
_cell_length_a 15.498391
_cell_length_b 9.008869
_cell_length_c 15.406956
_cell_angle_alpha 90.000000
_cell_angle_beta 90.000000
_cell_angle_gamma 90.000000
_cell_volume 2151.165021
_symmetry_space_group_name_H-M "P N M A"
_symmetry_group_IT_number 62
_symmetry_cell_setting 'orthorhombic'
loop_
_space_group_symop_operation_xyz
x,y,z
1/2-x,-y,1/2+z
1/2+x,1/2-y,1/2-z
-x,1/2+y,-z
-x,-y,-z
1/2+x,y,1/2-z
1/2-x,1/2+y,1/2+z
x,1/2-y,z
loop_
_atom_site_type_symbol
_atom_site_label
_atom_site_fract_x
_atom_site_fract_y
_atom_site_fract_z
Si Si1 0.548660 0.577577 0.122018
Si Si2 0.429347 0.078337 0.442433
Si Si3 0.196538 0.423117 0.053173
Si Si4 0.056637 0.418658 0.200745
Si Si5 0.630345 0.423244 0.964911
O O1 0.569917 0.750000 0.109941
O O2 0.565469 0.531741 0.220603
O O3 0.449960 0.541947 0.097653
O O4 0.612658 0.485423 0.060947
O O5 0.422718 0.250000 0.468771
O O6 0.461606 0.061478 0.342992
O O7 0.500000 0.000000 0.500000
O O8 0.338502 0.998404 0.463542
O O9 0.207125 0.250000 0.035545
O O10 0.131749 0.456090 0.132145
O O11 0.288214 0.494005 0.077185
O O12 0.066738 0.250000 0.234314
O O13 0.649958 0.250000 0.972120
#
# Coordination Sequence:
#
# PCOD8252744 Si02
#       5
#     8   8   8   8   8
#     4  10  21  37  58  81 106 143 185 226 272 324
#     4   9  17  31  52  78 109 146 179 216 269 322
#     4  10  20  35  56  83 112 144 183 226 272 324
#     4   9  19  35  55  81 112 145 180 221 271 323
#     4  10  21  38  58  79 107 144 184 225 275 327
#
# _framework density 18.594577000000001
#
# number of rings (size 3 to 8) (size 9 to 14) (size 15 to 20)
#    0.000    2.400    0.000    3.600    0.000    7.200 
#    3.600    0.000    0.000    0.000    0.000    0.000 
#    0.000    0.000    0.000    0.000    0.000    0.000 
#
# Total GULP energy -495956.092382 kJ/mol
# GULP energy per Si atom -12398.902310 kJ/mol
# Density = 1.855225 g / cm^3
# Si number density = 18.594577 Si / 1000 Ang^3
#
#
#
# Elastic Constant Matrix: (Units=GPa)
#
#
# Indices 1 2 3 4 5 6 
#
# 1 90.3387 49.8455 30.8214 0.0000 0.0000 0.0000
# 2 49.8455 115.6138 44.6995 0.0000 0.0000 0.0000
# 3 30.8214 44.6995 82.3061 0.0000 0.0000 0.0000
# 4 0.0000 0.0000 0.0000 31.4813 0.0000 0.0000
# 5 0.0000 0.0000 0.0000 0.0000 14.7781 0.0000
# 6 0.0000 0.0000 0.0000 0.0000 0.0000 37.1605
#
#
#
# Elastic Compliance Matrix: (Units=1/GPa)
#
#
# Indices 1 2 3 4 5 6 
#
# 1 0.014971 -0.005426 -0.002659 0.000000 0.000000 0.000000
# 2 -0.005426 0.012915 -0.004982 0.000000 0.000000 0.000000
# 3 -0.002659 -0.004982 0.015851 0.000000 0.000000 0.000000
# 4 0.000000 0.000000 0.000000 0.031765 0.000000 0.000000
# 5 0.000000 0.000000 0.000000 0.000000 0.067668 0.000000
# 6 0.000000 0.000000 0.000000 0.000000 0.000000 0.026910
#
#
# Mechanical properties :
#
#
# Convention : Reuss Voigt Hill
#
# Bulk Modulus (GPa) = 56.81157 59.88794 58.34976
# Shear Modulus (GPa) = 24.74237 27.54346 26.14291
#
# Velocity S-wave (km/s) = 3.65173 3.85289 3.75366
# Velocity P-wave (km/s) = 6.95696 7.21597 7.08764
#
# Compressibility (1/GPa) = 0.01760205
#
# Stress axis : x y z
#
# Youngs Moduli (GPa) = 66.79687 77.42813 63.08643
#
# Poissons Ratio (x) = 0.42015 0.16776
# Poissons Ratio (y) = 0.36246 0.31430
# Poissons Ratio (z) = 0.17762 0.38575
#
# Static dielectric constant tensor:
#      x y z
#    x 3.518800 0.000000 0.000000 
#    y 0.000000 3.574470 0.000000 
#    z 0.000000 0.000000 3.286120 
# 
# 
# High freq. dielectric constant tensor:
#      x y z
#    x 1.717460 0.000000 0.000000 
#    y 0.000000 1.737660 0.000000 
#    z 0.000000 0.000000 1.702210 
# 
# From -- ./inp_files/18606.got.cif
#   From: 2010.03.12/outbox.cif.g09.slc.cpg/sg62_10_cif.got.tgz:18606.got - 2010.04.10 19:12:36.
