data_PCOD8252533
_publ_section_title
;
Structure prediction by ZEFSAII (Michael W. Deem and Ramdas Pophale) SiO2 
 PCOD8252533
Probable space group: P N M A
;
_chemical_formula_sum "Si O2"
_cell_formula_units_Z 64
_cell_length_a 8.854983
_cell_length_b 18.909969
_cell_length_c 20.152566
_cell_angle_alpha 90.000000
_cell_angle_beta 90.000000
_cell_angle_gamma 90.000000
_cell_volume 3374.495869
_symmetry_space_group_name_H-M "P N M A"
_symmetry_group_IT_number 62
_symmetry_cell_setting 'orthorhombic'
loop_
_space_group_symop_operation_xyz
x,y,z
1/2-x,-y,1/2+z
1/2+x,1/2-y,1/2-z
-x,1/2+y,-z
-x,-y,-z
1/2+x,y,1/2-z
1/2-x,1/2+y,1/2+z
x,1/2-y,z
loop_
_atom_site_type_symbol
_atom_site_label
_atom_site_fract_x
_atom_site_fract_y
_atom_site_fract_z
Si Si1 0.455482 0.327990 0.842148
Si Si2 0.129024 0.540866 0.419380
Si Si3 0.171272 0.330082 0.286272
Si Si4 0.346404 0.328337 0.158630
Si Si5 0.830061 0.043868 0.432521
Si Si6 0.352892 0.476984 0.678041
Si Si7 0.316724 0.028295 0.306986
Si Si8 0.280238 0.328907 0.714811
O O1 0.463430 0.250000 0.874506
O O2 0.445105 0.383513 0.901809
O O3 0.311217 0.333980 0.793554
O O4 0.603269 0.342423 0.797221
O O5 0.213508 0.545748 0.490001
O O6 0.248383 0.521272 0.363495
O O7 0.000123 0.482212 0.422436
O O8 0.212788 0.250000 0.311225
O O9 0.203076 0.335351 0.207503
O O10 0.272628 0.389969 0.322353
O O11 0.995754 0.347709 0.298606
O O12 0.360713 0.250000 0.129316
O O13 0.322196 0.377262 0.095584
O O14 0.711755 0.994369 0.394482
O O15 0.504772 0.519557 0.691291
O O16 0.236238 0.503187 0.734292
O O17 0.374306 0.391781 0.679313
O O18 0.328814 0.250000 0.689011
#
# Coordination Sequence:
#
# PCOD8252533 Si02
#       8
#     8   8   8   8   8   8   8   8
#     4  10  20  35  57  86 116 149 189 238 297 348
#     4  11  23  39  57  81 116 154 198 242 285 343
#     4  10  20  34  55  87 117 144 187 238 291 345
#     4  10  20  35  57  86 116 149 189 238 297 348
#     4  11  23  39  57  81 116 154 198 242 285 343
#     4  12  22  36  62  88 114 153 194 242 295 346
#     4  12  22  36  62  88 114 153 194 242 295 346
#     4  10  20  34  55  87 117 144 187 238 291 345
#
# _framework density 18.965795
#
# number of rings (size 3 to 8) (size 9 to 14) (size 15 to 20)
#    0.000    1.250    5.000    2.250    0.000    1.000 
#    0.000    0.000    0.000    0.750    0.000    0.000 
#    0.000    0.000    0.000    0.000    0.000    0.000 
#
# Total GULP energy -793538.351838 kJ/mol
# GULP energy per Si atom -12399.036747 kJ/mol
# Density = 1.892263 g / cm^3
# Si number density = 18.965795 Si / 1000 Ang^3
#
#
#
# Elastic Constant Matrix: (Units=GPa)
#
#
# Indices 1 2 3 4 5 6 
#
# 1 40.4612 -1.6797 5.0499 0.0000 0.0000 0.0000
# 2 -1.6797 116.3891 19.8418 0.0000 0.0000 0.0000
# 3 5.0499 19.8418 68.8815 0.0000 0.0000 0.0000
# 4 0.0000 0.0000 0.0000 23.5454 0.0000 0.0000
# 5 0.0000 0.0000 0.0000 0.0000 19.5916 0.0000
# 6 0.0000 0.0000 0.0000 0.0000 0.0000 25.6709
#
#
#
# Elastic Compliance Matrix: (Units=1/GPa)
#
#
# Indices 1 2 3 4 5 6 
#
# 1 0.024999 0.000708 -0.002037 0.000000 0.000000 0.000000
# 2 0.000708 0.009056 -0.002660 0.000000 0.000000 0.000000
# 3 -0.002037 -0.002660 0.015433 0.000000 0.000000 0.000000
# 4 0.000000 0.000000 0.000000 0.042471 0.000000 0.000000
# 5 0.000000 0.000000 0.000000 0.000000 0.051042 0.000000
# 6 0.000000 0.000000 0.000000 0.000000 0.000000 0.038955
#
#
# Mechanical properties :
#
#
# Convention : Reuss Voigt Hill
#
# Bulk Modulus (GPa) = 24.09097 30.23955 27.16526
# Shear Modulus (GPa) = 24.53744 27.26291 25.90018
#
# Velocity S-wave (km/s) = 3.60081 3.79552 3.69945
# Velocity P-wave (km/s) = 5.47884 5.93185 5.70984
#
# Compressibility (1/GPa) = 0.04150932
#
# Stress axis : x y z
#
# Youngs Moduli (GPa) = 40.00223 110.42845 64.79474
#
# Poissons Ratio (x) = -0.07818 0.13197
# Poissons Ratio (y) = -0.02832 0.17238
# Poissons Ratio (z) = 0.08147 0.29379
#
# Static dielectric constant tensor:
#      x y z
#    x 3.367040 0.000000 0.000000 
#    y 0.000000 3.913410 0.000000 
#    z 0.000000 0.000000 3.227030 
# 
# 
# High freq. dielectric constant tensor:
#      x y z
#    x 1.728770 0.000000 0.000000 
#    y 0.000000 1.764080 0.000000 
#    z 0.000000 0.000000 1.698840 
# 
# From -- ./inp_files/22553.got.cif
#   From: 2010.03.12/outbox.cif.g09.slc.cpg/sg62_12_cif.got.tgz:22553.got - 2010.04.10 19:12:36.
