data_PCOD8252600
_publ_section_title
;
Structure prediction by ZEFSAII (Michael W. Deem and Ramdas Pophale) SiO2 
 PCOD8252600
Probable space group: P N M A
;
_chemical_formula_sum "Si O2"
_cell_formula_units_Z 48
_cell_length_a 10.995643
_cell_length_b 18.653641
_cell_length_c 11.965882
_cell_angle_alpha 90.000000
_cell_angle_beta 90.000000
_cell_angle_gamma 90.000000
_cell_volume 2454.307424
_symmetry_space_group_name_H-M "P N M A"
_symmetry_group_IT_number 62
_symmetry_cell_setting 'orthorhombic'
loop_
_space_group_symop_operation_xyz
x,y,z
1/2-x,-y,1/2+z
1/2+x,1/2-y,1/2-z
-x,1/2+y,-z
-x,-y,-z
1/2+x,y,1/2-z
1/2-x,1/2+y,1/2+z
x,1/2-y,z
loop_
_atom_site_type_symbol
_atom_site_label
_atom_site_fract_x
_atom_site_fract_y
_atom_site_fract_z
Si Si1 0.763162 0.923168 0.907460
Si Si2 0.022065 0.581927 0.980884
Si Si3 0.875173 0.084737 0.617301
Si Si4 0.341915 0.333429 0.667349
Si Si5 0.148729 0.423527 0.567690
Si Si6 0.253940 0.563238 0.843943
O O1 0.755188 0.901216 0.777993
O O2 0.891743 0.889292 0.942430
O O3 0.743258 0.009554 0.918852
O O4 0.664792 0.888533 0.993252
O O5 0.119966 0.585612 0.882737
O O6 0.061269 0.624669 0.091214
O O7 0.000000 0.500000 0.000000
O O8 0.868541 0.150456 0.702868
O O9 0.014405 0.056505 0.609687
O O10 0.784796 0.022150 0.662467
O O11 0.356304 0.250000 0.644893
O O12 0.204044 0.357388 0.637262
O O13 0.149778 0.404232 0.434432
#
# Coordination Sequence:
#
# PCOD8252600 Si02
#       6
#     8   8   8   8   8   8
#     4  11  21  33  61  92 123 155 206 260 308 361
#     4  11  20  38  62  89 125 164 206 266 308 365
#     4  11  22  35  56  90 126 158 207 251 307 373
#     4  11  25  42  62  87 124 170 208 253 321 385
#     4  10  22  36  56  88 124 163 200 257 313 367
#     4  10  20  34  58  90 123 156 199 258 314 352
#
# _framework density 19.557452999999999
#
# number of rings (size 3 to 8) (size 9 to 14) (size 15 to 20)
#    0.000    1.333    6.667    2.000    9.333    0.667 
#    0.000    0.000    0.000    8.000    0.000    0.000 
#    0.000    0.000    0.000    0.000    0.000    0.000 
#
# Total GULP energy -594643.093828 kJ/mol
# GULP energy per Si atom -12388.397788 kJ/mol
# Density = 1.951294 g / cm^3
# Si number density = 19.557453 Si / 1000 Ang^3
#
#
#
# Elastic Constant Matrix: (Units=GPa)
#
#
# Indices 1 2 3 4 5 6 
#
# 1 110.9227 23.3659 43.0962 0.0000 0.0000 0.0000
# 2 23.3659 74.5623 35.2232 0.0000 0.0000 0.0000
# 3 43.0962 35.2232 161.8963 0.0000 0.0000 0.0000
# 4 0.0000 0.0000 0.0000 18.2592 0.0000 0.0000
# 5 0.0000 0.0000 0.0000 0.0000 23.0513 0.0000
# 6 0.0000 0.0000 0.0000 0.0000 0.0000 13.2193
#
#
#
# Elastic Compliance Matrix: (Units=1/GPa)
#
#
# Indices 1 2 3 4 5 6 
#
# 1 0.010360 -0.002166 -0.002286 0.000000 0.000000 0.000000
# 2 -0.002166 0.015401 -0.002774 0.000000 0.000000 0.000000
# 3 -0.002286 -0.002774 0.007389 0.000000 0.000000 0.000000
# 4 0.000000 0.000000 0.000000 0.054767 0.000000 0.000000
# 5 0.000000 0.000000 0.000000 0.000000 0.043381 0.000000
# 6 0.000000 0.000000 0.000000 0.000000 0.000000 0.075647
#
#
# Mechanical properties :
#
#
# Convention : Reuss Voigt Hill
#
# Bulk Modulus (GPa) = 53.48715 61.19468 57.34092
# Shear Modulus (GPa) = 21.96539 27.28571 24.62555
#
# Velocity S-wave (km/s) = 3.35494 3.73923 3.55228
# Velocity P-wave (km/s) = 6.51272 7.07107 6.79763
#
# Compressibility (1/GPa) = 0.01869608
#
# Stress axis : x y z
#
# Youngs Moduli (GPa) = 96.52522 64.93100 135.33680
#
# Poissons Ratio (x) = 0.14067 0.30944
# Poissons Ratio (y) = 0.20912 0.37543
# Poissons Ratio (z) = 0.22070 0.18012
#
# Static dielectric constant tensor:
#      x y z
#    x 0.000000 0.000000 0.000000 
#    y 0.000000 0.000000 0.000000 
#    z 0.000000 0.000000 0.000000 
# 
# 
# High freq. dielectric constant tensor:
#      x y z
#    x 1.773040 0.000000 0.000000 
#    y 0.000000 1.687370 0.000000 
#    z 0.000000 0.000000 1.782140 
# 
# From -- ./inp_files/12239.got.cif
#   From: 2010.03.12/outbox.cif.g09.slc.cpg/sg62_7_cif.got.tgz:12239.got - 2010.04.10 19:12:36.
