data_PCOD8252324
_publ_section_title
;
Structure prediction by ZEFSAII (Michael W. Deem and Ramdas Pophale) SiO2 
 PCOD8252324
Probable space group: P N M A
;
_chemical_formula_sum "Si O2"
_cell_formula_units_Z 64
_cell_length_a 9.884374
_cell_length_b 13.233327
_cell_length_c 25.247624
_cell_angle_alpha 90.000000
_cell_angle_beta 90.000000
_cell_angle_gamma 90.000000
_cell_volume 3302.468833
_symmetry_space_group_name_H-M "P N M A"
_symmetry_group_IT_number 62
_symmetry_cell_setting 'orthorhombic'
loop_
_space_group_symop_operation_xyz
x,y,z
1/2-x,-y,1/2+z
1/2+x,1/2-y,1/2-z
-x,1/2+y,-z
-x,-y,-z
1/2+x,y,1/2-z
1/2-x,1/2+y,1/2+z
x,1/2-y,z
loop_
_atom_site_type_symbol
_atom_site_label
_atom_site_fract_x
_atom_site_fract_y
_atom_site_fract_z
Si Si1 0.594151 0.131848 0.670266
Si Si2 0.341414 0.631664 0.946056
Si Si3 0.194342 0.864236 0.140073
Si Si4 0.942501 0.364547 0.529876
Si Si5 0.639517 0.138298 0.491832
Si Si6 0.367967 0.080122 0.531770
Si Si7 0.137145 0.962620 0.367721
Si Si8 0.438681 0.630393 0.207331
O O1 0.608228 0.250000 0.658036
O O2 0.451509 0.085291 0.650544
O O3 0.710775 0.077259 0.637374
O O4 0.600481 0.109479 0.732555
O O5 0.353357 0.750000 0.935009
O O6 0.352247 0.578578 0.888256
O O7 0.461713 0.586854 0.984010
O O8 0.200422 0.603062 0.974907
O O9 0.186302 0.750000 0.160341
O O10 0.225823 0.871744 0.077355
O O11 0.313131 0.913943 0.173773
O O12 0.990282 0.250000 0.531678
O O13 0.784048 0.378013 0.518448
O O14 0.958348 0.407393 0.588834
O O15 0.636347 0.250000 0.463773
O O16 0.515997 0.133020 0.534106
O O17 0.616636 0.040168 0.454767
O O18 0.065060 0.939649 0.311268
O O19 0.471546 0.750000 0.197719
#
# Coordination Sequence:
#
# PCOD8252324 Si02
#       8
#     8   8   8   8   8   8   8   8
#     4  10  21  37  56  83 113 139 177 227 280 332
#     4  11  24  38  53  80 115 150 188 228 267 316
#     4  10  20  33  53  78 109 147 182 218 266 329
#     4  10  20  35  54  81 115 146 182 224 266 325
#     4  10  21  34  51  76 110 148 184 220 262 315
#     4  11  21  35  54  77 114 152 182 223 266 321
#     4  12  21  34  58  83 108 149 184 222 271 331
#     4  10  21  36  56  83 112 139 175 227 281 335
#
# _framework density 19.379439999999999
#
# number of rings (size 3 to 8) (size 9 to 14) (size 15 to 20)
#    0.000    1.500    1.250    4.875    3.500    6.000 
#    0.000    0.000    0.000    0.750    0.000    1.750 
#    0.000    0.000    0.000    0.000    0.000    0.000 
#
# Total GULP energy -793066.762356 kJ/mol
# GULP energy per Si atom -12391.668162 kJ/mol
# Density = 1.933533 g / cm^3
# Si number density = 19.379440 Si / 1000 Ang^3
#
#
#
# Elastic Constant Matrix: (Units=GPa)
#
#
# Indices 1 2 3 4 5 6 
#
# 1 71.3001 30.2930 9.8137 0.0000 0.0000 0.0000
# 2 30.2930 57.7899 24.2741 0.0000 0.0000 0.0000
# 3 9.8137 24.2741 63.1947 0.0000 0.0000 0.0000
# 4 0.0000 0.0000 0.0000 22.8056 0.0000 0.0000
# 5 0.0000 0.0000 0.0000 0.0000 32.1934 0.0000
# 6 0.0000 0.0000 0.0000 0.0000 0.0000 19.7921
#
#
#
# Elastic Compliance Matrix: (Units=1/GPa)
#
#
# Indices 1 2 3 4 5 6 
#
# 1 0.018096 -0.009903 0.000994 0.000000 0.000000 0.000000
# 2 -0.009903 0.026053 -0.008469 0.000000 0.000000 0.000000
# 3 0.000994 -0.008469 0.018923 0.000000 0.000000 0.000000
# 4 0.000000 0.000000 0.000000 0.043849 0.000000 0.000000
# 5 0.000000 0.000000 0.000000 0.000000 0.031062 0.000000
# 6 0.000000 0.000000 0.000000 0.000000 0.000000 0.050525
#
#
# Mechanical properties :
#
#
# Convention : Reuss Voigt Hill
#
# Bulk Modulus (GPa) = 35.31802 35.67181 35.49491
# Shear Modulus (GPa) = 21.48653 23.48513 22.48583
#
# Velocity S-wave (km/s) = 3.33337 3.48495 3.41000
# Velocity P-wave (km/s) = 5.75145 5.88559 5.81891
#
# Compressibility (1/GPa) = 0.02831416
#
# Stress axis : x y z
#
# Youngs Moduli (GPa) = 55.26084 38.38364 52.84567
#
# Poissons Ratio (x) = 0.38012 -0.05252
# Poissons Ratio (y) = 0.54726 0.44757
# Poissons Ratio (z) = -0.05492 0.32509
#
# Static dielectric constant tensor:
#      x y z
#    x 3.760330 0.000000 0.000000 
#    y 0.000000 3.475860 0.000000 
#    z 0.000000 0.000000 3.313870 
# 
# 
# High freq. dielectric constant tensor:
#      x y z
#    x 1.780020 0.000000 0.000000 
#    y 0.000000 1.727460 0.000000 
#    z 0.000000 0.000000 1.725730 
# 
# From -- ./inp_files/28975.got.cif
#   From: 2010.03.12/outbox.cif.g09.slc.cpg/sg62_15_cif.got.tgz:28975.got - 2010.04.10 19:12:36.
