data_PCOD8252277
_publ_section_title
;
Structure prediction by ZEFSAII (Michael W. Deem and Ramdas Pophale) SiO2 
 PCOD8252277
Probable space group: P N M A
;
_chemical_formula_sum "Si O2"
_cell_formula_units_Z 56
_cell_length_a 19.834134
_cell_length_b 9.457343
_cell_length_c 16.608157
_cell_angle_alpha 90.000000
_cell_angle_beta 90.000000
_cell_angle_gamma 90.000000
_cell_volume 3115.328334
_symmetry_space_group_name_H-M "P N M A"
_symmetry_group_IT_number 62
_symmetry_cell_setting 'orthorhombic'
loop_
_space_group_symop_operation_xyz
x,y,z
1/2-x,-y,1/2+z
1/2+x,1/2-y,1/2-z
-x,1/2+y,-z
-x,-y,-z
1/2+x,y,1/2-z
1/2-x,1/2+y,1/2+z
x,1/2-y,z
loop_
_atom_site_type_symbol
_atom_site_label
_atom_site_fract_x
_atom_site_fract_y
_atom_site_fract_z
Si Si1 0.705232 0.414351 0.829400
Si Si2 0.525673 0.918043 0.243369
Si Si3 0.113973 0.417880 0.814137
Si Si4 0.182871 0.588641 0.518885
Si Si5 0.857656 0.084733 0.860748
Si Si6 0.044957 0.585134 0.437457
Si Si7 0.834142 0.584230 0.016003
O O1 0.690575 0.250000 0.843169
O O2 0.671820 0.469348 0.747146
O O3 0.784361 0.447377 0.823984
O O4 0.669852 0.493207 0.903267
O O5 0.525473 0.750000 0.241163
O O6 0.457892 0.977869 0.284642
O O7 0.588865 0.971630 0.295669
O O8 0.531006 0.974491 0.152077
O O9 0.112426 0.250000 0.816819
O O10 0.131470 0.474983 0.902816
O O11 0.182432 0.750000 0.548489
O O12 0.124076 0.560075 0.454634
O O13 0.254359 0.551414 0.477898
O O14 0.867411 0.250000 0.879753
O O15 0.868522 0.999354 0.942970
O O16 0.026021 0.750000 0.444633
O O17 0.000000 0.500000 0.500000
O O18 0.847645 0.750000 0.003442
#
# Coordination Sequence:
#
# PCOD8252277 Si02
#       7
#     8   8   8   8   8   8   8
#     4   9  17  30  51  73  95 125 162 202 238 281
#     4   9  18  31  48  72  99 127 161 202 243 284
#     4   9  17  29  48  72  95 124 162 199 237 284
#     4   9  18  31  48  71  97 126 158 196 243 291
#     4   9  18  32  50  72  97 125 162 203 243 285
#     4  10  20  33  51  73 101 132 162 199 245 293
#     4   9  18  32  50  71  96 125 162 201 241 287
#
# _framework density 17.975633999999999
#
# number of rings (size 3 to 8) (size 9 to 14) (size 15 to 20)
#    0.000    2.857    0.000    0.857    2.000    2.286 
#    0.000    1.429    0.000    1.714    0.000    0.000 
#    0.000    0.000    0.000    0.000    0.000    0.000 
#
# Total GULP energy -694398.468131 kJ/mol
# GULP energy per Si atom -12399.972645 kJ/mol
# Density = 1.793472 g / cm^3
# Si number density = 17.975634 Si / 1000 Ang^3
#
#
#
# Elastic Constant Matrix: (Units=GPa)
#
#
# Indices 1 2 3 4 5 6 
#
# 1 111.4245 30.0627 91.3032 0.0000 0.0000 0.0000
# 2 30.0627 32.5886 42.6556 0.0000 0.0000 0.0000
# 3 91.3032 42.6556 174.7822 0.0000 0.0000 0.0000
# 4 0.0000 0.0000 0.0000 28.0257 0.0000 0.0000
# 5 0.0000 0.0000 0.0000 0.0000 37.1690 0.0000
# 6 0.0000 0.0000 0.0000 0.0000 0.0000 18.3793
#
#
#
# Elastic Compliance Matrix: (Units=1/GPa)
#
#
# Indices 1 2 3 4 5 6 
#
# 1 0.016393 -0.005751 -0.007160 0.000000 0.000000 0.000000
# 2 -0.005751 0.047106 -0.008492 0.000000 0.000000 0.000000
# 3 -0.007160 -0.008492 0.011534 0.000000 0.000000 0.000000
# 4 0.000000 0.000000 0.000000 0.035682 0.000000 0.000000
# 5 0.000000 0.000000 0.000000 0.000000 0.026904 0.000000
# 6 0.000000 0.000000 0.000000 0.000000 0.000000 0.054409
#
#
# Mechanical properties :
#
#
# Convention : Reuss Voigt Hill
#
# Bulk Modulus (GPa) = 31.02932 71.87093 51.45013
# Shear Modulus (GPa) = 20.36020 27.03304 23.69662
#
# Velocity S-wave (km/s) = 3.36915 3.88218 3.63473
# Velocity P-wave (km/s) = 5.69510 7.75657 6.80436
#
# Compressibility (1/GPa) = 0.03222758
#
# Stress axis : x y z
#
# Youngs Moduli (GPa) = 61.00006 21.22874 86.69815
#
# Poissons Ratio (x) = 0.12208 0.62077
# Poissons Ratio (y) = 0.35079 0.73625
# Poissons Ratio (z) = 0.43677 0.18028
#
# Static dielectric constant tensor:
#      x y z
#    x 3.496850 0.000000 0.000000 
#    y 0.000000 3.017030 0.000000 
#    z 0.000000 0.000000 3.487850 
# 
# 
# High freq. dielectric constant tensor:
#      x y z
#    x 1.705170 0.000000 0.000000 
#    y 0.000000 1.657450 0.000000 
#    z 0.000000 0.000000 1.701150 
# 
# From -- ./inp_files/20266.got.cif
#   From: 2010.03.12/outbox.cif.g09.slc.cpg/sg62_11_cif.got.tgz:20266.got - 2010.04.10 19:12:36.
