data_PCOD8252480
_publ_section_title
;
Structure prediction by ZEFSAII (Michael W. Deem and Ramdas Pophale) SiO2 
 PCOD8252480
Probable space group: P N M A
;
_chemical_formula_sum "Si O2"
_cell_formula_units_Z 56
_cell_length_a 12.616329
_cell_length_b 16.441628
_cell_length_c 13.648055
_cell_angle_alpha 90.000000
_cell_angle_beta 90.000000
_cell_angle_gamma 90.000000
_cell_volume 2831.056831
_symmetry_space_group_name_H-M "P N M A"
_symmetry_group_IT_number 62
_symmetry_cell_setting 'orthorhombic'
loop_
_space_group_symop_operation_xyz
x,y,z
1/2-x,-y,1/2+z
1/2+x,1/2-y,1/2-z
-x,1/2+y,-z
-x,-y,-z
1/2+x,y,1/2-z
1/2-x,1/2+y,1/2+z
x,1/2-y,z
loop_
_atom_site_type_symbol
_atom_site_label
_atom_site_fract_x
_atom_site_fract_y
_atom_site_fract_z
Si Si1 0.650070 0.481064 0.676720
Si Si2 0.887616 0.655537 0.842936
Si Si3 0.132008 0.919305 0.349692
Si Si4 0.559535 0.582321 0.522091
Si Si5 0.827883 0.154501 0.444240
Si Si6 0.497249 0.434614 0.173502
Si Si7 0.519504 0.844566 0.331666
O O1 0.767504 0.456188 0.707057
O O2 0.656319 0.549523 0.589375
O O3 0.597149 0.524589 0.767434
O O4 0.585447 0.398460 0.651011
O O5 0.877042 0.750000 0.817456
O O6 0.776223 0.621012 0.886845
O O7 0.982164 0.643505 0.920076
O O8 0.916369 0.608779 0.742944
O O9 0.175602 0.871689 0.443052
O O10 0.073333 0.860342 0.273063
O O11 0.056808 0.993256 0.384519
O O12 0.500000 0.500000 0.500000
O O13 0.597101 0.628459 0.422491
O O14 0.824466 0.250000 0.438903
O O15 0.940737 0.127043 0.400226
O O16 0.489429 0.750000 0.338709
#
# Coordination Sequence:
#
# PCOD8252480 Si02
#       7
#     8   8   8   8   8   8   8
#     4   9  20  35  56  80 106 141 183 225 267 322
#     4  10  20  35  59  86 108 137 181 231 280 325
#     4  11  22  36  55  80 111 150 189 219 260 325
#     4   9  17  32  53  80 109 137 175 222 270 320
#     4  11  22  36  56  81 110 144 181 223 272 326
#     4  10  21  38  57  81 110 142 180 229 277 320
#     4  10  20  34  54  82 114 143 175 223 277 324
#
# _framework density 19.7806
#
# number of rings (size 3 to 8) (size 9 to 14) (size 15 to 20)
#    0.000    2.000    0.000    5.143    0.000    3.429 
#    0.000    0.000    0.000    6.000    0.000    0.000 
#    0.000    0.000    0.000    0.000    0.000    0.000 
#
# Total GULP energy -694025.932181 kJ/mol
# GULP energy per Si atom -12393.320218 kJ/mol
# Density = 1.973558 g / cm^3
# Si number density = 19.780600 Si / 1000 Ang^3
#
#
#
# Elastic Constant Matrix: (Units=GPa)
#
#
# Indices 1 2 3 4 5 6 
#
# 1 67.2446 28.8891 23.2919 0.0000 0.0000 0.0000
# 2 28.8891 89.0513 27.6248 0.0000 0.0000 0.0000
# 3 23.2919 27.6248 60.4388 0.0000 0.0000 0.0000
# 4 0.0000 0.0000 0.0000 28.9883 0.0000 0.0000
# 5 0.0000 0.0000 0.0000 0.0000 14.2235 0.0000
# 6 0.0000 0.0000 0.0000 0.0000 0.0000 21.8376
#
#
#
# Elastic Compliance Matrix: (Units=1/GPa)
#
#
# Indices 1 2 3 4 5 6 
#
# 1 0.018548 -0.004428 -0.005124 0.000000 0.000000 0.000000
# 2 -0.004428 0.014142 -0.004757 0.000000 0.000000 0.000000
# 3 -0.005124 -0.004757 0.020695 0.000000 0.000000 0.000000
# 4 0.000000 0.000000 0.000000 0.034497 0.000000 0.000000
# 5 0.000000 0.000000 0.000000 0.000000 0.070306 0.000000
# 6 0.000000 0.000000 0.000000 0.000000 0.000000 0.045793
#
#
# Mechanical properties :
#
#
# Convention : Reuss Voigt Hill
#
# Bulk Modulus (GPa) = 40.37788 41.81626 41.09707
# Shear Modulus (GPa) = 20.75943 22.13846 21.44894
#
# Velocity S-wave (km/s) = 3.24309 3.34907 3.29651
# Velocity P-wave (km/s) = 5.87203 6.01174 5.94229
#
# Compressibility (1/GPa) = 0.02476603
#
# Stress axis : x y z
#
# Youngs Moduli (GPa) = 53.91360 70.71312 48.32091
#
# Poissons Ratio (x) = 0.31309 0.24762
# Poissons Ratio (y) = 0.23871 0.22988
# Poissons Ratio (z) = 0.27627 0.33641
#
# Static dielectric constant tensor:
#      x y z
#    x 3.435260 0.000000 0.000000 
#    y 0.000000 3.634510 0.000000 
#    z 0.000000 0.000000 3.629450 
# 
# 
# High freq. dielectric constant tensor:
#      x y z
#    x 1.752010 0.000000 0.000000 
#    y 0.000000 1.776610 0.000000 
#    z 0.000000 0.000000 1.771160 
# 
# From -- ./inp_files/18085.got.cif
#   From: 2010.03.12/outbox.cif.g09.slc.cpg/sg62_10_cif.got.tgz:18085.got - 2010.04.10 19:12:36.
