data_PCOD8252864
_publ_section_title
;
Structure prediction by ZEFSAII (Michael W. Deem and Ramdas Pophale) SiO2 
 PCOD8252864
Probable space group: P N M A
;
_chemical_formula_sum "Si O2"
_cell_formula_units_Z 64
_cell_length_a 23.692789
_cell_length_b 8.796568
_cell_length_c 15.351938
_cell_angle_alpha 90.000000
_cell_angle_beta 90.000000
_cell_angle_gamma 90.000000
_cell_volume 3199.577682
_symmetry_space_group_name_H-M "P N M A"
_symmetry_group_IT_number 62
_symmetry_cell_setting 'orthorhombic'
loop_
_space_group_symop_operation_xyz
x,y,z
1/2-x,-y,1/2+z
1/2+x,1/2-y,1/2-z
-x,1/2+y,-z
-x,-y,-z
1/2+x,y,1/2-z
1/2-x,1/2+y,1/2+z
x,1/2-y,z
loop_
_atom_site_type_symbol
_atom_site_label
_atom_site_fract_x
_atom_site_fract_y
_atom_site_fract_z
Si Si1 0.424183 0.926336 0.242623
Si Si2 0.371083 0.571248 0.906902
Si Si3 0.141164 0.570914 0.584819
Si Si4 0.128738 0.929813 0.098310
Si Si5 0.868657 0.424651 0.094640
Si Si6 0.751044 0.923727 0.666291
Si Si7 0.749747 0.070744 0.847166
Si Si8 0.055710 0.927476 0.258758
O O1 0.412066 0.750000 0.224696
O O2 0.490047 0.963683 0.242681
O O3 0.395497 0.023746 0.167628
O O4 0.399428 0.969698 0.336108
O O5 0.374198 0.750000 0.921468
O O6 0.308431 0.518577 0.878560
O O7 0.416352 0.522720 0.835483
O O8 0.387863 0.490114 0.996973
O O9 0.144612 0.750000 0.582072
O O10 0.203968 0.503620 0.589496
O O11 0.134155 0.750000 0.096835
O O12 0.189047 0.996477 0.128330
O O13 0.081185 0.983455 0.166352
O O14 0.113047 0.984886 0.000995
O O15 0.887002 0.250000 0.110364
O O16 0.800656 0.438690 0.099107
O O17 0.758027 0.750000 0.698380
O O18 0.735928 0.028835 0.747923
O O19 0.745973 0.250000 0.859544
O O20 0.068680 0.750000 0.273782
#
# Coordination Sequence:
#
# PCOD8252864 Si02
#       8
#     8   8   8   8   8   8   8   8
#     4  11  24  41  61  86 118 157 205 256 301 353
#     4  11  23  40  64  93 124 156 199 247 300 362
#     4  12  25  41  62  88 122 160 201 246 302 363
#     4   9  19  37  62  90 120 158 196 238 297 357
#     4  10  20  37  61  87 121 160 195 237 295 357
#     4  10  20  35  58  90 126 159 190 236 295 357
#     4  11  20  35  63  92 122 157 196 241 297 358
#     4  10  22  42  63  86 119 159 204 251 302 357
#
# _framework density 20.002638999999999
#
# number of rings (size 3 to 8) (size 9 to 14) (size 15 to 20)
#    0.000    1.500    2.500    3.000    0.000    4.500 
#    0.000    3.125    0.000    0.000    0.000    0.000 
#    0.000    0.000    0.000    0.000    0.000    0.000 
#
# Total GULP energy -793890.580849 kJ/mol
# GULP energy per Si atom -12404.540326 kJ/mol
# Density = 1.995711 g / cm^3
# Si number density = 20.002639 Si / 1000 Ang^3
#
#
#
# Elastic Constant Matrix: (Units=GPa)
#
#
# Indices 1 2 3 4 5 6 
#
# 1 93.2285 34.7943 27.8117 0.0000 0.0000 0.0000
# 2 34.7943 76.9635 32.2053 0.0000 0.0000 0.0000
# 3 27.8117 32.2053 124.6005 0.0000 0.0000 0.0000
# 4 0.0000 0.0000 0.0000 29.4231 0.0000 0.0000
# 5 0.0000 0.0000 0.0000 0.0000 9.0379 0.0000
# 6 0.0000 0.0000 0.0000 0.0000 0.0000 19.7960
#
#
#
# Elastic Compliance Matrix: (Units=1/GPa)
#
#
# Indices 1 2 3 4 5 6 
#
# 1 0.013172 -0.005298 -0.001571 0.000000 0.000000 0.000000
# 2 -0.005298 0.016700 -0.003134 0.000000 0.000000 0.000000
# 3 -0.001571 -0.003134 0.009186 0.000000 0.000000 0.000000
# 4 0.000000 0.000000 0.000000 0.033987 0.000000 0.000000
# 5 0.000000 0.000000 0.000000 0.000000 0.110645 0.000000
# 6 0.000000 0.000000 0.000000 0.000000 0.000000 0.050515
#
#
# Mechanical properties :
#
#
# Convention : Reuss Voigt Hill
#
# Bulk Modulus (GPa) = 52.48437 53.82389 53.15413
# Shear Modulus (GPa) = 19.18936 24.98348 22.08642
#
# Velocity S-wave (km/s) = 3.10068 3.53797 3.32652
# Velocity P-wave (km/s) = 6.25417 6.60730 6.43316
#
# Compressibility (1/GPa) = 0.01905329
#
# Stress axis : x y z
#
# Youngs Moduli (GPa) = 75.91804 59.88197 108.85822
#
# Poissons Ratio (x) = 0.31723 0.17100
# Poissons Ratio (y) = 0.40219 0.34114
# Poissons Ratio (z) = 0.11925 0.18766
#
# Static dielectric constant tensor:
#      x y z
#    x 3.692760 0.000000 0.000000 
#    y 0.000000 3.479220 0.000000 
#    z 0.000000 0.000000 3.767950 
# 
# 
# High freq. dielectric constant tensor:
#      x y z
#    x 1.779550 0.000000 0.000000 
#    y 0.000000 1.768080 0.000000 
#    z 0.000000 0.000000 1.792740 
# 
# From -- ./inp_files/21004.got.cif
#   From: 2010.03.12/outbox.cif.g09.slc.cpg/sg62_11_cif.got.tgz:21004.got - 2010.04.10 19:12:36.
