data_PCOD8252384
_publ_section_title
;
Structure prediction by ZEFSAII (Michael W. Deem and Ramdas Pophale) SiO2 
 PCOD8252384
Probable space group: P N M A
;
_chemical_formula_sum "Si O2"
_cell_formula_units_Z 56
_cell_length_a 8.979606
_cell_length_b 20.370192
_cell_length_c 15.478198
_cell_angle_alpha 90.000000
_cell_angle_beta 90.000000
_cell_angle_gamma 90.000000
_cell_volume 2831.214683
_symmetry_space_group_name_H-M "P N M A"
_symmetry_group_IT_number 62
_symmetry_cell_setting 'orthorhombic'
loop_
_space_group_symop_operation_xyz
x,y,z
1/2-x,-y,1/2+z
1/2+x,1/2-y,1/2-z
-x,1/2+y,-z
-x,-y,-z
1/2+x,y,1/2-z
1/2-x,1/2+y,1/2+z
x,1/2-y,z
loop_
_atom_site_type_symbol
_atom_site_label
_atom_site_fract_x
_atom_site_fract_y
_atom_site_fract_z
Si Si1 0.802754 0.068704 0.044073
Si Si2 0.023657 0.548775 0.264705
Si Si3 0.744086 0.002864 0.868439
Si Si4 0.788975 0.575494 0.131004
Si Si5 0.629304 0.170845 0.149409
Si Si6 0.700373 0.677445 0.815798
Si Si7 0.864734 0.880988 0.953856
O O1 0.691389 0.126891 0.070699
O O2 0.968021 0.095787 0.058047
O O3 0.789306 0.000560 0.097743
O O4 0.775427 0.057362 0.942087
O O5 0.133230 0.504511 0.207235
O O6 0.130214 0.593411 0.325669
O O7 0.920533 0.506984 0.328865
O O8 0.917447 0.590212 0.201373
O O9 0.750045 0.932250 0.910952
O O10 0.820918 0.626464 0.053987
O O11 0.643427 0.250000 0.131243
O O12 0.459591 0.146871 0.161103
O O13 0.721004 0.144742 0.232831
O O14 0.664352 0.750000 0.785204
O O15 0.818143 0.681833 0.896920
#
# Coordination Sequence:
#
# PCOD8252384 Si02
#       7
#     8   8   8   8   8   8   8
#     4  11  21  35  53  79 114 141 180 223 262 320
#     4  10  20  34  52  74 114 146 180 210 268 322
#     4  10  21  34  51  82 112 146 177 217 266 320
#     4  10  21  34  51  82 112 146 177 217 266 320
#     4  10  23  39  56  79 106 141 183 221 264 318
#     4  10  23  39  56  79 106 141 183 221 264 318
#     4  11  21  35  53  79 114 141 180 223 262 320
#
# _framework density 19.779496999999999
#
# number of rings (size 3 to 8) (size 9 to 14) (size 15 to 20)
#    0.000    1.714    2.857    1.714    8.000    2.857 
#    0.000    0.000    0.000    0.000    0.000    6.000 
#    0.000    0.000    0.000    0.000    0.000    0.000 
#
# Total GULP energy -693830.771474 kJ/mol
# GULP energy per Si atom -12389.835205 kJ/mol
# Density = 1.973448 g / cm^3
# Si number density = 19.779497 Si / 1000 Ang^3
#
#
#
# Elastic Constant Matrix: (Units=GPa)
#
#
# Indices 1 2 3 4 5 6 
#
# 1 133.3093 15.0313 56.2176 0.0000 0.0000 0.0000
# 2 15.0313 34.7665 13.0113 0.0000 0.0000 0.0000
# 3 56.2176 13.0113 95.8233 0.0000 0.0000 0.0000
# 4 0.0000 0.0000 0.0000 18.3346 0.0000 0.0000
# 5 0.0000 0.0000 0.0000 0.0000 23.3910 0.0000
# 6 0.0000 0.0000 0.0000 0.0000 0.0000 17.9722
#
#
#
# Elastic Compliance Matrix: (Units=1/GPa)
#
#
# Indices 1 2 3 4 5 6 
#
# 1 0.010135 -0.002272 -0.005637 0.000000 0.000000 0.000000
# 2 -0.002272 0.030813 -0.002851 0.000000 0.000000 0.000000
# 3 -0.005637 -0.002851 0.014130 0.000000 0.000000 0.000000
# 4 0.000000 0.000000 0.000000 0.054542 0.000000 0.000000
# 5 0.000000 0.000000 0.000000 0.000000 0.042752 0.000000
# 6 0.000000 0.000000 0.000000 0.000000 0.000000 0.055641
#
#
# Mechanical properties :
#
#
# Convention : Reuss Voigt Hill
#
# Bulk Modulus (GPa) = 29.79999 48.04663 38.92331
# Shear Modulus (GPa) = 20.77111 23.91548 22.34330
#
# Velocity S-wave (km/s) = 3.24409 3.48099 3.36463
# Velocity P-wave (km/s) = 5.39731 6.36398 5.90048
#
# Compressibility (1/GPa) = 0.03355706
#
# Stress axis : x y z
#
# Youngs Moduli (GPa) = 98.66914 32.45432 70.76966
#
# Poissons Ratio (x) = 0.07374 0.39896
# Poissons Ratio (y) = 0.22418 0.20176
# Poissons Ratio (z) = 0.55624 0.09252
#
# Static dielectric constant tensor:
#      x y z
#    x 3.920600 0.000000 0.000000 
#    y 0.000000 3.228000 0.000000 
#    z 0.000000 0.000000 3.976110 
# 
# 
# High freq. dielectric constant tensor:
#      x y z
#    x 1.795330 0.000000 0.000000 
#    y 0.000000 1.709810 0.000000 
#    z 0.000000 0.000000 1.784230 
# 
# From -- ./inp_files/17191.got.cif
#   From: 2010.03.12/outbox.cif.g09.slc.cpg/sg62_9_cif.got.tgz:17191.got - 2010.04.10 19:12:36.
