data_PCOD8252182
_publ_section_title
;
Structure prediction by ZEFSAII (Michael W. Deem and Ramdas Pophale) SiO2 
 PCOD8252182
Probable space group: P N M A
;
_chemical_formula_sum "Si O2"
_cell_formula_units_Z 48
_cell_length_a 5.149158
_cell_length_b 22.969536
_cell_length_c 21.860902
_cell_angle_alpha 90.000000
_cell_angle_beta 90.000000
_cell_angle_gamma 90.000000
_cell_volume 2585.571296
_symmetry_space_group_name_H-M "P N M A"
_symmetry_group_IT_number 62
_symmetry_cell_setting 'orthorhombic'
loop_
_space_group_symop_operation_xyz
x,y,z
1/2-x,-y,1/2+z
1/2+x,1/2-y,1/2-z
-x,1/2+y,-z
-x,-y,-z
1/2+x,y,1/2-z
1/2-x,1/2+y,1/2+z
x,1/2-y,z
loop_
_atom_site_type_symbol
_atom_site_label
_atom_site_fract_x
_atom_site_fract_y
_atom_site_fract_z
Si Si1 0.254060 0.431356 0.966005
Si Si2 0.873075 0.009154 0.279412
Si Si3 0.749871 0.510319 0.419462
Si Si4 0.357083 0.814676 0.902684
Si Si5 0.869100 0.684783 0.981840
Si Si6 0.511299 0.859381 0.777478
O O1 0.536963 0.440874 0.936755
O O2 0.039330 0.464329 0.925695
O O3 0.268936 0.454359 0.036072
O O4 0.179919 0.362839 0.965177
O O5 0.645236 0.978097 0.239150
O O6 0.802019 0.008938 0.350558
O O7 0.927781 0.074818 0.256705
O O8 0.295188 0.750000 0.877600
O O9 0.611134 0.812981 0.942946
O O10 0.409855 0.857664 0.846666
O O11 0.112533 0.837605 0.941563
O O12 0.926677 0.750000 0.008616
O O13 0.291217 0.828718 0.734125
#
# Coordination Sequence:
#
# PCOD8252182 Si02
#       6
#     8   8   8   8   8   8
#     4  10  20  33  52  76 102 131 163 206 252 299
#     4  10  20  33  49  70  99 132 165 201 243 297
#     4  10  20  33  51  76 103 132 165 204 252 299
#     4  10  20  32  47  66  91 127 166 206 247 285
#     4  10  20  34  51  71  97 128 162 200 248 304
#     4  10  20  31  45  64  88 125 167 206 244 278
#
# _framework density 18.564561000000001
#
# number of rings (size 3 to 8) (size 9 to 14) (size 15 to 20)
#    0.000    2.000    0.000    4.000    0.000    6.000 
#    0.000    0.000    0.000    0.000    0.000    0.000 
#    0.000   13.333    0.000    0.000    0.000    0.000 
#
# Total GULP energy -594860.873682 kJ/mol
# GULP energy per Si atom -12392.934868 kJ/mol
# Density = 1.852231 g / cm^3
# Si number density = 18.564561 Si / 1000 Ang^3
#
#
#
# Elastic Constant Matrix: (Units=GPa)
#
#
# Indices 1 2 3 4 5 6 
#
# 1 145.9962 14.7222 34.9157 0.0000 0.0000 0.0000
# 2 14.7222 49.9615 9.6739 0.0000 0.0000 0.0000
# 3 34.9157 9.6739 56.1695 0.0000 0.0000 0.0000
# 4 0.0000 0.0000 0.0000 23.1384 0.0000 0.0000
# 5 0.0000 0.0000 0.0000 0.0000 28.4940 0.0000
# 6 0.0000 0.0000 0.0000 0.0000 0.0000 20.3907
#
#
#
# Elastic Compliance Matrix: (Units=1/GPa)
#
#
# Indices 1 2 3 4 5 6 
#
# 1 0.008149 -0.001469 -0.004812 0.000000 0.000000 0.000000
# 2 -0.001469 0.020971 -0.002698 0.000000 0.000000 0.000000
# 3 -0.004812 -0.002698 0.021259 0.000000 0.000000 0.000000
# 4 0.000000 0.000000 0.000000 0.043218 0.000000 0.000000
# 5 0.000000 0.000000 0.000000 0.000000 0.035095 0.000000
# 6 0.000000 0.000000 0.000000 0.000000 0.000000 0.049042
#
#
# Mechanical properties :
#
#
# Convention : Reuss Voigt Hill
#
# Bulk Modulus (GPa) = 30.84624 41.19454 36.02039
# Shear Modulus (GPa) = 24.21306 27.25896 25.73601
#
# Velocity S-wave (km/s) = 3.61538 3.83604 3.72734
# Velocity P-wave (km/s) = 5.83778 6.46980 6.16190
#
# Compressibility (1/GPa) = 0.03241886
#
# Stress axis : x y z
#
# Youngs Moduli (GPa) = 122.72176 47.68520 47.03821
#
# Poissons Ratio (x) = 0.07007 0.22636
# Poissons Ratio (y) = 0.18032 0.12693
# Poissons Ratio (z) = 0.59056 0.12867
#
# Static dielectric constant tensor:
#      x y z
#    x 4.088760 0.000000 0.000000 
#    y 0.000000 3.304780 0.000000 
#    z 0.000000 0.000000 2.978910 
# 
# 
# High freq. dielectric constant tensor:
#      x y z
#    x 1.761480 0.000000 0.000000 
#    y 0.000000 1.680210 0.000000 
#    z 0.000000 0.000000 1.681300 
# 
# From -- ./inp_files/21596.got.cif
#   From: 2010.03.12/outbox.cif.g09.slc.cpg/sg62_11_cif.got.tgz:21596.got - 2010.04.10 19:12:36.
