data_PCOD8252879
_publ_section_title
;
Structure prediction by ZEFSAII (Michael W. Deem and Ramdas Pophale) SiO2 
 PCOD8252879
Probable space group: P N M A
;
_chemical_formula_sum "Si O2"
_cell_formula_units_Z 56
_cell_length_a 19.546916
_cell_length_b 9.043304
_cell_length_c 16.212705
_cell_angle_alpha 90.000000
_cell_angle_beta 90.000000
_cell_angle_gamma 90.000000
_cell_volume 2865.898846
_symmetry_space_group_name_H-M "P N M A"
_symmetry_group_IT_number 62
_symmetry_cell_setting 'orthorhombic'
loop_
_space_group_symop_operation_xyz
x,y,z
1/2-x,-y,1/2+z
1/2+x,1/2-y,1/2-z
-x,1/2+y,-z
-x,-y,-z
1/2+x,y,1/2-z
1/2-x,1/2+y,1/2+z
x,1/2-y,z
loop_
_atom_site_type_symbol
_atom_site_label
_atom_site_fract_x
_atom_site_fract_y
_atom_site_fract_z
Si Si1 0.692759 0.920378 0.832048
Si Si2 0.902599 0.077586 0.181458
Si Si3 0.332382 0.421994 0.488182
Si Si4 0.175757 0.422723 0.502718
Si Si5 0.650004 0.078328 0.345724
Si Si6 0.966696 0.421707 0.752212
Si Si7 0.950235 0.077545 0.564185
O O1 0.680580 0.750000 0.856833
O O2 0.654325 0.963858 0.748672
O O3 0.772548 0.952106 0.817605
O O4 0.662865 0.022542 0.904169
O O5 0.920764 0.250000 0.184941
O O6 0.873085 0.031286 0.093090
O O7 0.970902 0.986164 0.195791
O O8 0.341138 0.250000 0.509069
O O9 0.252623 0.459706 0.474342
O O10 0.363685 0.514405 0.563270
O O11 0.159015 0.250000 0.498525
O O12 0.125370 0.508374 0.441340
O O13 0.631776 0.250000 0.347421
O O14 0.603190 0.999308 0.278741
O O15 0.960014 0.250000 0.772239
O O16 0.979099 0.450967 0.655553
O O17 0.946412 0.250000 0.543222
O O18 0.000000 0.000000 0.500000
#
# Coordination Sequence:
#
# PCOD8252879 Si02
#       7
#     8   8   8   8   8   8   8
#     4   9  19  36  60  87 118 151 193 242 288 344
#     4  10  21  38  60  85 113 152 196 240 290 347
#     4   9  20  38  60  86 117 151 192 240 292 347
#     4  10  20  35  59  87 117 152 190 235 292 350
#     4  10  21  38  62  88 116 153 196 242 293 348
#     4  11  25  41  57  84 119 155 195 242 294 350
#     4  11  24  40  59  85 119 156 197 241 293 353
#
# _framework density 19.540118
#
# number of rings (size 3 to 8) (size 9 to 14) (size 15 to 20)
#    0.000    2.000    0.000    2.571    2.000    7.429 
#    0.000    0.000    0.000    0.000    0.000    0.000 
#    0.000    0.000    0.000    0.000    0.000    0.000 
#
# Total GULP energy -694718.881694 kJ/mol
# GULP energy per Si atom -12405.694316 kJ/mol
# Density = 1.949564 g / cm^3
# Si number density = 19.540118 Si / 1000 Ang^3
#
#
#
# Elastic Constant Matrix: (Units=GPa)
#
#
# Indices 1 2 3 4 5 6 
#
# 1 80.0441 38.8444 30.8566 0.0000 0.0000 0.0000
# 2 38.8444 89.7871 39.1883 0.0000 0.0000 0.0000
# 3 30.8566 39.1883 67.4455 0.0000 0.0000 0.0000
# 4 0.0000 0.0000 0.0000 34.8300 0.0000 0.0000
# 5 0.0000 0.0000 0.0000 0.0000 37.4478 0.0000
# 6 0.0000 0.0000 0.0000 0.0000 0.0000 35.0646
#
#
#
# Elastic Compliance Matrix: (Units=1/GPa)
#
#
# Indices 1 2 3 4 5 6 
#
# 1 0.016835 -0.005254 -0.004649 0.000000 0.000000 0.000000
# 2 -0.005254 0.016561 -0.007219 0.000000 0.000000 0.000000
# 3 -0.004649 -0.007219 0.021148 0.000000 0.000000 0.000000
# 4 0.000000 0.000000 0.000000 0.028711 0.000000 0.000000
# 5 0.000000 0.000000 0.000000 0.000000 0.026704 0.000000
# 6 0.000000 0.000000 0.000000 0.000000 0.000000 0.028519
#
#
# Mechanical properties :
#
#
# Convention : Reuss Voigt Hill
#
# Bulk Modulus (GPa) = 49.26102 50.56173 49.91137
# Shear Modulus (GPa) = 27.85673 30.02764 28.94219
#
# Velocity S-wave (km/s) = 3.77983 3.92435 3.85277
# Velocity P-wave (km/s) = 6.65691 6.81660 6.73723
#
# Compressibility (1/GPa) = 0.02030002
#
# Stress axis : x y z
#
# Youngs Moduli (GPa) = 59.39947 60.38166 47.28501
#
# Poissons Ratio (x) = 0.31725 0.21984
# Poissons Ratio (y) = 0.31209 0.34135
# Poissons Ratio (z) = 0.27617 0.43589
#
# Static dielectric constant tensor:
#      x y z
#    x 3.621470 0.000000 0.000000 
#    y 0.000000 3.611210 0.000000 
#    z 0.000000 0.000000 3.542710 
# 
# 
# High freq. dielectric constant tensor:
#      x y z
#    x 1.767480 0.000000 0.000000 
#    y 0.000000 1.765960 0.000000 
#    z 0.000000 0.000000 1.762690 
# 
# From -- ./inp_files/20382.got.cif
#   From: 2010.03.12/outbox.cif.g09.slc.cpg/sg62_11_cif.got.tgz:20382.got - 2010.04.10 19:12:36.
