data_PCOD8252841
_publ_section_title
;
Structure prediction by ZEFSAII (Michael W. Deem and Ramdas Pophale) SiO2 
 PCOD8252841
Probable space group: P N M A
;
_chemical_formula_sum "Si O2"
_cell_formula_units_Z 48
_cell_length_a 28.869705
_cell_length_b 9.128231
_cell_length_c 10.201384
_cell_angle_alpha 90.000000
_cell_angle_beta 90.000000
_cell_angle_gamma 90.000000
_cell_volume 2688.363953
_symmetry_space_group_name_H-M "P N M A"
_symmetry_group_IT_number 62
_symmetry_cell_setting 'orthorhombic'
loop_
_space_group_symop_operation_xyz
x,y,z
1/2-x,-y,1/2+z
1/2+x,1/2-y,1/2-z
-x,1/2+y,-z
-x,-y,-z
1/2+x,y,1/2-z
1/2-x,1/2+y,1/2+z
x,1/2-y,z
loop_
_atom_site_type_symbol
_atom_site_label
_atom_site_fract_x
_atom_site_fract_y
_atom_site_fract_z
Si Si1 0.979054 0.578474 0.123494
Si Si2 0.885204 0.584287 0.528118
Si Si3 0.712322 0.577028 0.733432
Si Si4 0.780768 0.578092 0.501726
Si Si5 0.971135 0.077166 0.612501
Si Si6 0.381485 0.916615 0.274362
O O1 0.983972 0.750000 0.103088
O O2 0.925008 0.534835 0.137539
O O3 0.007784 0.527703 0.249637
O O4 0.000000 0.500000 0.000000
O O5 0.893236 0.750000 0.577845
O O6 0.832157 0.535722 0.550537
O O7 0.917850 0.475645 0.609719
O O8 0.898030 0.571932 0.375406
O O9 0.711736 0.750000 0.752886
O O10 0.745537 0.529624 0.614515
O O11 0.661118 0.523137 0.695618
O O12 0.731190 0.505247 0.867106
O O13 0.778231 0.750000 0.470234
O O14 0.973830 0.250000 0.591093
O O15 0.000000 0.000000 0.500000
O O16 0.365984 0.750000 0.304726
#
# Coordination Sequence:
#
# PCOD8252841 Si02
#       6
#     8   8   8   8   8   8
#     4  10  22  39  55  77 111 146 180 221 269 322
#     4   9  17  34  57  79 106 140 179 222 268 318
#     4  10  20  35  58  85 108 139 184 225 264 321
#     4   9  20  38  56  78 113 145 175 222 273 320
#     4  11  21  35  56  82 109 138 178 224 265 314
#     4   9  18  36  57  77 109 147 178 217 272 324
#
# _framework density 17.854724999999998
#
# number of rings (size 3 to 8) (size 9 to 14) (size 15 to 20)
#    0.000    2.333    1.667    2.000    0.000    6.000 
#    3.000    0.000    0.000    0.000    0.000    0.000 
#    0.000    0.000    0.000    0.000    0.000    0.000 
#
# Total GULP energy -595265.892609 kJ/mol
# GULP energy per Si atom -12401.372763 kJ/mol
# Density = 1.781409 g / cm^3
# Si number density = 17.854725 Si / 1000 Ang^3
#
#
#
# Elastic Constant Matrix: (Units=GPa)
#
#
# Indices 1 2 3 4 5 6 
#
# 1 119.8325 51.7374 87.9285 0.0000 0.0000 0.0000
# 2 51.7374 67.1720 61.9105 0.0000 0.0000 0.0000
# 3 87.9285 61.9105 131.3336 0.0000 0.0000 0.0000
# 4 0.0000 0.0000 0.0000 31.5807 0.0000 0.0000
# 5 0.0000 0.0000 0.0000 0.0000 36.4245 0.0000
# 6 0.0000 0.0000 0.0000 0.0000 0.0000 32.3078
#
#
#
# Elastic Compliance Matrix: (Units=1/GPa)
#
#
# Indices 1 2 3 4 5 6 
#
# 1 0.017189 -0.004655 -0.009313 0.000000 0.000000 0.000000
# 2 -0.004655 0.027585 -0.009887 0.000000 0.000000 0.000000
# 3 -0.009313 -0.009887 0.018510 0.000000 0.000000 0.000000
# 4 0.000000 0.000000 0.000000 0.031665 0.000000 0.000000
# 5 0.000000 0.000000 0.000000 0.000000 0.027454 0.000000
# 6 0.000000 0.000000 0.000000 0.000000 0.000000 0.030952
#
#
# Mechanical properties :
#
#
# Convention : Reuss Voigt Hill
#
# Bulk Modulus (GPa) = 64.21372 80.16563 72.18968
# Shear Modulus (GPa) = 24.24152 27.84672 26.04412
#
# Velocity S-wave (km/s) = 3.68871 3.95350 3.82339
# Velocity P-wave (km/s) = 7.36103 8.11397 7.74665
#
# Compressibility (1/GPa) = 0.01557300
#
# Stress axis : x y z
#
# Youngs Moduli (GPa) = 58.17769 36.25135 54.02389
#
# Poissons Ratio (x) = 0.16876 0.50315
# Poissons Ratio (y) = 0.27083 0.53413
# Poissons Ratio (z) = 0.54184 0.35842
#
# Static dielectric constant tensor:
#      x y z
#    x 3.544510 0.000000 0.000000 
#    y 0.000000 3.238820 0.000000 
#    z 0.000000 0.000000 3.216900 
# 
# 
# High freq. dielectric constant tensor:
#      x y z
#    x 1.701400 0.000000 0.000000 
#    y 0.000000 1.690200 0.000000 
#    z 0.000000 0.000000 1.675810 
# 
# From -- ./inp_files/10247.got.cif
#   From: 2010.03.12/outbox.cif.g09.slc.cpg/sg62_6_cif.got.tgz:10247.got - 2010.04.10 19:12:36.
