data_PCOD8252815
_publ_section_title
;
Structure prediction by ZEFSAII (Michael W. Deem and Ramdas Pophale) SiO2 
 PCOD8252815
Probable space group: P N M A
;
_chemical_formula_sum "Si O2"
_cell_formula_units_Z 56
_cell_length_a 11.017545
_cell_length_b 12.661825
_cell_length_c 20.188896
_cell_angle_alpha 90.000000
_cell_angle_beta 90.000000
_cell_angle_gamma 90.000000
_cell_volume 2816.395947
_symmetry_space_group_name_H-M "P N M A"
_symmetry_group_IT_number 62
_symmetry_cell_setting 'orthorhombic'
loop_
_space_group_symop_operation_xyz
x,y,z
1/2-x,-y,1/2+z
1/2+x,1/2-y,1/2-z
-x,1/2+y,-z
-x,-y,-z
1/2+x,y,1/2-z
1/2-x,1/2+y,1/2+z
x,1/2-y,z
loop_
_atom_site_type_symbol
_atom_site_label
_atom_site_fract_x
_atom_site_fract_y
_atom_site_fract_z
Si Si1 0.598081 0.028824 0.096287
Si Si2 0.977858 0.482103 0.739716
Si Si3 0.272135 0.873001 0.212596
Si Si4 0.580671 0.630020 0.990960
Si Si5 0.675354 0.869847 0.550164
Si Si6 0.046837 0.130711 0.143812
Si Si7 0.265545 0.479976 0.580455
O O1 0.548731 0.119199 0.045187
O O2 0.739842 0.058977 0.098158
O O3 0.535839 0.034157 0.167465
O O4 0.577630 0.909966 0.067039
O O5 0.100781 0.412500 0.744840
O O6 0.003821 0.578054 0.789576
O O7 0.851877 0.421390 0.756064
O O8 0.264288 0.750000 0.226670
O O9 0.279638 0.894506 0.133945
O O10 0.629479 0.750000 0.988917
O O11 0.656375 0.543948 0.950871
O O12 0.723019 0.750000 0.544854
O O13 0.545100 0.872872 0.583226
O O14 0.660909 0.919408 0.476824
O O15 0.084596 0.250000 0.161025
O O16 0.162146 0.067465 0.120106
#
# Coordination Sequence:
#
# PCOD8252815 Si02
#       7
#     8   8   8   8   8   8   8
#     4  10  21  37  55  84 116 149 190 245 292 358
#     4  11  23  42  60  89 123 163 203 252 299 368
#     4  11  23  40  62  87 119 161 207 253 306 360
#     4  10  20  35  57  85 113 147 188 241 300 350
#     4  10  20  36  59  87 118 155 198 249 307 358
#     4  10  22  38  59  86 120 161 201 245 297 361
#     4  10  20  38  59  86 118 154 199 252 296 362
#
# _framework density 19.883568
#
# number of rings (size 3 to 8) (size 9 to 14) (size 15 to 20)
#    0.000    1.714    1.429    3.000    0.000    2.286 
#    0.000    2.143    0.000    9.429    0.000    0.000 
#    0.000    0.000    0.000    0.000    0.000    0.000 
#
# Total GULP energy -694097.883183 kJ/mol
# GULP energy per Si atom -12394.605057 kJ/mol
# Density = 1.983831 g / cm^3
# Si number density = 19.883568 Si / 1000 Ang^3
#
#
#
# Elastic Constant Matrix: (Units=GPa)
#
#
# Indices 1 2 3 4 5 6 
#
# 1 76.4916 22.7792 17.7828 0.0000 0.0000 0.0000
# 2 22.7792 118.3695 42.6458 0.0000 0.0000 0.0000
# 3 17.7828 42.6458 102.5437 0.0000 0.0000 0.0000
# 4 0.0000 0.0000 0.0000 25.0166 0.0000 0.0000
# 5 0.0000 0.0000 0.0000 0.0000 27.2537 0.0000
# 6 0.0000 0.0000 0.0000 0.0000 0.0000 21.2855
#
#
#
# Elastic Compliance Matrix: (Units=1/GPa)
#
#
# Indices 1 2 3 4 5 6 
#
# 1 0.014073 -0.002151 -0.001546 0.000000 0.000000 0.000000
# 2 -0.002151 0.010266 -0.003896 0.000000 0.000000 0.000000
# 3 -0.001546 -0.003896 0.011640 0.000000 0.000000 0.000000
# 4 0.000000 0.000000 0.000000 0.039973 0.000000 0.000000
# 5 0.000000 0.000000 0.000000 0.000000 0.036692 0.000000
# 6 0.000000 0.000000 0.000000 0.000000 0.000000 0.046980
#
#
# Mechanical properties :
#
#
# Convention : Reuss Voigt Hill
#
# Bulk Modulus (GPa) = 48.09391 51.53562 49.81476
# Shear Modulus (GPa) = 27.51130 28.99097 28.25114
#
# Velocity S-wave (km/s) = 3.72374 3.82257 3.77348
# Velocity P-wave (km/s) = 6.53671 6.74223 6.64027
#
# Compressibility (1/GPa) = 0.02079265
#
# Stress axis : x y z
#
# Youngs Moduli (GPa) = 71.05612 97.41013 85.90770
#
# Poissons Ratio (x) = 0.20957 0.13280
# Poissons Ratio (y) = 0.15287 0.33472
# Poissons Ratio (z) = 0.10984 0.37954
#
# Static dielectric constant tensor:
#      x y z
#    x 3.616970 0.000000 0.000000 
#    y 0.000000 3.602210 0.000000 
#    z 0.000000 0.000000 3.825290 
# 
# 
# High freq. dielectric constant tensor:
#      x y z
#    x 1.781430 0.000000 0.000000 
#    y 0.000000 1.773930 0.000000 
#    z 0.000000 0.000000 1.780080 
# 
# From -- ./inp_files/26631.got.cif
#   From: 2010.03.12/outbox.cif.g09.slc.cpg/sg62_14_cif.got.tgz:26631.got - 2010.04.10 19:12:36.
