data_PCOD8252217
_publ_section_title
;
Structure prediction by ZEFSAII (Michael W. Deem and Ramdas Pophale) SiO2 
 PCOD8252217
Probable space group: P N M A
;
_chemical_formula_sum "Si O2"
_cell_formula_units_Z 56
_cell_length_a 10.123662
_cell_length_b 14.575141
_cell_length_c 20.764256
_cell_angle_alpha 90.000000
_cell_angle_beta 90.000000
_cell_angle_gamma 90.000000
_cell_volume 3063.844900
_symmetry_space_group_name_H-M "P N M A"
_symmetry_group_IT_number 62
_symmetry_cell_setting 'orthorhombic'
loop_
_space_group_symop_operation_xyz
x,y,z
1/2-x,-y,1/2+z
1/2+x,1/2-y,1/2-z
-x,1/2+y,-z
-x,-y,-z
1/2+x,y,1/2-z
1/2-x,1/2+y,1/2+z
x,1/2-y,z
loop_
_atom_site_type_symbol
_atom_site_label
_atom_site_fract_x
_atom_site_fract_y
_atom_site_fract_z
Si Si1 0.646890 0.855547 0.527240
Si Si2 0.127050 0.646255 0.218417
Si Si3 0.610178 0.036769 0.770723
Si Si4 0.026638 0.146211 0.909113
Si Si5 0.692288 0.985588 0.637392
Si Si6 0.447540 0.641916 0.007256
Si Si7 0.008263 0.488346 0.395730
O O1 0.630007 0.750000 0.544652
O O2 0.537216 0.887465 0.475950
O O3 0.791246 0.874540 0.498078
O O4 0.621953 0.909985 0.593026
O O5 0.122874 0.750000 0.243286
O O6 0.275101 0.611464 0.226237
O O7 0.088147 0.638546 0.143849
O O8 0.028756 0.588377 0.262796
O O9 0.639642 0.969926 0.710199
O O10 0.598227 0.980169 0.837539
O O11 0.078928 0.250000 0.914801
O O12 0.151917 0.085556 0.889467
O O13 0.848402 0.976093 0.635346
O O14 0.484035 0.750000 0.011256
O O15 0.519344 0.594893 0.945557
O O16 0.496841 0.588308 0.070605
#
# Coordination Sequence:
#
# PCOD8252217 Si02
#       7
#     8   8   8   8   8   8   8
#     4   9  17  33  55  76 100 134 178 219 263 313
#     4  10  20  32  49  74 105 139 177 214 260 317
#     4  11  20  35  50  76 107 145 176 216 262 319
#     4   9  18  31  49  76 106 135 169 210 258 314
#     4  10  20  33  50  76 106 141 173 216 263 309
#     4   9  19  35  57  81 102 132 178 228 272 318
#     4  10  20  35  54  78 106 140 179 219 271 322
#
# _framework density 18.277688999999999
#
# number of rings (size 3 to 8) (size 9 to 14) (size 15 to 20)
#    0.000    2.286    1.429    1.714    0.000    3.429 
#    0.000    0.714    0.000    0.000    0.000    0.000 
#    0.000    0.000    0.000    0.000    0.000    0.000 
#
# Total GULP energy -694359.763471 kJ/mol
# GULP energy per Si atom -12399.281491 kJ/mol
# Density = 1.823609 g / cm^3
# Si number density = 18.277689 Si / 1000 Ang^3
#
#
#
# Elastic Constant Matrix: (Units=GPa)
#
#
# Indices 1 2 3 4 5 6 
#
# 1 38.5190 5.6237 16.8846 0.0000 0.0000 0.0000
# 2 5.6237 58.4666 28.8142 0.0000 0.0000 0.0000
# 3 16.8846 28.8142 107.6304 0.0000 0.0000 0.0000
# 4 0.0000 0.0000 0.0000 26.1907 0.0000 0.0000
# 5 0.0000 0.0000 0.0000 0.0000 18.3628 0.0000
# 6 0.0000 0.0000 0.0000 0.0000 0.0000 23.8186
#
#
#
# Elastic Compliance Matrix: (Units=1/GPa)
#
#
# Indices 1 2 3 4 5 6 
#
# 1 0.027897 -0.000607 -0.004214 0.000000 0.000000 0.000000
# 2 -0.000607 0.019717 -0.005183 0.000000 0.000000 0.000000
# 3 -0.004214 -0.005183 0.011340 0.000000 0.000000 0.000000
# 4 0.000000 0.000000 0.000000 0.038181 0.000000 0.000000
# 5 0.000000 0.000000 0.000000 0.000000 0.054458 0.000000
# 6 0.000000 0.000000 0.000000 0.000000 0.000000 0.041984
#
#
# Mechanical properties :
#
#
# Convention : Reuss Voigt Hill
#
# Bulk Modulus (GPa) = 25.67671 34.14010 29.90841
# Shear Modulus (GPa) = 22.06861 23.89398 22.98130
#
# Velocity S-wave (km/s) = 3.47855 3.61955 3.54975
# Velocity P-wave (km/s) = 5.49657 6.01559 5.76193
#
# Compressibility (1/GPa) = 0.03894579
#
# Stress axis : x y z
#
# Youngs Moduli (GPa) = 35.84619 50.71874 88.18523
#
# Poissons Ratio (x) = 0.03076 0.37161
# Poissons Ratio (y) = 0.02174 0.45709
# Poissons Ratio (z) = 0.15106 0.26289
#
# Static dielectric constant tensor:
#      x y z
#    x 3.223520 0.000000 0.000000 
#    y 0.000000 3.301460 0.000000 
#    z 0.000000 0.000000 3.637520 
# 
# 
# High freq. dielectric constant tensor:
#      x y z
#    x 1.699870 0.000000 0.000000 
#    y 0.000000 1.688030 0.000000 
#    z 0.000000 0.000000 1.718680 
# 
# From -- ./inp_files/25994.got.cif
#   From: 2010.03.12/outbox.cif.g09.slc.cpg/sg62_13_cif.got.tgz:25994.got - 2010.04.10 19:12:36.
