data_PCOD8252514
_publ_section_title
;
Structure prediction by ZEFSAII (Michael W. Deem and Ramdas Pophale) SiO2 
 PCOD8252514
Probable space group: P N M A
;
_chemical_formula_sum "Si O2"
_cell_formula_units_Z 64
_cell_length_a 19.825394
_cell_length_b 8.938474
_cell_length_c 18.640024
_cell_angle_alpha 90.000000
_cell_angle_beta 90.000000
_cell_angle_gamma 90.000000
_cell_volume 3303.175704
_symmetry_space_group_name_H-M "P N M A"
_symmetry_group_IT_number 62
_symmetry_cell_setting 'orthorhombic'
loop_
_space_group_symop_operation_xyz
x,y,z
1/2-x,-y,1/2+z
1/2+x,1/2-y,1/2-z
-x,1/2+y,-z
-x,-y,-z
1/2+x,y,1/2-z
1/2-x,1/2+y,1/2+z
x,1/2-y,z
loop_
_atom_site_type_symbol
_atom_site_label
_atom_site_fract_x
_atom_site_fract_y
_atom_site_fract_z
Si Si1 0.340662 0.075491 0.283323
Si Si2 0.949509 0.072741 0.444183
Si Si3 0.100830 0.071852 0.191198
Si Si4 0.435390 0.924368 0.533277
Si Si5 0.739574 0.926250 0.322325
Si Si6 0.479107 0.425468 0.214395
Si Si7 0.295836 0.077835 0.041222
Si Si8 0.813819 0.920819 0.070790
O O1 0.325503 0.250000 0.270011
O O2 0.418732 0.036373 0.269132
O O3 0.300150 0.975983 0.227827
O O4 0.320712 0.033894 0.363747
O O5 0.957919 0.250000 0.447660
O O6 0.966288 0.007469 0.364925
O O7 0.873252 0.025160 0.464505
O O8 0.000000 0.000000 0.500000
O O9 0.108483 0.250000 0.192413
O O10 0.075761 0.015585 0.113611
O O11 0.047954 0.012416 0.250812
O O12 0.172021 0.998633 0.209564
O O13 0.449796 0.750000 0.534737
O O14 0.369415 0.964299 0.487840
O O15 0.500000 0.000000 0.500000
O O16 0.731793 0.750000 0.321207
O O17 0.754275 0.979466 0.402688
O O18 0.485228 0.250000 0.205211
O O19 0.291877 0.250000 0.067326
O O20 0.260242 0.058339 0.964036
O O21 0.823483 0.750000 0.097211
#
# Coordination Sequence:
#
# PCOD8252514 Si02
#       8
#     8   8   8   8   8   8   8   8
#     4  11  22  40  64  88 118 160 203 248 306 370
#     4  10  21  39  63  90 118 155 201 250 302 360
#     4  10  20  38  61  86 117 160 201 242 300 361
#     4  10  20  34  55  82 120 160 196 241 296 356
#     4  12  24  38  60  90 121 157 205 256 300 358
#     4   9  19  37  63  88 116 156 207 250 291 362
#     4  10  20  41  66  84 119 166 204 248 307 366
#     4  10  21  37  58  88 120 154 200 253 303 356
#
# _framework density 19.375292999999999
#
# number of rings (size 3 to 8) (size 9 to 14) (size 15 to 20)
#    0.000    1.750    2.500    2.250    0.000    4.000 
#    0.000    4.375    0.000    0.000    0.000    0.000 
#    0.000    0.000    0.000    0.000    0.000    0.000 
#
# Total GULP energy -793764.266268 kJ/mol
# GULP energy per Si atom -12402.566660 kJ/mol
# Density = 1.933119 g / cm^3
# Si number density = 19.375293 Si / 1000 Ang^3
#
#
#
# Elastic Constant Matrix: (Units=GPa)
#
#
# Indices 1 2 3 4 5 6 
#
# 1 110.0204 27.7828 25.6176 0.0000 0.0000 0.0000
# 2 27.7828 45.8824 22.5507 0.0000 0.0000 0.0000
# 3 25.6176 22.5507 90.8148 0.0000 0.0000 0.0000
# 4 0.0000 0.0000 0.0000 30.3089 0.0000 0.0000
# 5 0.0000 0.0000 0.0000 0.0000 38.3473 0.0000
# 6 0.0000 0.0000 0.0000 0.0000 0.0000 28.8437
#
#
#
# Elastic Compliance Matrix: (Units=1/GPa)
#
#
# Indices 1 2 3 4 5 6 
#
# 1 0.010941 -0.005818 -0.001642 0.000000 0.000000 0.000000
# 2 -0.005818 0.027918 -0.005291 0.000000 0.000000 0.000000
# 3 -0.001642 -0.005291 0.012788 0.000000 0.000000 0.000000
# 4 0.000000 0.000000 0.000000 0.032994 0.000000 0.000000
# 5 0.000000 0.000000 0.000000 0.000000 0.026077 0.000000
# 6 0.000000 0.000000 0.000000 0.000000 0.000000 0.034670
#
#
# Mechanical properties :
#
#
# Convention : Reuss Voigt Hill
#
# Bulk Modulus (GPa) = 38.24728 44.29110 41.26919
# Shear Modulus (GPa) = 27.83884 30.88442 29.36163
#
# Velocity S-wave (km/s) = 3.79466 3.99684 3.89706
# Velocity P-wave (km/s) = 6.24358 6.64897 6.44946
#
# Compressibility (1/GPa) = 0.02614565
#
# Stress axis : x y z
#
# Youngs Moduli (GPa) = 91.40247 35.81863 78.19583
#
# Poissons Ratio (x) = 0.20839 0.12836
# Poissons Ratio (y) = 0.53178 0.41377
# Poissons Ratio (z) = 0.15004 0.18953
#
# Static dielectric constant tensor:
#      x y z
#    x 3.715310 0.000000 0.000000 
#    y 0.000000 3.409430 0.000000 
#    z 0.000000 0.000000 3.642350 
# 
# 
# High freq. dielectric constant tensor:
#      x y z
#    x 1.768180 0.000000 0.000000 
#    y 0.000000 1.731980 0.000000 
#    z 0.000000 0.000000 1.757310 
# 
# From -- ./inp_files/24751.got.cif
#   From: 2010.03.12/outbox.cif.g09.slc.cpg/sg62_13_cif.got.tgz:24751.got - 2010.04.10 19:12:36.
