data_PCOD8252131
_publ_section_title
;
Structure prediction by ZEFSAII (Michael W. Deem and Ramdas Pophale) SiO2 
 PCOD8252131
Probable space group: P N M A
;
_chemical_formula_sum "Si O2"
_cell_formula_units_Z 64
_cell_length_a 15.207665
_cell_length_b 8.616639
_cell_length_c 24.141673
_cell_angle_alpha 90.000000
_cell_angle_beta 90.000000
_cell_angle_gamma 90.000000
_cell_volume 3163.499707
_symmetry_space_group_name_H-M "P N M A"
_symmetry_group_IT_number 62
_symmetry_cell_setting 'orthorhombic'
loop_
_space_group_symop_operation_xyz
x,y,z
1/2-x,-y,1/2+z
1/2+x,1/2-y,1/2-z
-x,1/2+y,-z
-x,-y,-z
1/2+x,y,1/2-z
1/2-x,1/2+y,1/2+z
x,1/2-y,z
loop_
_atom_site_type_symbol
_atom_site_label
_atom_site_fract_x
_atom_site_fract_y
_atom_site_fract_z
Si Si1 0.611265 0.430827 0.240211
Si Si2 0.597349 0.564924 0.502021
Si Si3 0.641255 0.077856 0.118498
Si Si4 0.594850 0.571074 0.007802
Si Si5 0.750886 0.566062 0.929841
Si Si6 0.269849 0.568045 0.191717
Si Si7 0.084814 0.566609 0.768748
Si Si8 0.155236 0.577734 0.881388
O O1 0.636570 0.250000 0.245748
O O2 0.598196 0.476920 0.175882
O O3 0.686781 0.529379 0.269630
O O4 0.517954 0.470447 0.266650
O O5 0.500000 0.500000 0.500000
O O6 0.598178 0.750000 0.498887
O O7 0.657231 0.502424 0.452064
O O8 0.636303 0.496778 0.559794
O O9 0.607100 0.250000 0.100870
O O10 0.743118 0.084243 0.131021
O O11 0.621553 0.954614 0.071178
O O12 0.587263 0.750000 0.994604
O O13 0.500000 0.500000 0.000000
O O14 0.668915 0.499806 0.966515
O O15 0.756124 0.750000 0.934528
O O16 0.738137 0.518971 0.866536
O O17 0.272327 0.750000 0.180380
O O18 0.360757 0.516956 0.220391
O O19 0.104905 0.750000 0.764398
O O20 0.112065 0.494367 0.828329
O O21 0.114350 0.750000 0.885180
#
# Coordination Sequence:
#
# PCOD8252131 Si02
#       8
#     8   8   8   8   8   8   8   8
#     4  10  22  40  67  94 123 166 212 254 303 374
#     4  11  23  40  63  95 128 164 208 261 316 372
#     4  10  19  38  64  91 122 160 206 256 308 366
#     4  11  25  42  64  93 124 162 207 260 316 373
#     4  11  25  45  65  87 122 170 217 258 309 377
#     4  12  26  42  62  92 130 166 204 262 321 369
#     4  10  21  41  66  93 123 165 213 252 300 372
#     4   9  18  36  63  89 120 159 203 252 305 361
#
# _framework density 20.230758999999999
#
# number of rings (size 3 to 8) (size 9 to 14) (size 15 to 20)
#    0.000    1.500    2.500    2.250    3.500    2.500 
#    0.000    1.250    0.000    0.000    0.000    0.000 
#    0.000    0.000    0.000    0.000    0.000    0.000 
#
# Total GULP energy -793558.555606 kJ/mol
# GULP energy per Si atom -12399.352431 kJ/mol
# Density = 2.018471 g / cm^3
# Si number density = 20.230759 Si / 1000 Ang^3
#
#
#
# Elastic Constant Matrix: (Units=GPa)
#
#
# Indices 1 2 3 4 5 6 
#
# 1 89.6343 25.6333 10.0090 0.0000 0.0000 0.0000
# 2 25.6333 62.8656 15.0721 0.0000 0.0000 0.0000
# 3 10.0090 15.0721 87.4065 0.0000 0.0000 0.0000
# 4 0.0000 0.0000 0.0000 29.8166 0.0000 0.0000
# 5 0.0000 0.0000 0.0000 0.0000 34.6250 0.0000
# 6 0.0000 0.0000 0.0000 0.0000 0.0000 30.2061
#
#
#
# Elastic Compliance Matrix: (Units=1/GPa)
#
#
# Indices 1 2 3 4 5 6 
#
# 1 0.012658 -0.005021 -0.000584 0.000000 0.000000 0.000000
# 2 -0.005021 0.018585 -0.002630 0.000000 0.000000 0.000000
# 3 -0.000584 -0.002630 0.011961 0.000000 0.000000 0.000000
# 4 0.000000 0.000000 0.000000 0.033538 0.000000 0.000000
# 5 0.000000 0.000000 0.000000 0.000000 0.028881 0.000000
# 6 0.000000 0.000000 0.000000 0.000000 0.000000 0.033106
#
#
# Mechanical properties :
#
#
# Convention : Reuss Voigt Hill
#
# Bulk Modulus (GPa) = 37.40490 37.92613 37.66551
# Shear Modulus (GPa) = 30.46755 31.54234 31.00495
#
# Velocity S-wave (km/s) = 3.88493 3.95286 3.91905
# Velocity P-wave (km/s) = 6.21714 6.29452 6.25595
#
# Compressibility (1/GPa) = 0.02673446
#
# Stress axis : x y z
#
# Youngs Moduli (GPa) = 79.00417 53.80736 83.60450
#
# Poissons Ratio (x) = 0.27018 0.04879
# Poissons Ratio (y) = 0.39669 0.21986
# Poissons Ratio (z) = 0.04611 0.14150
#
# Static dielectric constant tensor:
#      x y z
#    x 3.768600 0.000000 0.000000 
#    y 0.000000 3.421370 0.000000 
#    z 0.000000 0.000000 4.726660 
# 
# 
# High freq. dielectric constant tensor:
#      x y z
#    x 1.799750 0.000000 0.000000 
#    y 0.000000 1.768430 0.000000 
#    z 0.000000 0.000000 1.807260 
# 
# From -- ./inp_files/29778.got.cif
#   From: 2010.03.12/outbox.cif.g09.slc.cpg/sg62_15_cif.got.tgz:29778.got - 2010.04.10 19:12:36.
