data_PCOD8252545
_publ_section_title
;
Structure prediction by ZEFSAII (Michael W. Deem and Ramdas Pophale) SiO2 
 PCOD8252545
Probable space group: P N M A
;
_chemical_formula_sum "Si O2"
_cell_formula_units_Z 64
_cell_length_a 22.555495
_cell_length_b 8.815668
_cell_length_c 16.311427
_cell_angle_alpha 90.000000
_cell_angle_beta 90.000000
_cell_angle_gamma 90.000000
_cell_volume 3243.392779
_symmetry_space_group_name_H-M "P N M A"
_symmetry_group_IT_number 62
_symmetry_cell_setting 'orthorhombic'
loop_
_space_group_symop_operation_xyz
x,y,z
1/2-x,-y,1/2+z
1/2+x,1/2-y,1/2-z
-x,1/2+y,-z
-x,-y,-z
1/2+x,y,1/2-z
1/2-x,1/2+y,1/2+z
x,1/2-y,z
loop_
_atom_site_type_symbol
_atom_site_label
_atom_site_fract_x
_atom_site_fract_y
_atom_site_fract_z
Si Si1 0.485742 0.927558 0.911270
Si Si2 0.251521 0.078680 0.805369
Si Si3 0.705532 0.419548 0.971643
Si Si4 0.051642 0.575878 0.749872
Si Si5 0.634225 0.920403 0.104880
Si Si6 0.679660 0.922882 0.555697
Si Si7 0.178627 0.920320 0.685630
Si Si8 0.044850 0.570635 0.934223
O O1 0.498541 0.750000 0.920258
O O2 0.522766 0.996912 0.833228
O O3 0.418029 0.958828 0.887981
O O4 0.500000 0.000000 0.000000
O O5 0.234807 0.250000 0.779097
O O6 0.322242 0.066219 0.817551
O O7 0.211266 0.037670 0.882964
O O8 0.237662 0.955035 0.736413
O O9 0.685882 0.250000 0.997716
O O10 0.677965 0.454074 0.884093
O O11 0.675450 0.544394 0.028179
O O12 0.777860 0.430870 0.974687
O O13 0.032410 0.750000 0.748968
O O14 0.122263 0.555629 0.744486
O O15 0.032879 0.509560 0.840022
O O16 0.608389 0.750000 0.095984
O O17 0.679200 0.750000 0.591110
O O18 0.611981 0.973036 0.537805
O O19 0.180822 0.750000 0.649911
O O20 0.036132 0.750000 0.936088
O O21 0.000000 0.500000 0.000000
#
# Coordination Sequence:
#
# PCOD8252545 Si02
#       8
#     8   8   8   8   8   8   8   8
#     4  11  22  38  61  88 120 160 201 247 299 358
#     4  10  20  34  56  82 111 143 185 238 285 338
#     4  10  20  34  56  87 115 145 186 236 288 353
#     4   9  20  38  60  83 114 154 199 243 290 349
#     4  10  21  38  56  79 114 153 189 232 288 348
#     4   9  18  36  59  79 110 148 184 229 295 356
#     4  11  20  35  58  83 113 150 188 232 293 355
#     4  10  20  39  61  83 111 151 198 248 298 352
#
# _framework density 19.732423000000001
#
# number of rings (size 3 to 8) (size 9 to 14) (size 15 to 20)
#    0.000    2.000    1.250    2.625    0.000    3.500 
#    2.250    3.125    0.000    0.000    0.000    0.000 
#    0.000    0.000    0.000    0.000    0.000    0.000 
#
# Total GULP energy -792857.384069 kJ/mol
# GULP energy per Si atom -12388.396626 kJ/mol
# Density = 1.968751 g / cm^3
# Si number density = 19.732423 Si / 1000 Ang^3
#
#
#
# Elastic Constant Matrix: (Units=GPa)
#
#
# Indices 1 2 3 4 5 6 
#
# 1 93.8713 31.6978 34.4424 0.0000 0.0000 0.0000
# 2 31.6978 50.3560 25.1881 0.0000 0.0000 0.0000
# 3 34.4424 25.1881 105.2334 0.0000 0.0000 0.0000
# 4 0.0000 0.0000 0.0000 26.9425 0.0000 0.0000
# 5 0.0000 0.0000 0.0000 0.0000 29.2151 0.0000
# 6 0.0000 0.0000 0.0000 0.0000 0.0000 28.2897
#
#
#
# Elastic Compliance Matrix: (Units=1/GPa)
#
#
# Indices 1 2 3 4 5 6 
#
# 1 0.014247 -0.007538 -0.002859 0.000000 0.000000 0.000000
# 2 -0.007538 0.026548 -0.003887 0.000000 0.000000 0.000000
# 3 -0.002859 -0.003887 0.011369 0.000000 0.000000 0.000000
# 4 0.000000 0.000000 0.000000 0.037116 0.000000 0.000000
# 5 0.000000 0.000000 0.000000 0.000000 0.034229 0.000000
# 6 0.000000 0.000000 0.000000 0.000000 0.000000 0.035349
#
#
# Mechanical properties :
#
#
# Convention : Reuss Voigt Hill
#
# Bulk Modulus (GPa) = 42.38058 48.01303 45.19681
# Shear Modulus (GPa) = 25.60276 27.43162 26.51719
#
# Velocity S-wave (km/s) = 3.60599 3.73256 3.66982
# Velocity P-wave (km/s) = 6.23392 6.55445 6.39620
#
# Compressibility (1/GPa) = 0.02359571
#
# Stress axis : x y z
#
# Youngs Moduli (GPa) = 70.18884 37.66741 87.96046
#
# Poissons Ratio (x) = 0.28395 0.25146
# Poissons Ratio (y) = 0.52911 0.34192
# Poissons Ratio (z) = 0.20065 0.14642
#
# Static dielectric constant tensor:
#      x y z
#    x 3.718290 0.000000 0.000000 
#    y 0.000000 3.502550 0.000000 
#    z 0.000000 0.000000 3.773050 
# 
# 
# High freq. dielectric constant tensor:
#      x y z
#    x 1.766660 0.000000 0.000000 
#    y 0.000000 1.758880 0.000000 
#    z 0.000000 0.000000 1.760210 
# 
# From -- ./inp_files/24685.got.cif
#   From: 2010.03.12/outbox.cif.g09.slc.cpg/sg62_13_cif.got.tgz:24685.got - 2010.04.10 19:12:36.
