data_PCOD8252849
_publ_section_title
;
Structure prediction by ZEFSAII (Michael W. Deem and Ramdas Pophale) SiO2 
 PCOD8252849
Probable space group: P N M A
;
_chemical_formula_sum "Si O2"
_cell_formula_units_Z 64
_cell_length_a 15.211385
_cell_length_b 11.527471
_cell_length_c 18.233574
_cell_angle_alpha 90.000000
_cell_angle_beta 90.000000
_cell_angle_gamma 90.000000
_cell_volume 3197.235311
_symmetry_space_group_name_H-M "P N M A"
_symmetry_group_IT_number 62
_symmetry_cell_setting 'orthorhombic'
loop_
_space_group_symop_operation_xyz
x,y,z
1/2-x,-y,1/2+z
1/2+x,1/2-y,1/2-z
-x,1/2+y,-z
-x,-y,-z
1/2+x,y,1/2-z
1/2-x,1/2+y,1/2+z
x,1/2-y,z
loop_
_atom_site_type_symbol
_atom_site_label
_atom_site_fract_x
_atom_site_fract_y
_atom_site_fract_z
Si Si1 0.129875 0.881219 0.098469
Si Si2 0.260138 0.881100 0.394733
Si Si3 0.288954 0.504726 0.034000
Si Si4 0.494752 0.976805 0.202707
Si Si5 0.172787 0.882580 0.679610
Si Si6 0.183916 0.964275 0.250728
Si Si7 0.966477 0.614850 0.453729
Si Si8 0.947263 0.884935 0.145168
O O1 0.123546 0.750000 0.071821
O O2 0.173484 0.884765 0.179127
O O3 0.032337 0.938995 0.103233
O O4 0.189797 0.948341 0.040568
O O5 0.267503 0.750000 0.422609
O O6 0.201661 0.950445 0.453411
O O7 0.212499 0.881472 0.316719
O O8 0.357235 0.939028 0.386504
O O9 0.303023 0.406777 0.095313
O O10 0.360291 0.607199 0.043914
O O11 0.428798 0.083855 0.191869
O O12 0.591181 0.024127 0.225890
O O13 0.500749 0.898735 0.129252
O O14 0.454465 0.899138 0.267444
O O15 0.182943 0.750000 0.697476
O O16 0.240489 0.942053 0.735814
O O17 0.991467 0.750000 0.479625
O O18 0.000000 0.500000 0.500000
O O19 0.945952 0.750000 0.129065
#
# Coordination Sequence:
#
# PCOD8252849 Si02
#       8
#     8   8   8   8   8   8   8   8
#     4   9  18  35  57  82 110 147 188 234 294 354
#     4  11  21  35  57  87 118 150 196 251 305 350
#     4  10  22  37  56  82 116 156 196 242 295 362
#     4  10  20  37  60  84 115 151 198 246 304 354
#     4  10  21  38  56  80 116 157 198 240 297 364
#     4  10  20  35  58  86 111 146 189 246 294 352
#     4  11  24  40  61  89 123 163 205 251 308 369
#     4   9  18  33  58  86 111 140 187 249 301 346
#
# _framework density 20.017294
#
# number of rings (size 3 to 8) (size 9 to 14) (size 15 to 20)
#    0.000    2.000    1.250    2.250    0.000    6.000 
#    0.000    2.500    0.000    0.000    0.000    0.000 
#    0.000    0.000    0.000    0.000    0.000    0.000 
#
# Total GULP energy -793052.157182 kJ/mol
# GULP energy per Si atom -12391.439956 kJ/mol
# Density = 1.997173 g / cm^3
# Si number density = 20.017294 Si / 1000 Ang^3
#
#
#
# Elastic Constant Matrix: (Units=GPa)
#
#
# Indices 1 2 3 4 5 6 
#
# 1 91.5961 24.0303 15.2600 0.0000 0.0000 0.0000
# 2 24.0303 84.1404 19.1141 0.0000 0.0000 0.0000
# 3 15.2600 19.1141 71.0945 0.0000 0.0000 0.0000
# 4 0.0000 0.0000 0.0000 17.3297 0.0000 0.0000
# 5 0.0000 0.0000 0.0000 0.0000 30.2397 0.0000
# 6 0.0000 0.0000 0.0000 0.0000 0.0000 19.7832
#
#
#
# Elastic Compliance Matrix: (Units=1/GPa)
#
#
# Indices 1 2 3 4 5 6 
#
# 1 0.012006 -0.003028 -0.001763 0.000000 0.000000 0.000000
# 2 -0.003028 0.013422 -0.002959 0.000000 0.000000 0.000000
# 3 -0.001763 -0.002959 0.015240 0.000000 0.000000 0.000000
# 4 0.000000 0.000000 0.000000 0.057704 0.000000 0.000000
# 5 0.000000 0.000000 0.000000 0.000000 0.033069 0.000000
# 6 0.000000 0.000000 0.000000 0.000000 0.000000 0.050548
#
#
# Mechanical properties :
#
#
# Convention : Reuss Voigt Hill
#
# Bulk Modulus (GPa) = 39.73322 40.40442 40.06882
# Shear Modulus (GPa) = 24.28633 26.03229 25.15931
#
# Velocity S-wave (km/s) = 3.48698 3.61014 3.54909
# Velocity P-wave (km/s) = 6.00871 6.13238 6.07086
#
# Compressibility (1/GPa) = 0.02516786
#
# Stress axis : x y z
#
# Youngs Moduli (GPa) = 83.29405 74.50532 65.61866
#
# Poissons Ratio (x) = 0.22563 0.11567
# Poissons Ratio (y) = 0.25224 0.19413
# Poissons Ratio (z) = 0.14683 0.22042
#
# Static dielectric constant tensor:
#      x y z
#    x 4.172390 0.000000 0.000000 
#    y 0.000000 3.267720 0.000000 
#    z 0.000000 0.000000 3.516750 
# 
# 
# High freq. dielectric constant tensor:
#      x y z
#    x 1.805680 0.000000 0.000000 
#    y 0.000000 1.743160 0.000000 
#    z 0.000000 0.000000 1.773450 
# 
# From -- ./inp_files/24028.got.cif
#   From: 2010.03.12/outbox.cif.g09.slc.cpg/sg62_13_cif.got.tgz:24028.got - 2010.04.10 19:12:36.
