data_PCOD8252842
_publ_section_title
;
Structure prediction by ZEFSAII (Michael W. Deem and Ramdas Pophale) SiO2 
 PCOD8252842
Probable space group: P N M A
;
_chemical_formula_sum "Si O2"
_cell_formula_units_Z 48
_cell_length_a 15.041736
_cell_length_b 9.149885
_cell_length_c 18.608764
_cell_angle_alpha 90.000000
_cell_angle_beta 90.000000
_cell_angle_gamma 90.000000
_cell_volume 2561.127066
_symmetry_space_group_name_H-M "P N M A"
_symmetry_group_IT_number 62
_symmetry_cell_setting 'orthorhombic'
loop_
_space_group_symop_operation_xyz
x,y,z
1/2-x,-y,1/2+z
1/2+x,1/2-y,1/2-z
-x,1/2+y,-z
-x,-y,-z
1/2+x,y,1/2-z
1/2-x,1/2+y,1/2+z
x,1/2-y,z
loop_
_atom_site_type_symbol
_atom_site_label
_atom_site_fract_x
_atom_site_fract_y
_atom_site_fract_z
Si Si1 0.605394 0.417591 0.435345
Si Si2 0.747939 0.920640 0.819517
Si Si3 0.920082 0.079261 0.413270
Si Si4 0.262522 0.577005 0.328597
Si Si5 0.595878 0.579109 0.076722
Si Si6 0.599268 0.580431 0.579086
O O1 0.619435 0.250000 0.459658
O O2 0.668886 0.458220 0.369859
O O3 0.631089 0.517561 0.502747
O O4 0.505244 0.446449 0.409678
O O5 0.746472 0.750000 0.798633
O O6 0.657838 0.967174 0.859624
O O7 0.759599 0.019533 0.750110
O O8 0.938949 0.250000 0.409494
O O9 0.891543 0.032879 0.493749
O O10 0.009910 0.998707 0.389260
O O11 0.275118 0.750000 0.327059
O O12 0.182874 0.527826 0.380852
O O13 0.352870 0.503335 0.356243
O O14 0.580405 0.750000 0.085265
O O15 0.624343 0.750000 0.582252
#
# Coordination Sequence:
#
# PCOD8252842 Si02
#       6
#     8   8   8   8   8   8
#     4   9  19  37  59  81 108 142 178 221 270 318
#     4  10  21  37  55  77 109 145 179 216 264 320
#     4   9  18  34  57  80 102 133 173 218 265 312
#     4  11  23  37  53  76 110 147 180 218 266 316
#     4   9  19  36  56  78 104 136 175 218 265 314
#     4  10  20  35  58  85 109 138 179 222 266 319
#
# _framework density 18.741748000000001
#
# number of rings (size 3 to 8) (size 9 to 14) (size 15 to 20)
#    0.000    2.333    0.000    2.000    0.000    7.333 
#    0.000    8.333    0.000    0.000    0.000    0.000 
#    0.000    0.000    0.000    0.000    0.000    0.000 
#
# Total GULP energy -595417.415742 kJ/mol
# GULP energy per Si atom -12404.529495 kJ/mol
# Density = 1.869909 g / cm^3
# Si number density = 18.741748 Si / 1000 Ang^3
#
#
#
# Elastic Constant Matrix: (Units=GPa)
#
#
# Indices 1 2 3 4 5 6 
#
# 1 83.6402 41.9302 38.9184 0.0000 0.0000 0.0000
# 2 41.9302 68.8751 43.9739 0.0000 0.0000 0.0000
# 3 38.9184 43.9739 82.2286 0.0000 0.0000 0.0000
# 4 0.0000 0.0000 0.0000 36.4484 0.0000 0.0000
# 5 0.0000 0.0000 0.0000 0.0000 18.3453 0.0000
# 6 0.0000 0.0000 0.0000 0.0000 0.0000 31.1335
#
#
#
# Elastic Compliance Matrix: (Units=1/GPa)
#
#
# Indices 1 2 3 4 5 6 
#
# 1 0.018054 -0.008405 -0.004050 0.000000 0.000000 0.000000
# 2 -0.008405 0.025960 -0.009904 0.000000 0.000000 0.000000
# 3 -0.004050 -0.009904 0.019375 0.000000 0.000000 0.000000
# 4 0.000000 0.000000 0.000000 0.027436 0.000000 0.000000
# 5 0.000000 0.000000 0.000000 0.000000 0.054510 0.000000
# 6 0.000000 0.000000 0.000000 0.000000 0.000000 0.032120
#
#
# Mechanical properties :
#
#
# Convention : Reuss Voigt Hill
#
# Bulk Modulus (GPa) = 53.56457 53.82099 53.69278
# Shear Modulus (GPa) = 21.89173 24.51352 23.20262
#
# Velocity S-wave (km/s) = 3.42142 3.62050 3.52237
# Velocity P-wave (km/s) = 6.65211 6.80124 6.72709
#
# Compressibility (1/GPa) = 0.01866906
#
# Stress axis : x y z
#
# Youngs Moduli (GPa) = 55.38868 38.52133 51.61378
#
# Poissons Ratio (x) = 0.32379 0.20903
# Poissons Ratio (y) = 0.46557 0.51120
# Poissons Ratio (z) = 0.22432 0.38153
#
# Static dielectric constant tensor:
#      x y z
#    x 3.569150 0.000000 0.000000 
#    y 0.000000 3.405930 0.000000 
#    z 0.000000 0.000000 3.363040 
# 
# 
# High freq. dielectric constant tensor:
#      x y z
#    x 1.738410 0.000000 0.000000 
#    y 0.000000 1.726230 0.000000 
#    z 0.000000 0.000000 1.722110 
# 
# From -- ./inp_files/23729.got.cif
#   From: 2010.03.12/outbox.cif.g09.slc.cpg/sg62_12_cif.got.tgz:23729.got - 2010.04.10 19:12:36.
