data_PCOD8252782
_publ_section_title
;
Structure prediction by ZEFSAII (Michael W. Deem and Ramdas Pophale) SiO2 
 PCOD8252782
Probable space group: P N M A
;
_chemical_formula_sum "Si O2"
_cell_formula_units_Z 56
_cell_length_a 15.481470
_cell_length_b 8.772452
_cell_length_c 18.988203
_cell_angle_alpha 90.000000
_cell_angle_beta 90.000000
_cell_angle_gamma 90.000000
_cell_volume 2578.796441
_symmetry_space_group_name_H-M "P N M A"
_symmetry_group_IT_number 62
_symmetry_cell_setting 'orthorhombic'
loop_
_space_group_symop_operation_xyz
x,y,z
1/2-x,-y,1/2+z
1/2+x,1/2-y,1/2-z
-x,1/2+y,-z
-x,-y,-z
1/2+x,y,1/2-z
1/2-x,1/2+y,1/2+z
x,1/2-y,z
loop_
_atom_site_type_symbol
_atom_site_label
_atom_site_fract_x
_atom_site_fract_y
_atom_site_fract_z
Si Si1 0.033872 0.071263 0.740137
Si Si2 0.524857 0.420747 0.604416
Si Si3 0.230156 0.431007 0.728699
Si Si4 0.130014 0.931659 0.345064
Si Si5 0.772732 0.427314 0.415032
Si Si6 0.134209 0.579723 0.000864
Si Si7 0.406806 0.930294 0.991204
O O1 0.038456 0.250000 0.728540
O O2 0.999084 0.027721 0.817459
O O3 0.131438 0.006071 0.733995
O O4 0.962025 0.006597 0.686036
O O5 0.564209 0.250000 0.605829
O O6 0.440810 0.427175 0.557646
O O7 0.598304 0.533516 0.575403
O O8 0.234444 0.250000 0.721362
O O9 0.289983 0.482209 0.794645
O O10 0.266542 0.506050 0.657347
O O11 0.128788 0.750000 0.353131
O O12 0.141965 0.007176 0.421526
O O13 0.793276 0.250000 0.407989
O O14 0.704418 0.456076 0.477085
O O15 0.858309 0.518699 0.437565
O O16 0.174139 0.750000 0.996786
O O17 0.412351 0.750000 0.987661
O O18 0.500000 0.000000 0.000000
#
# Coordination Sequence:
#
# PCOD8252782 Si02
#       7
#     8   8   8   8   8   8   8
#     4   9  18  34  58  85 118 159 204 254 308 374
#     4   9  18  34  57  86 121 160 201 245 301 375
#     4  10  21  38  62  91 124 167 216 265 323 389
#     4  10  21  39  64  95 130 172 218 265 323 394
#     4  12  25  41  63  89 122 166 216 269 323 381
#     4  10  20  35  56  86 121 158 201 253 311 372
#     4  12  26  45  68  95 129 169 217 273 331 390
#
# _framework density 21.715554999999998
#
# number of rings (size 3 to 8) (size 9 to 14) (size 15 to 20)
#    0.000    1.714    0.000    4.714    2.000    4.571 
#    0.000    1.429    0.000    0.000    0.000    0.000 
#    0.000    0.000    0.000    0.000    0.000    0.000 
#
# Total GULP energy -694317.382059 kJ/mol
# GULP energy per Si atom -12398.524680 kJ/mol
# Density = 2.166613 g / cm^3
# Si number density = 21.715555 Si / 1000 Ang^3
#
#
#
# Elastic Constant Matrix: (Units=GPa)
#
#
# Indices 1 2 3 4 5 6 
#
# 1 72.5815 31.7536 22.7811 0.0000 0.0000 0.0000
# 2 31.7536 89.6376 36.3960 0.0000 0.0000 0.0000
# 3 22.7811 36.3960 86.2558 0.0000 0.0000 0.0000
# 4 0.0000 0.0000 0.0000 33.3836 0.0000 0.0000
# 5 0.0000 0.0000 0.0000 0.0000 32.0144 0.0000
# 6 0.0000 0.0000 0.0000 0.0000 0.0000 25.0118
#
#
#
# Elastic Compliance Matrix: (Units=1/GPa)
#
#
# Indices 1 2 3 4 5 6 
#
# 1 0.016676 -0.004971 -0.002307 0.000000 0.000000 0.000000
# 2 -0.004971 0.014944 -0.004993 0.000000 0.000000 0.000000
# 3 -0.002307 -0.004993 0.014310 0.000000 0.000000 0.000000
# 4 0.000000 0.000000 0.000000 0.029955 0.000000 0.000000
# 5 0.000000 0.000000 0.000000 0.000000 0.031236 0.000000
# 6 0.000000 0.000000 0.000000 0.000000 0.000000 0.039981
#
#
# Mechanical properties :
#
#
# Convention : Reuss Voigt Hill
#
# Bulk Modulus (GPa) = 46.75364 47.81514 47.28439
# Shear Modulus (GPa) = 27.96844 28.58491 28.27667
#
# Velocity S-wave (km/s) = 3.59269 3.63207 3.61243
# Velocity P-wave (km/s) = 6.22789 6.29729 6.26269
#
# Compressibility (1/GPa) = 0.02138871
#
# Stress axis : x y z
#
# Youngs Moduli (GPa) = 59.96515 66.91557 69.88364
#
# Poissons Ratio (x) = 0.33262 0.16122
# Poissons Ratio (y) = 0.29807 0.34892
# Poissons Ratio (z) = 0.13834 0.33410
#
# Static dielectric constant tensor:
#      x y z
#    x 4.107200 0.000000 0.000000 
#    y 0.000000 3.663040 0.000000 
#    z 0.000000 0.000000 4.118800 
# 
# 
# High freq. dielectric constant tensor:
#      x y z
#    x 1.859770 0.000000 0.000000 
#    y 0.000000 1.824200 0.000000 
#    z 0.000000 0.000000 1.864930 
# 
# From -- ./inp_files/27219.got.cif
#   From: 2010.03.12/outbox.cif.g09.slc.cpg/sg62_14_cif.got.tgz:27219.got - 2010.04.10 19:12:36.
