data_PCOD8252875
_publ_section_title
;
Structure prediction by ZEFSAII (Michael W. Deem and Ramdas Pophale) SiO2 
 PCOD8252875
Probable space group: P N M A
;
_chemical_formula_sum "Si O2"
_cell_formula_units_Z 64
_cell_length_a 14.701462
_cell_length_b 9.014107
_cell_length_c 24.471189
_cell_angle_alpha 90.000000
_cell_angle_beta 90.000000
_cell_angle_gamma 90.000000
_cell_volume 3242.935463
_symmetry_space_group_name_H-M "P N M A"
_symmetry_group_IT_number 62
_symmetry_cell_setting 'orthorhombic'
loop_
_space_group_symop_operation_xyz
x,y,z
1/2-x,-y,1/2+z
1/2+x,1/2-y,1/2-z
-x,1/2+y,-z
-x,-y,-z
1/2+x,y,1/2-z
1/2-x,1/2+y,1/2+z
x,1/2-y,z
loop_
_atom_site_type_symbol
_atom_site_label
_atom_site_fract_x
_atom_site_fract_y
_atom_site_fract_z
Si Si1 0.060076 0.417811 0.129507
Si Si2 0.130621 0.925736 0.233707
Si Si3 0.589230 0.575921 0.476714
Si Si4 0.996166 0.074597 0.668047
Si Si5 0.163527 0.424874 0.737078
Si Si6 0.360659 0.415050 0.345648
Si Si7 0.056113 0.926097 0.451785
Si Si8 0.756271 0.921844 0.553384
O O1 0.097808 0.250000 0.128174
O O2 0.073935 0.488920 0.188495
O O3 0.110503 0.514827 0.083820
O O4 0.951956 0.419716 0.117814
O O5 0.123150 0.750000 0.224259
O O6 0.087866 0.970778 0.292420
O O7 0.234248 0.983763 0.228253
O O8 0.500000 0.500000 0.500000
O O9 0.571477 0.750000 0.474649
O O10 0.676838 0.534608 0.511898
O O11 0.002006 0.250000 0.665074
O O12 0.979765 0.012532 0.606975
O O13 0.092099 0.011444 0.692161
O O14 0.162328 0.250000 0.734274
O O15 0.131282 0.468423 0.797226
O O16 0.348020 0.250000 0.320910
O O17 0.276821 0.454426 0.385043
O O18 0.046679 0.750000 0.455644
O O19 0.160260 0.971615 0.459477
O O20 0.000000 0.000000 0.500000
O O21 0.784482 0.750000 0.546199
#
# Coordination Sequence:
#
# PCOD8252875 Si02
#       8
#     8   8   8   8   8   8   8   8
#     4  11  22  37  56  85 123 159 194 241 299 360
#     4  10  20  36  58  87 117 153 199 241 293 355
#     4  11  22  38  60  87 122 160 199 246 303 364
#     4   9  19  37  59  85 118 152 195 247 293 350
#     4  10  20  35  59  86 115 154 199 243 292 357
#     4  10  20  36  57  85 121 155 194 244 300 353
#     4  11  24  43  65  90 120 159 206 256 304 357
#     4  10  22  41  62  87 120 158 201 252 304 358
#
# _framework density 19.735206999999999
#
# number of rings (size 3 to 8) (size 9 to 14) (size 15 to 20)
#    0.000    1.750    2.500    1.875    0.000    4.500 
#    0.000    5.000    0.000    0.000    0.000    0.000 
#    0.000    0.000    0.000    0.000    0.000    0.000 
#
# Total GULP energy -793619.087352 kJ/mol
# GULP energy per Si atom -12400.298240 kJ/mol
# Density = 1.969029 g / cm^3
# Si number density = 19.735207 Si / 1000 Ang^3
#
#
#
# Elastic Constant Matrix: (Units=GPa)
#
#
# Indices 1 2 3 4 5 6 
#
# 1 136.0699 44.3603 64.2272 0.0000 0.0000 0.0000
# 2 44.3603 53.6927 43.8666 0.0000 0.0000 0.0000
# 3 64.2272 43.8666 139.0423 0.0000 0.0000 0.0000
# 4 0.0000 0.0000 0.0000 30.8055 0.0000 0.0000
# 5 0.0000 0.0000 0.0000 0.0000 31.5915 0.0000
# 6 0.0000 0.0000 0.0000 0.0000 0.0000 27.1943
#
#
#
# Elastic Compliance Matrix: (Units=1/GPa)
#
#
# Indices 1 2 3 4 5 6 
#
# 1 0.010890 -0.006584 -0.002953 0.000000 0.000000 0.000000
# 2 -0.006584 0.029073 -0.006131 0.000000 0.000000 0.000000
# 3 -0.002953 -0.006131 0.010490 0.000000 0.000000 0.000000
# 4 0.000000 0.000000 0.000000 0.032462 0.000000 0.000000
# 5 0.000000 0.000000 0.000000 0.000000 0.031654 0.000000
# 6 0.000000 0.000000 0.000000 0.000000 0.000000 0.036772
#
#
# Mechanical properties :
#
#
# Convention : Reuss Voigt Hill
#
# Bulk Modulus (GPa) = 52.30958 70.41257 61.36108
# Shear Modulus (GPa) = 26.44807 29.67498 28.06153
#
# Velocity S-wave (km/s) = 3.66477 3.88191 3.77490
# Velocity P-wave (km/s) = 6.66863 7.47318 7.08234
#
# Compressibility (1/GPa) = 0.01911696
#
# Stress axis : x y z
#
# Youngs Moduli (GPa) = 91.83140 34.39589 95.32627
#
# Poissons Ratio (x) = 0.22647 0.28149
# Poissons Ratio (y) = 0.60465 0.58443
# Poissons Ratio (z) = 0.27117 0.21088
#
# Static dielectric constant tensor:
#      x y z
#    x 3.809660 0.000000 0.000000 
#    y 0.000000 3.454740 0.000000 
#    z 0.000000 0.000000 3.709370 
# 
# 
# High freq. dielectric constant tensor:
#      x y z
#    x 1.773490 0.000000 0.000000 
#    y 0.000000 1.753660 0.000000 
#    z 0.000000 0.000000 1.774540 
# 
# From -- ./inp_files/29891.got.cif
#   From: 2010.03.12/outbox.cif.g09.slc.cpg/sg62_15_cif.got.tgz:29891.got - 2010.04.10 19:12:36.
