data_PCOD8252571
_publ_section_title
;
Structure prediction by ZEFSAII (Michael W. Deem and Ramdas Pophale) SiO2 
 PCOD8252571
Probable space group: P N M A
;
_chemical_formula_sum "Si O2"
_cell_formula_units_Z 56
_cell_length_a 15.184565
_cell_length_b 8.553763
_cell_length_c 21.507835
_cell_angle_alpha 90.000000
_cell_angle_beta 90.000000
_cell_angle_gamma 90.000000
_cell_volume 2793.548811
_symmetry_space_group_name_H-M "P N M A"
_symmetry_group_IT_number 62
_symmetry_cell_setting 'orthorhombic'
loop_
_space_group_symop_operation_xyz
x,y,z
1/2-x,-y,1/2+z
1/2+x,1/2-y,1/2-z
-x,1/2+y,-z
-x,-y,-z
1/2+x,y,1/2-z
1/2-x,1/2+y,1/2+z
x,1/2-y,z
loop_
_atom_site_type_symbol
_atom_site_label
_atom_site_fract_x
_atom_site_fract_y
_atom_site_fract_z
Si Si1 0.441138 0.070083 0.447248
Si Si2 0.196205 0.434401 0.164183
Si Si3 0.496406 0.435378 0.313400
Si Si4 0.880550 0.933798 0.295258
Si Si5 0.869075 0.577280 0.515852
Si Si6 0.203261 0.073442 0.020846
Si Si7 0.971219 0.428288 0.411824
O O1 0.461217 0.250000 0.442264
O O2 0.466003 0.999846 0.380520
O O3 0.500000 0.000000 0.500000
O O4 0.343153 0.034181 0.469344
O O5 0.212513 0.250000 0.166386
O O6 0.277250 0.514720 0.201338
O O7 0.196065 0.489805 0.091716
O O8 0.101041 0.477334 0.194970
O O9 0.482635 0.250000 0.305349
O O10 0.428868 0.525997 0.269002
O O11 0.884436 0.750000 0.307397
O O12 0.939821 0.028106 0.343710
O O13 0.825258 0.750000 0.510945
O O14 0.801825 0.436529 0.504674
O O15 0.936679 0.559009 0.459029
O O16 0.921904 0.563093 0.581274
O O17 0.167569 0.250000 0.018056
O O18 0.939978 0.250000 0.426371
#
# Coordination Sequence:
#
# PCOD8252571 Si02
#       7
#     8   8   8   8   8   8   8
#     4  11  22  39  64  93 124 157 199 253 312 369
#     4  10  21  41  67  91 118 162 209 246 302 374
#     4  10  23  45  67  88 120 165 209 253 310 374
#     4  12  25  40  63  94 126 162 209 261 313 370
#     4  10  20  34  56  88 120 157 204 253 302 355
#     4  11  21  36  61  92 124 159 198 246 305 368
#     4  10  20  36  58  84 120 162 202 248 304 365
#
# _framework density 20.046185000000001
#
# number of rings (size 3 to 8) (size 9 to 14) (size 15 to 20)
#    0.000    1.429    2.857    3.000    0.000    4.000 
#    2.571    0.000    0.000    0.000    0.000    0.000 
#    0.000    0.000    0.000    0.000    0.000    0.000 
#
# Total GULP energy -693851.221533 kJ/mol
# GULP energy per Si atom -12390.200385 kJ/mol
# Density = 2.000056 g / cm^3
# Si number density = 20.046185 Si / 1000 Ang^3
#
#
#
# Elastic Constant Matrix: (Units=GPa)
#
#
# Indices 1 2 3 4 5 6 
#
# 1 121.2149 31.1281 57.3550 0.0000 0.0000 0.0000
# 2 31.1281 64.5115 22.6130 0.0000 0.0000 0.0000
# 3 57.3550 22.6130 99.0679 0.0000 0.0000 0.0000
# 4 0.0000 0.0000 0.0000 28.2450 0.0000 0.0000
# 5 0.0000 0.0000 0.0000 0.0000 37.3615 0.0000
# 6 0.0000 0.0000 0.0000 0.0000 0.0000 32.2696
#
#
#
# Elastic Compliance Matrix: (Units=1/GPa)
#
#
# Indices 1 2 3 4 5 6 
#
# 1 0.012117 -0.003682 -0.006175 0.000000 0.000000 0.000000
# 2 -0.003682 0.017968 -0.001970 0.000000 0.000000 0.000000
# 3 -0.006175 -0.001970 0.014118 0.000000 0.000000 0.000000
# 4 0.000000 0.000000 0.000000 0.035404 0.000000 0.000000
# 5 0.000000 0.000000 0.000000 0.000000 0.026766 0.000000
# 6 0.000000 0.000000 0.000000 0.000000 0.000000 0.030989
#
#
# Mechanical properties :
#
#
# Convention : Reuss Voigt Hill
#
# Bulk Modulus (GPa) = 48.65989 56.33185 52.49587
# Shear Modulus (GPa) = 29.78569 31.15512 30.47040
#
# Velocity S-wave (km/s) = 3.85886 3.94657 3.90296
# Velocity P-wave (km/s) = 6.64688 6.99494 6.82313
#
# Compressibility (1/GPa) = 0.02055081
#
# Stress axis : x y z
#
# Youngs Moduli (GPa) = 82.52818 55.65357 70.82955
#
# Poissons Ratio (x) = 0.20494 0.43734
# Poissons Ratio (y) = 0.30390 0.13950
# Poissons Ratio (z) = 0.50958 0.10961
#
# Static dielectric constant tensor:
#      x y z
#    x 3.367490 0.000000 0.000000 
#    y 0.000000 3.325900 0.000000 
#    z 0.000000 0.000000 3.363460 
# 
# 
# High freq. dielectric constant tensor:
#      x y z
#    x 1.793070 0.000000 0.000000 
#    y 0.000000 1.780630 0.000000 
#    z 0.000000 0.000000 1.763430 
# 
# From -- ./inp_files/27221.got.cif
#   From: 2010.03.12/outbox.cif.g09.slc.cpg/sg62_14_cif.got.tgz:27221.got - 2010.04.10 19:12:36.
