data_PCOD8252780
_publ_section_title
;
Structure prediction by ZEFSAII (Michael W. Deem and Ramdas Pophale) SiO2 
 PCOD8252780
Probable space group: P N M A
;
_chemical_formula_sum "Si O2"
_cell_formula_units_Z 48
_cell_length_a 11.886685
_cell_length_b 8.932418
_cell_length_c 23.413811
_cell_angle_alpha 90.000000
_cell_angle_beta 90.000000
_cell_angle_gamma 90.000000
_cell_volume 2486.004442
_symmetry_space_group_name_H-M "P N M A"
_symmetry_group_IT_number 62
_symmetry_cell_setting 'orthorhombic'
loop_
_space_group_symop_operation_xyz
x,y,z
1/2-x,-y,1/2+z
1/2+x,1/2-y,1/2-z
-x,1/2+y,-z
-x,-y,-z
1/2+x,y,1/2-z
1/2-x,1/2+y,1/2+z
x,1/2-y,z
loop_
_atom_site_type_symbol
_atom_site_label
_atom_site_fract_x
_atom_site_fract_y
_atom_site_fract_z
Si Si1 0.303053 0.074523 0.045905
Si Si2 0.789252 0.424806 0.581132
Si Si3 0.347557 0.926704 0.647978
Si Si4 0.919032 0.920445 0.157786
Si Si5 0.160321 0.075964 0.716718
Si Si6 0.997970 0.073764 0.371168
O O1 0.289521 0.250000 0.039105
O O2 0.204184 0.015848 0.087684
O O3 0.423318 0.031967 0.073246
O O4 0.292152 0.004463 0.982736
O O5 0.821240 0.250000 0.581970
O O6 0.665426 0.452344 0.605826
O O7 0.877697 0.511228 0.620483
O O8 0.331953 0.750000 0.654489
O O9 0.477390 0.968232 0.650861
O O10 0.279313 0.003793 0.699339
O O11 0.963452 0.750000 0.156198
O O12 0.853507 0.952231 0.216234
O O13 0.162012 0.250000 0.701007
O O14 0.055726 0.999622 0.684841
O O15 0.001786 0.250000 0.360981
#
# Coordination Sequence:
#
# PCOD8252780 Si02
#       6
#     8   8   8   8   8   8
#     4   8  17  35  57  81 113 147 184 227 277 332
#     4  10  20  36  57  82 113 151 188 229 275 328
#     4  10  21  38  59  83 111 145 184 229 281 332
#     4  10  23  38  55  81 111 147 189 228 273 331
#     4  10  21  38  58  79 109 148 189 231 275 332
#     4  10  20  35  56  86 115 144 185 235 284 332
#
# _framework density 19.308091000000001
#
# number of rings (size 3 to 8) (size 9 to 14) (size 15 to 20)
#    0.000    2.333    0.000    3.000    2.333    2.667 
#    0.000    4.167    0.000    0.000    0.000    0.000 
#    0.000    0.000    0.000    0.000    0.000    0.000 
#
# Total GULP energy -595304.925805 kJ/mol
# GULP energy per Si atom -12402.185954 kJ/mol
# Density = 1.926415 g / cm^3
# Si number density = 19.308091 Si / 1000 Ang^3
#
#
#
# Elastic Constant Matrix: (Units=GPa)
#
#
# Indices 1 2 3 4 5 6 
#
# 1 93.5704 39.2255 17.6795 0.0000 0.0000 0.0000
# 2 39.2255 79.2244 26.6528 0.0000 0.0000 0.0000
# 3 17.6795 26.6528 65.7288 0.0000 0.0000 0.0000
# 4 0.0000 0.0000 0.0000 23.6868 0.0000 0.0000
# 5 0.0000 0.0000 0.0000 0.0000 19.5159 0.0000
# 6 0.0000 0.0000 0.0000 0.0000 0.0000 35.3970
#
#
#
# Elastic Compliance Matrix: (Units=1/GPa)
#
#
# Indices 1 2 3 4 5 6 
#
# 1 0.013551 -0.006349 -0.001070 0.000000 0.000000 0.000000
# 2 -0.006349 0.017591 -0.005425 0.000000 0.000000 0.000000
# 3 -0.001070 -0.005425 0.017702 0.000000 0.000000 0.000000
# 4 0.000000 0.000000 0.000000 0.042218 0.000000 0.000000
# 5 0.000000 0.000000 0.000000 0.000000 0.051240 0.000000
# 6 0.000000 0.000000 0.000000 0.000000 0.000000 0.028251
#
#
# Mechanical properties :
#
#
# Convention : Reuss Voigt Hill
#
# Bulk Modulus (GPa) = 43.18863 45.07101 44.12982
# Shear Modulus (GPa) = 24.51448 26.05100 25.28274
#
# Velocity S-wave (km/s) = 3.56708 3.67717 3.62254
# Velocity P-wave (km/s) = 6.27552 6.43603 6.35628
#
# Compressibility (1/GPa) = 0.02315424
#
# Stress axis : x y z
#
# Youngs Moduli (GPa) = 73.79505 56.84649 56.49113
#
# Poissons Ratio (x) = 0.36094 0.06046
# Poissons Ratio (y) = 0.46855 0.30649
# Poissons Ratio (z) = 0.07898 0.30841
#
# Static dielectric constant tensor:
#      x y z
#    x 3.413950 0.000000 0.000000 
#    y 0.000000 3.393670 0.000000 
#    z 0.000000 0.000000 3.744550 
# 
# 
# High freq. dielectric constant tensor:
#      x y z
#    x 1.750260 0.000000 0.000000 
#    y 0.000000 1.740490 0.000000 
#    z 0.000000 0.000000 1.757540 
# 
# From -- ./inp_files/29253.got.cif
#   From: 2010.03.12/outbox.cif.g09.slc.cpg/sg62_15_cif.got.tgz:29253.got - 2010.04.10 19:12:36.
