data_PCOD8252341
_publ_section_title
;
Structure prediction by ZEFSAII (Michael W. Deem and Ramdas Pophale) SiO2 
 PCOD8252341
Probable space group: P N M A
;
_chemical_formula_sum "Si O2"
_cell_formula_units_Z 56
_cell_length_a 15.050909
_cell_length_b 8.913048
_cell_length_c 21.490060
_cell_angle_alpha 90.000000
_cell_angle_beta 90.000000
_cell_angle_gamma 90.000000
_cell_volume 2882.880253
_symmetry_space_group_name_H-M "P N M A"
_symmetry_group_IT_number 62
_symmetry_cell_setting 'orthorhombic'
loop_
_space_group_symop_operation_xyz
x,y,z
1/2-x,-y,1/2+z
1/2+x,1/2-y,1/2-z
-x,1/2+y,-z
-x,-y,-z
1/2+x,y,1/2-z
1/2-x,1/2+y,1/2+z
x,1/2-y,z
loop_
_atom_site_type_symbol
_atom_site_label
_atom_site_fract_x
_atom_site_fract_y
_atom_site_fract_z
Si Si1 0.526696 0.419157 0.099055
Si Si2 0.548261 0.914032 0.447061
Si Si3 0.220796 0.584197 0.978190
Si Si4 0.995411 0.571660 0.186012
Si Si5 0.384610 0.419750 0.010184
Si Si6 0.310424 0.073136 0.335431
Si Si7 0.626538 0.926087 0.205132
O O1 0.549530 0.250000 0.121474
O O2 0.422041 0.436351 0.081253
O O3 0.560390 0.538967 0.148312
O O4 0.574154 0.452631 0.033762
O O5 0.504831 0.750000 0.442922
O O6 0.648964 0.904607 0.467851
O O7 0.534891 0.988071 0.379509
O O8 0.500000 0.000000 0.500000
O O9 0.265000 0.750000 0.970970
O O10 0.187630 0.533785 0.909326
O O11 0.281095 0.455000 0.007815
O O12 0.984077 0.750000 0.190449
O O13 0.898133 0.498108 0.196806
O O14 0.070418 0.518327 0.235148
O O15 0.402343 0.250000 0.986306
O O16 0.313131 0.250000 0.323929
O O17 0.220899 0.009720 0.302920
O O18 0.646672 0.750000 0.207426
#
# Coordination Sequence:
#
# PCOD8252341 Si02
#       7
#     8   8   8   8   8   8   8
#     4  10  20  35  55  82 116 151 194 243 293 347
#     4  10  20  37  60  86 115 147 185 238 296 348
#     4  10  20  34  56  86 118 148 186 235 290 352
#     4  10  23  42  63  87 118 155 199 249 296 353
#     4  10  20  33  54  83 115 151 192 240 291 345
#     4  11  22  38  63  91 117 152 196 242 298 357
#     4  11  23  40  62  87 118 160 207 247 294 354
#
# _framework density 19.425018000000001
#
# number of rings (size 3 to 8) (size 9 to 14) (size 15 to 20)
#    0.000    1.714    2.857    1.714    0.000    4.000 
#    2.571    0.000    0.000    0.000    0.000    0.000 
#    0.000    0.000    0.000    0.000    0.000    0.000 
#
# Total GULP energy -693845.142487 kJ/mol
# GULP energy per Si atom -12390.091830 kJ/mol
# Density = 1.938081 g / cm^3
# Si number density = 19.425018 Si / 1000 Ang^3
#
#
#
# Elastic Constant Matrix: (Units=GPa)
#
#
# Indices 1 2 3 4 5 6 
#
# 1 113.9867 45.7238 62.8895 0.0000 0.0000 0.0000
# 2 45.7238 61.0222 25.3294 0.0000 0.0000 0.0000
# 3 62.8895 25.3294 106.3096 0.0000 0.0000 0.0000
# 4 0.0000 0.0000 0.0000 23.9658 0.0000 0.0000
# 5 0.0000 0.0000 0.0000 0.0000 34.7833 0.0000
# 6 0.0000 0.0000 0.0000 0.0000 0.0000 34.3711
#
#
#
# Elastic Compliance Matrix: (Units=1/GPa)
#
#
# Indices 1 2 3 4 5 6 
#
# 1 0.016779 -0.009380 -0.007691 0.000000 0.000000 0.000000
# 2 -0.009380 0.023430 -0.000033 0.000000 0.000000 0.000000
# 3 -0.007691 -0.000033 0.013964 0.000000 0.000000 0.000000
# 4 0.000000 0.000000 0.000000 0.041726 0.000000 0.000000
# 5 0.000000 0.000000 0.000000 0.000000 0.028749 0.000000
# 6 0.000000 0.000000 0.000000 0.000000 0.000000 0.029094
#
#
# Mechanical properties :
#
#
# Convention : Reuss Voigt Hill
#
# Bulk Modulus (GPa) = 50.09020 61.02265 55.55642
# Shear Modulus (GPa) = 25.69290 28.44910 27.07100
#
# Velocity S-wave (km/s) = 3.64080 3.83111 3.73717
# Velocity P-wave (km/s) = 6.59669 7.14510 6.87637
#
# Compressibility (1/GPa) = 0.01996399
#
# Stress axis : x y z
#
# Youngs Moduli (GPa) = 59.59864 42.68067 71.61160
#
# Poissons Ratio (x) = 0.40034 0.55076
# Poissons Ratio (y) = 0.55904 0.00240
# Poissons Ratio (z) = 0.45837 0.00143
#
# Static dielectric constant tensor:
#      x y z
#    x 2.980520 0.000000 0.000000 
#    y 0.000000 3.614960 0.000000 
#    z 0.000000 0.000000 2.917610 
# 
# 
# High freq. dielectric constant tensor:
#      x y z
#    x 1.758940 0.000000 0.000000 
#    y 0.000000 1.760800 0.000000 
#    z 0.000000 0.000000 1.738680 
# 
# From -- ./inp_files/27297.got.cif
#   From: 2010.03.12/outbox.cif.g09.slc.cpg/sg62_14_cif.got.tgz:27297.got - 2010.04.10 19:12:36.
