data_PCOD8252328
_publ_section_title
;
Structure prediction by ZEFSAII (Michael W. Deem and Ramdas Pophale) SiO2 
 PCOD8252328
Probable space group: P N M A
;
_chemical_formula_sum "Si O2"
_cell_formula_units_Z 64
_cell_length_a 29.991412
_cell_length_b 9.961165
_cell_length_c 10.504811
_cell_angle_alpha 90.000000
_cell_angle_beta 90.000000
_cell_angle_gamma 90.000000
_cell_volume 3138.306020
_symmetry_space_group_name_H-M "P N M A"
_symmetry_group_IT_number 62
_symmetry_cell_setting 'orthorhombic'
loop_
_space_group_symop_operation_xyz
x,y,z
1/2-x,-y,1/2+z
1/2+x,1/2-y,1/2-z
-x,1/2+y,-z
-x,-y,-z
1/2+x,y,1/2-z
1/2-x,1/2+y,1/2+z
x,1/2-y,z
loop_
_atom_site_type_symbol
_atom_site_label
_atom_site_fract_x
_atom_site_fract_y
_atom_site_fract_z
Si Si1 0.969067 0.601125 0.424244
Si Si2 0.110643 0.093155 0.262057
Si Si3 0.370820 0.908795 0.033197
Si Si4 0.269423 0.904399 0.410572
Si Si5 0.369331 0.596059 0.485814
Si Si6 0.479951 0.480998 0.697258
Si Si7 0.223585 0.091017 0.621546
Si Si8 0.058105 0.605025 0.941572
O O1 0.968378 0.750000 0.487214
O O2 0.918567 0.541787 0.411753
O O3 0.000000 0.500000 0.500000
O O4 0.990905 0.616236 0.285427
O O5 0.117125 0.250000 0.261931
O O6 0.135085 0.034584 0.388013
O O7 0.132840 0.039158 0.131272
O O8 0.058331 0.058614 0.275941
O O9 0.371825 0.750000 0.031787
O O10 0.328463 0.954831 0.116774
O O11 0.255407 0.750000 0.441391
O O12 0.322388 0.919211 0.418390
O O13 0.257218 0.940937 0.263226
O O14 0.248305 0.005985 0.512183
O O15 0.385967 0.750000 0.483518
O O16 0.405808 0.509860 0.408837
O O17 0.455811 0.395161 0.589217
O O18 0.513211 0.590955 0.639196
O O19 0.228951 0.250000 0.591587
O O20 0.079521 0.750000 0.911144
#
# Coordination Sequence:
#
# PCOD8252328 Si02
#       8
#     8   8   8   8   8   8   8   8
#     4  11  22  36  57  82 114 155 197 242 289 340
#     4   9  16  31  55  82 111 153 201 241 285 342
#     4   9  19  35  58  84 113 151 198 241 290 355
#     4  10  23  43  66  95 125 156 201 252 309 379
#     4   9  20  36  59  86 115 154 199 247 299 362
#     4  10  20  33  53  79 116 158 201 243 290 344
#     4  10  23  42  67  94 122 157 202 251 308 373
#     4  10  21  35  54  83 118 156 200 251 297 345
#
# _framework density 20.393167999999999
#
# number of rings (size 3 to 8) (size 9 to 14) (size 15 to 20)
#    0.000    2.250    1.250    0.750    3.500    5.000 
#    0.000    0.625    0.000    0.000    0.000    0.000 
#    0.000    0.000    0.000    0.000    0.000    0.000 
#
# Total GULP energy -793011.272615 kJ/mol
# GULP energy per Si atom -12390.801135 kJ/mol
# Density = 2.034675 g / cm^3
# Si number density = 20.393168 Si / 1000 Ang^3
#
#
#
# Elastic Constant Matrix: (Units=GPa)
#
#
# Indices 1 2 3 4 5 6 
#
# 1 77.1316 40.2682 32.3104 0.0000 0.0000 0.0000
# 2 40.2682 89.5371 36.9566 0.0000 0.0000 0.0000
# 3 32.3104 36.9566 90.3925 0.0000 0.0000 0.0000
# 4 0.0000 0.0000 0.0000 17.7166 0.0000 0.0000
# 5 0.0000 0.0000 0.0000 0.0000 37.1689 0.0000
# 6 0.0000 0.0000 0.0000 0.0000 0.0000 29.7260
#
#
#
# Elastic Compliance Matrix: (Units=1/GPa)
#
#
# Indices 1 2 3 4 5 6 
#
# 1 0.017939 -0.006522 -0.003746 0.000000 0.000000 0.000000
# 2 -0.006522 0.015807 -0.004131 0.000000 0.000000 0.000000
# 3 -0.003746 -0.004131 0.014091 0.000000 0.000000 0.000000
# 4 0.000000 0.000000 0.000000 0.056444 0.000000 0.000000
# 5 0.000000 0.000000 0.000000 0.000000 0.026904 0.000000
# 6 0.000000 0.000000 0.000000 0.000000 0.000000 0.033641
#
#
# Mechanical properties :
#
#
# Convention : Reuss Voigt Hill
#
# Bulk Modulus (GPa) = 52.52442 52.90352 52.71397
# Shear Modulus (GPa) = 25.00383 26.75738 25.88060
#
# Velocity S-wave (km/s) = 3.50535 3.62619 3.56628
# Velocity P-wave (km/s) = 6.49578 6.59776 6.54697
#
# Compressibility (1/GPa) = 0.01903876
#
# Stress axis : x y z
#
# Youngs Moduli (GPa) = 55.74536 63.26378 70.96784
#
# Poissons Ratio (x) = 0.41258 0.26583
# Poissons Ratio (y) = 0.36355 0.29320
# Poissons Ratio (z) = 0.20881 0.26137
#
# Static dielectric constant tensor:
#      x y z
#    x 3.777060 0.000000 0.000000 
#    y 0.000000 3.414930 0.000000 
#    z 0.000000 0.000000 4.070040 
# 
# 
# High freq. dielectric constant tensor:
#      x y z
#    x 1.789870 0.000000 0.000000 
#    y 0.000000 1.765290 0.000000 
#    z 0.000000 0.000000 1.807230 
# 
# From -- ./inp_files/15757.got.cif
#   From: 2010.03.12/outbox.cif.g09.slc.cpg/sg62_8_cif.got.tgz:15757.got - 2010.04.10 19:12:36.
