data_PCOD8252228
_publ_section_title
;
Structure prediction by ZEFSAII (Michael W. Deem and Ramdas Pophale) SiO2 
 PCOD8252228
Probable space group: P N M A
;
_chemical_formula_sum "Si O2"
_cell_formula_units_Z 64
_cell_length_a 14.472674
_cell_length_b 8.947157
_cell_length_c 27.777658
_cell_angle_alpha 90.000000
_cell_angle_beta 90.000000
_cell_angle_gamma 90.000000
_cell_volume 3596.909115
_symmetry_space_group_name_H-M "P N M A"
_symmetry_group_IT_number 62
_symmetry_cell_setting 'orthorhombic'
loop_
_space_group_symop_operation_xyz
x,y,z
1/2-x,-y,1/2+z
1/2+x,1/2-y,1/2-z
-x,1/2+y,-z
-x,-y,-z
1/2+x,y,1/2-z
1/2-x,1/2+y,1/2+z
x,1/2-y,z
loop_
_atom_site_type_symbol
_atom_site_label
_atom_site_fract_x
_atom_site_fract_y
_atom_site_fract_z
Si Si1 0.776278 0.927292 0.640064
Si Si2 0.285663 0.078445 0.139879
Si Si3 0.590708 0.076032 0.322955
Si Si4 0.895936 0.574697 0.549187
Si Si5 0.606330 0.923841 0.221711
Si Si6 0.392880 0.426301 0.048602
Si Si7 0.595370 0.072888 0.668574
Si Si8 0.396243 0.579827 0.220796
O O1 0.765284 0.750000 0.642743
O O2 0.834247 0.979339 0.593765
O O3 0.826976 0.983940 0.687563
O O4 0.676276 0.004510 0.635897
O O5 0.314113 0.250000 0.140237
O O6 0.175255 0.056180 0.139663
O O7 0.329918 0.006629 0.091740
O O8 0.327904 0.014321 0.188534
O O9 0.572984 0.250000 0.310991
O O10 0.617574 0.987746 0.274942
O O11 0.500734 0.003166 0.347644
O O12 0.888308 0.750000 0.541563
O O13 0.857685 0.497224 0.501120
O O14 0.001512 0.526259 0.559278
O O15 0.635535 0.750000 0.221968
O O16 0.501473 0.943897 0.203602
O O17 0.381940 0.250000 0.043756
O O18 0.587735 0.250000 0.661405
O O19 0.614646 0.028969 0.723976
O O20 0.365875 0.750000 0.215455
#
# Coordination Sequence:
#
# PCOD8252228 Si02
#       8
#     8   8   8   8   8   8   8   8
#     4  11  21  33  52  76 101 132 170 210 253 301
#     4  10  20  32  50  75 100 129 166 206 247 296
#     4  10  20  34  51  72 100 135 173 211 252 295
#     4   9  19  34  52  76 103 129 160 200 247 301
#     4  10  20  33  48  72 106 139 172 208 247 294
#     4   9  18  34  53  74 102 131 158 195 246 300
#     4  10  21  36  51  71 101 135 172 212 253 297
#     4   9  19  32  47  70 101 135 167 202 243 290
#
# _framework density 17.793054000000001
#
# number of rings (size 3 to 8) (size 9 to 14) (size 15 to 20)
#    0.000    2.250    0.000    3.750    0.000    8.500 
#    0.000    2.500    0.000    0.750    0.000    0.000 
#    0.000    0.000    0.000    0.000    0.000    0.000 
#
# Total GULP energy -793710.331403 kJ/mol
# GULP energy per Si atom -12401.723928 kJ/mol
# Density = 1.775256 g / cm^3
# Si number density = 17.793054 Si / 1000 Ang^3
#
#
#
# Elastic Constant Matrix: (Units=GPa)
#
#
# Indices 1 2 3 4 5 6 
#
# 1 107.1031 35.8880 53.0913 0.0000 0.0000 0.0000
# 2 35.8880 52.0228 25.4431 0.0000 0.0000 0.0000
# 3 53.0913 25.4431 70.3461 0.0000 0.0000 0.0000
# 4 0.0000 0.0000 0.0000 26.9172 0.0000 0.0000
# 5 0.0000 0.0000 0.0000 0.0000 28.4991 0.0000
# 6 0.0000 0.0000 0.0000 0.0000 0.0000 26.5131
#
#
#
# Elastic Compliance Matrix: (Units=1/GPa)
#
#
# Indices 1 2 3 4 5 6 
#
# 1 0.016520 -0.006437 -0.010140 0.000000 0.000000 0.000000
# 2 -0.006437 0.025862 -0.004495 0.000000 0.000000 0.000000
# 3 -0.010140 -0.004495 0.023494 0.000000 0.000000 0.000000
# 4 0.000000 0.000000 0.000000 0.037151 0.000000 0.000000
# 5 0.000000 0.000000 0.000000 0.000000 0.035089 0.000000
# 6 0.000000 0.000000 0.000000 0.000000 0.000000 0.037717
#
#
# Mechanical properties :
#
#
# Convention : Reuss Voigt Hill
#
# Bulk Modulus (GPa) = 42.13922 50.92409 46.53165
# Shear Modulus (GPa) = 22.13486 24.05584 23.09535
#
# Velocity S-wave (km/s) = 3.53089 3.68092 3.60668
# Velocity P-wave (km/s) = 6.35274 6.83724 6.59944
#
# Compressibility (1/GPa) = 0.02373086
#
# Stress axis : x y z
#
# Youngs Moduli (GPa) = 60.53243 38.66711 42.56418
#
# Poissons Ratio (x) = 0.24891 0.43159
# Poissons Ratio (y) = 0.38967 0.19135
# Poissons Ratio (z) = 0.61378 0.17383
#
# Static dielectric constant tensor:
#      x y z
#    x 3.507250 0.000000 0.000000 
#    y 0.000000 3.299200 0.000000 
#    z 0.000000 0.000000 3.184490 
# 
# 
# High freq. dielectric constant tensor:
#      x y z
#    x 1.692740 0.000000 0.000000 
#    y 0.000000 1.693510 0.000000 
#    z 0.000000 0.000000 1.663350 
# 
# From -- ./inp_files/29783.got.cif
#   From: 2010.03.12/outbox.cif.g09.slc.cpg/sg62_15_cif.got.tgz:29783.got - 2010.04.10 19:12:36.
