data_PCOD8252689
_publ_section_title
;
Structure prediction by ZEFSAII (Michael W. Deem and Ramdas Pophale) SiO2 
 PCOD8252689
Probable space group: P N M A
;
_chemical_formula_sum "Si O2"
_cell_formula_units_Z 64
_cell_length_a 29.317381
_cell_length_b 8.950699
_cell_length_c 12.686605
_cell_angle_alpha 90.000000
_cell_angle_beta 90.000000
_cell_angle_gamma 90.000000
_cell_volume 3329.105374
_symmetry_space_group_name_H-M "P N M A"
_symmetry_group_IT_number 62
_symmetry_cell_setting 'orthorhombic'
loop_
_space_group_symop_operation_xyz
x,y,z
1/2-x,-y,1/2+z
1/2+x,1/2-y,1/2-z
-x,1/2+y,-z
-x,-y,-z
1/2+x,y,1/2-z
1/2-x,1/2+y,1/2+z
x,1/2-y,z
loop_
_atom_site_type_symbol
_atom_site_label
_atom_site_fract_x
_atom_site_fract_y
_atom_site_fract_z
Si Si1 0.240825 0.921258 0.014450
Si Si2 0.452484 0.425636 0.881813
Si Si3 0.122412 0.925392 0.788071
Si Si4 0.791231 0.913247 0.277585
Si Si5 0.292750 0.084360 0.858454
Si Si6 0.855770 0.572208 0.998742
Si Si7 0.124685 0.573585 0.217418
Si Si8 0.547262 0.925827 0.879699
O O1 0.229305 0.750000 0.986819
O O2 0.287878 0.971831 0.956161
O O3 0.253678 0.946042 0.134625
O O4 0.196025 0.017516 0.992024
O O5 0.459476 0.250000 0.875915
O O6 0.414600 0.478087 0.798109
O O7 0.499498 0.501286 0.848297
O O8 0.438002 0.473398 0.001077
O O9 0.119065 0.750000 0.810436
O O10 0.084135 0.980600 0.705634
O O11 0.170780 0.960072 0.732789
O O12 0.116916 0.013302 0.898375
O O13 0.814654 0.750000 0.293420
O O14 0.760050 0.910330 0.174855
O O15 0.309423 0.250000 0.894260
O O16 0.327501 0.024359 0.770415
O O17 0.857275 0.750000 0.997979
O O18 0.880475 0.510731 0.893650
O O19 0.123660 0.750000 0.194711
O O20 0.541136 0.750000 0.873711
#
# Coordination Sequence:
#
# PCOD8252689 Si02
#       8
#     8   8   8   8   8   8   8   8
#     4  11  22  37  54  76 112 154 195 237 284 336
#     4   9  19  38  65  91 116 148 182 228 289 343
#     4  11  23  38  60  85 114 153 195 236 284 342
#     4  10  21  36  53  79 114 151 191 235 281 329
#     4  10  20  35  55  80 114 151 189 236 281 332
#     4  12  24  38  57  81 115 154 196 240 285 336
#     4  10  21  39  61  84 116 153 192 236 286 343
#     4   9  20  39  62  90 119 147 183 230 285 344
#
# _framework density 19.224385000000002
#
# number of rings (size 3 to 8) (size 9 to 14) (size 15 to 20)
#    0.000    1.750    2.500    1.875    1.750    3.000 
#    0.000    0.625    0.000    0.000    0.000    0.000 
#    0.000    0.000    0.000    0.000    0.000    0.000 
#
# Total GULP energy -793317.354780 kJ/mol
# GULP energy per Si atom -12395.583668 kJ/mol
# Density = 1.918063 g / cm^3
# Si number density = 19.224385 Si / 1000 Ang^3
#
#
#
# Elastic Constant Matrix: (Units=GPa)
#
#
# Indices 1 2 3 4 5 6 
#
# 1 106.7824 39.1675 62.7187 0.0000 0.0000 0.0000
# 2 39.1675 74.5583 40.1664 0.0000 0.0000 0.0000
# 3 62.7187 40.1664 88.9837 0.0000 0.0000 0.0000
# 4 0.0000 0.0000 0.0000 30.5956 0.0000 0.0000
# 5 0.0000 0.0000 0.0000 0.0000 36.7104 0.0000
# 6 0.0000 0.0000 0.0000 0.0000 0.0000 27.0243
#
#
#
# Elastic Compliance Matrix: (Units=1/GPa)
#
#
# Indices 1 2 3 4 5 6 
#
# 1 0.016532 -0.003181 -0.010217 0.000000 0.000000 0.000000
# 2 -0.003181 0.018334 -0.006034 0.000000 0.000000 0.000000
# 3 -0.010217 -0.006034 0.021163 0.000000 0.000000 0.000000
# 4 0.000000 0.000000 0.000000 0.032684 0.000000 0.000000
# 5 0.000000 0.000000 0.000000 0.000000 0.027240 0.000000
# 6 0.000000 0.000000 0.000000 0.000000 0.000000 0.037004
#
#
# Mechanical properties :
#
#
# Convention : Reuss Voigt Hill
#
# Bulk Modulus (GPa) = 58.25408 61.60329 59.92868
# Shear Modulus (GPa) = 25.31106 27.41752 26.36429
#
# Velocity S-wave (km/s) = 3.63245 3.78058 3.70726
# Velocity P-wave (km/s) = 6.92538 7.15339 7.04031
#
# Compressibility (1/GPa) = 0.01716618
#
# Stress axis : x y z
#
# Youngs Moduli (GPa) = 60.48728 54.54390 47.25301
#
# Poissons Ratio (x) = 0.17350 0.48277
# Poissons Ratio (y) = 0.19240 0.28511
# Poissons Ratio (z) = 0.61798 0.32910
#
# Static dielectric constant tensor:
#      x y z
#    x 3.347770 0.000000 0.000000 
#    y 0.000000 3.470960 0.000000 
#    z 0.000000 0.000000 3.913160 
# 
# 
# High freq. dielectric constant tensor:
#      x y z
#    x 1.728670 0.000000 0.000000 
#    y 0.000000 1.742110 0.000000 
#    z 0.000000 0.000000 1.761460 
# 
# From -- ./inp_files/15803.got.cif
#   From: 2010.03.12/outbox.cif.g09.slc.cpg/sg62_8_cif.got.tgz:15803.got - 2010.04.10 19:12:36.
