data_PCOD8252295
_publ_section_title
;
Structure prediction by ZEFSAII (Michael W. Deem and Ramdas Pophale) SiO2 
 PCOD8252295
Probable space group: P N M A
;
_chemical_formula_sum "Si O2"
_cell_formula_units_Z 48
_cell_length_a 8.784441
_cell_length_b 9.109181
_cell_length_c 30.182637
_cell_angle_alpha 90.000000
_cell_angle_beta 90.000000
_cell_angle_gamma 90.000000
_cell_volume 2415.186333
_symmetry_space_group_name_H-M "P N M A"
_symmetry_group_IT_number 62
_symmetry_cell_setting 'orthorhombic'
loop_
_space_group_symop_operation_xyz
x,y,z
1/2-x,-y,1/2+z
1/2+x,1/2-y,1/2-z
-x,1/2+y,-z
-x,-y,-z
1/2+x,y,1/2-z
1/2-x,1/2+y,1/2+z
x,1/2-y,z
loop_
_atom_site_type_symbol
_atom_site_label
_atom_site_fract_x
_atom_site_fract_y
_atom_site_fract_z
Si Si1 0.771270 0.920967 0.883841
Si Si2 0.424953 0.921027 0.861762
Si Si3 0.355252 0.084158 0.946832
Si Si4 0.771019 0.080975 0.716512
Si Si5 0.209577 0.084076 0.530513
Si Si6 0.926079 0.418591 0.806670
O O1 0.797850 0.750000 0.891896
O O2 0.603206 0.955015 0.865835
O O3 0.799907 0.002642 0.930328
O O4 0.892292 0.979142 0.848458
O O5 0.389995 0.750000 0.866591
O O6 0.330216 0.004063 0.899985
O O7 0.372265 0.978113 0.814366
O O8 0.293891 0.250000 0.943053
O O9 0.531400 0.081961 0.959397
O O10 0.258835 0.999950 0.984439
O O11 0.811559 0.250000 0.705844
O O12 0.594682 0.046449 0.710023
O O13 0.809971 0.043292 0.767202
O O14 0.270122 0.250000 0.526390
O O15 0.908079 0.250000 0.821464
#
# Coordination Sequence:
#
# PCOD8252295 Si02
#       6
#     8   8   8   8   8   8
#     4  10  20  33  51  77 108 141 177 216 259 308
#     4  10  20  33  51  77 108 141 177 216 259 308
#     4   9  16  27  46  73 105 139 175 216 259 303
#     4  10  21  37  57  79 103 134 173 216 263 315
#     4   9  16  27  46  73 105 139 175 216 259 303
#     4  10  21  37  57  79 103 134 173 216 263 315
#
# _framework density 19.874241999999999
#
# number of rings (size 3 to 8) (size 9 to 14) (size 15 to 20)
#    0.000    2.333    0.000    3.000    0.000    8.667 
#    0.000    0.000    0.000    1.000    0.000    0.000 
#    0.000    0.000    0.000    0.000    0.000    0.000 
#
# Total GULP energy -595383.183921 kJ/mol
# GULP energy per Si atom -12403.816332 kJ/mol
# Density = 1.982901 g / cm^3
# Si number density = 19.874242 Si / 1000 Ang^3
#
#
#
# Elastic Constant Matrix: (Units=GPa)
#
#
# Indices 1 2 3 4 5 6 
#
# 1 23.4476 10.9278 -8.9428 0.0000 0.0000 0.0000
# 2 10.9278 103.0396 19.8268 0.0000 0.0000 0.0000
# 3 -8.9428 19.8268 41.6533 0.0000 0.0000 0.0000
# 4 0.0000 0.0000 0.0000 43.4155 0.0000 0.0000
# 5 0.0000 0.0000 0.0000 0.0000 19.9187 0.0000
# 6 0.0000 0.0000 0.0000 0.0000 0.0000 21.7733
#
#
#
# Elastic Compliance Matrix: (Units=1/GPa)
#
#
# Indices 1 2 3 4 5 6 
#
# 1 0.052454 -0.008509 0.015312 0.000000 0.000000 0.000000
# 2 -0.008509 0.012064 -0.007569 0.000000 0.000000 0.000000
# 3 0.015312 -0.007569 0.030898 0.000000 0.000000 0.000000
# 4 0.000000 0.000000 0.000000 0.023033 0.000000 0.000000
# 5 0.000000 0.000000 0.000000 0.000000 0.050204 0.000000
# 6 0.000000 0.000000 0.000000 0.000000 0.000000 0.045928
#
#
# Mechanical properties :
#
#
# Convention : Reuss Voigt Hill
#
# Bulk Modulus (GPa) = 10.65153 23.52935 17.09044
# Shear Modulus (GPa) = 20.20948 26.77677 23.49312
#
# Velocity S-wave (km/s) = 3.19230 3.67455 3.44188
# Velocity P-wave (km/s) = 4.35417 5.46516 4.94099
#
# Compressibility (1/GPa) = 0.09388324
#
# Stress axis : x y z
#
# Youngs Moduli (GPa) = 19.06426 82.89154 32.36437
#
# Poissons Ratio (x) = 0.70536 -0.49557
# Poissons Ratio (y) = 0.16223 0.24498
# Poissons Ratio (z) = -0.29192 0.62743
#
# Static dielectric constant tensor:
#      x y z
#    x 3.206470 0.000000 0.000000 
#    y 0.000000 3.669200 0.000000 
#    z 0.000000 0.000000 3.676520 
# 
# 
# High freq. dielectric constant tensor:
#      x y z
#    x 1.735730 0.000000 0.000000 
#    y 0.000000 1.781480 0.000000 
#    z 0.000000 0.000000 1.785960 
# 
# From -- ./inp_files/31907.got.cif
#   From: 2010.03.12/outbox.cif.g09.slc.cpg/sg62_16_cif.got.tgz:31907.got - 2010.04.10 19:12:36.
