data_PCOD8252906
_publ_section_title
;
Structure prediction by ZEFSAII (Michael W. Deem and Ramdas Pophale) SiO2 
 PCOD8252906
Probable space group: P N M A
;
_chemical_formula_sum "Si O2"
_cell_formula_units_Z 40
_cell_length_a 18.673466
_cell_length_b 9.092400
_cell_length_c 10.662156
_cell_angle_alpha 90.000000
_cell_angle_beta 90.000000
_cell_angle_gamma 90.000000
_cell_volume 1810.291453
_symmetry_space_group_name_H-M "P N M A"
_symmetry_group_IT_number 62
_symmetry_cell_setting 'orthorhombic'
loop_
_space_group_symop_operation_xyz
x,y,z
1/2-x,-y,1/2+z
1/2+x,1/2-y,1/2-z
-x,1/2+y,-z
-x,-y,-z
1/2+x,y,1/2-z
1/2-x,1/2+y,1/2+z
x,1/2-y,z
loop_
_atom_site_type_symbol
_atom_site_label
_atom_site_fract_x
_atom_site_fract_y
_atom_site_fract_z
Si Si1 0.421754 0.076968 0.777171
Si Si2 0.707294 0.424186 0.121429
Si Si3 0.781891 0.079600 0.375537
Si Si4 0.570628 0.917854 0.765351
Si Si5 0.572850 0.582816 0.492888
O O1 0.417256 0.250000 0.807812
O O2 0.388919 0.035266 0.637669
O O3 0.373475 0.987926 0.875383
O O4 0.504459 0.026650 0.789593
O O5 0.707479 0.250000 0.109309
O O6 0.746960 0.479056 0.246970
O O7 0.745941 0.488575 0.996473
O O8 0.762557 0.250000 0.395913
O O9 0.867717 0.054885 0.366829
O O10 0.541980 0.750000 0.771838
O O11 0.610507 0.942093 0.628055
O O12 0.500000 0.500000 0.500000
O O13 0.551757 0.750000 0.471991
#
# Coordination Sequence:
#
# PCOD8252906 Si02
#       5
#     8   8   8   8   8
#     4  10  20  35  60  92 126 162 205 254 308 368
#     4  11  25  43  65  92 125 166 208 254 312 372
#     4  10  24  44  65  91 123 164 209 256 312 371
#     4   9  18  36  61  88 122 159 203 257 311 365
#     4   8  15  28  51  83 117 154 191 238 296 352
#
# _framework density 22.095891000000002
#
# number of rings (size 3 to 8) (size 9 to 14) (size 15 to 20)
#    0.000    2.400    0.000    1.200    2.800    4.000 
#    0.000    0.000    0.000    0.000    0.000    0.000 
#    0.000    0.000    0.000    0.000    0.000    0.000 
#
# Total GULP energy -495549.012204 kJ/mol
# GULP energy per Si atom -12388.725305 kJ/mol
# Density = 2.204560 g / cm^3
# Si number density = 22.095891 Si / 1000 Ang^3
#
#
#
# Elastic Constant Matrix: (Units=GPa)
#
#
# Indices 1 2 3 4 5 6 
#
# 1 41.1494 19.9680 34.7635 0.0000 0.0000 0.0000
# 2 19.9680 70.7492 55.7611 0.0000 0.0000 0.0000
# 3 34.7635 55.7611 146.3416 0.0000 0.0000 0.0000
# 4 0.0000 0.0000 0.0000 36.2635 0.0000 0.0000
# 5 0.0000 0.0000 0.0000 0.0000 34.1988 0.0000
# 6 0.0000 0.0000 0.0000 0.0000 0.0000 20.7390
#
#
#
# Elastic Compliance Matrix: (Units=1/GPa)
#
#
# Indices 1 2 3 4 5 6 
#
# 1 0.031271 -0.004246 -0.005810 0.000000 0.000000 0.000000
# 2 -0.004246 0.020778 -0.006908 0.000000 0.000000 0.000000
# 3 -0.005810 -0.006908 0.010846 0.000000 0.000000 0.000000
# 4 0.000000 0.000000 0.000000 0.027576 0.000000 0.000000
# 5 0.000000 0.000000 0.000000 0.000000 0.029241 0.000000
# 6 0.000000 0.000000 0.000000 0.000000 0.000000 0.048218
#
#
# Mechanical properties :
#
#
# Convention : Reuss Voigt Hill
#
# Bulk Modulus (GPa) = 34.52501 53.24725 43.88613
# Shear Modulus (GPa) = 23.63905 28.09011 25.86458
#
# Velocity S-wave (km/s) = 3.27439 3.56937 3.42506
# Velocity P-wave (km/s) = 5.47307 6.41388 5.96206
#
# Compressibility (1/GPa) = 0.02896451
#
# Stress axis : x y z
#
# Youngs Moduli (GPa) = 31.97853 48.12858 92.20080
#
# Poissons Ratio (x) = 0.20437 0.53573
# Poissons Ratio (y) = 0.13579 0.63695
# Poissons Ratio (z) = 0.18581 0.33249
#
# Static dielectric constant tensor:
#      x y z
#    x 3.682050 0.000000 0.000000 
#    y 0.000000 3.732080 0.000000 
#    z 0.000000 0.000000 5.266730 
# 
# 
# High freq. dielectric constant tensor:
#      x y z
#    x 1.850270 0.000000 0.000000 
#    y 0.000000 1.857460 0.000000 
#    z 0.000000 0.000000 1.888380 
# 
# From -- ./inp_files/14619.got.cif
#   From: 2010.03.12/outbox.cif.g09.slc.cpg/sg62_8_cif.got.tgz:14619.got - 2010.04.10 19:12:36.
