data_PCOD8252405
_publ_section_title
;
Structure prediction by ZEFSAII (Michael W. Deem and Ramdas Pophale) SiO2 
 PCOD8252405
Probable space group: P N M A
;
_chemical_formula_sum "Si O2"
_cell_formula_units_Z 64
_cell_length_a 19.797661
_cell_length_b 8.787736
_cell_length_c 20.867059
_cell_angle_alpha 90.000000
_cell_angle_beta 90.000000
_cell_angle_gamma 90.000000
_cell_volume 3630.380358
_symmetry_space_group_name_H-M "P N M A"
_symmetry_group_IT_number 62
_symmetry_cell_setting 'orthorhombic'
loop_
_space_group_symop_operation_xyz
x,y,z
1/2-x,-y,1/2+z
1/2+x,1/2-y,1/2-z
-x,1/2+y,-z
-x,-y,-z
1/2+x,y,1/2-z
1/2-x,1/2+y,1/2+z
x,1/2-y,z
loop_
_atom_site_type_symbol
_atom_site_label
_atom_site_fract_x
_atom_site_fract_y
_atom_site_fract_z
Si Si1 0.787202 0.070919 0.187132
Si Si2 0.074108 0.429132 0.232931
Si Si3 0.071774 0.429522 0.623059
Si Si4 0.791167 0.571024 0.564266
Si Si5 0.066805 0.427665 0.377998
Si Si6 0.926755 0.070876 0.238892
Si Si7 0.787029 0.568457 0.813366
Si Si8 0.298944 0.430196 0.067297
O O1 0.774645 0.250000 0.186478
O O2 0.754407 0.004181 0.122409
O O3 0.867079 0.029919 0.189257
O O4 0.751760 0.004047 0.250770
O O5 0.080057 0.250000 0.229731
O O6 0.084424 0.482383 0.306074
O O7 0.135375 0.494573 0.189513
O O8 0.999251 0.480425 0.208897
O O9 0.076345 0.250000 0.620891
O O10 0.086419 0.487236 0.694505
O O11 0.127445 0.497364 0.575566
O O12 0.998556 0.481620 0.597189
O O13 0.779182 0.750000 0.555249
O O14 0.869666 0.534711 0.577504
O O15 0.768496 0.483605 0.500446
O O16 0.048923 0.250000 0.378415
O O17 0.926942 0.250000 0.254749
O O18 0.784647 0.750000 0.813212
O O19 0.751309 0.507149 0.877439
O O20 0.305018 0.250000 0.069717
#
# Coordination Sequence:
#
# PCOD8252405 Si02
#       8
#     8   8   8   8   8   8   8   8
#     4   9  15  28  52  78  99 126 165 209 249 290
#     4   8  13  24  47  77  99 119 159 208 244 281
#     4  11  21  32  48  72 103 134 165 203 245 294
#     4  10  20  34  53  75 101 131 168 212 253 292
#     4   9  17  31  51  72  96 130 166 202 244 294
#     4   9  16  29  52  78 101 127 164 206 249 296
#     4   9  15  27  50  76  97 124 166 209 245 286
#     4  11  22  35  51  70 100 137 171 207 248 299
#
# _framework density 17.629007000000001
#
# number of rings (size 3 to 8) (size 9 to 14) (size 15 to 20)
#    0.000    2.500    2.500    2.250    0.000    1.000 
#    0.000    0.625    0.000    6.750    0.000    0.000 
#    0.000    0.000    0.000    0.000    0.000    0.125 
#
# Total GULP energy -793269.895179 kJ/mol
# GULP energy per Si atom -12394.842112 kJ/mol
# Density = 1.758888 g / cm^3
# Si number density = 17.629007 Si / 1000 Ang^3
#
#
#
# Elastic Constant Matrix: (Units=GPa)
#
#
# Indices 1 2 3 4 5 6 
#
# 1 129.2223 26.1030 71.4594 0.0000 0.0000 0.0000
# 2 26.1030 44.3635 26.2740 0.0000 0.0000 0.0000
# 3 71.4594 26.2740 118.8306 0.0000 0.0000 0.0000
# 4 0.0000 0.0000 0.0000 20.9891 0.0000 0.0000
# 5 0.0000 0.0000 0.0000 0.0000 26.4087 0.0000
# 6 0.0000 0.0000 0.0000 0.0000 0.0000 10.2384
#
#
#
# Elastic Compliance Matrix: (Units=1/GPa)
#
#
# Indices 1 2 3 4 5 6 
#
# 1 0.011977 -0.003201 -0.006495 0.000000 0.000000 0.000000
# 2 -0.003201 0.026793 -0.003999 0.000000 0.000000 0.000000
# 3 -0.006495 -0.003999 0.013205 0.000000 0.000000 0.000000
# 4 0.000000 0.000000 0.000000 0.047644 0.000000 0.000000
# 5 0.000000 0.000000 0.000000 0.000000 0.037866 0.000000
# 6 0.000000 0.000000 0.000000 0.000000 0.000000 0.097672
#
#
# Mechanical properties :
#
#
# Convention : Reuss Voigt Hill
#
# Bulk Modulus (GPa) = 40.67412 60.00991 50.34202
# Shear Modulus (GPa) = 18.46788 22.76590 20.61689
#
# Velocity S-wave (km/s) = 3.24015 3.59749 3.42349
# Velocity P-wave (km/s) = 6.09266 7.16730 6.65172
#
# Compressibility (1/GPa) = 0.02458566
#
# Stress axis : x y z
#
# Youngs Moduli (GPa) = 83.49649 37.32348 75.72819
#
# Poissons Ratio (x) = 0.11946 0.49182
# Poissons Ratio (y) = 0.26723 0.30286
# Poissons Ratio (z) = 0.54227 0.14927
#
# Static dielectric constant tensor:
#      x y z
#    x 3.681450 0.000000 0.000000 
#    y 0.000000 2.857090 0.000000 
#    z 0.000000 0.000000 3.197150 
# 
# 
# High freq. dielectric constant tensor:
#      x y z
#    x 1.692430 0.000000 0.000000 
#    y 0.000000 1.641080 0.000000 
#    z 0.000000 0.000000 1.657280 
# 
# From -- ./inp_files/24803.got.cif
#   From: 2010.03.12/outbox.cif.g09.slc.cpg/sg62_13_cif.got.tgz:24803.got - 2010.04.10 19:12:36.
