data_PCOD8252965
_publ_section_title
;
Structure prediction by ZEFSAII (Michael W. Deem and Ramdas Pophale) SiO2 
 PCOD8252965
Probable space group: P N M A
;
_chemical_formula_sum "Si O2"
_cell_formula_units_Z 40
_cell_length_a 7.232416
_cell_length_b 10.785771
_cell_length_c 23.865891
_cell_angle_alpha 90.000000
_cell_angle_beta 90.000000
_cell_angle_gamma 90.000000
_cell_volume 1861.710921
_symmetry_space_group_name_H-M "P N M A"
_symmetry_group_IT_number 62
_symmetry_cell_setting 'orthorhombic'
loop_
_space_group_symop_operation_xyz
x,y,z
1/2-x,-y,1/2+z
1/2+x,1/2-y,1/2-z
-x,1/2+y,-z
-x,-y,-z
1/2+x,y,1/2-z
1/2-x,1/2+y,1/2+z
x,1/2-y,z
loop_
_atom_site_type_symbol
_atom_site_label
_atom_site_fract_x
_atom_site_fract_y
_atom_site_fract_z
Si Si1 0.956621 0.385394 0.826343
Si Si2 0.964423 0.610205 0.296959
Si Si3 0.272865 0.384475 0.477145
Si Si4 0.483536 0.609336 0.876804
Si Si5 0.133264 0.049481 0.077796
O O1 0.036635 0.250000 0.841402
O O2 0.737551 0.377821 0.820978
O O3 0.046159 0.431591 0.768082
O O4 0.996927 0.475864 0.877889
O O5 0.059294 0.750000 0.301662
O O6 0.063716 0.497451 0.330568
O O7 0.202499 0.250000 0.495651
O O8 0.132380 0.435769 0.430493
O O9 0.483315 0.367701 0.454295
O O10 0.262117 0.465213 0.532625
O O11 0.422965 0.750000 0.857592
O O12 0.703020 0.621476 0.890403
#
# Coordination Sequence:
#
# PCOD8252965 Si02
#       5
#     8   8   8   8   8
#     4   9  18  33  55  79 108 140 184 236 277 322
#     4   9  19  35  55  81 109 142 186 232 278 329
#     4  10  21  36  56  83 113 146 186 229 276 332
#     4  10  21  38  57  81 115 148 183 228 278 333
#     4  10  20  36  57  80 111 147 186 227 278 329
#
# _framework density 21.485614999999999
#
# number of rings (size 3 to 8) (size 9 to 14) (size 15 to 20)
#    0.000    2.400    0.000    1.800    2.800    0.800 
#    0.000   10.000    0.000    0.000    0.000    0.000 
#    0.000    0.000    0.000    0.000    0.000    0.000 
#
# Total GULP energy -495560.268917 kJ/mol
# GULP energy per Si atom -12389.006723 kJ/mol
# Density = 2.143671 g / cm^3
# Si number density = 21.485615 Si / 1000 Ang^3
#
#
#
# Elastic Constant Matrix: (Units=GPa)
#
#
# Indices 1 2 3 4 5 6 
#
# 1 32.9656 -6.8046 -8.1391 0.0000 0.0000 0.0000
# 2 -6.8046 107.8124 53.7438 0.0000 0.0000 0.0000
# 3 -8.1391 53.7438 90.2078 0.0000 0.0000 0.0000
# 4 0.0000 0.0000 0.0000 10.2211 0.0000 0.0000
# 5 0.0000 0.0000 0.0000 0.0000 31.3413 0.0000
# 6 0.0000 0.0000 0.0000 0.0000 0.0000 171.3279
#
#
#
# Elastic Compliance Matrix: (Units=1/GPa)
#
#
# Indices 1 2 3 4 5 6 
#
# 1 0.031074 0.000802 0.002326 0.000000 0.000000 0.000000
# 2 0.000802 0.013215 -0.007801 0.000000 0.000000 0.000000
# 3 0.002326 -0.007801 0.015943 0.000000 0.000000 0.000000
# 4 0.000000 0.000000 0.000000 0.097837 0.000000 0.000000
# 5 0.000000 0.000000 0.000000 0.000000 0.031907 0.000000
# 6 0.000000 0.000000 0.000000 0.000000 0.000000 0.005837
#
#
# Mechanical properties :
#
#
# Convention : Reuss Voigt Hill
#
# Bulk Modulus (GPa) = 19.65168 34.28732 26.96950
# Shear Modulus (GPa) = 22.51037 55.39044 38.95040
#
# Velocity S-wave (km/s) = 3.24032 5.08293 4.26239
# Velocity P-wave (km/s) = 4.81309 7.10220 6.06659
#
# Compressibility (1/GPa) = 0.05088624
#
# Stress axis : x y z
#
# Youngs Moduli (GPa) = 32.18077 75.67444 62.72432
#
# Poissons Ratio (x) = -0.06067 -0.14590
# Poissons Ratio (y) = -0.02580 0.48928
# Poissons Ratio (z) = -0.07485 0.59030
#
# Static dielectric constant tensor:
#      x y z
#    x 3.619880 0.000000 0.000000 
#    y 0.000000 3.993710 0.000000 
#    z 0.000000 0.000000 3.947600 
# 
# 
# High freq. dielectric constant tensor:
#      x y z
#    x 1.835720 0.000000 0.000000 
#    y 0.000000 1.834970 0.000000 
#    z 0.000000 0.000000 1.837650 
# 
# From -- ./inp_files/21905.got.cif
#   From: 2010.03.12/outbox.cif.g09.slc.cpg/sg62_11_cif.got.tgz:21905.got - 2010.04.10 19:12:36.
