data_PCOD8252047
_publ_section_title
;
Structure prediction by ZEFSAII (Michael W. Deem and Ramdas Pophale) SiO2 
 PCOD8252047
Probable space group: P N M A
;
_chemical_formula_sum "Si O2"
_cell_formula_units_Z 64
_cell_length_a 8.874190
_cell_length_b 21.313516
_cell_length_c 17.779943
_cell_angle_alpha 90.000000
_cell_angle_beta 90.000000
_cell_angle_gamma 90.000000
_cell_volume 3362.901807
_symmetry_space_group_name_H-M "P N M A"
_symmetry_group_IT_number 62
_symmetry_cell_setting 'orthorhombic'
loop_
_space_group_symop_operation_xyz
x,y,z
1/2-x,-y,1/2+z
1/2+x,1/2-y,1/2-z
-x,1/2+y,-z
-x,-y,-z
1/2+x,y,1/2-z
1/2-x,1/2+y,1/2+z
x,1/2-y,z
loop_
_atom_site_type_symbol
_atom_site_label
_atom_site_fract_x
_atom_site_fract_y
_atom_site_fract_z
Si Si1 0.546729 0.977598 0.918645
Si Si2 0.804144 0.546096 0.696708
Si Si3 0.785493 0.902802 0.210513
Si Si4 0.193603 0.108398 0.027987
Si Si5 0.024238 0.074918 0.157162
Si Si6 0.519719 0.562531 0.401853
Si Si7 0.833448 0.605532 0.377313
Si Si8 0.116475 0.676873 0.410821
O O1 0.592641 0.037083 0.868650
O O2 0.408389 0.944485 0.876371
O O3 0.682769 0.930280 0.926452
O O4 0.500000 0.000000 0.000000
O O5 0.781284 0.472882 0.715031
O O6 0.877793 0.580323 0.767685
O O7 0.649836 0.582298 0.678510
O O8 0.802655 0.871473 0.292294
O O9 0.675618 0.858957 0.162408
O O10 0.950541 0.905521 0.172911
O O11 0.077805 0.128039 0.095637
O O12 0.278032 0.164566 0.983969
O O13 0.103253 0.066326 0.967808
O O14 0.054865 0.009678 0.113715
O O15 0.674239 0.599611 0.421973
O O16 0.944471 0.652346 0.422974
O O17 0.115073 0.750000 0.394593
#
# Coordination Sequence:
#
# PCOD8252047 Si02
#       8
#     8   8   8   8   8   8   8   8
#     4  12  20  33  54  85 120 153 184 233 304 360
#     4  11  21  33  54  91 120 150 185 228 298 376
#     4  10  19  37  53  79 112 155 192 240 294 339
#     4  11  22  37  54  82 115 153 195 240 300 346
#     4  11  20  32  53  83 120 146 181 231 299 362
#     4  10  20  30  53  83 114 146 189 231 292 365
#     4  12  20  34  58  81 114 152 199 247 295 347
#     4  11  25  41  56  77 111 160 213 250 283 343
#
# _framework density 19.031182000000001
#
# number of rings (size 3 to 8) (size 9 to 14) (size 15 to 20)
#    0.000    1.000    5.000    4.875    1.750    0.500 
#    0.000    2.500    0.000    0.000    0.000    3.500 
#    0.000    0.000    0.000    0.000    0.000    0.000 
#
# Total GULP energy -793394.327898 kJ/mol
# GULP energy per Si atom -12396.786373 kJ/mol
# Density = 1.898787 g / cm^3
# Si number density = 19.031182 Si / 1000 Ang^3
#
#
#
# Elastic Constant Matrix: (Units=GPa)
#
#
# Indices 1 2 3 4 5 6 
#
# 1 131.8065 15.4499 47.7104 0.0000 0.0000 0.0000
# 2 15.4499 32.3468 8.8823 0.0000 0.0000 0.0000
# 3 47.7104 8.8823 111.7254 0.0000 0.0000 0.0000
# 4 0.0000 0.0000 0.0000 10.2213 0.0000 0.0000
# 5 0.0000 0.0000 0.0000 0.0000 37.7911 0.0000
# 6 0.0000 0.0000 0.0000 0.0000 0.0000 9.6723
#
#
#
# Elastic Compliance Matrix: (Units=1/GPa)
#
#
# Indices 1 2 3 4 5 6 
#
# 1 0.009334 -0.003439 -0.003712 0.000000 0.000000 0.000000
# 2 -0.003439 0.032872 -0.001145 0.000000 0.000000 0.000000
# 3 -0.003712 -0.001145 0.010627 0.000000 0.000000 0.000000
# 4 0.000000 0.000000 0.000000 0.097835 0.000000 0.000000
# 5 0.000000 0.000000 0.000000 0.000000 0.026461 0.000000
# 6 0.000000 0.000000 0.000000 0.000000 0.000000 0.103389
#
#
# Mechanical properties :
#
#
# Convention : Reuss Voigt Hill
#
# Bulk Modulus (GPa) = 27.59359 46.66268 37.12813
# Shear Modulus (GPa) = 16.17134 25.12602 20.64868
#
# Velocity S-wave (km/s) = 2.91817 3.63747 3.29749
# Velocity P-wave (km/s) = 5.08772 6.49722 5.83519
#
# Compressibility (1/GPa) = 0.03624030
#
# Stress axis : x y z
#
# Youngs Moduli (GPa) = 107.13802 30.42126 94.10111
#
# Poissons Ratio (x) = 0.10461 0.34934
# Poissons Ratio (y) = 0.36842 0.10774
# Poissons Ratio (z) = 0.39774 0.03483
#
# Static dielectric constant tensor:
#      x y z
#    x 3.915420 0.000000 0.000000 
#    y 0.000000 2.799610 0.000000 
#    z 0.000000 0.000000 5.950340 
# 
# 
# High freq. dielectric constant tensor:
#      x y z
#    x 1.770960 0.000000 0.000000 
#    y 0.000000 1.648740 0.000000 
#    z 0.000000 0.000000 1.752330 
# 
# From -- ./inp_files/22556.got.cif
#   From: 2010.03.12/outbox.cif.g09.slc.cpg/sg62_12_cif.got.tgz:22556.got - 2010.04.10 19:12:36.
