data_PCOD8252159
_publ_section_title
;
Structure prediction by ZEFSAII (Michael W. Deem and Ramdas Pophale) SiO2 
 PCOD8252159
Probable space group: P N M A
;
_chemical_formula_sum "Si O2"
_cell_formula_units_Z 44
_cell_length_a 18.333802
_cell_length_b 13.428842
_cell_length_c 9.086738
_cell_angle_alpha 90.000000
_cell_angle_beta 90.000000
_cell_angle_gamma 90.000000
_cell_volume 2237.170619
_symmetry_space_group_name_H-M "P N M A"
_symmetry_group_IT_number 62
_symmetry_cell_setting 'orthorhombic'
loop_
_space_group_symop_operation_xyz
x,y,z
1/2-x,-y,1/2+z
1/2+x,1/2-y,1/2-z
-x,1/2+y,-z
-x,-y,-z
1/2+x,y,1/2-z
1/2-x,1/2+y,1/2+z
x,1/2-y,z
loop_
_atom_site_type_symbol
_atom_site_label
_atom_site_fract_x
_atom_site_fract_y
_atom_site_fract_z
Si Si1 0.056483 0.417365 0.554135
Si Si2 0.103219 0.750000 0.675891
Si Si3 0.228265 0.405412 0.928638
Si Si4 0.889974 0.750000 0.002789
Si Si5 0.157764 0.750000 0.347769
Si Si6 0.678542 0.550556 0.800845
Si Si7 0.435002 0.750000 0.826553
Si Si8 0.006194 0.750000 0.239089
O O1 0.126213 0.470592 0.622578
O O2 0.084350 0.349462 0.418494
O O3 0.017718 0.349149 0.675329
O O4 0.000000 0.500000 0.500000
O O5 0.113102 0.750000 0.500423
O O6 0.138045 0.848484 0.745983
O O7 0.019310 0.750000 0.714837
O O8 0.153005 0.345805 0.938978
O O9 0.290772 0.346648 0.837250
O O10 0.212681 0.508421 0.848021
O O11 0.254758 0.425058 0.092688
O O12 0.970339 0.750000 0.076623
O O13 0.891568 0.750000 0.826193
O O14 0.094832 0.750000 0.222382
#
# Coordination Sequence:
#
# PCOD8252159 Si02
#       8
#     8   4   8   4   4   8   4   4
#     4  11  20  38  68  91 118 162 219 259 309 389
#     4  10  19  41  61  87 125 158 198 269 305 382
#     4  10  23  41  62  88 127 169 210 255 319 381
#     4  11  24  43  59  94 138 162 196 282 329 364
#     4   9  18  40  66  82 121 166 208 251 313 375
#     4  11  22  41  63  91 123 169 212 258 317 381
#     4  11  23  37  63  96 123 157 212 260 324 383
#     4  11  20  41  65  93 123 165 206 274 323 362
#
# _framework density 19.667701000000001
#
# number of rings (size 3 to 8) (size 9 to 14) (size 15 to 20)
#    0.000    1.455    5.455    1.636    2.545    0.000 
#    3.273    2.727    0.000    0.000    0.000    0.000 
#    0.000    0.000    0.000    0.000    0.000    0.000 
#
# Total GULP energy -545674.504844 kJ/mol
# GULP energy per Si atom -12401.693292 kJ/mol
# Density = 1.962294 g / cm^3
# Si number density = 19.667701 Si / 1000 Ang^3
#
#
#
# Elastic Constant Matrix: (Units=GPa)
#
#
# Indices 1 2 3 4 5 6 
#
# 1 86.1121 26.9792 16.8401 0.0000 0.0000 0.0000
# 2 26.9792 123.7451 26.2461 0.0000 0.0000 0.0000
# 3 16.8401 26.2461 51.5727 0.0000 0.0000 0.0000
# 4 0.0000 0.0000 0.0000 35.6302 0.0000 0.0000
# 5 0.0000 0.0000 0.0000 0.0000 30.8440 0.0000
# 6 0.0000 0.0000 0.0000 0.0000 0.0000 -12.3691
#
#
#
# Elastic Compliance Matrix: (Units=1/GPa)
#
#
# Indices 1 2 3 4 5 6 
#
# 1 0.012896 -0.002151 -0.003116 0.000000 0.000000 0.000000
# 2 -0.002151 0.009418 -0.004091 0.000000 0.000000 0.000000
# 3 -0.003116 -0.004091 0.022489 0.000000 0.000000 0.000000
# 4 0.000000 0.000000 0.000000 0.028066 0.000000 0.000000
# 5 0.000000 0.000000 0.000000 0.000000 0.032421 0.000000
# 6 0.000000 0.000000 0.000000 0.000000 0.000000 -0.080846
#
#
# Mechanical properties :
#
#
# Convention : Reuss Voigt Hill
#
# Bulk Modulus (GPa) = 38.33200 44.61787 41.47494
# Shear Modulus (GPa) = 96.42230 23.57864 60.00047
#
# Velocity S-wave (km/s) = 7.00943 3.46620 5.52932
# Velocity P-wave (km/s) = 9.22180 6.22531 7.86753
#
# Compressibility (1/GPa) = 0.02608786
#
# Stress axis : x y z
#
# Youngs Moduli (GPa) = 77.54328 106.18418 44.46532
#
# Poissons Ratio (x) = 0.22836 0.13857
# Poissons Ratio (y) = 0.16677 0.18189
# Poissons Ratio (z) = 0.24166 0.43435
#
# Static dielectric constant tensor:
#      x y z
#    x 3.646170 0.000000 0.000000 
#    y 0.000000 3.932050 0.000000 
#    z 0.000000 0.000000 3.279080 
# 
# 
# High freq. dielectric constant tensor:
#      x y z
#    x 1.772900 0.000000 0.000000 
#    y 0.000000 1.780080 0.000000 
#    z 0.000000 0.000000 1.739010 
# 
# From -- ./inp_files/7594.got.cif
#   From: 2010.03.12/outbox.cif.g09.slc.cpg/sg62_4_cif.got.tgz:7594.got - 2010.04.10 19:12:36.
