data_PCOD8252688
_publ_section_title
;
Structure prediction by ZEFSAII (Michael W. Deem and Ramdas Pophale) SiO2 
 PCOD8252688
Probable space group: P N M A
;
_chemical_formula_sum "Si O2"
_cell_formula_units_Z 64
_cell_length_a 12.679083
_cell_length_b 9.534835
_cell_length_c 26.824165
_cell_angle_alpha 90.000000
_cell_angle_beta 90.000000
_cell_angle_gamma 90.000000
_cell_volume 3242.852823
_symmetry_space_group_name_H-M "P N M A"
_symmetry_group_IT_number 62
_symmetry_cell_setting 'orthorhombic'
loop_
_space_group_symop_operation_xyz
x,y,z
1/2-x,-y,1/2+z
1/2+x,1/2-y,1/2-z
-x,1/2+y,-z
-x,-y,-z
1/2+x,y,1/2-z
1/2-x,1/2+y,1/2+z
x,1/2-y,z
loop_
_atom_site_type_symbol
_atom_site_label
_atom_site_fract_x
_atom_site_fract_y
_atom_site_fract_z
Si Si1 0.922019 0.583819 0.846836
Si Si2 0.007580 0.093231 0.639757
Si Si3 0.079473 0.905062 0.470573
Si Si4 0.829074 0.594100 0.666061
Si Si5 0.751598 0.901541 0.556852
Si Si6 0.119238 0.914770 0.784784
Si Si7 0.513024 0.912057 0.549970
Si Si8 0.184539 0.585564 0.674070
O O1 0.931313 0.750000 0.845801
O O2 0.806676 0.536315 0.827806
O O3 0.012162 0.521432 0.809460
O O4 0.939929 0.533425 0.904239
O O5 0.026738 0.250000 0.661325
O O6 0.956907 0.106347 0.585874
O O7 0.928087 0.008025 0.676424
O O8 0.117702 0.007576 0.635183
O O9 0.086255 0.750000 0.494523
O O10 0.195172 0.976128 0.475936
O O11 0.000000 0.000000 0.500000
O O12 0.852298 0.750000 0.689438
O O13 0.816245 0.611055 0.607421
O O14 0.724236 0.523780 0.689072
O O15 0.759466 0.750000 0.528954
O O16 0.631325 0.936048 0.569218
O O17 0.120313 0.750000 0.794808
O O18 0.130062 0.950248 0.726756
O O19 0.488918 0.750000 0.537644
O O20 0.500000 0.000000 0.500000
O O21 0.175358 0.750000 0.660768
#
# Coordination Sequence:
#
# PCOD8252688 Si02
#       8
#     8   8   8   8   8   8   8   8
#     4   9  18  35  55  83 119 146 181 238 293 332
#     4  10  22  38  53  76 115 150 179 225 283 339
#     4  10  21  36  56  80 107 144 186 235 287 337
#     4   9  16  31  58  84 104 136 182 231 277 326
#     4   9  17  32  53  78 107 143 184 228 281 337
#     4   9  17  31  57  88 111 137 182 236 280 325
#     4  10  20  35  55  80 113 152 191 233 284 338
#     4  10  21  34  57  87 113 148 189 231 282 340
#
# _framework density 19.735709
#
# number of rings (size 3 to 8) (size 9 to 14) (size 15 to 20)
#    0.000    2.500    1.250    0.750    1.750    3.000 
#    0.000    3.750    0.000    1.500    0.000    0.000 
#    0.000    0.000    0.000    0.000    0.000    0.000 
#
# Total GULP energy -793174.270879 kJ/mol
# GULP energy per Si atom -12393.347982 kJ/mol
# Density = 1.969079 g / cm^3
# Si number density = 19.735709 Si / 1000 Ang^3
#
#
#
# Elastic Constant Matrix: (Units=GPa)
#
#
# Indices 1 2 3 4 5 6 
#
# 1 133.7307 53.3528 27.7772 0.0000 0.0000 0.0000
# 2 53.3528 95.9626 20.2770 0.0000 0.0000 0.0000
# 3 27.7772 20.2770 55.8176 0.0000 0.0000 0.0000
# 4 0.0000 0.0000 0.0000 17.3656 0.0000 0.0000
# 5 0.0000 0.0000 0.0000 0.0000 30.8231 0.0000
# 6 0.0000 0.0000 0.0000 0.0000 0.0000 21.3016
#
#
#
# Elastic Compliance Matrix: (Units=1/GPa)
#
#
# Indices 1 2 3 4 5 6 
#
# 1 0.010123 -0.004943 -0.003242 0.000000 0.000000 0.000000
# 2 -0.004943 0.013701 -0.002517 0.000000 0.000000 0.000000
# 3 -0.003242 -0.002517 0.020443 0.000000 0.000000 0.000000
# 4 0.000000 0.000000 0.000000 0.057585 0.000000 0.000000
# 5 0.000000 0.000000 0.000000 0.000000 0.032443 0.000000
# 6 0.000000 0.000000 0.000000 0.000000 0.000000 0.046945
#
#
# Mechanical properties :
#
#
# Convention : Reuss Voigt Hill
#
# Bulk Modulus (GPa) = 43.73963 54.25833 48.99898
# Shear Modulus (GPa) = 23.77937 26.17166 24.97551
#
# Velocity S-wave (km/s) = 3.47492 3.64553 3.56124
# Velocity P-wave (km/s) = 6.18958 6.72844 6.46463
#
# Compressibility (1/GPa) = 0.02286256
#
# Stress axis : x y z
#
# Youngs Moduli (GPa) = 98.78251 72.98780 48.91577
#
# Poissons Ratio (x) = 0.36080 0.15859
# Poissons Ratio (y) = 0.48830 0.12313
# Poissons Ratio (z) = 0.32026 0.18373
#
# Static dielectric constant tensor:
#      x y z
#    x 4.128430 0.000000 0.000000 
#    y 0.000000 3.444700 0.000000 
#    z 0.000000 0.000000 3.146410 
# 
# 
# High freq. dielectric constant tensor:
#      x y z
#    x 1.781000 0.000000 0.000000 
#    y 0.000000 1.735230 0.000000 
#    z 0.000000 0.000000 1.749780 
# 
# From -- ./inp_files/32600.got.cif
#   From: 2010.03.12/outbox.cif.g09.slc.cpg/sg62_17_cif.got.tgz:32600.got - 2010.04.10 19:12:36.
