data_PCOD8252807
_publ_section_title
;
Structure prediction by ZEFSAII (Michael W. Deem and Ramdas Pophale) SiO2 
 PCOD8252807
Probable space group: P N M A
;
_chemical_formula_sum "Si O2"
_cell_formula_units_Z 56
_cell_length_a 19.889412
_cell_length_b 8.753491
_cell_length_c 16.470842
_cell_angle_alpha 90.000000
_cell_angle_beta 90.000000
_cell_angle_gamma 90.000000
_cell_volume 2867.603058
_symmetry_space_group_name_H-M "P N M A"
_symmetry_group_IT_number 62
_symmetry_cell_setting 'orthorhombic'
loop_
_space_group_symop_operation_xyz
x,y,z
1/2-x,-y,1/2+z
1/2+x,1/2-y,1/2-z
-x,1/2+y,-z
-x,-y,-z
1/2+x,y,1/2-z
1/2-x,1/2+y,1/2+z
x,1/2-y,z
loop_
_atom_site_type_symbol
_atom_site_label
_atom_site_fract_x
_atom_site_fract_y
_atom_site_fract_z
Si Si1 0.807563 0.571130 0.071113
Si Si2 0.127056 0.428398 0.301561
Si Si3 0.259791 0.571832 0.250098
Si Si4 0.673582 0.427828 0.020192
Si Si5 0.133901 0.930339 0.639735
Si Si6 0.948434 0.431044 0.063279
Si Si7 0.482592 0.431314 0.257196
O O1 0.816687 0.750000 0.057375
O O2 0.794855 0.529198 0.164904
O O3 0.744939 0.513875 0.018103
O O4 0.873839 0.485459 0.040296
O O5 0.136943 0.250000 0.282557
O O6 0.182179 0.522751 0.251616
O O7 0.133415 0.461564 0.397191
O O8 0.055090 0.489871 0.272100
O O9 0.265213 0.750000 0.230476
O O10 0.295465 0.476242 0.179812
O O11 0.687727 0.250000 0.008388
O O12 0.627343 0.491609 0.948029
O O13 0.129845 0.750000 0.629119
O O14 0.073479 0.995000 0.695359
O O15 0.951984 0.250000 0.059361
O O16 0.967600 0.493433 0.152706
O O17 0.000000 0.500000 0.000000
O O18 0.479972 0.250000 0.256649
#
# Coordination Sequence:
#
# PCOD8252807 Si02
#       7
#     8   8   8   8   8   8   8
#     4  10  20  37  59  82 111 148 191 240 295 349
#     4   9  19  38  60  82 114 155 197 240 291 351
#     4  10  20  35  57  84 113 147 194 246 293 345
#     4  10  21  36  57  86 116 149 192 243 294 342
#     4  11  21  36  59  85 115 154 198 238 290 353
#     4  11  22  38  59  85 118 155 198 244 297 355
#     4   9  20  38  60  84 113 154 198 237 288 354
#
# _framework density 19.528506
#
# number of rings (size 3 to 8) (size 9 to 14) (size 15 to 20)
#    0.000    2.000    1.429    2.143    0.000    3.429 
#    0.000    7.143    0.000    0.000    0.000    0.000 
#    0.000    0.000    0.000    0.000    0.000    0.000 
#
# Total GULP energy -694669.704374 kJ/mol
# GULP energy per Si atom -12404.816150 kJ/mol
# Density = 1.948406 g / cm^3
# Si number density = 19.528506 Si / 1000 Ang^3
#
#
#
# Elastic Constant Matrix: (Units=GPa)
#
#
# Indices 1 2 3 4 5 6 
#
# 1 126.6372 24.3043 48.0416 0.0000 0.0000 0.0000
# 2 24.3043 58.3787 22.9564 0.0000 0.0000 0.0000
# 3 48.0416 22.9564 75.4520 0.0000 0.0000 0.0000
# 4 0.0000 0.0000 0.0000 31.3739 0.0000 0.0000
# 5 0.0000 0.0000 0.0000 0.0000 32.4628 0.0000
# 6 0.0000 0.0000 0.0000 0.0000 0.0000 27.9663
#
#
#
# Elastic Compliance Matrix: (Units=1/GPa)
#
#
# Indices 1 2 3 4 5 6 
#
# 1 0.010613 -0.002001 -0.006149 0.000000 0.000000 0.000000
# 2 -0.002001 0.019835 -0.004761 0.000000 0.000000 0.000000
# 3 -0.006149 -0.004761 0.018617 0.000000 0.000000 0.000000
# 4 0.000000 0.000000 0.000000 0.031874 0.000000 0.000000
# 5 0.000000 0.000000 0.000000 0.000000 0.030804 0.000000
# 6 0.000000 0.000000 0.000000 0.000000 0.000000 0.035757
#
#
# Mechanical properties :
#
#
# Convention : Reuss Voigt Hill
#
# Bulk Modulus (GPa) = 43.02174 50.11918 46.57046
# Shear Modulus (GPa) = 27.61376 29.37164 28.49270
#
# Velocity S-wave (km/s) = 3.76443 3.88240 3.82387
# Velocity P-wave (km/s) = 6.40099 6.76888 6.58750
#
# Compressibility (1/GPa) = 0.02324406
#
# Stress axis : x y z
#
# Youngs Moduli (GPa) = 94.22228 50.41707 53.71401
#
# Poissons Ratio (x) = 0.10086 0.33028
# Poissons Ratio (y) = 0.18850 0.25573
# Poissons Ratio (z) = 0.57937 0.24003
#
# Static dielectric constant tensor:
#      x y z
#    x 3.647480 0.000000 0.000000 
#    y 0.000000 3.412130 0.000000 
#    z 0.000000 0.000000 3.607110 
# 
# 
# High freq. dielectric constant tensor:
#      x y z
#    x 1.764370 0.000000 0.000000 
#    y 0.000000 1.754400 0.000000 
#    z 0.000000 0.000000 1.759580 
# 
# From -- ./inp_files/20305.got.cif
#   From: 2010.03.12/outbox.cif.g09.slc.cpg/sg62_11_cif.got.tgz:20305.got - 2010.04.10 19:12:36.
