data_PCOD8252550
_publ_section_title
;
Structure prediction by ZEFSAII (Michael W. Deem and Ramdas Pophale) SiO2 
 PCOD8252550
Probable space group: P N M A
;
_chemical_formula_sum "Si O2"
_cell_formula_units_Z 56
_cell_length_a 16.636727
_cell_length_b 8.865089
_cell_length_c 19.678631
_cell_angle_alpha 90.000000
_cell_angle_beta 90.000000
_cell_angle_gamma 90.000000
_cell_volume 2902.323861
_symmetry_space_group_name_H-M "P N M A"
_symmetry_group_IT_number 62
_symmetry_cell_setting 'orthorhombic'
loop_
_space_group_symop_operation_xyz
x,y,z
1/2-x,-y,1/2+z
1/2+x,1/2-y,1/2-z
-x,1/2+y,-z
-x,-y,-z
1/2+x,y,1/2-z
1/2-x,1/2+y,1/2+z
x,1/2-y,z
loop_
_atom_site_type_symbol
_atom_site_label
_atom_site_fract_x
_atom_site_fract_y
_atom_site_fract_z
Si Si1 0.988724 0.927645 0.318920
Si Si2 0.673253 0.927244 0.789138
Si Si3 0.695916 0.927543 0.376366
Si Si4 0.741121 0.428841 0.021699
Si Si5 0.019068 0.574824 0.165351
Si Si6 0.061945 0.070647 0.447569
Si Si7 0.140605 0.927051 0.863967
O O1 0.991434 0.750000 0.333109
O O2 0.021010 0.972653 0.244518
O O3 0.045382 0.012881 0.371861
O O4 0.897477 0.984620 0.328324
O O5 0.660686 0.750000 0.799861
O O6 0.673487 0.972202 0.710040
O O7 0.757828 0.980863 0.818498
O O8 0.710408 0.750000 0.365595
O O9 0.726406 0.984888 0.449259
O O10 0.602498 0.969459 0.369738
O O11 0.743160 0.250000 0.025676
O O12 0.650599 0.486795 0.032143
O O13 0.798710 0.496727 0.080355
O O14 0.000484 0.750000 0.159479
O O15 0.948722 0.490692 0.124775
O O16 0.055063 0.250000 0.450200
O O17 0.000000 0.000000 0.500000
O O18 0.134814 0.750000 0.873066
#
# Coordination Sequence:
#
# PCOD8252550 Si02
#       7
#     8   8   8   8   8   8   8
#     4  10  20  36  55  78 111 147 184 228 281 336
#     4  10  20  34  56  83 110 141 185 235 278 329
#     4  10  20  36  57  80 111 148 184 223 280 342
#     4   9  20  37  56  79 109 148 184 224 281 338
#     4   9  20  36  55  82 111 143 184 229 280 334
#     4  11  22  36  57  83 114 150 190 233 283 339
#     4   9  19  37  57  79 108 144 185 229 279 331
#
# _framework density 19.294882999999999
#
# number of rings (size 3 to 8) (size 9 to 14) (size 15 to 20)
#    0.000    2.286    0.000    2.143    2.000    3.429 
#    0.000    2.857    0.000    0.000    0.000    0.000 
#    0.000    0.000    0.000    0.000    0.000    0.000 
#
# Total GULP energy -694599.036597 kJ/mol
# GULP energy per Si atom -12403.554225 kJ/mol
# Density = 1.925097 g / cm^3
# Si number density = 19.294883 Si / 1000 Ang^3
#
#
#
# Elastic Constant Matrix: (Units=GPa)
#
#
# Indices 1 2 3 4 5 6 
#
# 1 162.6292 39.0631 81.6735 0.0000 0.0000 0.0000
# 2 39.0631 47.7513 30.7682 0.0000 0.0000 0.0000
# 3 81.6735 30.7682 98.0254 0.0000 0.0000 0.0000
# 4 0.0000 0.0000 0.0000 24.3114 0.0000 0.0000
# 5 0.0000 0.0000 0.0000 0.0000 41.8559 0.0000
# 6 0.0000 0.0000 0.0000 0.0000 0.0000 31.3273
#
#
#
# Elastic Compliance Matrix: (Units=1/GPa)
#
#
# Indices 1 2 3 4 5 6 
#
# 1 0.011130 -0.003923 -0.008042 0.000000 0.000000 0.000000
# 2 -0.003923 0.027634 -0.005405 0.000000 0.000000 0.000000
# 3 -0.008042 -0.005405 0.018598 0.000000 0.000000 0.000000
# 4 0.000000 0.000000 0.000000 0.041133 0.000000 0.000000
# 5 0.000000 0.000000 0.000000 0.000000 0.023891 0.000000
# 6 0.000000 0.000000 0.000000 0.000000 0.000000 0.031921
#
#
# Mechanical properties :
#
#
# Convention : Reuss Voigt Hill
#
# Bulk Modulus (GPa) = 44.20466 67.93505 56.06986
# Shear Modulus (GPa) = 25.43381 29.95901 27.69641
#
# Velocity S-wave (km/s) = 3.63459 3.94470 3.79281
# Velocity P-wave (km/s) = 6.36973 7.48550 6.95004
#
# Compressibility (1/GPa) = 0.02262205
#
# Stress axis : x y z
#
# Youngs Moduli (GPa) = 89.84700 36.18752 53.76796
#
# Poissons Ratio (x) = 0.14197 0.43240
# Poissons Ratio (y) = 0.35248 0.29061
# Poissons Ratio (z) = 0.72255 0.19559
#
# Static dielectric constant tensor:
#      x y z
#    x 3.664700 0.000000 0.000000 
#    y 0.000000 3.347090 0.000000 
#    z 0.000000 0.000000 3.665400 
# 
# 
# High freq. dielectric constant tensor:
#      x y z
#    x 1.759460 0.000000 0.000000 
#    y 0.000000 1.735920 0.000000 
#    z 0.000000 0.000000 1.755000 
# 
# From -- ./inp_files/27247.got.cif
#   From: 2010.03.12/outbox.cif.g09.slc.cpg/sg62_14_cif.got.tgz:27247.got - 2010.04.10 19:12:36.
