data_PCOD8252493
_publ_section_title
;
Structure prediction by ZEFSAII (Michael W. Deem and Ramdas Pophale) SiO2 
 PCOD8252493
Probable space group: P N M A
;
_chemical_formula_sum "Si O2"
_cell_formula_units_Z 40
_cell_length_a 10.424723
_cell_length_b 8.950019
_cell_length_c 21.457188
_cell_angle_alpha 90.000000
_cell_angle_beta 90.000000
_cell_angle_gamma 90.000000
_cell_volume 2001.987159
_symmetry_space_group_name_H-M "P N M A"
_symmetry_group_IT_number 62
_symmetry_cell_setting 'orthorhombic'
loop_
_space_group_symop_operation_xyz
x,y,z
1/2-x,-y,1/2+z
1/2+x,1/2-y,1/2-z
-x,1/2+y,-z
-x,-y,-z
1/2+x,y,1/2-z
1/2-x,1/2+y,1/2+z
x,1/2-y,z
loop_
_atom_site_type_symbol
_atom_site_label
_atom_site_fract_x
_atom_site_fract_y
_atom_site_fract_z
Si Si1 0.978000 0.072216 0.305308
Si Si2 0.561339 0.074367 0.060042
Si Si3 0.303326 0.926879 0.714946
Si Si4 0.178356 0.421044 0.954016
Si Si5 0.069613 0.421383 0.087228
O O1 0.981776 0.250000 0.300494
O O2 0.987169 0.023387 0.377465
O O3 0.098543 0.005209 0.266269
O O4 0.842616 0.012064 0.276911
O O5 0.553078 0.250000 0.050694
O O6 0.707631 0.025914 0.068505
O O7 0.500000 0.000000 0.000000
O O8 0.300895 0.750000 0.721183
O O9 0.350657 0.974234 0.646700
O O10 0.208673 0.250000 0.937138
O O11 0.052334 0.471713 0.917443
O O12 0.161551 0.441147 0.027979
O O13 0.022513 0.250000 0.093049
#
# Coordination Sequence:
#
# PCOD8252493 Si02
#       5
#     8   8   8   8   8
#     4   9  19  32  52  83 114 143 182 233 285 334
#     4  11  22  36  56  82 112 148 192 237 288 341
#     4   9  17  31  52  80 112 141 179 235 285 325
#     4  10  20  34  54  83 115 146 185 231 282 338
#     4   9  18  33  55  81 111 145 184 228 280 336
#
# _framework density 19.980149000000001
#
# number of rings (size 3 to 8) (size 9 to 14) (size 15 to 20)
#    0.000    2.400    0.000    2.400    2.800    4.000 
#    0.000    0.000    0.000    2.400    0.000    0.000 
#    0.000    0.000    0.000    0.000    0.000    0.000 
#
# Total GULP energy -495950.295339 kJ/mol
# GULP energy per Si atom -12398.757383 kJ/mol
# Density = 1.993467 g / cm^3
# Si number density = 19.980149 Si / 1000 Ang^3
#
#
#
# Elastic Constant Matrix: (Units=GPa)
#
#
# Indices 1 2 3 4 5 6 
#
# 1 148.1431 25.9237 82.2335 0.0000 0.0000 0.0000
# 2 25.9237 40.5093 28.1196 0.0000 0.0000 0.0000
# 3 82.2335 28.1196 112.0188 0.0000 0.0000 0.0000
# 4 0.0000 0.0000 0.0000 21.9984 0.0000 0.0000
# 5 0.0000 0.0000 0.0000 0.0000 31.8598 0.0000
# 6 0.0000 0.0000 0.0000 0.0000 0.0000 27.4725
#
#
#
# Elastic Compliance Matrix: (Units=1/GPa)
#
#
# Indices 1 2 3 4 5 6 
#
# 1 0.011502 -0.001816 -0.007988 0.000000 0.000000 0.000000
# 2 -0.001816 0.030181 -0.006243 0.000000 0.000000 0.000000
# 3 -0.007988 -0.006243 0.016358 0.000000 0.000000 0.000000
# 4 0.000000 0.000000 0.000000 0.045458 0.000000 0.000000
# 5 0.000000 0.000000 0.000000 0.000000 0.031387 0.000000
# 6 0.000000 0.000000 0.000000 0.000000 0.000000 0.036400
#
#
# Mechanical properties :
#
#
# Convention : Reuss Voigt Hill
#
# Bulk Modulus (GPa) = 38.53905 63.69166 51.11536
# Shear Modulus (GPa) = 23.58154 27.22578 25.40366
#
# Velocity S-wave (km/s) = 3.43920 3.69540 3.56960
# Velocity P-wave (km/s) = 5.92464 7.08200 6.52901
#
# Compressibility (1/GPa) = 0.02594771
#
# Stress axis : x y z
#
# Youngs Moduli (GPa) = 86.94137 33.13288 61.13143
#
# Poissons Ratio (x) = 0.06017 0.48831
# Poissons Ratio (y) = 0.15788 0.38166
# Poissons Ratio (z) = 0.69447 0.20686
#
# Static dielectric constant tensor:
#      x y z
#    x 3.916270 0.000000 0.000000 
#    y 0.000000 3.252620 0.000000 
#    z 0.000000 0.000000 3.766330 
# 
# 
# High freq. dielectric constant tensor:
#      x y z
#    x 1.794130 0.000000 0.000000 
#    y 0.000000 1.732100 0.000000 
#    z 0.000000 0.000000 1.784260 
# 
# From -- ./inp_files/28596.got.cif
#   From: 2010.03.12/outbox.cif.g09.slc.cpg/sg62_15_cif.got.tgz:28596.got - 2010.04.10 19:12:36.
