data_PCOD8252621
_publ_section_title
;
Structure prediction by ZEFSAII (Michael W. Deem and Ramdas Pophale) SiO2 
 PCOD8252621
Probable space group: P N M A
;
_chemical_formula_sum "Si O2"
_cell_formula_units_Z 64
_cell_length_a 30.228319
_cell_length_b 8.817670
_cell_length_c 14.262472
_cell_angle_alpha 90.000000
_cell_angle_beta 90.000000
_cell_angle_gamma 90.000000
_cell_volume 3801.566946
_symmetry_space_group_name_H-M "P N M A"
_symmetry_group_IT_number 62
_symmetry_cell_setting 'orthorhombic'
loop_
_space_group_symop_operation_xyz
x,y,z
1/2-x,-y,1/2+z
1/2+x,1/2-y,1/2-z
-x,1/2+y,-z
-x,-y,-z
1/2+x,y,1/2-z
1/2-x,1/2+y,1/2+z
x,1/2-y,z
loop_
_atom_site_type_symbol
_atom_site_label
_atom_site_fract_x
_atom_site_fract_y
_atom_site_fract_z
Si Si1 0.362134 0.575594 0.181470
Si Si2 0.045227 0.072502 0.608131
Si Si3 0.684877 0.925561 0.982845
Si Si4 0.218405 0.427391 0.225571
Si Si5 0.042627 0.075336 0.394903
Si Si6 0.224728 0.928037 0.024477
Si Si7 0.138058 0.424122 0.356303
Si Si8 0.202192 0.075179 0.842379
O O1 0.357556 0.750000 0.146391
O O2 0.412925 0.520103 0.171501
O O3 0.344238 0.559327 0.287046
O O4 0.330953 0.467391 0.120598
O O5 0.040899 0.250000 0.612617
O O6 0.051752 0.015536 0.501034
O O7 0.999743 0.006499 0.650897
O O8 0.698202 0.750000 0.985994
O O9 0.647320 0.963920 0.057600
O O10 0.726299 0.030024 0.010425
O O11 0.229885 0.250000 0.225944
O O12 0.214018 0.485363 0.119951
O O13 0.170225 0.460664 0.269965
O O14 0.256764 0.512981 0.281624
O O15 0.030216 0.250000 0.398820
O O16 0.086376 0.046038 0.331162
O O17 0.219291 0.750000 0.040497
O O18 0.193843 0.984167 0.938992
O O19 0.143780 0.250000 0.389905
O O20 0.212845 0.250000 0.864693
#
# Coordination Sequence:
#
# PCOD8252621 Si02
#       8
#     8   8   8   8   8   8   8   8
#     4  10  20  35  52  71 102 139 171 207 258 305
#     4   9  17  30  48  71 101 135 167 202 248 303
#     4  12  22  30  49  75 102 133 176 216 248 297
#     4  11  22  35  54  77 101 134 176 214 255 305
#     4   9  17  30  48  71 101 135 167 202 248 303
#     4  12  24  38  52  69 104 141 172 216 260 297
#     4  10  20  35  52  71 102 139 171 207 258 305
#     4  11  22  35  54  77 101 134 176 214 255 305
#
# _framework density 16.835163999999999
#
# number of rings (size 3 to 8) (size 9 to 14) (size 15 to 20)
#    0.000    1.500    3.750    3.000    0.000    2.000 
#    0.000    0.000    0.000    0.000    0.000    0.875 
#    0.000    0.000    0.000    0.000    0.000    0.000 
#
# Total GULP energy -793492.992529 kJ/mol
# GULP energy per Si atom -12398.328008 kJ/mol
# Density = 1.679685 g / cm^3
# Si number density = 16.835164 Si / 1000 Ang^3
#
#
#
# Elastic Constant Matrix: (Units=GPa)
#
#
# Indices 1 2 3 4 5 6 
#
# 1 94.7390 18.7827 18.4540 0.0000 0.0000 0.0000
# 2 18.7827 54.0218 12.5452 0.0000 0.0000 0.0000
# 3 18.4540 12.5452 63.0648 0.0000 0.0000 0.0000
# 4 0.0000 0.0000 0.0000 22.2287 0.0000 0.0000
# 5 0.0000 0.0000 0.0000 0.0000 22.9802 0.0000
# 6 0.0000 0.0000 0.0000 0.0000 0.0000 25.1436
#
#
#
# Elastic Compliance Matrix: (Units=1/GPa)
#
#
# Indices 1 2 3 4 5 6 
#
# 1 0.011778 -0.003454 -0.002759 0.000000 0.000000 0.000000
# 2 -0.003454 0.020421 -0.003051 0.000000 0.000000 0.000000
# 3 -0.002759 -0.003051 0.017271 0.000000 0.000000 0.000000
# 4 0.000000 0.000000 0.000000 0.044987 0.000000 0.000000
# 5 0.000000 0.000000 0.000000 0.000000 0.043516 0.000000
# 6 0.000000 0.000000 0.000000 0.000000 0.000000 0.039772
#
#
# Mechanical properties :
#
#
# Convention : Reuss Voigt Hill
#
# Bulk Modulus (GPa) = 32.32097 34.59885 33.45991
# Shear Modulus (GPa) = 24.20296 24.87343 24.53820
#
# Velocity S-wave (km/s) = 3.79574 3.84796 3.82194
# Velocity P-wave (km/s) = 6.20084 6.35126 6.27650
#
# Compressibility (1/GPa) = 0.03093967
#
# Stress axis : x y z
#
# Youngs Moduli (GPa) = 84.90696 48.97005 57.90014
#
# Poissons Ratio (x) = 0.16915 0.15976
# Poissons Ratio (y) = 0.29328 0.17668
# Poissons Ratio (z) = 0.23428 0.14943
#
# Static dielectric constant tensor:
#      x y z
#    x 3.293680 0.000000 0.000000 
#    y 0.000000 3.183210 0.000000 
#    z 0.000000 0.000000 3.019680 
# 
# 
# High freq. dielectric constant tensor:
#      x y z
#    x 1.641180 0.000000 0.000000 
#    y 0.000000 1.655440 0.000000 
#    z 0.000000 0.000000 1.618060 
# 
# From -- ./inp_files/21234.got.cif
#   From: 2010.03.12/outbox.cif.g09.slc.cpg/sg62_11_cif.got.tgz:21234.got - 2010.04.10 19:12:36.
