data_PCOD8252994
_publ_section_title
;
Structure prediction by ZEFSAII (Michael W. Deem and Ramdas Pophale) SiO2 
 PCOD8252994
Probable space group: P N M A
;
_chemical_formula_sum "Si O2"
_cell_formula_units_Z 64
_cell_length_a 18.694387
_cell_length_b 11.253610
_cell_length_c 14.966880
_cell_angle_alpha 90.000000
_cell_angle_beta 90.000000
_cell_angle_gamma 90.000000
_cell_volume 3148.722344
_symmetry_space_group_name_H-M "P N M A"
_symmetry_group_IT_number 62
_symmetry_cell_setting 'orthorhombic'
loop_
_space_group_symop_operation_xyz
x,y,z
1/2-x,-y,1/2+z
1/2+x,1/2-y,1/2-z
-x,1/2+y,-z
-x,-y,-z
1/2+x,y,1/2-z
1/2-x,1/2+y,1/2+z
x,1/2-y,z
loop_
_atom_site_type_symbol
_atom_site_label
_atom_site_fract_x
_atom_site_fract_y
_atom_site_fract_z
Si Si1 0.264502 0.384895 0.759959
Si Si2 0.594838 0.493208 0.183436
Si Si3 0.007399 0.117805 0.164112
Si Si4 0.296425 0.110236 0.554142
Si Si5 0.614178 0.055639 0.687171
Si Si6 0.892685 0.617948 0.990590
Si Si7 0.351047 0.884304 0.985417
Si Si8 0.545986 0.382037 0.868558
O O1 0.245776 0.250000 0.785440
O O2 0.340138 0.415833 0.804061
O O3 0.269520 0.402235 0.654712
O O4 0.199497 0.464539 0.799959
O O5 0.570143 0.444972 0.278976
O O6 0.621754 0.391807 0.115992
O O7 0.529168 0.553184 0.133731
O O8 0.002532 0.250000 0.200213
O O9 0.030972 0.108781 0.060441
O O10 0.927820 0.068682 0.179536
O O11 0.322660 0.250000 0.537112
O O12 0.230440 0.070726 0.491329
O O13 0.352459 0.005113 0.533919
O O14 0.595818 0.126510 0.596667
O O15 0.583977 0.125734 0.772171
O O16 0.858967 0.750000 0.963019
O O17 0.348366 0.750000 0.018329
O O18 0.403379 0.948197 0.058032
O O19 0.528459 0.250000 0.900943
#
# Coordination Sequence:
#
# PCOD8252994 Si02
#       8
#     8   8   8   8   8   8   8   8
#     4  11  21  38  61  88 119 154 201 257 304 355
#     4  11  21  36  60  87 117 155 195 243 309 365
#     4  10  23  41  58  85 126 158 200 252 304 369
#     4  10  21  39  61  89 124 163 206 253 298 358
#     4  11  22  38  63  86 117 161 205 251 304 358
#     4  11  22  40  63  91 126 163 202 253 310 363
#     4  10  20  36  59  82 116 159 201 244 298 360
#     4  10  20  36  57  86 115 149 198 252 300 354
#
# _framework density 20.325704000000002
#
# number of rings (size 3 to 8) (size 9 to 14) (size 15 to 20)
#    0.000    1.500    2.500    3.375    0.000    0.500 
#    0.000    3.750    0.000    0.750    0.000    0.000 
#    0.000    0.000    0.000    0.000    0.000    0.000 
#
# Total GULP energy -792906.145817 kJ/mol
# GULP energy per Si atom -12389.158528 kJ/mol
# Density = 2.027944 g / cm^3
# Si number density = 20.325704 Si / 1000 Ang^3
#
#
#
# Elastic Constant Matrix: (Units=GPa)
#
#
# Indices 1 2 3 4 5 6 
#
# 1 106.0882 45.3438 13.9124 0.0000 0.0000 0.0000
# 2 45.3438 94.5313 18.3856 0.0000 0.0000 0.0000
# 3 13.9124 18.3856 89.9179 0.0000 0.0000 0.0000
# 4 0.0000 0.0000 0.0000 20.7757 0.0000 0.0000
# 5 0.0000 0.0000 0.0000 0.0000 26.1818 0.0000
# 6 0.0000 0.0000 0.0000 0.0000 0.0000 26.6033
#
#
#
# Elastic Compliance Matrix: (Units=1/GPa)
#
#
# Indices 1 2 3 4 5 6 
#
# 1 0.011899 -0.005571 -0.000702 0.000000 0.000000 0.000000
# 2 -0.005571 0.013625 -0.001924 0.000000 0.000000 0.000000
# 3 -0.000702 -0.001924 0.011623 0.000000 0.000000 0.000000
# 4 0.000000 0.000000 0.000000 0.048133 0.000000 0.000000
# 5 0.000000 0.000000 0.000000 0.000000 0.038194 0.000000
# 6 0.000000 0.000000 0.000000 0.000000 0.000000 0.037589
#
#
# Mechanical properties :
#
#
# Convention : Reuss Voigt Hill
#
# Bulk Modulus (GPa) = 48.18478 49.53567 48.86023
# Shear Modulus (GPa) = 27.11837 28.90520 28.01179
#
# Velocity S-wave (km/s) = 3.65662 3.77517 3.71637
# Velocity P-wave (km/s) = 6.44869 6.58987 6.51966
#
# Compressibility (1/GPa) = 0.02075344
#
# Stress axis : x y z
#
# Youngs Moduli (GPa) = 84.03760 73.39408 86.03445
#
# Poissons Ratio (x) = 0.40890 0.06039
# Poissons Ratio (y) = 0.46820 0.16552
# Poissons Ratio (z) = 0.05899 0.14121
#
# Static dielectric constant tensor:
#      x y z
#    x 3.741160 0.000000 0.000000 
#    y 0.000000 3.639430 0.000000 
#    z 0.000000 0.000000 3.743930 
# 
# 
# High freq. dielectric constant tensor:
#      x y z
#    x 1.795070 0.000000 0.000000 
#    y 0.000000 1.779470 0.000000 
#    z 0.000000 0.000000 1.804140 
# 
# From -- ./inp_files/19895.got.cif
#   From: 2010.03.12/outbox.cif.g09.slc.cpg/sg62_10_cif.got.tgz:19895.got - 2010.04.10 19:12:36.
