data_PCOD8252644
_publ_section_title
;
Structure prediction by ZEFSAII (Michael W. Deem and Ramdas Pophale) SiO2 
 PCOD8252644
Probable space group: P N M A
;
_chemical_formula_sum "Si O2"
_cell_formula_units_Z 56
_cell_length_a 23.211874
_cell_length_b 9.267266
_cell_length_c 13.864060
_cell_angle_alpha 90.000000
_cell_angle_beta 90.000000
_cell_angle_gamma 90.000000
_cell_volume 2982.306414
_symmetry_space_group_name_H-M "P N M A"
_symmetry_group_IT_number 62
_symmetry_cell_setting 'orthorhombic'
loop_
_space_group_symop_operation_xyz
x,y,z
1/2-x,-y,1/2+z
1/2+x,1/2-y,1/2-z
-x,1/2+y,-z
-x,-y,-z
1/2+x,y,1/2-z
1/2-x,1/2+y,1/2+z
x,1/2-y,z
loop_
_atom_site_type_symbol
_atom_site_label
_atom_site_fract_x
_atom_site_fract_y
_atom_site_fract_z
Si Si1 0.226987 0.917539 0.696610
Si Si2 0.435954 0.587392 0.142251
Si Si3 0.382836 0.083790 0.308043
Si Si4 0.471513 0.584420 0.413642
Si Si5 0.169929 0.085192 0.523189
Si Si6 0.837522 0.920923 0.690653
Si Si7 0.950577 0.089512 0.724996
O O1 0.227157 0.750000 0.668384
O O2 0.184920 0.943751 0.788674
O O3 0.289613 0.970893 0.732190
O O4 0.208728 0.002420 0.600965
O O5 0.425265 0.750000 0.186795
O O6 0.413607 0.459533 0.209212
O O7 0.399205 0.573758 0.044012
O O8 0.505446 0.567558 0.133344
O O9 0.395766 0.250000 0.332456
O O10 0.408323 0.985371 0.393976
O O11 0.500000 0.500000 0.500000
O O12 0.462798 0.750000 0.443158
O O13 0.511579 0.565902 0.320518
O O14 0.190774 0.250000 0.527847
O O15 0.178689 0.020153 0.416193
O O16 0.841691 0.750000 0.685664
O O17 0.899088 0.977407 0.724682
O O18 0.923917 0.250000 0.722615
#
# Coordination Sequence:
#
# PCOD8252644 Si02
#       7
#     8   8   8   8   8   8   8
#     4   9  19  36  54  74 105 140 177 224 267 313
#     4   8  15  30  51  74 102 131 168 213 255 310
#     4   9  16  29  51  74  98 134 174 215 264 309
#     4  10  20  35  54  78 108 139 177 222 267 320
#     4   9  18  34  56  78 101 138 181 219 265 320
#     4  10  21  36  53  77 111 143 176 221 270 319
#     4   9  19  34  51  75 107 139 170 216 268 314
#
# _framework density 18.777412000000002
#
# number of rings (size 3 to 8) (size 9 to 14) (size 15 to 20)
#    0.000    2.857    0.000    1.714    0.000    5.143 
#    2.571    0.000    0.000    0.000    0.000    0.000 
#    0.000    0.000    0.000    0.000    0.000    0.000 
#
# Total GULP energy -693882.986047 kJ/mol
# GULP energy per Si atom -12390.767608 kJ/mol
# Density = 1.873467 g / cm^3
# Si number density = 18.777412 Si / 1000 Ang^3
#
#
#
# Elastic Constant Matrix: (Units=GPa)
#
#
# Indices 1 2 3 4 5 6 
#
# 1 106.2894 36.7166 26.4000 0.0000 0.0000 0.0000
# 2 36.7166 70.5346 24.5821 0.0000 0.0000 0.0000
# 3 26.4000 24.5821 56.0335 0.0000 0.0000 0.0000
# 4 0.0000 0.0000 0.0000 26.4324 0.0000 0.0000
# 5 0.0000 0.0000 0.0000 0.0000 23.6837 0.0000
# 6 0.0000 0.0000 0.0000 0.0000 0.0000 29.6991
#
#
#
# Elastic Compliance Matrix: (Units=1/GPa)
#
#
# Indices 1 2 3 4 5 6 
#
# 1 0.012008 -0.005051 -0.003441 0.000000 0.000000 0.000000
# 2 -0.005051 0.018861 -0.005895 0.000000 0.000000 0.000000
# 3 -0.003441 -0.005895 0.022054 0.000000 0.000000 0.000000
# 4 0.000000 0.000000 0.000000 0.037832 0.000000 0.000000
# 5 0.000000 0.000000 0.000000 0.000000 0.042223 0.000000
# 6 0.000000 0.000000 0.000000 0.000000 0.000000 0.033671
#
#
# Mechanical properties :
#
#
# Convention : Reuss Voigt Hill
#
# Bulk Modulus (GPa) = 41.41077 45.36167 43.38622
# Shear Modulus (GPa) = 24.57317 25.64029 25.10673
#
# Velocity S-wave (km/s) = 3.62146 3.69926 3.66056
# Velocity P-wave (km/s) = 6.29190 6.51583 6.40484
#
# Compressibility (1/GPa) = 0.02414831
#
# Stress axis : x y z
#
# Youngs Moduli (GPa) = 83.27787 53.01883 45.34348
#
# Poissons Ratio (x) = 0.26782 0.15605
# Poissons Ratio (y) = 0.42066 0.26728
# Poissons Ratio (z) = 0.28660 0.31252
#
# Static dielectric constant tensor:
#      x y z
#    x 3.587050 0.000000 0.000000 
#    y 0.000000 3.457340 0.000000 
#    z 0.000000 0.000000 3.298050 
# 
# 
# High freq. dielectric constant tensor:
#      x y z
#    x 1.724780 0.000000 0.000000 
#    y 0.000000 1.730140 0.000000 
#    z 0.000000 0.000000 1.706440 
# 
# From -- ./inp_files/20275.got.cif
#   From: 2010.03.12/outbox.cif.g09.slc.cpg/sg62_11_cif.got.tgz:20275.got - 2010.04.10 19:12:36.
