data_PCOD8252990
_publ_section_title
;
Structure prediction by ZEFSAII (Michael W. Deem and Ramdas Pophale) SiO2 
 PCOD8252990
Probable space group: P N M A
;
_chemical_formula_sum "Si O2"
_cell_formula_units_Z 48
_cell_length_a 20.030989
_cell_length_b 8.644778
_cell_length_c 14.777763
_cell_angle_alpha 90.000000
_cell_angle_beta 90.000000
_cell_angle_gamma 90.000000
_cell_volume 2558.968469
_symmetry_space_group_name_H-M "P N M A"
_symmetry_group_IT_number 62
_symmetry_cell_setting 'orthorhombic'
loop_
_space_group_symop_operation_xyz
x,y,z
1/2-x,-y,1/2+z
1/2+x,1/2-y,1/2-z
-x,1/2+y,-z
-x,-y,-z
1/2+x,y,1/2-z
1/2-x,1/2+y,1/2+z
x,1/2-y,z
loop_
_atom_site_type_symbol
_atom_site_label
_atom_site_fract_x
_atom_site_fract_y
_atom_site_fract_z
Si Si1 0.308216 0.933427 0.113750
Si Si2 0.043346 0.070800 0.578337
Si Si3 0.695804 0.431714 0.512110
Si Si4 0.335087 0.067929 0.302768
Si Si5 0.022412 0.431400 0.779544
Si Si6 0.445788 0.567475 0.567315
O O1 0.298817 0.750000 0.105442
O O2 0.380711 0.990284 0.078650
O O3 0.300570 0.981393 0.218501
O O4 0.255120 0.022702 0.054009
O O5 0.045100 0.250000 0.560272
O O6 0.009277 0.031585 0.674430
O O7 0.000000 0.000000 0.500000
O O8 0.696916 0.250000 0.531446
O O9 0.704750 0.521150 0.606741
O O10 0.627345 0.483217 0.464079
O O11 0.330481 0.250000 0.286922
O O12 0.411614 0.016709 0.315479
O O13 0.033551 0.250000 0.796375
O O14 0.958525 0.494149 0.833790
O O15 0.500000 0.500000 0.500000
O O16 0.453384 0.750000 0.572394
#
# Coordination Sequence:
#
# PCOD8252990 Si02
#       6
#     8   8   8   8   8   8
#     4  10  22  41  61  85 117 154 195 242 292 349
#     4   9  20  38  61  86 113 149 192 238 286 341
#     4  11  23  39  59  86 119 155 196 243 291 351
#     4  11  21  36  61  86 112 153 195 235 292 351
#     4  10  20  36  57  84 117 150 192 240 287 346
#     4  11  22  35  57  87 119 153 192 239 292 347
#
# _framework density 18.757559000000001
#
# number of rings (size 3 to 8) (size 9 to 14) (size 15 to 20)
#    0.000    1.667    1.667    4.500    0.000    6.000 
#    3.000    0.000    0.000    0.000    0.000    0.000 
#    0.000    0.000    0.000    0.000    0.000    0.000 
#
# Total GULP energy -595338.582155 kJ/mol
# GULP energy per Si atom -12402.887128 kJ/mol
# Density = 1.871487 g / cm^3
# Si number density = 18.757559 Si / 1000 Ang^3
#
#
#
# Elastic Constant Matrix: (Units=GPa)
#
#
# Indices 1 2 3 4 5 6 
#
# 1 93.8327 26.0781 67.5657 0.0000 0.0000 0.0000
# 2 26.0781 52.7836 24.6555 0.0000 0.0000 0.0000
# 3 67.5657 24.6555 127.6986 0.0000 0.0000 0.0000
# 4 0.0000 0.0000 0.0000 39.3848 0.0000 0.0000
# 5 0.0000 0.0000 0.0000 0.0000 32.9538 0.0000
# 6 0.0000 0.0000 0.0000 0.0000 0.0000 31.1482
#
#
#
# Elastic Compliance Matrix: (Units=1/GPa)
#
#
# Indices 1 2 3 4 5 6 
#
# 1 0.018333 -0.004975 -0.008739 0.000000 0.000000 0.000000
# 2 -0.004975 0.022173 -0.001649 0.000000 0.000000 0.000000
# 3 -0.008739 -0.001649 0.012773 0.000000 0.000000 0.000000
# 4 0.000000 0.000000 0.000000 0.025390 0.000000 0.000000
# 5 0.000000 0.000000 0.000000 0.000000 0.030346 0.000000
# 6 0.000000 0.000000 0.000000 0.000000 0.000000 0.032105
#
#
# Mechanical properties :
#
#
# Convention : Reuss Voigt Hill
#
# Bulk Modulus (GPa) = 44.34020 56.76817 50.55418
# Shear Modulus (GPa) = 27.87614 31.09840 29.48727
#
# Velocity S-wave (km/s) = 3.85922 4.07617 3.96917
# Velocity P-wave (km/s) = 6.59909 7.24454 6.92933
#
# Compressibility (1/GPa) = 0.02255290
#
# Stress axis : x y z
#
# Youngs Moduli (GPa) = 54.54651 45.09893 78.28814
#
# Poissons Ratio (x) = 0.22438 0.68419
# Poissons Ratio (y) = 0.27139 0.12907
# Poissons Ratio (z) = 0.47671 0.07435
#
# Static dielectric constant tensor:
#      x y z
#    x 3.275110 0.000000 0.000000 
#    y 0.000000 3.534950 0.000000 
#    z 0.000000 0.000000 3.589790 
# 
# 
# High freq. dielectric constant tensor:
#      x y z
#    x 1.711270 0.000000 0.000000 
#    y 0.000000 1.740250 0.000000 
#    z 0.000000 0.000000 1.741210 
# 
# From -- ./inp_files/19561.got.cif
#   From: 2010.03.12/outbox.cif.g09.slc.cpg/sg62_10_cif.got.tgz:19561.got - 2010.04.10 19:12:36.
