data_PCOD8252030
_publ_section_title
;
Structure prediction by ZEFSAII (Michael W. Deem and Ramdas Pophale) SiO2 
 PCOD8252030
Probable space group: P N M A
;
_chemical_formula_sum "Si O2"
_cell_formula_units_Z 64
_cell_length_a 18.305622
_cell_length_b 17.592938
_cell_length_c 9.471322
_cell_angle_alpha 90.000000
_cell_angle_beta 90.000000
_cell_angle_gamma 90.000000
_cell_volume 3050.236152
_symmetry_space_group_name_H-M "P N M A"
_symmetry_group_IT_number 62
_symmetry_cell_setting 'orthorhombic'
loop_
_space_group_symop_operation_xyz
x,y,z
1/2-x,-y,1/2+z
1/2+x,1/2-y,1/2-z
-x,1/2+y,-z
-x,-y,-z
1/2+x,y,1/2-z
1/2-x,1/2+y,1/2+z
x,1/2-y,z
loop_
_atom_site_type_symbol
_atom_site_label
_atom_site_fract_x
_atom_site_fract_y
_atom_site_fract_z
Si Si1 0.565095 0.058629 0.027315
Si Si2 0.228786 0.451551 0.516541
Si Si3 0.710714 0.160189 0.740045
Si Si4 0.750821 0.911953 0.793464
Si Si5 0.094823 0.339630 0.216587
Si Si6 0.515810 0.837719 0.154068
Si Si7 0.664294 0.660221 0.024077
Si Si8 0.567863 0.162055 0.589558
O O1 0.555999 0.103719 0.174455
O O2 0.645153 0.020704 0.015006
O O3 0.556420 0.124005 0.910217
O O4 0.500000 0.000000 0.000000
O O5 0.227031 0.374076 0.605867
O O6 0.270109 0.514952 0.609349
O O7 0.269438 0.437394 0.366638
O O8 0.709852 0.250000 0.762324
O O9 0.772650 0.133886 0.630145
O O10 0.636464 0.125832 0.673284
O O11 0.818190 0.853464 0.788705
O O12 0.681284 0.870329 0.866236
O O13 0.080614 0.250000 0.250048
O O14 0.059084 0.367611 0.069196
O O15 0.511548 0.750000 0.116109
O O16 0.507908 0.850859 0.323729
O O17 0.589183 0.874223 0.088871
O O18 0.657675 0.750000 0.016968
O O19 0.588532 0.250000 0.577111
#
# Coordination Sequence:
#
# PCOD8252030 Si02
#       8
#     8   8   8   8   8   8   8   8
#     4  11  23  39  57  86 125 164 207 260 316 380
#     4  11  24  37  59  85 121 161 207 258 313 385
#     4  10  19  36  62  91 121 158 209 265 315 374
#     4  11  22  37  57  89 122 158 205 263 321 376
#     4  10  21  39  66  93 117 158 218 270 305 370
#     4  10  20  36  60  86 120 166 209 252 315 388
#     4  10  20  36  59  87 122 159 200 257 322 379
#     4   9  17  34  62  91 116 153 209 265 308 366
#
# _framework density 20.981981999999999
#
# number of rings (size 3 to 8) (size 9 to 14) (size 15 to 20)
#    0.000    1.750    2.500    2.250    0.000    3.500 
#    0.000    3.125    0.000    3.000    0.000    0.000 
#    0.000    0.000    0.000    0.000    0.000    0.000 
#
# Total GULP energy -793169.588984 kJ/mol
# GULP energy per Si atom -12393.274828 kJ/mol
# Density = 2.093423 g / cm^3
# Si number density = 20.981982 Si / 1000 Ang^3
#
#
#
# Elastic Constant Matrix: (Units=GPa)
#
#
# Indices 1 2 3 4 5 6 
#
# 1 67.8308 24.9777 33.2376 0.0000 0.0000 0.0000
# 2 24.9777 47.1458 45.4977 0.0000 0.0000 0.0000
# 3 33.2376 45.4977 163.2728 0.0000 0.0000 0.0000
# 4 0.0000 0.0000 0.0000 38.5999 0.0000 0.0000
# 5 0.0000 0.0000 0.0000 0.0000 34.5554 0.0000
# 6 0.0000 0.0000 0.0000 0.0000 0.0000 25.9880
#
#
#
# Elastic Compliance Matrix: (Units=1/GPa)
#
#
# Indices 1 2 3 4 5 6 
#
# 1 0.018553 -0.008460 -0.001420 0.000000 0.000000 0.000000
# 2 -0.008460 0.032870 -0.007437 0.000000 0.000000 0.000000
# 3 -0.001420 -0.007437 0.008486 0.000000 0.000000 0.000000
# 4 0.000000 0.000000 0.000000 0.025907 0.000000 0.000000
# 5 0.000000 0.000000 0.000000 0.000000 0.028939 0.000000
# 6 0.000000 0.000000 0.000000 0.000000 0.000000 0.038479
#
#
# Mechanical properties :
#
#
# Convention : Reuss Voigt Hill
#
# Bulk Modulus (GPa) = 39.56253 53.96393 46.76323
# Shear Modulus (GPa) = 25.47207 31.46441 28.46824
#
# Velocity S-wave (km/s) = 3.48803 3.87666 3.68747
# Velocity P-wave (km/s) = 5.92606 6.76853 6.36126
#
# Compressibility (1/GPa) = 0.02527644
#
# Stress axis : x y z
#
# Youngs Moduli (GPa) = 53.89890 30.42280 117.83788
#
# Poissons Ratio (x) = 0.25736 0.16728
# Poissons Ratio (y) = 0.45596 0.87642
# Poissons Ratio (z) = 0.07651 0.22627
#
# Static dielectric constant tensor:
#      x y z
#    x 3.701010 0.000000 0.000000 
#    y 0.000000 3.766950 0.000000 
#    z 0.000000 0.000000 4.046760 
# 
# 
# High freq. dielectric constant tensor:
#      x y z
#    x 1.796930 0.000000 0.000000 
#    y 0.000000 1.819440 0.000000 
#    z 0.000000 0.000000 1.832140 
# 
# From -- ./inp_files/8085.got.cif
#   From: 2010.03.12/outbox.cif.g09.slc.cpg/sg62_5_cif.got.tgz:8085.got - 2010.04.10 19:12:36.
