data_PCOD8252835
_publ_section_title
;
Structure prediction by ZEFSAII (Michael W. Deem and Ramdas Pophale) SiO2 
 PCOD8252835
Probable space group: P N M A
;
_chemical_formula_sum "Si O2"
_cell_formula_units_Z 64
_cell_length_a 24.254514
_cell_length_b 9.024522
_cell_length_c 14.693580
_cell_angle_alpha 90.000000
_cell_angle_beta 90.000000
_cell_angle_gamma 90.000000
_cell_volume 3216.210065
_symmetry_space_group_name_H-M "P N M A"
_symmetry_group_IT_number 62
_symmetry_cell_setting 'orthorhombic'
loop_
_space_group_symop_operation_xyz
x,y,z
1/2-x,-y,1/2+z
1/2+x,1/2-y,1/2-z
-x,1/2+y,-z
-x,-y,-z
1/2+x,y,1/2-z
1/2-x,1/2+y,1/2+z
x,1/2-y,z
loop_
_atom_site_type_symbol
_atom_site_label
_atom_site_fract_x
_atom_site_fract_y
_atom_site_fract_z
Si Si1 0.617466 0.421046 0.091644
Si Si2 0.111859 0.920101 0.597963
Si Si3 0.345545 0.575012 0.391840
Si Si4 0.055305 0.075747 0.229325
Si Si5 0.057847 0.425447 0.760546
Si Si6 0.351389 0.578835 0.598183
Si Si7 0.238375 0.419442 0.397061
Si Si8 0.232614 0.581618 0.580447
O O1 0.615322 0.250000 0.059145
O O2 0.571053 0.456156 0.166088
O O3 0.676787 0.450964 0.141280
O O4 0.606955 0.526682 0.005984
O O5 0.092627 0.750000 0.602439
O O6 0.175198 0.937574 0.634976
O O7 0.071625 0.016171 0.660019
O O8 0.342126 0.750000 0.389266
O O9 0.395715 0.517249 0.330463
O O10 0.354197 0.514906 0.495071
O O11 0.287425 0.514515 0.351338
O O12 0.046949 0.250000 0.213515
O O13 0.102872 0.006422 0.163754
O O14 0.999557 0.991149 0.204838
O O15 0.053888 0.250000 0.757767
O O16 0.366439 0.750000 0.593965
O O17 0.288846 0.556821 0.639100
O O18 0.255399 0.250000 0.384222
O O19 0.233332 0.458826 0.503001
O O20 0.234727 0.750000 0.539116
#
# Coordination Sequence:
#
# PCOD8252835 Si02
#       8
#     8   8   8   8   8   8   8   8
#     4   9  19  35  55  81 112 141 169 211 268 318
#     4  10  20  35  58  83 106 138 178 217 260 317
#     4   9  19  36  55  76 107 145 177 211 265 321
#     4  10  21  37  56  77 102 137 182 223 258 309
#     4  11  24  39  53  73 105 142 181 227 271 310
#     4   8  15  32  57  80 104 136 172 211 257 311
#     4   9  16  28  51  82 111 136 168 212 259 312
#     4   8  15  30  53  80 109 138 169 207 258 319
#
# _framework density 19.899198999999999
#
# number of rings (size 3 to 8) (size 9 to 14) (size 15 to 20)
#    0.000    2.750    0.000    1.875    0.000    4.500 
#    0.000    5.000    0.000    0.000    0.000    0.000 
#    0.000    0.000    0.000    0.000    0.000    0.000 
#
# Total GULP energy -793102.479515 kJ/mol
# GULP energy per Si atom -12392.226242 kJ/mol
# Density = 1.985391 g / cm^3
# Si number density = 19.899199 Si / 1000 Ang^3
#
#
#
# Elastic Constant Matrix: (Units=GPa)
#
#
# Indices 1 2 3 4 5 6 
#
# 1 90.2025 24.3101 9.8765 0.0000 0.0000 0.0000
# 2 24.3101 45.1879 14.1212 0.0000 0.0000 0.0000
# 3 9.8765 14.1212 34.2884 0.0000 0.0000 0.0000
# 4 0.0000 0.0000 0.0000 15.5140 0.0000 0.0000
# 5 0.0000 0.0000 0.0000 0.0000 33.8660 0.0000
# 6 0.0000 0.0000 0.0000 0.0000 0.0000 31.9709
#
#
#
# Elastic Compliance Matrix: (Units=1/GPa)
#
#
# Indices 1 2 3 4 5 6 
#
# 1 0.012995 -0.006681 -0.000992 0.000000 0.000000 0.000000
# 2 -0.006681 0.028834 -0.009950 0.000000 0.000000 0.000000
# 3 -0.000992 -0.009950 0.033548 0.000000 0.000000 0.000000
# 4 0.000000 0.000000 0.000000 0.064458 0.000000 0.000000
# 5 0.000000 0.000000 0.000000 0.000000 0.029528 0.000000
# 6 0.000000 0.000000 0.000000 0.000000 0.000000 0.031278
#
#
# Mechanical properties :
#
#
# Convention : Reuss Voigt Hill
#
# Bulk Modulus (GPa) = 24.91868 29.58828 27.25348
# Shear Modulus (GPa) = 20.05900 24.36158 22.21029
#
# Velocity S-wave (km/s) = 3.17839 3.50272 3.34449
# Velocity P-wave (km/s) = 5.10090 5.59108 5.35160
#
# Compressibility (1/GPa) = 0.04013054
#
# Stress axis : x y z
#
# Youngs Moduli (GPa) = 76.95026 34.68164 29.80819
#
# Poissons Ratio (x) = 0.23172 0.02956
# Poissons Ratio (y) = 0.51413 0.29660
# Poissons Ratio (z) = 0.07630 0.34509
#
# Static dielectric constant tensor:
#      x y z
#    x 3.947090 0.000000 0.000000 
#    y 0.000000 3.409530 0.000000 
#    z 0.000000 0.000000 3.410080 
# 
# 
# High freq. dielectric constant tensor:
#      x y z
#    x 1.790290 0.000000 0.000000 
#    y 0.000000 1.756590 0.000000 
#    z 0.000000 0.000000 1.749860 
# 
# From -- ./inp_files/20993.got.cif
#   From: 2010.03.12/outbox.cif.g09.slc.cpg/sg62_11_cif.got.tgz:20993.got - 2010.04.10 19:12:36.
