data_PCOD8252247
_publ_section_title
;
Structure prediction by ZEFSAII (Michael W. Deem and Ramdas Pophale) SiO2 
 PCOD8252247
Probable space group: P N M A
;
_chemical_formula_sum "Si O2"
_cell_formula_units_Z 56
_cell_length_a 18.512875
_cell_length_b 8.977991
_cell_length_c 20.466357
_cell_angle_alpha 90.000000
_cell_angle_beta 90.000000
_cell_angle_gamma 90.000000
_cell_volume 3401.680965
_symmetry_space_group_name_H-M "P N M A"
_symmetry_group_IT_number 62
_symmetry_cell_setting 'orthorhombic'
loop_
_space_group_symop_operation_xyz
x,y,z
1/2-x,-y,1/2+z
1/2+x,1/2-y,1/2-z
-x,1/2+y,-z
-x,-y,-z
1/2+x,y,1/2-z
1/2-x,1/2+y,1/2+z
x,1/2-y,z
loop_
_atom_site_type_symbol
_atom_site_label
_atom_site_fract_x
_atom_site_fract_y
_atom_site_fract_z
Si Si1 0.422100 0.425971 0.502541
Si Si2 0.725179 0.918032 0.799948
Si Si3 0.151568 0.074344 0.881245
Si Si4 0.645190 0.082073 0.378142
Si Si5 0.794977 0.420760 0.684118
Si Si6 0.922579 0.920618 0.736148
Si Si7 0.080470 0.577718 0.757558
O O1 0.500000 0.500000 0.500000
O O2 0.430325 0.250000 0.494974
O O3 0.372013 0.489978 0.445940
O O4 0.384292 0.462651 0.571150
O O5 0.743554 0.750000 0.773750
O O6 0.767383 0.938680 0.868930
O O7 0.638197 0.937471 0.802415
O O8 0.754910 0.040765 0.751061
O O9 0.136716 0.250000 0.887639
O O10 0.237603 0.041175 0.873273
O O11 0.105969 0.014051 0.820304
O O12 0.627712 0.250000 0.402614
O O13 0.608037 0.051741 0.308530
O O14 0.815538 0.250000 0.683670
O O15 0.871513 0.506020 0.680690
O O16 0.925139 0.750000 0.717125
O O17 0.003843 0.986884 0.732924
O O18 0.071796 0.750000 0.779354
#
# Coordination Sequence:
#
# PCOD8252247 Si02
#       7
#     8   8   8   8   8   8   8
#     4  12  24  35  48  66  89 120 154 188 223 263
#     4   8  15  28  46  65  88 118 149 181 221 265
#     4  10  20  33  47  65  90 121 154 188 224 264
#     4   9  17  30  45  64  92 124 154 184 218 260
#     4   9  17  28  44  65  89 116 148 184 222 263
#     4   9  17  28  45  68  94 121 147 178 219 264
#     4   9  16  28  47  71  95 120 150 183 221 267
#
# _framework density 16.462448999999999
#
# number of rings (size 3 to 8) (size 9 to 14) (size 15 to 20)
#    0.000    2.571    0.000    3.857    0.000    5.714 
#    0.000    0.000    0.000    0.000    0.000    1.000 
#    0.000    0.000    0.000    0.000    0.000    0.000 
#
# Total GULP energy -693888.263755 kJ/mol
# GULP energy per Si atom -12390.861853 kJ/mol
# Density = 1.642498 g / cm^3
# Si number density = 16.462449 Si / 1000 Ang^3
#
#
#
# Elastic Constant Matrix: (Units=GPa)
#
#
# Indices 1 2 3 4 5 6 
#
# 1 138.0465 42.8560 40.2549 0.0000 0.0000 0.0000
# 2 42.8560 72.8806 31.7027 0.0000 0.0000 0.0000
# 3 40.2549 31.7027 48.5519 0.0000 0.0000 0.0000
# 4 0.0000 0.0000 0.0000 22.5565 0.0000 0.0000
# 5 0.0000 0.0000 0.0000 0.0000 23.9753 0.0000
# 6 0.0000 0.0000 0.0000 0.0000 0.0000 25.2588
#
#
#
# Elastic Compliance Matrix: (Units=1/GPa)
#
#
# Indices 1 2 3 4 5 6 
#
# 1 0.010060 -0.003195 -0.006254 0.000000 0.000000 0.000000
# 2 -0.003195 0.020179 -0.010527 0.000000 0.000000 0.000000
# 3 -0.006254 -0.010527 0.032656 0.000000 0.000000 0.000000
# 4 0.000000 0.000000 0.000000 0.044333 0.000000 0.000000
# 5 0.000000 0.000000 0.000000 0.000000 0.041710 0.000000
# 6 0.000000 0.000000 0.000000 0.000000 0.000000 0.039590
#
#
# Mechanical properties :
#
#
# Convention : Reuss Voigt Hill
#
# Bulk Modulus (GPa) = 43.58891 54.34510 48.96700
# Shear Modulus (GPa) = 21.17495 24.00249 22.58872
#
# Velocity S-wave (km/s) = 3.59033 3.82254 3.70825
# Velocity P-wave (km/s) = 6.61231 7.25021 6.93860
#
# Compressibility (1/GPa) = 0.02294162
#
# Stress axis : x y z
#
# Youngs Moduli (GPa) = 99.40826 49.55639 30.62200
#
# Poissons Ratio (x) = 0.15831 0.19152
# Poissons Ratio (y) = 0.31757 0.32237
# Poissons Ratio (z) = 0.62175 0.52170
#
# Static dielectric constant tensor:
#      x y z
#    x 3.592720 0.000000 0.000000 
#    y 0.000000 3.145650 0.000000 
#    z 0.000000 0.000000 2.817650 
# 
# 
# High freq. dielectric constant tensor:
#      x y z
#    x 1.647660 0.000000 0.000000 
#    y 0.000000 1.638220 0.000000 
#    z 0.000000 0.000000 1.581670 
# 
# From -- ./inp_files/27530.got.cif
#   From: 2010.03.12/outbox.cif.g09.slc.cpg/sg62_14_cif.got.tgz:27530.got - 2010.04.10 19:12:36.
