data_PCOD8252420
_publ_section_title
;
Structure prediction by ZEFSAII (Michael W. Deem and Ramdas Pophale) SiO2 
 PCOD8252420
Probable space group: P N M A
;
_chemical_formula_sum "Si O2"
_cell_formula_units_Z 64
_cell_length_a 14.662197
_cell_length_b 8.868971
_cell_length_c 24.835894
_cell_angle_alpha 90.000000
_cell_angle_beta 90.000000
_cell_angle_gamma 90.000000
_cell_volume 3229.624885
_symmetry_space_group_name_H-M "P N M A"
_symmetry_group_IT_number 62
_symmetry_cell_setting 'orthorhombic'
loop_
_space_group_symop_operation_xyz
x,y,z
1/2-x,-y,1/2+z
1/2+x,1/2-y,1/2-z
-x,1/2+y,-z
-x,-y,-z
1/2+x,y,1/2-z
1/2-x,1/2+y,1/2+z
x,1/2-y,z
loop_
_atom_site_type_symbol
_atom_site_label
_atom_site_fract_x
_atom_site_fract_y
_atom_site_fract_z
Si Si1 0.613734 0.073395 0.269151
Si Si2 0.345342 0.080957 0.092120
Si Si3 0.559385 0.070721 0.691430
Si Si4 0.857499 0.424192 0.662801
Si Si5 0.782873 0.919330 0.504807
Si Si6 0.810662 0.071207 0.112922
Si Si7 0.451735 0.916324 0.925623
Si Si8 0.175460 0.926854 0.712049
O O1 0.595356 0.250000 0.262267
O O2 0.717060 0.038293 0.285650
O O3 0.541121 0.003116 0.310583
O O4 0.590282 0.984044 0.214789
O O5 0.309472 0.250000 0.099055
O O6 0.441834 0.071380 0.061128
O O7 0.353638 0.013163 0.152478
O O8 0.271713 0.002723 0.052504
O O9 0.553200 0.250000 0.693188
O O10 0.601106 0.016907 0.634181
O O11 0.619742 0.015303 0.742298
O O12 0.829073 0.250000 0.667876
O O13 0.769042 0.528326 0.654625
O O14 0.927112 0.447348 0.613975
O O15 0.751910 0.750000 0.494316
O O16 0.718278 0.984798 0.552787
O O17 0.889416 0.930338 0.521466
O O18 0.826044 0.250000 0.114851
O O19 0.431707 0.750000 0.899459
O O20 0.154220 0.750000 0.719917
#
# Coordination Sequence:
#
# PCOD8252420 Si02
#       8
#     8   8   8   8   8   8   8   8
#     4  11  22  37  57  78 112 157 193 227 282 353
#     4  10  20  34  53  78 108 145 190 234 279 335
#     4  12  24  37  59  89 116 143 187 245 292 331
#     4  11  20  31  51  81 111 141 185 235 279 322
#     4   9  19  33  52  78 108 148 189 227 279 340
#     4  10  20  37  57  78 109 148 186 222 275 345
#     4   9  18  32  50  75 111 152 188 224 278 346
#     4  10  22  39  59  83 115 157 195 227 281 352
#
# _framework density 19.816541999999998
#
# number of rings (size 3 to 8) (size 9 to 14) (size 15 to 20)
#    0.000    1.750    1.250    4.875    0.000    5.000 
#    0.000    0.000    0.000    0.750    0.000    0.000 
#    0.000    0.000    0.000    0.000    0.000    0.000 
#
# Total GULP energy -793220.942793 kJ/mol
# GULP energy per Si atom -12394.077231 kJ/mol
# Density = 1.977144 g / cm^3
# Si number density = 19.816542 Si / 1000 Ang^3
#
#
#
# Elastic Constant Matrix: (Units=GPa)
#
#
# Indices 1 2 3 4 5 6 
#
# 1 59.8242 20.4047 -1.1591 0.0000 0.0000 0.0000
# 2 20.4047 89.6599 23.1069 0.0000 0.0000 0.0000
# 3 -1.1591 23.1069 49.8173 0.0000 0.0000 0.0000
# 4 0.0000 0.0000 0.0000 32.1760 0.0000 0.0000
# 5 0.0000 0.0000 0.0000 0.0000 13.4168 0.0000
# 6 0.0000 0.0000 0.0000 0.0000 0.0000 21.6102
#
#
#
# Elastic Compliance Matrix: (Units=1/GPa)
#
#
# Indices 1 2 3 4 5 6 
#
# 1 0.018436 -0.004891 0.002697 0.000000 0.000000 0.000000
# 2 -0.004891 0.013965 -0.006591 0.000000 0.000000 0.000000
# 3 0.002697 -0.006591 0.023193 0.000000 0.000000 0.000000
# 4 0.000000 0.000000 0.000000 0.031079 0.000000 0.000000
# 5 0.000000 0.000000 0.000000 0.000000 0.074533 0.000000
# 6 0.000000 0.000000 0.000000 0.000000 0.000000 0.046274
#
#
# Mechanical properties :
#
#
# Convention : Reuss Voigt Hill
#
# Bulk Modulus (GPa) = 26.29833 31.55626 28.92729
# Shear Modulus (GPa) = 21.03267 23.90387 22.46827
#
# Velocity S-wave (km/s) = 3.26140 3.47689 3.37087
# Velocity P-wave (km/s) = 5.24233 5.66367 5.45707
#
# Compressibility (1/GPa) = 0.03802523
#
# Stress axis : x y z
#
# Youngs Moduli (GPa) = 54.24148 71.60774 43.11590
#
# Poissons Ratio (x) = 0.35022 -0.11630
# Poissons Ratio (y) = 0.26529 0.28419
# Poissons Ratio (z) = -0.14632 0.47198
#
# Static dielectric constant tensor:
#      x y z
#    x 3.515320 0.000000 0.000000 
#    y 0.000000 3.556530 0.000000 
#    z 0.000000 0.000000 3.545460 
# 
# 
# High freq. dielectric constant tensor:
#      x y z
#    x 1.750460 0.000000 0.000000 
#    y 0.000000 1.769120 0.000000 
#    z 0.000000 0.000000 1.762930 
# 
# From -- ./inp_files/29818.got.cif
#   From: 2010.03.12/outbox.cif.g09.slc.cpg/sg62_15_cif.got.tgz:29818.got - 2010.04.10 19:12:36.
