data_PCOD8252395
_publ_section_title
;
Structure prediction by ZEFSAII (Michael W. Deem and Ramdas Pophale) SiO2 
 PCOD8252395
Probable space group: P N M A
;
_chemical_formula_sum "Si O2"
_cell_formula_units_Z 56
_cell_length_a 21.495092
_cell_length_b 9.246231
_cell_length_c 14.458888
_cell_angle_alpha 90.000000
_cell_angle_beta 90.000000
_cell_angle_gamma 90.000000
_cell_volume 2873.683545
_symmetry_space_group_name_H-M "P N M A"
_symmetry_group_IT_number 62
_symmetry_cell_setting 'orthorhombic'
loop_
_space_group_symop_operation_xyz
x,y,z
1/2-x,-y,1/2+z
1/2+x,1/2-y,1/2-z
-x,1/2+y,-z
-x,-y,-z
1/2+x,y,1/2-z
1/2-x,1/2+y,1/2+z
x,1/2-y,z
loop_
_atom_site_type_symbol
_atom_site_label
_atom_site_fract_x
_atom_site_fract_y
_atom_site_fract_z
Si Si1 0.461023 0.415535 0.650904
Si Si2 0.725816 0.078921 0.329263
Si Si3 0.387839 0.581643 0.796540
Si Si4 0.649317 0.085810 0.832287
Si Si5 0.565878 0.420109 0.003713
Si Si6 0.346883 0.416867 0.520127
Si Si7 0.401870 0.913180 0.365687
O O1 0.463415 0.250000 0.683201
O O2 0.442843 0.505293 0.741073
O O3 0.412902 0.440259 0.568657
O O4 0.527965 0.465594 0.613431
O O5 0.728061 0.250000 0.343126
O O6 0.679691 0.034907 0.244465
O O7 0.793705 0.018752 0.308396
O O8 0.705059 0.004795 0.424739
O O9 0.397428 0.750000 0.780938
O O10 0.395120 0.539426 0.903971
O O11 0.672958 0.250000 0.850232
O O12 0.609415 0.028751 0.919181
O O13 0.605138 0.078815 0.744001
O O14 0.552120 0.250000 0.998078
O O15 0.500000 0.500000 0.000000
O O16 0.326593 0.250000 0.513978
O O17 0.353258 0.481884 0.417337
O O18 0.390757 0.750000 0.402118
#
# Coordination Sequence:
#
# PCOD8252395 Si02
#       7
#     8   8   8   8   8   8   8
#     4   9  18  33  54  81 111 141 173 213 265 323
#     4  10  21  38  57  79 108 142 183 228 275 329
#     4   9  19  35  56  80 107 141 180 224 271 322
#     4  10  22  38  55  78 111 147 182 227 277 324
#     4  10  21  38  59  84 114 148 186 229 279 331
#     4  10  20  34  55  81 108 141 180 221 267 321
#     4  10  20  34  52  77 110 144 177 216 266 320
#
# _framework density 19.487185
#
# number of rings (size 3 to 8) (size 9 to 14) (size 15 to 20)
#    0.000    2.286    0.000    2.143    0.000    5.714 
#    0.000    1.429    0.000    0.000    0.000    0.000 
#    0.000    0.000    0.000    0.000    0.000    0.000 
#
# Total GULP energy -694466.612212 kJ/mol
# GULP energy per Si atom -12401.189504 kJ/mol
# Density = 1.944283 g / cm^3
# Si number density = 19.487185 Si / 1000 Ang^3
#
#
#
# Elastic Constant Matrix: (Units=GPa)
#
#
# Indices 1 2 3 4 5 6 
#
# 1 84.4480 35.2270 22.1890 0.0000 0.0000 0.0000
# 2 35.2270 68.2689 31.5829 0.0000 0.0000 0.0000
# 3 22.1890 31.5829 100.6959 0.0000 0.0000 0.0000
# 4 0.0000 0.0000 0.0000 30.3194 0.0000 0.0000
# 5 0.0000 0.0000 0.0000 0.0000 21.9607 0.0000
# 6 0.0000 0.0000 0.0000 0.0000 0.0000 34.2064
#
#
#
# Elastic Compliance Matrix: (Units=1/GPa)
#
#
# Indices 1 2 3 4 5 6 
#
# 1 0.015182 -0.007353 -0.001039 0.000000 0.000000 0.000000
# 2 -0.007353 0.020696 -0.004871 0.000000 0.000000 0.000000
# 3 -0.001039 -0.004871 0.011688 0.000000 0.000000 0.000000
# 4 0.000000 0.000000 0.000000 0.032982 0.000000 0.000000
# 5 0.000000 0.000000 0.000000 0.000000 0.045536 0.000000
# 6 0.000000 0.000000 0.000000 0.000000 0.000000 0.029234
#
#
# Mechanical properties :
#
#
# Convention : Reuss Voigt Hill
#
# Bulk Modulus (GPa) = 47.53101 47.93449 47.73275
# Shear Modulus (GPa) = 26.47508 28.25822 27.36665
#
# Velocity S-wave (km/s) = 3.68990 3.81214 3.75152
# Velocity P-wave (km/s) = 6.52669 6.63535 6.58125
#
# Compressibility (1/GPa) = 0.02103890
#
# Stress axis : x y z
#
# Youngs Moduli (GPa) = 65.86741 48.31944 85.56100
#
# Poissons Ratio (x) = 0.35531 0.08891
# Poissons Ratio (y) = 0.48434 0.41675
# Poissons Ratio (z) = 0.06845 0.23535
#
# Static dielectric constant tensor:
#      x y z
#    x 3.495510 0.000000 0.000000 
#    y 0.000000 3.539540 0.000000 
#    z 0.000000 0.000000 3.583430 
# 
# 
# High freq. dielectric constant tensor:
#      x y z
#    x 1.754610 0.000000 0.000000 
#    y 0.000000 1.755220 0.000000 
#    z 0.000000 0.000000 1.762020 
# 
# From -- ./inp_files/20316.got.cif
#   From: 2010.03.12/outbox.cif.g09.slc.cpg/sg62_11_cif.got.tgz:20316.got - 2010.04.10 19:12:36.
