data_PCOD8252642
_publ_section_title
;
Structure prediction by ZEFSAII (Michael W. Deem and Ramdas Pophale) SiO2 
 PCOD8252642
Probable space group: P N M A
;
_chemical_formula_sum "Si O2"
_cell_formula_units_Z 48
_cell_length_a 9.670261
_cell_length_b 8.833882
_cell_length_c 31.161248
_cell_angle_alpha 90.000000
_cell_angle_beta 90.000000
_cell_angle_gamma 90.000000
_cell_volume 2661.979045
_symmetry_space_group_name_H-M "P N M A"
_symmetry_group_IT_number 62
_symmetry_cell_setting 'orthorhombic'
loop_
_space_group_symop_operation_xyz
x,y,z
1/2-x,-y,1/2+z
1/2+x,1/2-y,1/2-z
-x,1/2+y,-z
-x,-y,-z
1/2+x,y,1/2-z
1/2-x,1/2+y,1/2+z
x,1/2-y,z
loop_
_atom_site_type_symbol
_atom_site_label
_atom_site_fract_x
_atom_site_fract_y
_atom_site_fract_z
Si Si1 0.397125 0.430540 0.965895
Si Si2 0.592294 0.583050 0.128260
Si Si3 0.079525 0.079968 0.876902
Si Si4 0.395084 0.572290 0.787134
Si Si5 0.919383 0.430014 0.209696
Si Si6 0.596895 0.569710 0.535767
O O1 0.381697 0.250000 0.971043
O O2 0.459314 0.471409 0.918651
O O3 0.249527 0.507081 0.972554
O O4 0.500000 0.500000 0.000000
O O5 0.535116 0.750000 0.138317
O O6 0.756615 0.584027 0.125934
O O7 0.541215 0.476500 0.166889
O O8 0.019453 0.250000 0.880998
O O9 0.020256 0.001484 0.834010
O O10 0.036048 0.982323 0.918244
O O11 0.402154 0.750000 0.785264
O O12 0.487720 0.506116 0.748618
O O13 0.237779 0.514995 0.781796
O O14 0.926389 0.250000 0.205372
O O15 0.500000 0.500000 0.500000
O O16 0.597731 0.750000 0.533328
#
# Coordination Sequence:
#
# PCOD8252642 Si02
#       6
#     8   8   8   8   8   8
#     4  10  20  35  54  78 105 136 173 214 257 305
#     4   8  16  30  48  69  95 125 162 202 241 290
#     4   9  17  31  50  72  96 127 166 204 242 295
#     4   9  17  29  47  68  92 122 159 198 240 290
#     4   9  17  30  47  69  94 123 158 198 242 290
#     4  11  21  35  55  78 104 135 170 212 257 306
#
# _framework density 18.031697000000001
#
# number of rings (size 3 to 8) (size 9 to 14) (size 15 to 20)
#    0.000    2.667    0.000    3.500    0.000    5.333 
#    0.000    1.667    0.000    6.000    0.000    0.000 
#    0.000    0.000    0.000    0.000    0.000    0.000 
#
# Total GULP energy -594998.106760 kJ/mol
# GULP energy per Si atom -12395.793891 kJ/mol
# Density = 1.799066 g / cm^3
# Si number density = 18.031697 Si / 1000 Ang^3
#
#
#
# Elastic Constant Matrix: (Units=GPa)
#
#
# Indices 1 2 3 4 5 6 
#
# 1 55.3036 35.2384 66.0231 0.0000 0.0000 0.0000
# 2 35.2384 87.8116 64.0712 0.0000 0.0000 0.0000
# 3 66.0231 64.0712 192.5466 0.0000 0.0000 0.0000
# 4 0.0000 0.0000 0.0000 36.6499 0.0000 0.0000
# 5 0.0000 0.0000 0.0000 0.0000 32.8592 0.0000
# 6 0.0000 0.0000 0.0000 0.0000 0.0000 19.7470
#
#
#
# Elastic Compliance Matrix: (Units=1/GPa)
#
#
# Indices 1 2 3 4 5 6 
#
# 1 0.033315 -0.006648 -0.009211 0.000000 0.000000 0.000000
# 2 -0.006648 0.016366 -0.003166 0.000000 0.000000 0.000000
# 3 -0.009211 -0.003166 0.009406 0.000000 0.000000 0.000000
# 4 0.000000 0.000000 0.000000 0.027285 0.000000 0.000000
# 5 0.000000 0.000000 0.000000 0.000000 0.030433 0.000000
# 6 0.000000 0.000000 0.000000 0.000000 0.000000 0.050641
#
#
# Mechanical properties :
#
#
# Convention : Reuss Voigt Hill
#
# Bulk Modulus (GPa) = 47.53952 74.03636 60.78794
# Shear Modulus (GPa) = 23.52850 29.20650 26.36750
#
# Velocity S-wave (km/s) = 3.61618 4.02895 3.82813
# Velocity P-wave (km/s) = 6.62248 7.92410 7.30235
#
# Compressibility (1/GPa) = 0.02103513
#
# Stress axis : x y z
#
# Youngs Moduli (GPa) = 30.01680 61.10156 106.31923
#
# Poissons Ratio (x) = 0.40621 0.97933
# Poissons Ratio (y) = 0.19956 0.33664
# Poissons Ratio (z) = 0.27649 0.19347
#
# Static dielectric constant tensor:
#      x y z
#    x 2.954180 0.000000 0.000000 
#    y 0.000000 3.409280 0.000000 
#    z 0.000000 0.000000 3.811410 
# 
# 
# High freq. dielectric constant tensor:
#      x y z
#    x 1.654650 0.000000 0.000000 
#    y 0.000000 1.701390 0.000000 
#    z 0.000000 0.000000 1.718250 
# 
# From -- ./inp_files/30992.got.cif
#   From: 2010.03.12/outbox.cif.g09.slc.cpg/sg62_16_cif.got.tgz:30992.got - 2010.04.10 19:12:36.
