data_PCOD8252139
_publ_section_title
;
Structure prediction by ZEFSAII (Michael W. Deem and Ramdas Pophale) SiO2 
 PCOD8252139
Probable space group: P N M A
;
_chemical_formula_sum "Si O2"
_cell_formula_units_Z 64
_cell_length_a 17.622580
_cell_length_b 18.642126
_cell_length_c 9.820673
_cell_angle_alpha 90.000000
_cell_angle_beta 90.000000
_cell_angle_gamma 90.000000
_cell_volume 3226.310639
_symmetry_space_group_name_H-M "P N M A"
_symmetry_group_IT_number 62
_symmetry_cell_setting 'orthorhombic'
loop_
_space_group_symop_operation_xyz
x,y,z
1/2-x,-y,1/2+z
1/2+x,1/2-y,1/2-z
-x,1/2+y,-z
-x,-y,-z
1/2+x,y,1/2-z
1/2-x,1/2+y,1/2+z
x,1/2-y,z
loop_
_atom_site_type_symbol
_atom_site_label
_atom_site_fract_x
_atom_site_fract_y
_atom_site_fract_z
Si Si1 0.720903 0.071763 0.116194
Si Si2 0.511592 0.668819 0.200826
Si Si3 0.858559 0.061906 0.721895
Si Si4 0.645378 0.171124 0.904027
Si Si5 0.738266 0.170627 0.652229
Si Si6 0.328000 0.666645 0.631134
Si Si7 0.387462 0.467396 0.471050
Si Si8 0.033753 0.112584 0.983957
O O1 0.705109 0.120661 0.246385
O O2 0.810597 0.053080 0.109640
O O3 0.669727 0.000199 0.120611
O O4 0.694970 0.112724 0.981614
O O5 0.544360 0.750000 0.181883
O O6 0.569307 0.604802 0.163224
O O7 0.444377 0.656216 0.091345
O O8 0.485235 0.663729 0.357694
O O9 0.794503 0.121313 0.736193
O O10 0.872768 0.026659 0.867770
O O11 0.663705 0.250000 0.966250
O O12 0.662569 0.171321 0.742681
O O13 0.773648 0.250000 0.640851
O O14 0.718914 0.141848 0.502136
O O15 0.316312 0.750000 0.664989
O O16 0.417036 0.652909 0.599919
O O17 0.454181 0.409660 0.443663
O O18 0.419073 0.544476 0.424545
#
# Coordination Sequence:
#
# PCOD8252139 Si02
#       8
#     8   8   8   8   8   8   8   8
#     4  12  24  38  59  93 129 163 195 254 317 367
#     4  10  21  39  64  91 117 156 210 258 299 360
#     4  11  22  37  61  91 121 157 203 261 302 360
#     4  10  21  39  61  85 119 161 205 249 303 366
#     4  10  20  37  61  87 117 159 209 254 297 359
#     4  11  22  39  61  89 124 167 209 247 307 370
#     4  10  22  38  60  90 126 156 205 256 306 365
#     4  10  19  39  62  88 117 160 208 259 298 357
#
# _framework density 19.8369
#
# number of rings (size 3 to 8) (size 9 to 14) (size 15 to 20)
#    0.000    1.500    3.750    1.875    0.000    0.500 
#    0.000    3.125    0.000    1.500    0.000    0.000 
#    0.000    0.000    0.000    0.000    0.000    0.000 
#
# Total GULP energy -793328.525309 kJ/mol
# GULP energy per Si atom -12395.758208 kJ/mol
# Density = 1.979175 g / cm^3
# Si number density = 19.836900 Si / 1000 Ang^3
#
#
#
# Elastic Constant Matrix: (Units=GPa)
#
#
# Indices 1 2 3 4 5 6 
#
# 1 121.5079 50.1511 29.1690 0.0000 0.0000 0.0000
# 2 50.1511 92.7162 31.6075 0.0000 0.0000 0.0000
# 3 29.1690 31.6075 60.5467 0.0000 0.0000 0.0000
# 4 0.0000 0.0000 0.0000 26.0569 0.0000 0.0000
# 5 0.0000 0.0000 0.0000 0.0000 31.3029 0.0000
# 6 0.0000 0.0000 0.0000 0.0000 0.0000 30.4182
#
#
#
# Elastic Compliance Matrix: (Units=1/GPa)
#
#
# Indices 1 2 3 4 5 6 
#
# 1 0.010935 -0.005010 -0.002652 0.000000 0.000000 0.000000
# 2 -0.005010 0.015417 -0.005634 0.000000 0.000000 0.000000
# 3 -0.002652 -0.005634 0.020735 0.000000 0.000000 0.000000
# 4 0.000000 0.000000 0.000000 0.038378 0.000000 0.000000
# 5 0.000000 0.000000 0.000000 0.000000 0.031946 0.000000
# 6 0.000000 0.000000 0.000000 0.000000 0.000000 0.032875
#
#
# Mechanical properties :
#
#
# Convention : Reuss Voigt Hill
#
# Bulk Modulus (GPa) = 48.79806 55.18068 51.98937
# Shear Modulus (GPa) = 27.21691 28.47848 27.84770
#
# Velocity S-wave (km/s) = 3.70812 3.79308 3.75084
# Velocity P-wave (km/s) = 6.55641 6.86009 6.70997
#
# Compressibility (1/GPa) = 0.02049262
#
# Stress axis : x y z
#
# Youngs Moduli (GPa) = 91.45260 64.86546 48.22738
#
# Poissons Ratio (x) = 0.32501 0.12791
# Poissons Ratio (y) = 0.45822 0.27172
# Poissons Ratio (z) = 0.24255 0.36546
#
# Static dielectric constant tensor:
#      x y z
#    x 3.736790 0.000000 0.000000 
#    y 0.000000 3.775540 0.000000 
#    z 0.000000 0.000000 3.231330 
# 
# 
# High freq. dielectric constant tensor:
#      x y z
#    x 1.778230 0.000000 0.000000 
#    y 0.000000 1.788870 0.000000 
#    z 0.000000 0.000000 1.742580 
# 
# From -- ./inp_files/8090.got.cif
#   From: 2010.03.12/outbox.cif.g09.slc.cpg/sg62_5_cif.got.tgz:8090.got - 2010.04.10 19:12:36.
