data_PCOD8252629
_publ_section_title
;
Structure prediction by ZEFSAII (Michael W. Deem and Ramdas Pophale) SiO2 
 PCOD8252629
Probable space group: P N M A
;
_chemical_formula_sum "Si O2"
_cell_formula_units_Z 64
_cell_length_a 26.064481
_cell_length_b 8.843028
_cell_length_c 14.757989
_cell_angle_alpha 90.000000
_cell_angle_beta 90.000000
_cell_angle_gamma 90.000000
_cell_volume 3401.553172
_symmetry_space_group_name_H-M "P N M A"
_symmetry_group_IT_number 62
_symmetry_cell_setting 'orthorhombic'
loop_
_space_group_symop_operation_xyz
x,y,z
1/2-x,-y,1/2+z
1/2+x,1/2-y,1/2-z
-x,1/2+y,-z
-x,-y,-z
1/2+x,y,1/2-z
1/2-x,1/2+y,1/2+z
x,1/2-y,z
loop_
_atom_site_type_symbol
_atom_site_label
_atom_site_fract_x
_atom_site_fract_y
_atom_site_fract_z
Si Si1 0.213832 0.573477 0.994173
Si Si2 0.499447 0.926778 0.097769
Si Si3 0.871617 0.073925 0.869784
Si Si4 0.109621 0.926184 0.335198
Si Si5 0.827658 0.929148 0.506649
Si Si6 0.370125 0.070397 0.354646
Si Si7 0.609530 0.428727 0.832356
Si Si8 0.555114 0.071365 0.508774
O O1 0.221550 0.750000 0.982201
O O2 0.184346 0.537663 0.088247
O O3 0.270324 0.498826 0.996214
O O4 0.180537 0.513875 0.908848
O O5 0.496320 0.750000 0.080487
O O6 0.550043 0.973267 0.153799
O O7 0.449712 0.978723 0.154775
O O8 0.500000 0.000000 0.000000
O O9 0.885905 0.250000 0.885011
O O10 0.871432 0.030620 0.764759
O O11 0.913409 0.971901 0.919358
O O12 0.116867 0.750000 0.355643
O O13 0.144656 0.018871 0.402835
O O14 0.825982 0.750000 0.506571
O O15 0.859024 0.985879 0.419575
O O16 0.375889 0.250000 0.360250
O O17 0.365922 0.015647 0.251991
O O18 0.419523 0.995058 0.400568
O O19 0.614865 0.250000 0.816887
O O20 0.551068 0.250000 0.518346
O O21 0.500000 0.000000 0.500000
#
# Coordination Sequence:
#
# PCOD8252629 Si02
#       8
#     8   8   8   8   8   8   8   8
#     4   8  17  36  58  78 107 144 186 234 284 331
#     4  10  20  35  53  78 111 147 183 228 280 328
#     4   9  19  37  57  79 109 146 184 229 283 332
#     4  10  21  35  55  83 113 145 184 230 279 331
#     4  10  20  36  57  79 108 149 191 233 279 332
#     4  10  21  38  58  82 112 148 186 230 284 333
#     4  10  21  35  54  83 114 147 187 231 278 333
#     4  11  22  37  57  83 113 146 186 229 274 329
#
# _framework density 18.814935999999999
#
# number of rings (size 3 to 8) (size 9 to 14) (size 15 to 20)
#    0.000    2.250    1.250    2.250    1.750    2.500 
#    0.000    4.375    0.000    0.000    0.000    0.000 
#    0.000    0.000    0.000    0.000    0.000    0.000 
#
# Total GULP energy -793634.710721 kJ/mol
# GULP energy per Si atom -12400.542355 kJ/mol
# Density = 1.877211 g / cm^3
# Si number density = 18.814936 Si / 1000 Ang^3
#
#
#
# Elastic Constant Matrix: (Units=GPa)
#
#
# Indices 1 2 3 4 5 6 
#
# 1 152.7975 27.6694 62.6519 0.0000 0.0000 0.0000
# 2 27.6694 50.4078 30.6858 0.0000 0.0000 0.0000
# 3 62.6519 30.6858 148.4811 0.0000 0.0000 0.0000
# 4 0.0000 0.0000 0.0000 32.8133 0.0000 0.0000
# 5 0.0000 0.0000 0.0000 0.0000 13.9545 0.0000
# 6 0.0000 0.0000 0.0000 0.0000 0.0000 21.5232
#
#
#
# Elastic Compliance Matrix: (Units=1/GPa)
#
#
# Indices 1 2 3 4 5 6 
#
# 1 0.008234 -0.002751 -0.002906 0.000000 0.000000 0.000000
# 2 -0.002751 0.023612 -0.003719 0.000000 0.000000 0.000000
# 3 -0.002906 -0.003719 0.008730 0.000000 0.000000 0.000000
# 4 0.000000 0.000000 0.000000 0.030475 0.000000 0.000000
# 5 0.000000 0.000000 0.000000 0.000000 0.071661 0.000000
# 6 0.000000 0.000000 0.000000 0.000000 0.000000 0.046462
#
#
# Mechanical properties :
#
#
# Convention : Reuss Voigt Hill
#
# Bulk Modulus (GPa) = 45.82050 65.96673 55.89362
# Shear Modulus (GPa) = 23.23410 29.03683 26.13547
#
# Velocity S-wave (km/s) = 3.51789 3.93273 3.73108
# Velocity P-wave (km/s) = 6.39585 7.46718 6.95218
#
# Compressibility (1/GPa) = 0.02182429
#
# Stress axis : x y z
#
# Youngs Moduli (GPa) = 121.44335 42.35100 114.55232
#
# Poissons Ratio (x) = 0.11650 0.33288
# Poissons Ratio (y) = 0.33408 0.42603
# Poissons Ratio (z) = 0.35291 0.15751
#
# Static dielectric constant tensor:
#      x y z
#    x 3.748000 0.000000 0.000000 
#    y 0.000000 3.240200 0.000000 
#    z 0.000000 0.000000 3.558940 
# 
# 
# High freq. dielectric constant tensor:
#      x y z
#    x 1.739760 0.000000 0.000000 
#    y 0.000000 1.712510 0.000000 
#    z 0.000000 0.000000 1.736020 
# 
# From -- ./inp_files/20939.got.cif
#   From: 2010.03.12/outbox.cif.g09.slc.cpg/sg62_11_cif.got.tgz:20939.got - 2010.04.10 19:12:36.
