data_PCOD8252054
_publ_section_title
;
Structure prediction by ZEFSAII (Michael W. Deem and Ramdas Pophale) SiO2 
 PCOD8252054
Probable space group: P N M A
;
_chemical_formula_sum "Si O2"
_cell_formula_units_Z 48
_cell_length_a 14.250973
_cell_length_b 9.064330
_cell_length_c 20.288467
_cell_angle_alpha 90.000000
_cell_angle_beta 90.000000
_cell_angle_gamma 90.000000
_cell_volume 2620.773317
_symmetry_space_group_name_H-M "P N M A"
_symmetry_group_IT_number 62
_symmetry_cell_setting 'orthorhombic'
loop_
_space_group_symop_operation_xyz
x,y,z
1/2-x,-y,1/2+z
1/2+x,1/2-y,1/2-z
-x,1/2+y,-z
-x,-y,-z
1/2+x,y,1/2-z
1/2-x,1/2+y,1/2+z
x,1/2-y,z
loop_
_atom_site_type_symbol
_atom_site_label
_atom_site_fract_x
_atom_site_fract_y
_atom_site_fract_z
Si Si1 0.698658 0.579651 0.061751
Si Si2 0.188122 0.420788 0.570911
Si Si3 0.009705 0.577142 0.371000
Si Si4 0.494327 0.575106 0.731444
Si Si5 0.807151 0.423084 0.803744
Si Si6 0.173060 0.420024 0.816360
O O1 0.683983 0.750000 0.046199
O O2 0.601889 0.516911 0.092184
O O3 0.783455 0.552205 0.111922
O O4 0.724810 0.501529 0.993881
O O5 0.206024 0.250000 0.559699
O O6 0.078500 0.454339 0.582082
O O7 0.246695 0.475879 0.633808
O O8 0.018760 0.750000 0.352851
O O9 0.995721 0.488928 0.304205
O O10 0.490286 0.750000 0.734591
O O11 0.402497 0.514713 0.695137
O O12 0.583493 0.524667 0.688879
O O13 0.830541 0.250000 0.806113
O O14 0.750362 0.462841 0.737868
O O15 0.142530 0.250000 0.806464
#
# Coordination Sequence:
#
# PCOD8252054 Si02
#       6
#     8   8   8   8   8   8
#     4  10  21  36  59  86 116 153 189 235 285 339
#     4  10  21  36  59  86 116 153 189 235 285 339
#     4  10  19  37  59  83 117 157 194 223 278 356
#     4  12  24  35  56  91 121 145 185 249 296 324
#     4  10  20  39  63  82 110 155 199 232 276 347
#     4  10  20  39  63  82 110 155 199 232 276 347
#
# _framework density 18.315204000000001
#
# number of rings (size 3 to 8) (size 9 to 14) (size 15 to 20)
#    0.000    1.667    3.333    2.000    0.000    3.333 
#    0.000    0.833    0.000    0.000    0.000    0.000 
#    0.000    0.000    0.000    0.000    0.000    0.000 
#
# Total GULP energy -595427.367328 kJ/mol
# GULP energy per Si atom -12404.736819 kJ/mol
# Density = 1.827352 g / cm^3
# Si number density = 18.315204 Si / 1000 Ang^3
#
#
#
# Elastic Constant Matrix: (Units=GPa)
#
#
# Indices 1 2 3 4 5 6 
#
# 1 79.7426 40.2957 17.6514 0.0000 0.0000 0.0000
# 2 40.2957 65.8194 32.3321 0.0000 0.0000 0.0000
# 3 17.6514 32.3321 89.3106 0.0000 0.0000 0.0000
# 4 0.0000 0.0000 0.0000 32.3713 0.0000 0.0000
# 5 0.0000 0.0000 0.0000 0.0000 25.0172 0.0000
# 6 0.0000 0.0000 0.0000 0.0000 0.0000 16.7114
#
#
#
# Elastic Compliance Matrix: (Units=1/GPa)
#
#
# Indices 1 2 3 4 5 6 
#
# 1 0.018178 -0.011390 0.000530 0.000000 0.000000 0.000000
# 2 -0.011390 0.025616 -0.007022 0.000000 0.000000 0.000000
# 3 0.000530 -0.007022 0.013634 0.000000 0.000000 0.000000
# 4 0.000000 0.000000 0.000000 0.030892 0.000000 0.000000
# 5 0.000000 0.000000 0.000000 0.000000 0.039973 0.000000
# 6 0.000000 0.000000 0.000000 0.000000 0.000000 0.059839
#
#
# Mechanical properties :
#
#
# Convention : Reuss Voigt Hill
#
# Bulk Modulus (GPa) = 46.15680 46.15897 46.15789
# Shear Modulus (GPa) = 21.63414 24.45953 23.04683
#
# Velocity S-wave (km/s) = 3.44060 3.65838 3.55116
# Velocity P-wave (km/s) = 6.40623 6.56523 6.48622
#
# Compressibility (1/GPa) = 0.02166528
#
# Stress axis : x y z
#
# Youngs Moduli (GPa) = 55.01040 39.03880 73.34488
#
# Poissons Ratio (x) = 0.44464 -0.03891
# Poissons Ratio (y) = 0.62655 0.51505
# Poissons Ratio (z) = -0.02918 0.27414
#
# Static dielectric constant tensor:
#      x y z
#    x 3.485840 0.000000 0.000000 
#    y 0.000000 3.226390 0.000000 
#    z 0.000000 0.000000 3.323350 
# 
# 
# High freq. dielectric constant tensor:
#      x y z
#    x 1.714140 0.000000 0.000000 
#    y 0.000000 1.696870 0.000000 
#    z 0.000000 0.000000 1.709650 
# 
# From -- ./inp_files/23635.got.cif
#   From: 2010.03.12/outbox.cif.g09.slc.cpg/sg62_12_cif.got.tgz:23635.got - 2010.04.10 19:12:36.
