data_PCOD8252079
_publ_section_title
;
Structure prediction by ZEFSAII (Michael W. Deem and Ramdas Pophale) SiO2 
 PCOD8252079
Probable space group: P N M A
;
_chemical_formula_sum "Si O2"
_cell_formula_units_Z 64
_cell_length_a 24.454500
_cell_length_b 8.807294
_cell_length_c 15.403192
_cell_angle_alpha 90.000000
_cell_angle_beta 90.000000
_cell_angle_gamma 90.000000
_cell_volume 3317.508242
_symmetry_space_group_name_H-M "P N M A"
_symmetry_group_IT_number 62
_symmetry_cell_setting 'orthorhombic'
loop_
_space_group_symop_operation_xyz
x,y,z
1/2-x,-y,1/2+z
1/2+x,1/2-y,1/2-z
-x,1/2+y,-z
-x,-y,-z
1/2+x,y,1/2-z
1/2-x,1/2+y,1/2+z
x,1/2-y,z
loop_
_atom_site_type_symbol
_atom_site_label
_atom_site_fract_x
_atom_site_fract_y
_atom_site_fract_z
Si Si1 0.942270 0.069534 0.248259
Si Si2 0.366151 0.919537 0.649009
Si Si3 0.682387 0.569365 0.749084
Si Si4 0.872065 0.580803 0.649031
Si Si5 0.513827 0.068534 0.091329
Si Si6 0.242441 0.068955 0.407324
Si Si7 0.756521 0.427947 0.896190
Si Si8 0.016401 0.069925 0.090203
O O1 0.942556 0.250000 0.245700
O O2 0.879916 0.008750 0.245996
O O3 0.970791 0.010622 0.336490
O O4 0.976309 0.006521 0.165690
O O5 0.350153 0.750000 0.615861
O O6 0.379346 0.911870 0.749259
O O7 0.421031 0.981142 0.604251
O O8 0.317709 0.036892 0.633573
O O9 0.684561 0.750000 0.754107
O O10 0.712164 0.509224 0.661298
O O11 0.712144 0.508862 0.835370
O O12 0.869181 0.750000 0.609849
O O13 0.816007 0.497628 0.621307
O O14 0.926108 0.500443 0.611998
O O15 0.514113 0.250000 0.089505
O O16 0.500000 0.000000 0.000000
O O17 0.242285 0.250000 0.401805
O O18 0.253036 0.011832 0.504831
O O19 0.745466 0.250000 0.890931
O O20 0.012109 0.250000 0.087360
O O21 0.000000 0.000000 0.000000
#
# Coordination Sequence:
#
# PCOD8252079 Si02
#       8
#     8   8   8   8   8   8   8   8
#     4   9  19  36  58  82 110 147 191 226 264 330
#     4  10  19  37  62  81 105 148 196 229 270 337
#     4  10  20  38  60  78 107 153 191 220 265 336
#     4   9  16  33  59  77  98 141 192 225 253 319
#     4  10  20  35  56  82 109 142 183 228 271 321
#     4   9  19  34  55  79 103 143 190 220 264 332
#     4  11  23  36  55  87 116 140 180 239 289 323
#     4  10  21  37  59  86 113 148 190 234 278 330
#
# _framework density 19.291587
#
# number of rings (size 3 to 8) (size 9 to 14) (size 15 to 20)
#    0.000    2.250    2.500    0.375    3.500    0.500 
#    0.000    3.125    0.000    0.000    0.000    0.000 
#    0.000    0.000    0.000    0.000    0.000    0.000 
#
# Total GULP energy -793355.517996 kJ/mol
# GULP energy per Si atom -12396.179969 kJ/mol
# Density = 1.924768 g / cm^3
# Si number density = 19.291587 Si / 1000 Ang^3
#
#
#
# Elastic Constant Matrix: (Units=GPa)
#
#
# Indices 1 2 3 4 5 6 
#
# 1 161.2682 19.3706 64.9277 0.0000 0.0000 0.0000
# 2 19.3706 17.5952 16.1104 0.0000 0.0000 0.0000
# 3 64.9277 16.1104 138.0421 0.0000 0.0000 0.0000
# 4 0.0000 0.0000 0.0000 27.1639 0.0000 0.0000
# 5 0.0000 0.0000 0.0000 0.0000 37.1946 0.0000
# 6 0.0000 0.0000 0.0000 0.0000 0.0000 11.0468
#
#
#
# Elastic Compliance Matrix: (Units=1/GPa)
#
#
# Indices 1 2 3 4 5 6 
#
# 1 0.008205 -0.006157 -0.003141 0.000000 0.000000 0.000000
# 2 -0.006157 0.068254 -0.005070 0.000000 0.000000 0.000000
# 3 -0.003141 -0.005070 0.009313 0.000000 0.000000 0.000000
# 4 0.000000 0.000000 0.000000 0.036814 0.000000 0.000000
# 5 0.000000 0.000000 0.000000 0.000000 0.026886 0.000000
# 6 0.000000 0.000000 0.000000 0.000000 0.000000 0.090524
#
#
# Mechanical properties :
#
#
# Convention : Reuss Voigt Hill
#
# Bulk Modulus (GPa) = 17.53246 57.52474 37.52860
# Shear Modulus (GPa) = 17.37670 29.51418 23.44544
#
# Velocity S-wave (km/s) = 3.00449 3.91564 3.48992
# Velocity P-wave (km/s) = 4.59824 7.09410 5.97788
#
# Compressibility (1/GPa) = 0.05703705
#
# Stress axis : x y z
#
# Youngs Moduli (GPa) = 121.87961 14.65116 107.37720
#
# Poissons Ratio (x) = 0.09021 0.33722
# Poissons Ratio (y) = 0.75044 0.54436
# Poissons Ratio (z) = 0.38277 0.07428
#
# Static dielectric constant tensor:
#      x y z
#    x 3.565000 0.000000 0.000000 
#    y 0.000000 2.597180 0.000000 
#    z 0.000000 0.000000 3.557890 
# 
# 
# High freq. dielectric constant tensor:
#      x y z
#    x 1.771550 0.000000 0.000000 
#    y 0.000000 1.699110 0.000000 
#    z 0.000000 0.000000 1.760780 
# 
# From -- ./inp_files/20902.got.cif
#   From: 2010.03.12/outbox.cif.g09.slc.cpg/sg62_11_cif.got.tgz:20902.got - 2010.04.10 19:12:36.
