data_PCOD8252305
_publ_section_title
;
Structure prediction by ZEFSAII (Michael W. Deem and Ramdas Pophale) SiO2 
 PCOD8252305
Probable space group: P N M A
;
_chemical_formula_sum "Si O2"
_cell_formula_units_Z 48
_cell_length_a 9.590180
_cell_length_b 8.828726
_cell_length_c 31.064274
_cell_angle_alpha 90.000000
_cell_angle_beta 90.000000
_cell_angle_gamma 90.000000
_cell_volume 2630.183237
_symmetry_space_group_name_H-M "P N M A"
_symmetry_group_IT_number 62
_symmetry_cell_setting 'orthorhombic'
loop_
_space_group_symop_operation_xyz
x,y,z
1/2-x,-y,1/2+z
1/2+x,1/2-y,1/2-z
-x,1/2+y,-z
-x,-y,-z
1/2+x,y,1/2-z
1/2-x,1/2+y,1/2+z
x,1/2-y,z
loop_
_atom_site_type_symbol
_atom_site_label
_atom_site_fract_x
_atom_site_fract_y
_atom_site_fract_z
Si Si1 0.084403 0.079620 0.874609
Si Si2 0.087678 0.929202 0.961903
Si Si3 0.591394 0.425956 0.036539
Si Si4 0.100085 0.569578 0.787002
Si Si5 0.915321 0.416955 0.621341
Si Si6 0.597235 0.930119 0.215902
O O1 0.022728 0.250000 0.872736
O O2 0.249702 0.084585 0.875733
O O3 0.028112 0.995619 0.917189
O O4 0.037216 0.986569 0.832562
O O5 0.069928 0.750000 0.961252
O O6 0.248460 0.977525 0.968543
O O7 0.000000 0.000000 0.000000
O O8 0.574470 0.250000 0.031324
O O9 0.533427 0.471125 0.083807
O O10 0.500000 0.500000 0.000000
O O11 0.098256 0.750000 0.785662
O O12 0.254554 0.509628 0.778828
O O13 0.005548 0.500785 0.750032
O O14 0.971398 0.250000 0.609526
O O15 0.968681 0.466439 0.668627
O O16 0.615425 0.750000 0.222110
#
# Coordination Sequence:
#
# PCOD8252305 Si02
#       6
#     8   8   8   8   8   8
#     4   9  17  32  53  75 101 137 174 209 254 312
#     4  10  20  34  53  78 104 134 172 214 258 306
#     4  10  20  33  52  76 103 133 168 208 252 301
#     4  11  21  34  54  81 109 137 173 219 263 308
#     4   8  16  31  52  74  98 131 171 208 248 301
#     4  10  20  36  56  78 105 140 177 214 259 314
#
# _framework density 18.249680000000001
#
# number of rings (size 3 to 8) (size 9 to 14) (size 15 to 20)
#    0.000    2.333    0.000    4.500    0.000    6.667 
#    0.000    1.667    0.000    6.000    0.000    0.000 
#    0.000    0.000    0.000    0.000    0.000    0.000 
#
# Total GULP energy -595089.765769 kJ/mol
# GULP energy per Si atom -12397.703454 kJ/mol
# Density = 1.820814 g / cm^3
# Si number density = 18.249680 Si / 1000 Ang^3
#
#
#
# Elastic Constant Matrix: (Units=GPa)
#
#
# Indices 1 2 3 4 5 6 
#
# 1 53.6271 50.8370 62.6972 0.0000 0.0000 0.0000
# 2 50.8370 135.2806 85.2093 0.0000 0.0000 0.0000
# 3 62.6972 85.2093 188.9463 0.0000 0.0000 0.0000
# 4 0.0000 0.0000 0.0000 40.2501 0.0000 0.0000
# 5 0.0000 0.0000 0.0000 0.0000 32.6855 0.0000
# 6 0.0000 0.0000 0.0000 0.0000 0.0000 26.1068
#
#
#
# Elastic Compliance Matrix: (Units=1/GPa)
#
#
# Indices 1 2 3 4 5 6 
#
# 1 0.036276 -0.008451 -0.008226 0.000000 0.000000 0.000000
# 2 -0.008451 0.012293 -0.002740 0.000000 0.000000 0.000000
# 3 -0.008226 -0.002740 0.009258 0.000000 0.000000 0.000000
# 4 0.000000 0.000000 0.000000 0.024845 0.000000 0.000000
# 5 0.000000 0.000000 0.000000 0.000000 0.030595 0.000000
# 6 0.000000 0.000000 0.000000 0.000000 0.000000 0.038304
#
#
# Mechanical properties :
#
#
# Convention : Reuss Voigt Hill
#
# Bulk Modulus (GPa) = 52.64928 86.14900 69.39914
# Shear Modulus (GPa) = 25.41487 31.74917 28.58202
#
# Velocity S-wave (km/s) = 3.73583 4.17551 3.96177
# Velocity P-wave (km/s) = 6.89352 8.39969 7.68360
#
# Compressibility (1/GPa) = 0.01899361
#
# Stress axis : x y z
#
# Youngs Moduli (GPa) = 27.56657 81.34418 108.01699
#
# Poissons Ratio (x) = 0.68741 0.88858
# Poissons Ratio (y) = 0.23295 0.29595
# Poissons Ratio (z) = 0.22677 0.22287
#
# Static dielectric constant tensor:
#      x y z
#    x 3.015240 0.000000 0.000000 
#    y 0.000000 3.574220 0.000000 
#    z 0.000000 0.000000 3.790710 
# 
# 
# High freq. dielectric constant tensor:
#      x y z
#    x 1.663070 0.000000 0.000000 
#    y 0.000000 1.722470 0.000000 
#    z 0.000000 0.000000 1.728560 
# 
# From -- ./inp_files/30993.got.cif
#   From: 2010.03.12/outbox.cif.g09.slc.cpg/sg62_16_cif.got.tgz:30993.got - 2010.04.10 19:12:36.
