data_PCOD8252059
_publ_section_title
;
Structure prediction by ZEFSAII (Michael W. Deem and Ramdas Pophale) SiO2 
 PCOD8252059
Probable space group: P N M A
;
_chemical_formula_sum "Si O2"
_cell_formula_units_Z 48
_cell_length_a 20.272525
_cell_length_b 8.850873
_cell_length_c 14.369754
_cell_angle_alpha 90.000000
_cell_angle_beta 90.000000
_cell_angle_gamma 90.000000
_cell_volume 2578.358410
_symmetry_space_group_name_H-M "P N M A"
_symmetry_group_IT_number 62
_symmetry_cell_setting 'orthorhombic'
loop_
_space_group_symop_operation_xyz
x,y,z
1/2-x,-y,1/2+z
1/2+x,1/2-y,1/2-z
-x,1/2+y,-z
-x,-y,-z
1/2+x,y,1/2-z
1/2-x,1/2+y,1/2+z
x,1/2-y,z
loop_
_atom_site_type_symbol
_atom_site_label
_atom_site_fract_x
_atom_site_fract_y
_atom_site_fract_z
Si Si1 0.423081 0.071680 0.670761
Si Si2 0.703442 0.574458 0.222230
Si Si3 0.325570 0.074744 0.177072
Si Si4 0.567799 0.428797 0.707144
Si Si5 0.736174 0.577385 0.015535
Si Si6 0.872276 0.073796 0.027026
O O1 0.422215 0.250000 0.682373
O O2 0.362770 0.004933 0.731658
O O3 0.492948 0.007208 0.706919
O O4 0.415212 0.027329 0.562742
O O5 0.712022 0.750000 0.248198
O O6 0.766588 0.487949 0.260310
O O7 0.697623 0.549725 0.111688
O O8 0.331818 0.250000 0.199929
O O9 0.314224 0.043117 0.068145
O O10 0.394266 0.995881 0.204229
O O11 0.568765 0.250000 0.713912
O O12 0.604253 0.475035 0.612920
O O13 0.762298 0.750000 0.009678
O O14 0.796549 0.462932 0.004806
O O15 0.879371 0.250000 0.050706
#
# Coordination Sequence:
#
# PCOD8252059 Si02
#       6
#     8   8   8   8   8   8
#     4   9  20  36  56  82 111 147 190 228 275 335
#     4  10  19  37  60  80 106 146 186 228 277 330
#     4  11  22  36  54  83 114 144 184 232 276 326
#     4  11  22  37  55  79 113 153 189 225 277 336
#     4  10  21  35  56  84 113 143 181 227 280 331
#     4  11  20  33  56  86 115 142 180 233 281 332
#
# _framework density 18.616496000000001
#
# number of rings (size 3 to 8) (size 9 to 14) (size 15 to 20)
#    0.000    1.667    3.333    2.000    0.000    0.667 
#    0.000    5.000    0.000    0.000    0.000    0.000 
#    0.000    0.000    0.000    0.000    0.000    0.000 
#
# Total GULP energy -595312.847365 kJ/mol
# GULP energy per Si atom -12402.350987 kJ/mol
# Density = 1.857412 g / cm^3
# Si number density = 18.616496 Si / 1000 Ang^3
#
#
#
# Elastic Constant Matrix: (Units=GPa)
#
#
# Indices 1 2 3 4 5 6 
#
# 1 73.0525 16.9200 7.7715 0.0000 0.0000 0.0000
# 2 16.9200 55.9534 19.3428 0.0000 0.0000 0.0000
# 3 7.7715 19.3428 78.4401 0.0000 0.0000 0.0000
# 4 0.0000 0.0000 0.0000 18.1998 0.0000 0.0000
# 5 0.0000 0.0000 0.0000 0.0000 28.5463 0.0000
# 6 0.0000 0.0000 0.0000 0.0000 0.0000 16.0231
#
#
#
# Elastic Compliance Matrix: (Units=1/GPa)
#
#
# Indices 1 2 3 4 5 6 
#
# 1 0.014731 -0.004318 -0.000395 0.000000 0.000000 0.000000
# 2 -0.004318 0.020803 -0.004702 0.000000 0.000000 0.000000
# 3 -0.000395 -0.004702 0.013947 0.000000 0.000000 0.000000
# 4 0.000000 0.000000 0.000000 0.054946 0.000000 0.000000
# 5 0.000000 0.000000 0.000000 0.000000 0.035031 0.000000
# 6 0.000000 0.000000 0.000000 0.000000 0.000000 0.062410
#
#
# Mechanical properties :
#
#
# Convention : Reuss Voigt Hill
#
# Bulk Modulus (GPa) = 32.62472 32.83494 32.72983
# Shear Modulus (GPa) = 21.65300 23.44794 22.55047
#
# Velocity S-wave (km/s) = 3.41414 3.55283 3.48417
# Velocity P-wave (km/s) = 5.75365 5.87418 5.81422
#
# Compressibility (1/GPa) = 0.03065160
#
# Stress axis : x y z
#
# Youngs Moduli (GPa) = 67.88450 48.06927 71.69897
#
# Poissons Ratio (x) = 0.20757 0.02830
# Poissons Ratio (y) = 0.29313 0.33714
# Poissons Ratio (z) = 0.02679 0.22603
#
# Static dielectric constant tensor:
#      x y z
#    x 3.676270 0.000000 0.000000 
#    y 0.000000 3.335160 0.000000 
#    z 0.000000 0.000000 3.569620 
# 
# 
# High freq. dielectric constant tensor:
#      x y z
#    x 1.717970 0.000000 0.000000 
#    y 0.000000 1.712480 0.000000 
#    z 0.000000 0.000000 1.727110 
# 
# From -- ./inp_files/19611.got.cif
#   From: 2010.03.12/outbox.cif.g09.slc.cpg/sg62_10_cif.got.tgz:19611.got - 2010.04.10 19:12:36.
