data_PCOD8252942
_publ_section_title
;
Structure prediction by ZEFSAII (Michael W. Deem and Ramdas Pophale) SiO2 
 PCOD8252942
Probable space group: P N M A
;
_chemical_formula_sum "Si O2"
_cell_formula_units_Z 48
_cell_length_a 15.686729
_cell_length_b 17.423668
_cell_length_c 8.908801
_cell_angle_alpha 90.000000
_cell_angle_beta 90.000000
_cell_angle_gamma 90.000000
_cell_volume 2434.956680
_symmetry_space_group_name_H-M "P N M A"
_symmetry_group_IT_number 62
_symmetry_cell_setting 'orthorhombic'
loop_
_space_group_symop_operation_xyz
x,y,z
1/2-x,-y,1/2+z
1/2+x,1/2-y,1/2-z
-x,1/2+y,-z
-x,-y,-z
1/2+x,y,1/2-z
1/2-x,1/2+y,1/2+z
x,1/2-y,z
loop_
_atom_site_type_symbol
_atom_site_label
_atom_site_fract_x
_atom_site_fract_y
_atom_site_fract_z
Si Si1 0.436791 0.059483 0.577866
Si Si2 0.656805 0.836795 0.989964
Si Si3 0.310527 0.096328 0.323405
Si Si4 0.810594 0.840412 0.452558
Si Si5 0.780917 0.055581 0.730076
Si Si6 0.512229 0.162815 0.826954
O O1 0.385553 0.102096 0.445530
O O2 0.368772 0.022014 0.696374
O O3 0.494102 0.118698 0.672267
O O4 0.500000 0.000000 0.500000
O O5 0.691681 0.750000 0.020546
O O6 0.710350 0.905381 0.066610
O O7 0.561665 0.843920 0.051271
O O8 0.657769 0.852197 0.813436
O O9 0.220212 0.128524 0.385615
O O10 0.292349 0.008366 0.276672
O O11 0.804406 0.750000 0.451574
O O12 0.745479 0.872943 0.331456
O O13 0.904963 0.870517 0.412514
O O14 0.528672 0.250000 0.777761
#
# Coordination Sequence:
#
# PCOD8252942 Si02
#       6
#     8   8   8   8   8   8
#     4  10  21  36  56  80 109 146 187 228 272 328
#     4  10  20  36  56  81 110 144 181 225 278 330
#     4  11  22  35  56  85 112 141 182 234 277 320
#     4  10  20  37  58  80 107 143 183 225 269 324
#     4  10  21  37  56  79 112 149 185 222 273 336
#     4   9  20  37  57  79 109 147 184 220 274 338
#
# _framework density 19.712876999999999
#
# number of rings (size 3 to 8) (size 9 to 14) (size 15 to 20)
#    0.000    2.000    0.000    4.000    0.000    6.000 
#    0.000    4.167    0.000    5.000    0.000    0.000 
#    0.000    0.000    0.000    0.000    0.000    0.000 
#
# Total GULP energy -594995.485594 kJ/mol
# GULP energy per Si atom -12395.739283 kJ/mol
# Density = 1.966801 g / cm^3
# Si number density = 19.712877 Si / 1000 Ang^3
#
#
#
# Elastic Constant Matrix: (Units=GPa)
#
#
# Indices 1 2 3 4 5 6 
#
# 1 67.4771 33.3519 40.9929 0.0000 0.0000 0.0000
# 2 33.3519 77.5680 46.1657 0.0000 0.0000 0.0000
# 3 40.9929 46.1657 132.0509 0.0000 0.0000 0.0000
# 4 0.0000 0.0000 0.0000 30.3611 0.0000 0.0000
# 5 0.0000 0.0000 0.0000 0.0000 33.9841 0.0000
# 6 0.0000 0.0000 0.0000 0.0000 0.0000 31.6623
#
#
#
# Elastic Compliance Matrix: (Units=1/GPa)
#
#
# Indices 1 2 3 4 5 6 
#
# 1 0.020466 -0.006337 -0.004138 0.000000 0.000000 0.000000
# 2 -0.006337 0.018241 -0.004410 0.000000 0.000000 0.000000
# 3 -0.004138 -0.004410 0.010399 0.000000 0.000000 0.000000
# 4 0.000000 0.000000 0.000000 0.032937 0.000000 0.000000
# 5 0.000000 0.000000 0.000000 0.000000 0.029426 0.000000
# 6 0.000000 0.000000 0.000000 0.000000 0.000000 0.031583
#
#
# Mechanical properties :
#
#
# Convention : Reuss Voigt Hill
#
# Bulk Modulus (GPa) = 51.71557 57.56856 54.64207
# Shear Modulus (GPa) = 27.89133 29.64053 28.76593
#
# Velocity S-wave (km/s) = 3.76557 3.88185 3.82415
# Velocity P-wave (km/s) = 6.72290 7.02557 6.87590
#
# Compressibility (1/GPa) = 0.01933653
#
# Stress axis : x y z
#
# Youngs Moduli (GPa) = 48.86206 54.82053 96.16193
#
# Poissons Ratio (x) = 0.34740 0.39790
# Poissons Ratio (y) = 0.30964 0.42408
# Poissons Ratio (z) = 0.20218 0.24176
#
# Static dielectric constant tensor:
#      x y z
#    x 3.728710 0.000000 0.000000 
#    y 0.000000 3.544310 0.000000 
#    z 0.000000 0.000000 3.665970 
# 
# 
# High freq. dielectric constant tensor:
#      x y z
#    x 1.766920 0.000000 0.000000 
#    y 0.000000 1.764280 0.000000 
#    z 0.000000 0.000000 1.774920 
# 
# From -- ./inp_files/6508.got.cif
#   From: 2010.03.12/outbox.cif.g09.slc.cpg/sg62_4_cif.got.tgz:6508.got - 2010.04.10 19:12:36.
