data_PCOD8252634
_publ_section_title
;
Structure prediction by ZEFSAII (Michael W. Deem and Ramdas Pophale) SiO2 
 PCOD8252634
Probable space group: P N M A
;
_chemical_formula_sum "Si O2"
_cell_formula_units_Z 40
_cell_length_a 12.395525
_cell_length_b 9.134076
_cell_length_c 21.146541
_cell_angle_alpha 90.000000
_cell_angle_beta 90.000000
_cell_angle_gamma 90.000000
_cell_volume 2394.246632
_symmetry_space_group_name_H-M "P N M A"
_symmetry_group_IT_number 62
_symmetry_cell_setting 'orthorhombic'
loop_
_space_group_symop_operation_xyz
x,y,z
1/2-x,-y,1/2+z
1/2+x,1/2-y,1/2-z
-x,1/2+y,-z
-x,-y,-z
1/2+x,y,1/2-z
1/2-x,1/2+y,1/2+z
x,1/2-y,z
loop_
_atom_site_type_symbol
_atom_site_label
_atom_site_fract_x
_atom_site_fract_y
_atom_site_fract_z
Si Si1 0.312218 0.080111 0.839002
Si Si2 0.996759 0.421012 0.566160
Si Si3 0.164697 0.080235 0.669666
Si Si4 0.100097 0.583461 0.200981
Si Si5 0.109422 0.576789 0.797538
O O1 0.280014 0.250000 0.842975
O O2 0.389364 0.031654 0.896205
O O3 0.374693 0.048444 0.774013
O O4 0.203488 0.984905 0.842791
O O5 0.995903 0.250000 0.553144
O O6 0.000000 0.500000 0.500000
O O7 0.102729 0.465773 0.606122
O O8 0.141015 0.250000 0.687244
O O9 0.292380 0.054922 0.659418
O O10 0.121785 0.982555 0.726729
O O11 0.060499 0.750000 0.193404
O O12 0.006268 0.476729 0.175969
O O13 0.114443 0.750000 0.797770
#
# Coordination Sequence:
#
# PCOD8252634 Si02
#       5
#     8   8   8   8   8
#     4   9  18  33  51  69  97 136 173 199 238 305
#     4  10  20  35  54  75 100 133 170 208 246 294
#     4   9  18  34  51  69  97 135 173 199 238 304
#     4   9  16  30  52  71  95 131 167 202 241 301
#     4  11  20  28  46  76 107 128 155 209 261 293
#
# _framework density 16.706717000000001
#
# number of rings (size 3 to 8) (size 9 to 14) (size 15 to 20)
#    0.000    2.400    2.000    3.000    0.000    4.800 
#    0.000    0.000    0.000    1.200    0.000    0.000 
#    0.000    0.000    0.000    0.000    0.000    0.000 
#
# Total GULP energy -495981.623506 kJ/mol
# GULP energy per Si atom -12399.540588 kJ/mol
# Density = 1.666869 g / cm^3
# Si number density = 16.706717 Si / 1000 Ang^3
#
#
#
# Elastic Constant Matrix: (Units=GPa)
#
#
# Indices 1 2 3 4 5 6 
#
# 1 148.7176 70.4774 63.4824 0.0000 0.0000 0.0000
# 2 70.4774 85.8156 37.3558 0.0000 0.0000 0.0000
# 3 63.4824 37.3558 96.9914 0.0000 0.0000 0.0000
# 4 0.0000 0.0000 0.0000 25.0684 0.0000 0.0000
# 5 0.0000 0.0000 0.0000 0.0000 23.2730 0.0000
# 6 0.0000 0.0000 0.0000 0.0000 0.0000 16.9694
#
#
#
# Elastic Compliance Matrix: (Units=1/GPa)
#
#
# Indices 1 2 3 4 5 6 
#
# 1 0.012902 -0.008314 -0.005242 0.000000 0.000000 0.000000
# 2 -0.008314 0.019357 -0.002014 0.000000 0.000000 0.000000
# 3 -0.005242 -0.002014 0.014517 0.000000 0.000000 0.000000
# 4 0.000000 0.000000 0.000000 0.039891 0.000000 0.000000
# 5 0.000000 0.000000 0.000000 0.000000 0.042968 0.000000
# 6 0.000000 0.000000 0.000000 0.000000 0.000000 0.058930
#
#
# Mechanical properties :
#
#
# Convention : Reuss Voigt Hill
#
# Bulk Modulus (GPa) = 63.95474 74.90620 69.43047
# Shear Modulus (GPa) = 22.23036 23.74275 22.98656
#
# Velocity S-wave (km/s) = 3.65173 3.77390 3.71332
# Velocity P-wave (km/s) = 7.49294 7.99519 7.74814
#
# Compressibility (1/GPa) = 0.01563606
#
# Stress axis : x y z
#
# Youngs Moduli (GPa) = 77.50790 51.65978 68.88422
#
# Poissons Ratio (x) = 0.42949 0.36112
# Poissons Ratio (y) = 0.64439 0.13873
# Poissons Ratio (z) = 0.40633 0.10404
#
# Static dielectric constant tensor:
#      x y z
#    x 3.464000 0.000000 0.000000 
#    y 0.000000 3.017180 0.000000 
#    z 0.000000 0.000000 2.789390 
# 
# 
# High freq. dielectric constant tensor:
#      x y z
#    x 1.661570 0.000000 0.000000 
#    y 0.000000 1.636030 0.000000 
#    z 0.000000 0.000000 1.596770 
# 
# From -- ./inp_files/22773.got.cif
#   From: 2010.03.12/outbox.cif.g09.slc.cpg/sg62_12_cif.got.tgz:22773.got - 2010.04.10 19:12:36.
