data_PCOD8252598
_publ_section_title
;
Structure prediction by ZEFSAII (Michael W. Deem and Ramdas Pophale) SiO2 
 PCOD8252598
Probable space group: P N M A
;
_chemical_formula_sum "Si O2"
_cell_formula_units_Z 64
_cell_length_a 21.956504
_cell_length_b 8.886149
_cell_length_c 16.721822
_cell_angle_alpha 90.000000
_cell_angle_beta 90.000000
_cell_angle_gamma 90.000000
_cell_volume 3262.574057
_symmetry_space_group_name_H-M "P N M A"
_symmetry_group_IT_number 62
_symmetry_cell_setting 'orthorhombic'
loop_
_space_group_symop_operation_xyz
x,y,z
1/2-x,-y,1/2+z
1/2+x,1/2-y,1/2-z
-x,1/2+y,-z
-x,-y,-z
1/2+x,y,1/2-z
1/2-x,1/2+y,1/2+z
x,1/2-y,z
loop_
_atom_site_type_symbol
_atom_site_label
_atom_site_fract_x
_atom_site_fract_y
_atom_site_fract_z
Si Si1 0.877184 0.925138 0.930547
Si Si2 0.309832 0.571521 0.956205
Si Si3 0.318914 0.570597 0.410753
Si Si4 0.707996 0.916879 0.318348
Si Si5 0.340633 0.579518 0.134742
Si Si6 0.605414 0.574385 0.725253
Si Si7 0.532590 0.072527 0.299492
Si Si8 0.879894 0.076436 0.677793
O O1 0.885751 0.750000 0.936633
O O2 0.935730 0.989863 0.881720
O O3 0.816678 0.961379 0.880493
O O4 0.866602 0.986671 0.020331
O O5 0.301792 0.750000 0.951005
O O6 0.247473 0.495452 0.928083
O O7 0.366567 0.516647 0.902537
O O8 0.326870 0.519642 0.045912
O O9 0.312886 0.750000 0.408974
O O10 0.345249 0.513395 0.327333
O O11 0.689789 0.750000 0.349933
O O12 0.779954 0.932155 0.311757
O O13 0.680664 0.943690 0.230957
O O14 0.365309 0.750000 0.131087
O O15 0.389304 0.476827 0.181858
O O16 0.618486 0.750000 0.718401
O O17 0.538132 0.532409 0.694836
O O18 0.543814 0.250000 0.288785
O O19 0.561549 0.990234 0.222975
O O20 0.892782 0.250000 0.656903
#
# Coordination Sequence:
#
# PCOD8252598 Si02
#       8
#     8   8   8   8   8   8   8   8
#     4   9  18  33  56  83 112 148 184 228 279 329
#     4  11  22  37  59  87 117 150 185 231 290 346
#     4  11  22  36  57  87 121 151 187 235 286 344
#     4   9  17  32  53  79 110 142 178 222 279 338
#     4  10  21  37  57  81 114 149 185 235 292 345
#     4  11  24  39  58  82 112 154 197 239 288 342
#     4   9  20  40  59  80 113 152 199 243 281 337
#     4  10  20  34  58  87 113 147 188 236 287 340
#
# _framework density 19.616413000000001
#
# number of rings (size 3 to 8) (size 9 to 14) (size 15 to 20)
#    0.000    2.000    1.250    2.250    0.000    5.000 
#    0.000    0.625    0.000    0.000    0.000    0.000 
#    0.000    0.000    0.000    0.000    0.000    0.000 
#
# Total GULP energy -793449.364599 kJ/mol
# GULP energy per Si atom -12397.646322 kJ/mol
# Density = 1.957176 g / cm^3
# Si number density = 19.616413 Si / 1000 Ang^3
#
#
#
# Elastic Constant Matrix: (Units=GPa)
#
#
# Indices 1 2 3 4 5 6 
#
# 1 53.3440 27.4265 39.8206 0.0000 0.0000 0.0000
# 2 27.4265 56.2796 38.7291 0.0000 0.0000 0.0000
# 3 39.8206 38.7291 110.8040 0.0000 0.0000 0.0000
# 4 0.0000 0.0000 0.0000 28.7401 0.0000 0.0000
# 5 0.0000 0.0000 0.0000 0.0000 23.7437 0.0000
# 6 0.0000 0.0000 0.0000 0.0000 0.0000 26.7524
#
#
#
# Elastic Compliance Matrix: (Units=1/GPa)
#
#
# Indices 1 2 3 4 5 6 
#
# 1 0.028765 -0.009091 -0.007160 0.000000 0.000000 0.000000
# 2 -0.009091 0.026269 -0.005915 0.000000 0.000000 0.000000
# 3 -0.007160 -0.005915 0.013665 0.000000 0.000000 0.000000
# 4 0.000000 0.000000 0.000000 0.034795 0.000000 0.000000
# 5 0.000000 0.000000 0.000000 0.000000 0.042116 0.000000
# 6 0.000000 0.000000 0.000000 0.000000 0.000000 0.037380
#
#
# Mechanical properties :
#
#
# Convention : Reuss Voigt Hill
#
# Bulk Modulus (GPa) = 41.03677 48.04224 44.53950
# Shear Modulus (GPa) = 21.23647 23.47733 22.35690
#
# Velocity S-wave (km/s) = 3.29384 3.46326 3.37961
# Velocity P-wave (km/s) = 5.95238 6.36681 6.16308
#
# Compressibility (1/GPa) = 0.02436839
#
# Stress axis : x y z
#
# Youngs Moduli (GPa) = 34.76434 38.06798 73.17709
#
# Poissons Ratio (x) = 0.34606 0.52396
# Poissons Ratio (y) = 0.31603 0.43282
# Poissons Ratio (z) = 0.24892 0.22516
#
# Static dielectric constant tensor:
#      x y z
#    x 3.425860 0.000000 0.000000 
#    y 0.000000 3.543240 0.000000 
#    z 0.000000 0.000000 3.759470 
# 
# 
# High freq. dielectric constant tensor:
#      x y z
#    x 1.746530 0.000000 0.000000 
#    y 0.000000 1.762010 0.000000 
#    z 0.000000 0.000000 1.770040 
# 
# From -- ./inp_files/20798.got.cif
#   From: 2010.03.12/outbox.cif.g09.slc.cpg/sg62_11_cif.got.tgz:20798.got - 2010.04.10 19:12:36.
