data_PCOD8252702
_publ_section_title
;
Structure prediction by ZEFSAII (Michael W. Deem and Ramdas Pophale) SiO2 
 PCOD8252702
Probable space group: P N M A
;
_chemical_formula_sum "Si O2"
_cell_formula_units_Z 64
_cell_length_a 25.646863
_cell_length_b 8.839567
_cell_length_c 14.667805
_cell_angle_alpha 90.000000
_cell_angle_beta 90.000000
_cell_angle_gamma 90.000000
_cell_volume 3325.296471
_symmetry_space_group_name_H-M "P N M A"
_symmetry_group_IT_number 62
_symmetry_cell_setting 'orthorhombic'
loop_
_space_group_symop_operation_xyz
x,y,z
1/2-x,-y,1/2+z
1/2+x,1/2-y,1/2-z
-x,1/2+y,-z
-x,-y,-z
1/2+x,y,1/2-z
1/2-x,1/2+y,1/2+z
x,1/2-y,z
loop_
_atom_site_type_symbol
_atom_site_label
_atom_site_fract_x
_atom_site_fract_y
_atom_site_fract_z
Si Si1 0.217988 0.573041 0.000589
Si Si2 0.499829 0.071221 0.099905
Si Si3 0.869167 0.076127 0.858648
Si Si4 0.103552 0.924388 0.341774
Si Si5 0.828683 0.073195 0.484186
Si Si6 0.358825 0.924805 0.368541
Si Si7 0.603865 0.427922 0.830271
Si Si8 0.554383 0.076881 0.486277
O O1 0.232027 0.750000 0.997597
O O2 0.184117 0.529963 0.090138
O O3 0.269048 0.472367 0.006457
O O4 0.187269 0.528342 0.908599
O O5 0.496466 0.250000 0.089155
O O6 0.551942 0.026101 0.153726
O O7 0.450380 0.014716 0.157078
O O8 0.500000 0.000000 0.000000
O O9 0.881262 0.250000 0.879155
O O10 0.864740 0.042642 0.751181
O O11 0.917905 0.983479 0.895935
O O12 0.085914 0.750000 0.347641
O O13 0.142611 0.967553 0.422150
O O14 0.833479 0.250000 0.460660
O O15 0.854769 0.974234 0.406074
O O16 0.341380 0.750000 0.375006
O O17 0.370532 0.974154 0.265623
O O18 0.411164 0.954606 0.424879
O O19 0.592590 0.250000 0.835402
O O20 0.543275 0.250000 0.469808
O O21 0.500000 0.000000 0.500000
#
# Coordination Sequence:
#
# PCOD8252702 Si02
#       8
#     8   8   8   8   8   8   8   8
#     4  10  21  39  63  89 119 155 197 250 299 349
#     4  12  24  39  60  87 121 158 196 244 299 355
#     4   9  20  39  60  83 114 154 196 242 296 352
#     4  10  22  40  61  85 117 157 200 242 294 356
#     4  11  23  39  61  88 119 158 199 246 298 356
#     4   9  21  40  60  83 116 157 198 242 297 355
#     4  11  23  40  62  88 119 158 201 247 297 355
#     4  10  20  35  55  83 115 152 194 240 292 350
#
# _framework density 19.246403999999998
#
# number of rings (size 3 to 8) (size 9 to 14) (size 15 to 20)
#    0.000    1.750    1.250    2.625    1.750    4.000 
#    0.000    2.500    0.000    0.000    0.000    0.000 
#    0.000    0.000    0.000    0.000    0.000    0.000 
#
# Total GULP energy -793877.076731 kJ/mol
# GULP energy per Si atom -12404.329324 kJ/mol
# Density = 1.920260 g / cm^3
# Si number density = 19.246404 Si / 1000 Ang^3
#
#
#
# Elastic Constant Matrix: (Units=GPa)
#
#
# Indices 1 2 3 4 5 6 
#
# 1 120.8023 47.0033 48.0154 0.0000 0.0000 0.0000
# 2 47.0033 83.7659 43.1681 0.0000 0.0000 0.0000
# 3 48.0154 43.1681 140.9457 0.0000 0.0000 0.0000
# 4 0.0000 0.0000 0.0000 30.6462 0.0000 0.0000
# 5 0.0000 0.0000 0.0000 0.0000 142.8817 0.0000
# 6 0.0000 0.0000 0.0000 0.0000 0.0000 38.5011
#
#
#
# Elastic Compliance Matrix: (Units=1/GPa)
#
#
# Indices 1 2 3 4 5 6 
#
# 1 0.011153 -0.005106 -0.002236 0.000000 0.000000 0.000000
# 2 -0.005106 0.016513 -0.003318 0.000000 0.000000 0.000000
# 3 -0.002236 -0.003318 0.008873 0.000000 0.000000 0.000000
# 4 0.000000 0.000000 0.000000 0.032630 0.000000 0.000000
# 5 0.000000 0.000000 0.000000 0.000000 0.006999 0.000000
# 6 0.000000 0.000000 0.000000 0.000000 0.000000 0.025973
#
#
# Mechanical properties :
#
#
# Convention : Reuss Voigt Hill
#
# Bulk Modulus (GPa) = 65.70567 69.09861 67.40214
# Shear Modulus (GPa) = 38.89983 56.22761 47.56372
#
# Velocity S-wave (km/s) = 4.50060 5.41092 4.97661
# Velocity P-wave (km/s) = 7.82435 8.66126 8.25342
#
# Compressibility (1/GPa) = 0.01521939
#
# Stress axis : x y z
#
# Youngs Moduli (GPa) = 89.65840 60.55732 112.70440
#
# Poissons Ratio (x) = 0.30923 0.25197
# Poissons Ratio (y) = 0.45783 0.37396
# Poissons Ratio (z) = 0.20044 0.20093
#
# Static dielectric constant tensor:
#      x y z
#    x 3.498890 0.000000 0.000000 
#    y 0.000000 3.607270 0.000000 
#    z 0.000000 0.000000 3.321520 
# 
# 
# High freq. dielectric constant tensor:
#      x y z
#    x 1.752040 0.000000 0.000000 
#    y 0.000000 1.755480 0.000000 
#    z 0.000000 0.000000 1.755190 
# 
# From -- ./inp_files/20937.got.cif
#   From: 2010.03.12/outbox.cif.g09.slc.cpg/sg62_11_cif.got.tgz:20937.got - 2010.04.10 19:12:36.
