data_PCOD8252197
_publ_section_title
;
Structure prediction by ZEFSAII (Michael W. Deem and Ramdas Pophale) SiO2 
 PCOD8252197
Probable space group: P N M A
;
_chemical_formula_sum "Si O2"
_cell_formula_units_Z 64
_cell_length_a 20.072502
_cell_length_b 9.107440
_cell_length_c 20.122905
_cell_angle_alpha 90.000000
_cell_angle_beta 90.000000
_cell_angle_gamma 90.000000
_cell_volume 3678.650306
_symmetry_space_group_name_H-M "P N M A"
_symmetry_group_IT_number 62
_symmetry_cell_setting 'orthorhombic'
loop_
_space_group_symop_operation_xyz
x,y,z
1/2-x,-y,1/2+z
1/2+x,1/2-y,1/2-z
-x,1/2+y,-z
-x,-y,-z
1/2+x,y,1/2-z
1/2-x,1/2+y,1/2+z
x,1/2-y,z
loop_
_atom_site_type_symbol
_atom_site_label
_atom_site_fract_x
_atom_site_fract_y
_atom_site_fract_z
Si Si1 0.172485 0.922217 0.830405
Si Si2 0.326791 0.424185 0.180643
Si Si3 0.574606 0.922591 0.931087
Si Si4 0.068984 0.421981 0.923448
Si Si5 0.324431 0.922766 0.822993
Si Si6 0.077748 0.077208 0.434390
Si Si7 0.066349 0.422229 0.076551
Si Si8 0.678893 0.074996 0.324223
O O1 0.158236 0.750000 0.840498
O O2 0.154773 0.973344 0.755424
O O3 0.249407 0.960848 0.844856
O O4 0.129492 0.014734 0.881501
O O5 0.325834 0.250000 0.179248
O O6 0.381765 0.485878 0.129800
O O7 0.253510 0.482257 0.159163
O O8 0.584945 0.750000 0.940362
O O9 0.498115 0.962079 0.915898
O O10 0.599733 0.000513 0.997637
O O11 0.062899 0.250000 0.910838
O O12 0.000449 0.496550 0.900268
O O13 0.083589 0.458452 0.000396
O O14 0.334263 0.750000 0.820667
O O15 0.376070 0.989535 0.876117
O O16 0.340657 0.984382 0.749262
O O17 0.087951 0.250000 0.443510
O O18 0.055100 0.250000 0.087850
O O19 0.126837 0.484506 0.121379
O O20 0.678785 0.250000 0.324452
#
# Coordination Sequence:
#
# PCOD8252197 Si02
#       8
#     8   8   8   8   8   8   8   8
#     4   9  17  31  50  69  90 119 154 189 227 273
#     4   8  15  28  47  71  93 114 149 194 229 260
#     4   9  17  29  46  67  91 120 153 188 222 260
#     4  10  20  32  46  69  99 124 149 188 234 277
#     4   8  15  28  47  70  93 117 150 193 231 265
#     4   9  17  29  44  65  93 121 149 182 223 269
#     4   9  18  32  50  69  90 122 160 193 227 270
#     4   8  14  27  48  71  91 113 150 196 229 258
#
# _framework density 17.397684999999999
#
# number of rings (size 3 to 8) (size 9 to 14) (size 15 to 20)
#    0.000    3.250    0.000    1.875    0.000    2.500 
#    0.000    6.250    0.000    7.500    0.000    0.000 
#    0.000    0.000    0.000    0.000    0.000    0.000 
#
# Total GULP energy -793369.937992 kJ/mol
# GULP energy per Si atom -12396.405281 kJ/mol
# Density = 1.735809 g / cm^3
# Si number density = 17.397685 Si / 1000 Ang^3
#
#
#
# Elastic Constant Matrix: (Units=GPa)
#
#
# Indices 1 2 3 4 5 6 
#
# 1 118.8549 29.4821 93.1261 0.0000 0.0000 0.0000
# 2 29.4821 26.4567 28.7910 0.0000 0.0000 0.0000
# 3 93.1261 28.7910 127.5215 0.0000 0.0000 0.0000
# 4 0.0000 0.0000 0.0000 23.7444 0.0000 0.0000
# 5 0.0000 0.0000 0.0000 0.0000 42.0846 0.0000
# 6 0.0000 0.0000 0.0000 0.0000 0.0000 18.1373
#
#
#
# Elastic Compliance Matrix: (Units=1/GPa)
#
#
# Indices 1 2 3 4 5 6 
#
# 1 0.021158 -0.008966 -0.013427 0.000000 0.000000 0.000000
# 2 -0.008966 0.053909 -0.005624 0.000000 0.000000 0.000000
# 3 -0.013427 -0.005624 0.018917 0.000000 0.000000 0.000000
# 4 0.000000 0.000000 0.000000 0.042115 0.000000 0.000000
# 5 0.000000 0.000000 0.000000 0.000000 0.023762 0.000000
# 6 0.000000 0.000000 0.000000 0.000000 0.000000 0.055135
#
#
# Mechanical properties :
#
#
# Convention : Reuss Voigt Hill
#
# Bulk Modulus (GPa) = 26.35000 63.95907 45.15453
# Shear Modulus (GPa) = 17.62561 24.88887 21.25724
#
# Velocity S-wave (km/s) = 3.18638 3.78641 3.49928
# Velocity P-wave (km/s) = 5.35872 7.48055 6.50671
#
# Compressibility (1/GPa) = 0.03795066
#
# Stress axis : x y z
#
# Youngs Moduli (GPa) = 47.26344 18.54992 52.86286
#
# Poissons Ratio (x) = 0.16632 0.70979
# Poissons Ratio (y) = 0.42376 0.29728
# Poissons Ratio (z) = 0.63460 0.10432
#
# Static dielectric constant tensor:
#      x y z
#    x 3.457260 0.000000 0.000000 
#    y 0.000000 2.836500 0.000000 
#    z 0.000000 0.000000 3.548760 
# 
# 
# High freq. dielectric constant tensor:
#      x y z
#    x 1.677460 0.000000 0.000000 
#    y 0.000000 1.629590 0.000000 
#    z 0.000000 0.000000 1.677580 
# 
# From -- ./inp_files/27957.got.cif
#   From: 2010.03.12/outbox.cif.g09.slc.cpg/sg62_14_cif.got.tgz:27957.got - 2010.04.10 19:12:36.
