data_PCOD8252026
_publ_section_title
;
Structure prediction by ZEFSAII (Michael W. Deem and Ramdas Pophale) SiO2 
 PCOD8252026
Probable space group: P N M A
;
_chemical_formula_sum "Si O2"
_cell_formula_units_Z 56
_cell_length_a 16.363601
_cell_length_b 8.520440
_cell_length_c 19.684725
_cell_angle_alpha 90.000000
_cell_angle_beta 90.000000
_cell_angle_gamma 90.000000
_cell_volume 2744.544368
_symmetry_space_group_name_H-M "P N M A"
_symmetry_group_IT_number 62
_symmetry_cell_setting 'orthorhombic'
loop_
_space_group_symop_operation_xyz
x,y,z
1/2-x,-y,1/2+z
1/2+x,1/2-y,1/2-z
-x,1/2+y,-z
-x,-y,-z
1/2+x,y,1/2-z
1/2-x,1/2+y,1/2+z
x,1/2-y,z
loop_
_atom_site_type_symbol
_atom_site_label
_atom_site_fract_x
_atom_site_fract_y
_atom_site_fract_z
Si Si1 0.791545 0.433767 0.118249
Si Si2 0.727637 0.436393 0.402706
Si Si3 0.480392 0.069682 0.158653
Si Si4 0.591165 0.934180 0.493974
Si Si5 0.323084 0.065135 0.228680
Si Si6 0.379082 0.428871 0.904007
Si Si7 0.386455 0.930541 0.040711
O O1 0.767779 0.250000 0.114611
O O2 0.863380 0.473609 0.065190
O O3 0.812365 0.487525 0.194436
O O4 0.715935 0.544531 0.104175
O O5 0.734249 0.250000 0.410489
O O6 0.637836 0.490733 0.428462
O O7 0.751156 0.488984 0.324560
O O8 0.791055 0.522303 0.452730
O O9 0.498867 0.250000 0.174768
O O10 0.412513 0.996616 0.209259
O O11 0.567009 0.977024 0.162407
O O12 0.441256 0.046962 0.084589
O O13 0.586865 0.750000 0.481599
O O14 0.500000 0.000000 0.500000
O O15 0.328536 0.250000 0.221644
O O16 0.395357 0.250000 0.923155
O O17 0.412336 0.541674 0.963304
O O18 0.400139 0.750000 0.061450
#
# Coordination Sequence:
#
# PCOD8252026 Si02
#       7
#     8   8   8   8   8   8   8
#     4  10  21  41  64  86 114 155 204 248 298 355
#     4  10  19  36  62  89 118 151 195 245 298 358
#     4  10  20  36  57  83 115 152 193 239 288 348
#     4  11  23  39  63  90 121 158 205 256 304 357
#     4   8  18  38  63  87 113 152 200 247 296 358
#     4  12  23  35  54  84 119 153 190 236 294 352
#     4  11  20  33  55  84 117 151 187 231 284 345
#
# _framework density 20.404115999999998
#
# number of rings (size 3 to 8) (size 9 to 14) (size 15 to 20)
#    0.000    1.714    1.429    5.143    0.000    0.571 
#    2.571    4.286    0.000    0.000    0.000    0.000 
#    0.000    0.000    0.000    0.000    0.000    0.000 
#
# Total GULP energy -693957.210058 kJ/mol
# GULP energy per Si atom -12392.093037 kJ/mol
# Density = 2.035768 g / cm^3
# Si number density = 20.404116 Si / 1000 Ang^3
#
#
#
# Elastic Constant Matrix: (Units=GPa)
#
#
# Indices 1 2 3 4 5 6 
#
# 1 106.6497 23.1725 29.1720 0.0000 0.0000 0.0000
# 2 23.1725 74.9684 18.9570 0.0000 0.0000 0.0000
# 3 29.1720 18.9570 103.0676 0.0000 0.0000 0.0000
# 4 0.0000 0.0000 0.0000 20.0279 0.0000 0.0000
# 5 0.0000 0.0000 0.0000 0.0000 9.3577 0.0000
# 6 0.0000 0.0000 0.0000 0.0000 0.0000 34.3371
#
#
#
# Elastic Compliance Matrix: (Units=1/GPa)
#
#
# Indices 1 2 3 4 5 6 
#
# 1 0.010643 -0.002651 -0.002525 0.000000 0.000000 0.000000
# 2 -0.002651 0.014650 -0.001944 0.000000 0.000000 0.000000
# 3 -0.002525 -0.001944 0.010775 0.000000 0.000000 0.000000
# 4 0.000000 0.000000 0.000000 0.049930 0.000000 0.000000
# 5 0.000000 0.000000 0.000000 0.000000 0.106864 0.000000
# 6 0.000000 0.000000 0.000000 0.000000 0.000000 0.029123
#
#
# Mechanical properties :
#
#
# Convention : Reuss Voigt Hill
#
# Bulk Modulus (GPa) = 45.81408 47.47650 46.64529
# Shear Modulus (GPa) = 20.53374 26.97016 23.75195
#
# Velocity S-wave (km/s) = 3.17575 3.63960 3.41556
# Velocity P-wave (km/s) = 5.99577 6.40163 6.20202
#
# Compressibility (1/GPa) = 0.02182735
#
# Stress axis : x y z
#
# Youngs Moduli (GPa) = 93.95700 68.25901 92.81129
#
# Poissons Ratio (x) = 0.18098 0.23433
# Poissons Ratio (y) = 0.24911 0.18044
# Poissons Ratio (z) = 0.23722 0.13270
#
# Static dielectric constant tensor:
#      x y z
#    x 3.977630 0.000000 0.000000 
#    y 0.000000 3.476140 0.000000 
#    z 0.000000 0.000000 3.985670 
# 
# 
# High freq. dielectric constant tensor:
#      x y z
#    x 1.803080 0.000000 0.000000 
#    y 0.000000 1.786720 0.000000 
#    z 0.000000 0.000000 1.780790 
# 
# From -- ./inp_files/27101.got.cif
#   From: 2010.03.12/outbox.cif.g09.slc.cpg/sg62_14_cif.got.tgz:27101.got - 2010.04.10 19:12:36.
