data_PCOD8252454
_publ_section_title
;
Structure prediction by ZEFSAII (Michael W. Deem and Ramdas Pophale) SiO2 
 PCOD8252454
Probable space group: P N M A
;
_chemical_formula_sum "Si O2"
_cell_formula_units_Z 48
_cell_length_a 9.866605
_cell_length_b 8.985939
_cell_length_c 28.770016
_cell_angle_alpha 90.000000
_cell_angle_beta 90.000000
_cell_angle_gamma 90.000000
_cell_volume 2550.770064
_symmetry_space_group_name_H-M "P N M A"
_symmetry_group_IT_number 62
_symmetry_cell_setting 'orthorhombic'
loop_
_space_group_symop_operation_xyz
x,y,z
1/2-x,-y,1/2+z
1/2+x,1/2-y,1/2-z
-x,1/2+y,-z
-x,-y,-z
1/2+x,y,1/2-z
1/2-x,1/2+y,1/2+z
x,1/2-y,z
loop_
_atom_site_type_symbol
_atom_site_label
_atom_site_fract_x
_atom_site_fract_y
_atom_site_fract_z
Si Si1 0.405305 0.078414 0.392861
Si Si2 0.113712 0.924761 0.229959
Si Si3 0.339652 0.423002 0.287435
Si Si4 0.323317 0.423428 0.624678
Si Si5 0.874189 0.075661 0.441577
Si Si6 0.822950 0.924253 0.535194
O O1 0.444377 0.250000 0.400066
O O2 0.340716 0.052288 0.342496
O O3 0.295079 0.024429 0.430133
O O4 0.540734 0.983136 0.399919
O O5 0.097052 0.750000 0.238361
O O6 0.174867 0.960018 0.179303
O O7 0.207358 0.995018 0.269088
O O8 0.968921 0.001472 0.236263
O O9 0.336381 0.250000 0.273857
O O10 0.313612 0.250000 0.614585
O O11 0.191286 0.502510 0.603906
O O12 0.849014 0.250000 0.439637
O O13 0.033069 0.034707 0.441592
O O14 0.801733 0.012425 0.487497
O O15 0.815930 0.750000 0.524093
#
# Coordination Sequence:
#
# PCOD8252454 Si02
#       6
#     8   8   8   8   8   8
#     4   9  19  36  56  78 104 135 173 217 262 308
#     4  10  21  37  55  78 109 143 178 218 266 318
#     4  10  20  35  56  81 107 138 178 222 267 315
#     4  10  21  36  54  77 106 140 176 214 258 310
#     4  10  20  34  54  79 106 137 173 215 262 311
#     4   9  19  36  55  76 104 136 172 215 261 311
#
# _framework density 18.817844999999998
#
# number of rings (size 3 to 8) (size 9 to 14) (size 15 to 20)
#    0.000    2.333    0.000    2.000    0.000    6.000 
#    0.000    1.667    0.000    0.000    0.000    0.000 
#    0.000    0.000    0.000    0.000    0.000    0.000 
#
# Total GULP energy -595426.093934 kJ/mol
# GULP energy per Si atom -12404.710290 kJ/mol
# Density = 1.877501 g / cm^3
# Si number density = 18.817845 Si / 1000 Ang^3
#
#
#
# Elastic Constant Matrix: (Units=GPa)
#
#
# Indices 1 2 3 4 5 6 
#
# 1 32.9346 11.6229 2.1444 0.0000 0.0000 0.0000
# 2 11.6229 70.4293 11.4643 0.0000 0.0000 0.0000
# 3 2.1444 11.4643 25.7364 0.0000 0.0000 0.0000
# 4 0.0000 0.0000 0.0000 33.5527 0.0000 0.0000
# 5 0.0000 0.0000 0.0000 0.0000 39.5659 0.0000
# 6 0.0000 0.0000 0.0000 0.0000 0.0000 32.9685
#
#
#
# Elastic Compliance Matrix: (Units=1/GPa)
#
#
# Indices 1 2 3 4 5 6 
#
# 1 0.032244 -0.005266 -0.000341 0.000000 0.000000 0.000000
# 2 -0.005266 0.016169 -0.006764 0.000000 0.000000 0.000000
# 3 -0.000341 -0.006764 0.041897 0.000000 0.000000 0.000000
# 4 0.000000 0.000000 0.000000 0.029804 0.000000 0.000000
# 5 0.000000 0.000000 0.000000 0.000000 0.025274 0.000000
# 6 0.000000 0.000000 0.000000 0.000000 0.000000 0.030332
#
#
# Mechanical properties :
#
#
# Convention : Reuss Voigt Hill
#
# Bulk Modulus (GPa) = 15.25120 19.95151 17.60135
# Shear Modulus (GPa) = 22.49051 28.14198 25.31625
#
# Velocity S-wave (km/s) = 3.46087 3.87136 3.67186
# Velocity P-wave (km/s) = 4.90840 5.53251 5.22978
#
# Compressibility (1/GPa) = 0.06556860
#
# Stress axis : x y z
#
# Youngs Moduli (GPa) = 31.01379 61.84824 23.86819
#
# Poissons Ratio (x) = 0.32567 0.00814
# Poissons Ratio (y) = 0.16331 0.16143
# Poissons Ratio (z) = 0.01057 0.41832
#
# Static dielectric constant tensor:
#      x y z
#    x 3.426500 0.000000 0.000000 
#    y 0.000000 3.512740 0.000000 
#    z 0.000000 0.000000 3.381710 
# 
# 
# High freq. dielectric constant tensor:
#      x y z
#    x 1.733910 0.000000 0.000000 
#    y 0.000000 1.740020 0.000000 
#    z 0.000000 0.000000 1.726000 
# 
# From -- ./inp_files/31930.got.cif
#   From: 2010.03.12/outbox.cif.g09.slc.cpg/sg62_16_cif.got.tgz:31930.got - 2010.04.10 19:12:36.
