data_PCOD8252987
_publ_section_title
;
Structure prediction by ZEFSAII (Michael W. Deem and Ramdas Pophale) SiO2 
 PCOD8252987
Probable space group: P N M A
;
_chemical_formula_sum "Si O2"
_cell_formula_units_Z 56
_cell_length_a 20.767574
_cell_length_b 9.139153
_cell_length_c 14.811362
_cell_angle_alpha 90.000000
_cell_angle_beta 90.000000
_cell_angle_gamma 90.000000
_cell_volume 2811.167421
_symmetry_space_group_name_H-M "P N M A"
_symmetry_group_IT_number 62
_symmetry_cell_setting 'orthorhombic'
loop_
_space_group_symop_operation_xyz
x,y,z
1/2-x,-y,1/2+z
1/2+x,1/2-y,1/2-z
-x,1/2+y,-z
-x,-y,-z
1/2+x,y,1/2-z
1/2-x,1/2+y,1/2+z
x,1/2-y,z
loop_
_atom_site_type_symbol
_atom_site_label
_atom_site_fract_x
_atom_site_fract_y
_atom_site_fract_z
Si Si1 0.163774 0.581748 0.822346
Si Si2 0.351879 0.091753 0.930744
Si Si3 0.773610 0.923102 0.819468
Si Si4 0.457160 0.086612 0.069440
Si Si5 0.742133 0.915614 0.504942
Si Si6 0.099923 0.583769 0.240689
Si Si7 0.456800 0.922836 0.254738
O O1 0.148618 0.750000 0.797030
O O2 0.220134 0.523620 0.753945
O O3 0.181692 0.568320 0.928072
O O4 0.099185 0.485600 0.818046
O O5 0.317251 0.250000 0.914834
O O6 0.402552 0.065993 0.849462
O O7 0.301773 0.959266 0.931005
O O8 0.386836 0.098667 0.026410
O O9 0.776652 0.750000 0.820200
O O10 0.844820 0.981182 0.798061
O O11 0.757714 0.978149 0.919611
O O12 0.485130 0.250000 0.087715
O O13 0.447395 0.997726 0.159400
O O14 0.500000 0.000000 0.000000
O O15 0.749729 0.750000 0.470604
O O16 0.115868 0.750000 0.211467
O O17 0.028270 0.540149 0.205792
O O18 0.448768 0.750000 0.243529
#
# Coordination Sequence:
#
# PCOD8252987 Si02
#       7
#     8   8   8   8   8   8   8
#     4  10  23  42  61  88 125 160 199 251 304 362
#     4  10  20  36  57  83 119 156 194 246 300 353
#     4  11  23  41  64  92 122 158 207 253 303 360
#     4  11  21  34  53  82 120 158 195 240 297 359
#     4  11  23  40  62  90 121 156 203 252 304 362
#     4  10  21  39  60  86 121 157 198 247 299 354
#     4  11  23  39  59  88 122 160 204 249 304 365
#
# _framework density 19.920551
#
# number of rings (size 3 to 8) (size 9 to 14) (size 15 to 20)
#    0.000    1.429    2.857    2.571    0.000    8.000 
#    0.000    0.714    0.000    0.000    0.000    0.000 
#    0.000    0.000    0.000    0.000    0.000    0.000 
#
# Total GULP energy -694203.064675 kJ/mol
# GULP energy per Si atom -12396.483298 kJ/mol
# Density = 1.987521 g / cm^3
# Si number density = 19.920551 Si / 1000 Ang^3
#
#
#
# Elastic Constant Matrix: (Units=GPa)
#
#
# Indices 1 2 3 4 5 6 
#
# 1 114.8574 54.3251 18.5789 0.0000 0.0000 0.0000
# 2 54.3251 91.7646 21.4623 0.0000 0.0000 0.0000
# 3 18.5789 21.4623 53.7709 0.0000 0.0000 0.0000
# 4 0.0000 0.0000 0.0000 33.0873 0.0000 0.0000
# 5 0.0000 0.0000 0.0000 0.0000 26.9813 0.0000
# 6 0.0000 0.0000 0.0000 0.0000 0.0000 37.9559
#
#
#
# Elastic Compliance Matrix: (Units=1/GPa)
#
#
# Indices 1 2 3 4 5 6 
#
# 1 0.012197 -0.006877 -0.001469 0.000000 0.000000 0.000000
# 2 -0.006877 0.015897 -0.003969 0.000000 0.000000 0.000000
# 3 -0.001469 -0.003969 0.020689 0.000000 0.000000 0.000000
# 4 0.000000 0.000000 0.000000 0.030223 0.000000 0.000000
# 5 0.000000 0.000000 0.000000 0.000000 0.037063 0.000000
# 6 0.000000 0.000000 0.000000 0.000000 0.000000 0.026346
#
#
# Mechanical properties :
#
#
# Convention : Reuss Voigt Hill
#
# Bulk Modulus (GPa) = 41.40373 49.90285 45.65329
# Shear Modulus (GPa) = 28.55567 30.67333 29.61450
#
# Velocity S-wave (km/s) = 3.79024 3.92826 3.85987
# Velocity P-wave (km/s) = 6.32330 6.75872 6.54463
#
# Compressibility (1/GPa) = 0.02415242
#
# Stress axis : x y z
#
# Youngs Moduli (GPa) = 81.98916 62.90537 48.33404
#
# Poissons Ratio (x) = 0.43259 0.07102
# Poissons Ratio (y) = 0.56383 0.19184
# Poissons Ratio (z) = 0.12047 0.24968
#
# Static dielectric constant tensor:
#      x y z
#    x 3.567670 0.000000 0.000000 
#    y 0.000000 3.714000 0.000000 
#    z 0.000000 0.000000 3.334210 
# 
# 
# High freq. dielectric constant tensor:
#      x y z
#    x 1.774920 0.000000 0.000000 
#    y 0.000000 1.784900 0.000000 
#    z 0.000000 0.000000 1.764220 
# 
# From -- ./inp_files/20258.got.cif
#   From: 2010.03.12/outbox.cif.g09.slc.cpg/sg62_11_cif.got.tgz:20258.got - 2010.04.10 19:12:36.
