data_PCOD8252183
_publ_section_title
;
Structure prediction by ZEFSAII (Michael W. Deem and Ramdas Pophale) SiO2 
 PCOD8252183
Probable space group: P N M A
;
_chemical_formula_sum "Si O2"
_cell_formula_units_Z 64
_cell_length_a 33.867672
_cell_length_b 9.421762
_cell_length_c 12.059731
_cell_angle_alpha 90.000000
_cell_angle_beta 90.000000
_cell_angle_gamma 90.000000
_cell_volume 3848.177494
_symmetry_space_group_name_H-M "P N M A"
_symmetry_group_IT_number 62
_symmetry_cell_setting 'orthorhombic'
loop_
_space_group_symop_operation_xyz
x,y,z
1/2-x,-y,1/2+z
1/2+x,1/2-y,1/2-z
-x,1/2+y,-z
-x,-y,-z
1/2+x,y,1/2-z
1/2-x,1/2+y,1/2+z
x,1/2-y,z
loop_
_atom_site_type_symbol
_atom_site_label
_atom_site_fract_x
_atom_site_fract_y
_atom_site_fract_z
Si Si1 0.175979 0.917682 0.107838
Si Si2 0.264303 0.082890 0.800028
Si Si3 0.811480 0.417858 0.138209
Si Si4 0.610578 0.918891 0.233172
Si Si5 0.630207 0.582886 0.825110
Si Si6 0.955105 0.085548 0.387250
Si Si7 0.970042 0.414156 0.643430
Si Si8 0.332592 0.418336 0.954653
O O1 0.174100 0.750000 0.097639
O O2 0.211429 0.961316 0.189888
O O3 0.133601 0.972201 0.156160
O O4 0.183070 0.981164 0.985441
O O5 0.254847 0.250000 0.799646
O O6 0.289412 0.037585 0.909246
O O7 0.224356 0.994400 0.800322
O O8 0.803235 0.250000 0.138929
O O9 0.851276 0.455423 0.206243
O O10 0.612060 0.750000 0.227559
O O11 0.564842 0.967445 0.226516
O O12 0.633934 0.980287 0.127083
O O13 0.627386 0.750000 0.843276
O O14 0.585703 0.523150 0.836595
O O15 0.658824 0.521083 0.922332
O O16 0.960653 0.250000 0.358517
O O17 0.954952 0.059184 0.518695
O O18 0.990942 0.002862 0.328960
O O19 0.980155 0.250000 0.662430
O O20 0.335007 0.250000 0.952353
#
# Coordination Sequence:
#
# PCOD8252183 Si02
#       8
#     8   8   8   8   8   8   8   8
#     4   8  16  30  45  65  90 115 147 187 222 255
#     4   9  18  31  48  65  86 117 149 182 223 268
#     4  10  20  31  46  67  90 115 148 190 226 256
#     4   8  12  23  44  64  83 111 146 179 210 252
#     4   9  16  27  43  64  88 117 148 179 215 259
#     4   9  16  26  41  63  92 115 138 176 221 265
#     4   9  15  24  43  68  87 109 142 180 218 258
#     4   8  13  24  43  64  82 108 149 182 204 250
#
# _framework density 16.631250000000001
#
# number of rings (size 3 to 8) (size 9 to 14) (size 15 to 20)
#    0.000    3.250    1.250    1.500    1.750    0.000 
#    0.000    0.625    0.000    5.250    0.000    0.000 
#    0.000    0.000    0.000    0.000    0.000    0.000 
#
# Total GULP energy -793028.223363 kJ/mol
# GULP energy per Si atom -12391.065990 kJ/mol
# Density = 1.659340 g / cm^3
# Si number density = 16.631250 Si / 1000 Ang^3
#
#
#
# Elastic Constant Matrix: (Units=GPa)
#
#
# Indices 1 2 3 4 5 6 
#
# 1 142.7107 35.7180 58.6481 0.0000 0.0000 0.0000
# 2 35.7180 24.5072 18.9452 0.0000 0.0000 0.0000
# 3 58.6481 18.9452 99.1199 0.0000 0.0000 0.0000
# 4 0.0000 0.0000 0.0000 10.1261 0.0000 0.0000
# 5 0.0000 0.0000 0.0000 0.0000 22.4169 0.0000
# 6 0.0000 0.0000 0.0000 0.0000 0.0000 24.8105
#
#
#
# Elastic Compliance Matrix: (Units=1/GPa)
#
#
# Indices 1 2 3 4 5 6 
#
# 1 0.012618 -0.014806 -0.004636 0.000000 0.000000 0.000000
# 2 -0.014806 0.065253 -0.003711 0.000000 0.000000 0.000000
# 3 -0.004636 -0.003711 0.013541 0.000000 0.000000 0.000000
# 4 0.000000 0.000000 0.000000 0.098754 0.000000 0.000000
# 5 0.000000 0.000000 0.000000 0.000000 0.044609 0.000000
# 6 0.000000 0.000000 0.000000 0.000000 0.000000 0.040305
#
#
# Mechanical properties :
#
#
# Convention : Reuss Voigt Hill
#
# Bulk Modulus (GPa) = 22.17057 54.77337 38.47197
# Shear Modulus (GPa) = 14.86222 21.67249 18.26735
#
# Velocity S-wave (km/s) = 2.99261 3.61379 3.31777
# Velocity P-wave (km/s) = 5.02997 7.10057 6.15300
#
# Compressibility (1/GPa) = 0.04510484
#
# Stress axis : x y z
#
# Youngs Moduli (GPa) = 79.25065 15.32500 73.84869
#
# Poissons Ratio (x) = 0.22691 0.34236
# Poissons Ratio (y) = 1.17342 0.27407
# Poissons Ratio (z) = 0.36741 0.05687
#
# Static dielectric constant tensor:
#      x y z
#    x 3.301910 0.000000 0.000000 
#    y 0.000000 2.635270 0.000000 
#    z 0.000000 0.000000 3.275480 
# 
# 
# High freq. dielectric constant tensor:
#      x y z
#    x 1.647650 0.000000 0.000000 
#    y 0.000000 1.585240 0.000000 
#    z 0.000000 0.000000 1.623570 
# 
# From -- ./inp_files/15596.got.cif
#   From: 2010.03.12/outbox.cif.g09.slc.cpg/sg62_8_cif.got.tgz:15596.got - 2010.04.10 19:12:36.
