data_PCOD8252758
_publ_section_title
;
Structure prediction by ZEFSAII (Michael W. Deem and Ramdas Pophale) SiO2 
 PCOD8252758
Probable space group: P N M A
;
_chemical_formula_sum "Si O2"
_cell_formula_units_Z 56
_cell_length_a 20.534714
_cell_length_b 14.262863
_cell_length_c 9.657056
_cell_angle_alpha 90.000000
_cell_angle_beta 90.000000
_cell_angle_gamma 90.000000
_cell_volume 2828.395379
_symmetry_space_group_name_H-M "P N M A"
_symmetry_group_IT_number 62
_symmetry_cell_setting 'orthorhombic'
loop_
_space_group_symop_operation_xyz
x,y,z
1/2-x,-y,1/2+z
1/2+x,1/2-y,1/2-z
-x,1/2+y,-z
-x,-y,-z
1/2+x,y,1/2-z
1/2-x,1/2+y,1/2+z
x,1/2-y,z
loop_
_atom_site_type_symbol
_atom_site_label
_atom_site_fract_x
_atom_site_fract_y
_atom_site_fract_z
Si Si1 0.578597 0.860918 0.638710
Si Si2 0.341257 0.642622 0.403035
Si Si3 0.462236 0.986674 0.142495
Si Si4 0.819231 0.539428 0.363246
Si Si5 0.224147 0.854250 0.937933
Si Si6 0.755427 0.352735 0.362252
Si Si7 0.509748 0.141427 0.620772
O O1 0.574855 0.750000 0.672439
O O2 0.553350 0.917241 0.773731
O O3 0.651830 0.892885 0.598371
O O4 0.534958 0.889129 0.507075
O O5 0.332553 0.750000 0.353625
O O6 0.305990 0.574801 0.292937
O O7 0.308390 0.623497 0.550315
O O8 0.416548 0.617717 0.422980
O O9 0.393966 0.935280 0.100189
O O10 0.505377 0.918646 0.240871
O O11 0.500000 0.000000 0.000000
O O12 0.762940 0.584116 0.454433
O O13 0.812668 0.427713 0.382721
O O14 0.217196 0.750000 0.000499
O O15 0.266780 0.853327 0.797661
O O16 0.784187 0.250000 0.401926
O O17 0.498868 0.250000 0.657158
#
# Coordination Sequence:
#
# PCOD8252758 Si02
#       7
#     8   8   8   8   8   8   8
#     4  10  21  42  64  85 117 160 202 247 297 353
#     4   9  19  36  58  84 111 145 190 238 288 339
#     4  11  24  40  58  91 122 158 197 246 302 360
#     4  11  21  37  59  82 117 153 189 238 296 344
#     4  10  21  38  60  87 116 151 197 242 292 352
#     4  10  20  35  56  83 115 149 189 233 285 351
#     4   9  20  40  64  85 114 157 202 246 291 347
#
# _framework density 19.799211
#
# number of rings (size 3 to 8) (size 9 to 14) (size 15 to 20)
#    0.000    2.000    1.429    1.714    2.000    2.286 
#    5.143    1.429    0.000    0.000    0.000    0.000 
#    0.000    0.000    0.000    0.000    0.000    0.000 
#
# Total GULP energy -694120.646274 kJ/mol
# GULP energy per Si atom -12395.011541 kJ/mol
# Density = 1.975415 g / cm^3
# Si number density = 19.799211 Si / 1000 Ang^3
#
#
#
# Elastic Constant Matrix: (Units=GPa)
#
#
# Indices 1 2 3 4 5 6 
#
# 1 93.7306 48.5732 85.1988 0.0000 0.0000 0.0000
# 2 48.5732 86.8700 61.8045 0.0000 0.0000 0.0000
# 3 85.1988 61.8045 146.0059 0.0000 0.0000 0.0000
# 4 0.0000 0.0000 0.0000 31.4173 0.0000 0.0000
# 5 0.0000 0.0000 0.0000 0.0000 40.0288 0.0000
# 6 0.0000 0.0000 0.0000 0.0000 0.0000 27.5617
#
#
#
# Elastic Compliance Matrix: (Units=1/GPa)
#
#
# Indices 1 2 3 4 5 6 
#
# 1 0.024133 -0.004972 -0.011977 0.000000 0.000000 0.000000
# 2 -0.004972 0.017497 -0.004505 0.000000 0.000000 0.000000
# 3 -0.011977 -0.004505 0.015745 0.000000 0.000000 0.000000
# 4 0.000000 0.000000 0.000000 0.031830 0.000000 0.000000
# 5 0.000000 0.000000 0.000000 0.000000 0.024982 0.000000
# 6 0.000000 0.000000 0.000000 0.000000 0.000000 0.036282
#
#
# Mechanical properties :
#
#
# Convention : Reuss Voigt Hill
#
# Bulk Modulus (GPa) = 69.13043 79.75104 74.44073
# Shear Modulus (GPa) = 25.22707 28.53688 26.88197
#
# Velocity S-wave (km/s) = 3.57339 3.80058 3.68874
# Velocity P-wave (km/s) = 7.21228 7.72183 7.47140
#
# Compressibility (1/GPa) = 0.01446541
#
# Stress axis : x y z
#
# Youngs Moduli (GPa) = 41.43735 57.15327 63.51176
#
# Poissons Ratio (x) = 0.28419 0.76070
# Poissons Ratio (y) = 0.20604 0.28611
# Poissons Ratio (z) = 0.49631 0.25747
#
# Static dielectric constant tensor:
#      x y z
#    x 3.501960 0.000000 0.000000 
#    y 0.000000 3.943250 0.000000 
#    z 0.000000 0.000000 3.621710 
# 
# 
# High freq. dielectric constant tensor:
#      x y z
#    x 1.756990 0.000000 0.000000 
#    y 0.000000 1.790560 0.000000 
#    z 0.000000 0.000000 1.763550 
# 
# From -- ./inp_files/8741.got.cif
#   From: 2010.03.12/outbox.cif.g09.slc.cpg/sg62_5_cif.got.tgz:8741.got - 2010.04.10 19:12:36.
