data_PCOD8252852
_publ_section_title
;
Structure prediction by ZEFSAII (Michael W. Deem and Ramdas Pophale) SiO2 
 PCOD8252852
Probable space group: P N M A
;
_chemical_formula_sum "Si O2"
_cell_formula_units_Z 48
_cell_length_a 10.147454
_cell_length_b 8.732863
_cell_length_c 29.060681
_cell_angle_alpha 90.000000
_cell_angle_beta 90.000000
_cell_angle_gamma 90.000000
_cell_volume 2575.250769
_symmetry_space_group_name_H-M "P N M A"
_symmetry_group_IT_number 62
_symmetry_cell_setting 'orthorhombic'
loop_
_space_group_symop_operation_xyz
x,y,z
1/2-x,-y,1/2+z
1/2+x,1/2-y,1/2-z
-x,1/2+y,-z
-x,-y,-z
1/2+x,y,1/2-z
1/2-x,1/2+y,1/2+z
x,1/2-y,z
loop_
_atom_site_type_symbol
_atom_site_label
_atom_site_fract_x
_atom_site_fract_y
_atom_site_fract_z
Si Si1 0.206887 0.928681 0.792053
Si Si2 0.380296 0.430479 0.027946
Si Si3 0.022677 0.426909 0.616582
Si Si4 0.008218 0.571363 0.712537
Si Si5 0.715962 0.427043 0.611824
Si Si6 0.130400 0.930766 0.979341
O O1 0.192215 0.750000 0.803039
O O2 0.355838 0.966467 0.775292
O O3 0.102403 0.982324 0.753852
O O4 0.170356 0.021446 0.837748
O O5 0.381310 0.250000 0.021591
O O6 0.390048 0.474243 0.081571
O O7 0.500000 0.500000 0.000000
O O8 0.247409 0.496782 0.008060
O O9 0.059512 0.250000 0.610885
O O10 0.055841 0.478891 0.668059
O O11 0.870467 0.458074 0.605224
O O12 0.026497 0.750000 0.702107
O O13 0.680789 0.250000 0.604960
O O14 0.638697 0.526236 0.574361
O O15 0.131998 0.750000 0.984865
O O16 0.000000 0.000000 0.000000
#
# Coordination Sequence:
#
# PCOD8252852 Si02
#       6
#     8   8   8   8   8   8
#     4   9  18  34  56  80 108 145 188 235 288 342
#     4  12  23  38  62  90 118 153 196 242 289 343
#     4  10  20  35  58  86 115 149 193 242 288 340
#     4   9  18  34  55  79 109 145 187 236 288 343
#     4  10  20  36  59  84 114 152 195 237 286 347
#     4  12  25  42  62  86 120 157 195 242 295 352
#
# _framework density 18.638963
#
# number of rings (size 3 to 8) (size 9 to 14) (size 15 to 20)
#    0.000    1.667    1.667    4.000    0.000    2.000 
#    3.000    0.000    0.000    0.000    0.000    0.000 
#    0.000    0.000    0.000    0.000    0.000    0.000 
#
# Total GULP energy -595410.826299 kJ/mol
# GULP energy per Si atom -12404.392215 kJ/mol
# Density = 1.859654 g / cm^3
# Si number density = 18.638963 Si / 1000 Ang^3
#
#
#
# Elastic Constant Matrix: (Units=GPa)
#
#
# Indices 1 2 3 4 5 6 
#
# 1 115.6175 56.1456 77.2984 0.0000 0.0000 0.0000
# 2 56.1456 131.4746 66.5925 0.0000 0.0000 0.0000
# 3 77.2984 66.5925 138.4075 0.0000 0.0000 0.0000
# 4 0.0000 0.0000 0.0000 38.1011 0.0000 0.0000
# 5 0.0000 0.0000 0.0000 0.0000 36.7709 0.0000
# 6 0.0000 0.0000 0.0000 0.0000 0.0000 26.1656
#
#
#
# Elastic Compliance Matrix: (Units=1/GPa)
#
#
# Indices 1 2 3 4 5 6 
#
# 1 0.014528 -0.002769 -0.006781 0.000000 0.000000 0.000000
# 2 -0.002769 0.010585 -0.003546 0.000000 0.000000 0.000000
# 3 -0.006781 -0.003546 0.012718 0.000000 0.000000 0.000000
# 4 0.000000 0.000000 0.000000 0.026246 0.000000 0.000000
# 5 0.000000 0.000000 0.000000 0.000000 0.027195 0.000000
# 6 0.000000 0.000000 0.000000 0.000000 0.000000 0.038218
#
#
# Mechanical properties :
#
#
# Convention : Reuss Voigt Hill
#
# Bulk Modulus (GPa) = 85.92678 87.28586 86.60632
# Shear Modulus (GPa) = 31.33570 32.57171 31.95370
#
# Velocity S-wave (km/s) = 4.10468 4.18485 4.14496
# Velocity P-wave (km/s) = 8.28645 8.38344 8.33509
#
# Compressibility (1/GPa) = 0.01163782
#
# Stress axis : x y z
#
# Youngs Moduli (GPa) = 68.83425 94.47546 78.62697
#
# Poissons Ratio (x) = 0.26163 0.53317
# Poissons Ratio (y) = 0.19063 0.27882
# Poissons Ratio (z) = 0.46677 0.33502
#
# Static dielectric constant tensor:
#      x y z
#    x 3.373040 0.000000 0.000000 
#    y 0.000000 3.553660 0.000000 
#    z 0.000000 0.000000 3.562750 
# 
# 
# High freq. dielectric constant tensor:
#      x y z
#    x 1.709890 0.000000 0.000000 
#    y 0.000000 1.733390 0.000000 
#    z 0.000000 0.000000 1.734090 
# 
# From -- ./inp_files/31900.got.cif
#   From: 2010.03.12/outbox.cif.g09.slc.cpg/sg62_16_cif.got.tgz:31900.got - 2010.04.10 19:12:36.
