data_PCOD8252242
_publ_section_title
;
Structure prediction by ZEFSAII (Michael W. Deem and Ramdas Pophale) SiO2 
 PCOD8252242
Probable space group: P N M A
;
_chemical_formula_sum "Si O2"
_cell_formula_units_Z 64
_cell_length_a 11.958842
_cell_length_b 9.103239
_cell_length_c 28.787161
_cell_angle_alpha 90.000000
_cell_angle_beta 90.000000
_cell_angle_gamma 90.000000
_cell_volume 3133.891163
_symmetry_space_group_name_H-M "P N M A"
_symmetry_group_IT_number 62
_symmetry_cell_setting 'orthorhombic'
loop_
_space_group_symop_operation_xyz
x,y,z
1/2-x,-y,1/2+z
1/2+x,1/2-y,1/2-z
-x,1/2+y,-z
-x,-y,-z
1/2+x,y,1/2-z
1/2-x,1/2+y,1/2+z
x,1/2-y,z
loop_
_atom_site_type_symbol
_atom_site_label
_atom_site_fract_x
_atom_site_fract_y
_atom_site_fract_z
Si Si1 0.545809 0.086423 0.564405
Si Si2 0.248057 0.077051 0.162596
Si Si3 0.032496 0.077679 0.223196
Si Si4 0.704671 0.579960 0.431775
Si Si5 0.757646 0.580436 0.532035
Si Si6 0.135224 0.414730 0.836575
Si Si7 0.031470 0.422032 0.688688
Si Si8 0.355971 0.079777 0.886457
O O1 0.571323 0.250000 0.545136
O O2 0.420483 0.036430 0.552119
O O3 0.551839 0.086236 0.620008
O O4 0.632862 0.974034 0.542730
O O5 0.269180 0.250000 0.162460
O O6 0.134683 0.035570 0.189483
O O7 0.245917 0.021965 0.109712
O O8 0.348437 0.998551 0.189573
O O9 0.026225 0.250000 0.232442
O O10 0.915011 0.024494 0.201489
O O11 0.047462 0.993589 0.271963
O O12 0.709046 0.750000 0.415526
O O13 0.782778 0.554547 0.477224
O O14 0.761989 0.750000 0.544848
O O15 0.850920 0.500921 0.563752
O O16 0.145082 0.250000 0.815410
O O17 0.256321 0.474943 0.852626
O O18 0.044299 0.250000 0.698586
O O19 0.973806 0.449453 0.638514
O O20 0.335141 0.250000 0.897145
#
# Coordination Sequence:
#
# PCOD8252242 Si02
#       8
#     8   8   8   8   8   8   8   8
#     4   9  17  31  52  80 120 162 198 242 292 350
#     4  11  25  43  63  92 126 158 198 252 308 357
#     4  11  24  40  60  91 124 152 191 244 304 362
#     4  10  20  36  57  85 121 163 208 249 297 361
#     4  10  20  32  55  89 122 159 203 251 305 360
#     4   9  17  33  58  86 116 155 196 237 289 351
#     4  11  25  44  67  88 114 158 206 249 296 360
#     4   9  21  41  61  86 118 156 205 251 296 354
#
# _framework density 20.421896
#
# number of rings (size 3 to 8) (size 9 to 14) (size 15 to 20)
#    0.000    2.000    1.250    2.625    1.750    6.000 
#    0.000    0.625    0.000    0.000    0.000    0.000 
#    0.000    0.000    0.000    0.000    0.000    0.000 
#
# Total GULP energy -793631.439266 kJ/mol
# GULP energy per Si atom -12400.491239 kJ/mol
# Density = 2.037542 g / cm^3
# Si number density = 20.421896 Si / 1000 Ang^3
#
#
#
# Elastic Constant Matrix: (Units=GPa)
#
#
# Indices 1 2 3 4 5 6 
#
# 1 58.1318 37.0721 23.7508 0.0000 0.0000 0.0000
# 2 37.0721 102.3152 55.5124 0.0000 0.0000 0.0000
# 3 23.7508 55.5124 101.0848 0.0000 0.0000 0.0000
# 4 0.0000 0.0000 0.0000 37.6867 0.0000 0.0000
# 5 0.0000 0.0000 0.0000 0.0000 17.3259 0.0000
# 6 0.0000 0.0000 0.0000 0.0000 0.0000 27.3942
#
#
#
# Elastic Compliance Matrix: (Units=1/GPa)
#
#
# Indices 1 2 3 4 5 6 
#
# 1 0.022465 -0.007515 -0.001151 0.000000 0.000000 0.000000
# 2 -0.007515 0.016436 -0.007260 0.000000 0.000000 0.000000
# 3 -0.001151 -0.007260 0.014150 0.000000 0.000000 0.000000
# 4 0.000000 0.000000 0.000000 0.026535 0.000000 0.000000
# 5 0.000000 0.000000 0.000000 0.000000 0.057717 0.000000
# 6 0.000000 0.000000 0.000000 0.000000 0.000000 0.036504
#
#
# Mechanical properties :
#
#
# Convention : Reuss Voigt Hill
#
# Bulk Modulus (GPa) = 47.17459 54.91138 51.04298
# Shear Modulus (GPa) = 23.50431 26.16112 24.83271
#
# Velocity S-wave (km/s) = 3.39623 3.58303 3.49088
# Velocity P-wave (km/s) = 6.20720 6.63810 6.42626
#
# Compressibility (1/GPa) = 0.02119785
#
# Stress axis : x y z
#
# Youngs Moduli (GPa) = 44.51300 60.84241 70.66989
#
# Poissons Ratio (x) = 0.45725 0.08136
# Poissons Ratio (y) = 0.33453 0.51308
# Poissons Ratio (z) = 0.05125 0.44173
#
# Static dielectric constant tensor:
#      x y z
#    x 3.486650 0.000000 0.000000 
#    y 0.000000 3.620460 0.000000 
#    z 0.000000 0.000000 3.726830 
# 
# 
# High freq. dielectric constant tensor:
#      x y z
#    x 1.779390 0.000000 0.000000 
#    y 0.000000 1.796350 0.000000 
#    z 0.000000 0.000000 1.801110 
# 
# From -- ./inp_files/32506.got.cif
#   From: 2010.03.12/outbox.cif.g09.slc.cpg/sg62_17_cif.got.tgz:32506.got - 2010.04.10 19:12:36.
