data_PCOD8252636
_publ_section_title
;
Structure prediction by ZEFSAII (Michael W. Deem and Ramdas Pophale) SiO2 
 PCOD8252636
Probable space group: P N M A
;
_chemical_formula_sum "Si O2"
_cell_formula_units_Z 48
_cell_length_a 28.001258
_cell_length_b 9.647052
_cell_length_c 10.221409
_cell_angle_alpha 90.000000
_cell_angle_beta 90.000000
_cell_angle_gamma 90.000000
_cell_volume 2761.105043
_symmetry_space_group_name_H-M "P N M A"
_symmetry_group_IT_number 62
_symmetry_cell_setting 'orthorhombic'
loop_
_space_group_symop_operation_xyz
x,y,z
1/2-x,-y,1/2+z
1/2+x,1/2-y,1/2-z
-x,1/2+y,-z
-x,-y,-z
1/2+x,y,1/2-z
1/2-x,1/2+y,1/2+z
x,1/2-y,z
loop_
_atom_site_type_symbol
_atom_site_label
_atom_site_fract_x
_atom_site_fract_y
_atom_site_fract_z
Si Si1 0.350954 0.590378 0.745065
Si Si2 0.650125 0.910860 0.748824
Si Si3 0.190786 0.910120 0.475872
Si Si4 0.697923 0.090220 0.526192
Si Si5 0.446549 0.408480 0.376808
Si Si6 0.052603 0.408694 0.126564
O O1 0.339069 0.750000 0.776638
O O2 0.328603 0.546587 0.606416
O O3 0.408204 0.563623 0.739113
O O4 0.328835 0.497167 0.856227
O O5 0.663589 0.750000 0.728659
O O6 0.664050 0.960560 0.893341
O O7 0.593263 0.936958 0.733375
O O8 0.679904 0.996954 0.644368
O O9 0.179958 0.750000 0.446533
O O10 0.246455 0.937948 0.495251
O O11 0.687525 0.250000 0.560941
O O12 0.444477 0.250000 0.424312
O O13 0.434496 0.500679 0.501365
O O14 0.499376 0.443691 0.319764
O O15 0.056119 0.250000 0.079701
#
# Coordination Sequence:
#
# PCOD8252636 Si02
#       6
#     8   8   8   8   8   8
#     4  10  20  35  54  76 104 136 170 211 257 305
#     4  10  20  35  54  77 105 135 169 211 256 304
#     4  10  22  36  50  72 105 139 171 210 254 302
#     4  10  20  35  54  75  99 133 176 215 252 298
#     4   9  17  30  52  79 102 129 167 210 255 301
#     4   9  17  31  52  77 103 130 165 211 256 300
#
# _framework density 17.384345
#
# number of rings (size 3 to 8) (size 9 to 14) (size 15 to 20)
#    0.000    2.333    1.667    1.000    0.000    4.000 
#    0.000    0.833    0.000    0.000    0.000    0.000 
#    0.000    0.000    0.000    0.000    0.000    0.000 
#
# Total GULP energy -595178.948583 kJ/mol
# GULP energy per Si atom -12399.561429 kJ/mol
# Density = 1.734478 g / cm^3
# Si number density = 17.384345 Si / 1000 Ang^3
#
#
#
# Elastic Constant Matrix: (Units=GPa)
#
#
# Indices 1 2 3 4 5 6 
#
# 1 101.7396 38.6778 42.9928 0.0000 0.0000 0.0000
# 2 38.6778 58.8605 49.5157 0.0000 0.0000 0.0000
# 3 42.9928 49.5157 90.6438 0.0000 0.0000 0.0000
# 4 0.0000 0.0000 0.0000 28.6914 0.0000 0.0000
# 5 0.0000 0.0000 0.0000 0.0000 1.4801 0.0000
# 6 0.0000 0.0000 0.0000 0.0000 0.0000 26.5297
#
#
#
# Elastic Compliance Matrix: (Units=1/GPa)
#
#
# Indices 1 2 3 4 5 6 
#
# 1 0.013497 -0.006446 -0.002881 0.000000 0.000000 0.000000
# 2 -0.006446 0.034513 -0.015796 0.000000 0.000000 0.000000
# 3 -0.002881 -0.015796 0.021027 0.000000 0.000000 0.000000
# 4 0.000000 0.000000 0.000000 0.034854 0.000000 0.000000
# 5 0.000000 0.000000 0.000000 0.000000 0.675650 0.000000
# 6 0.000000 0.000000 0.000000 0.000000 0.000000 0.037694
#
#
# Mechanical properties :
#
#
# Convention : Reuss Voigt Hill
#
# Bulk Modulus (GPa) = 53.21256 57.06852 55.14054
# Shear Modulus (GPa) = 5.72250 19.34408 12.53329
#
# Velocity S-wave (km/s) = 1.81629 3.33938 2.68797
# Velocity P-wave (km/s) = 5.92237 6.91140 6.43591
#
# Compressibility (1/GPa) = 0.01879256
#
# Stress axis : x y z
#
# Youngs Moduli (GPa) = 74.09250 28.97441 47.55697
#
# Poissons Ratio (x) = 0.18676 0.13699
# Poissons Ratio (y) = 0.47757 0.75122
# Poissons Ratio (z) = 0.21343 0.45769
#
# Static dielectric constant tensor:
#      x y z
#    x 3.678300 0.000000 0.000000 
#    y 0.000000 3.272590 0.000000 
#    z 0.000000 0.000000 3.022120 
# 
# 
# High freq. dielectric constant tensor:
#      x y z
#    x 1.693750 0.000000 0.000000 
#    y 0.000000 1.672530 0.000000 
#    z 0.000000 0.000000 1.645420 
# 
# From -- ./inp_files/9326.got.cif
#   From: 2010.03.12/outbox.cif.g09.slc.cpg/sg62_5_cif.got.tgz:9326.got - 2010.04.10 19:12:36.
