data_PCOD8252649
_publ_section_title
;
Structure prediction by ZEFSAII (Michael W. Deem and Ramdas Pophale) SiO2 
 PCOD8252649
Probable space group: P N M A
;
_chemical_formula_sum "Si O2"
_cell_formula_units_Z 56
_cell_length_a 14.600048
_cell_length_b 9.165072
_cell_length_c 21.710131
_cell_angle_alpha 90.000000
_cell_angle_beta 90.000000
_cell_angle_gamma 90.000000
_cell_volume 2905.043291
_symmetry_space_group_name_H-M "P N M A"
_symmetry_group_IT_number 62
_symmetry_cell_setting 'orthorhombic'
loop_
_space_group_symop_operation_xyz
x,y,z
1/2-x,-y,1/2+z
1/2+x,1/2-y,1/2-z
-x,1/2+y,-z
-x,-y,-z
1/2+x,y,1/2-z
1/2-x,1/2+y,1/2+z
x,1/2-y,z
loop_
_atom_site_type_symbol
_atom_site_label
_atom_site_fract_x
_atom_site_fract_y
_atom_site_fract_z
Si Si1 0.840062 0.579325 0.348118
Si Si2 0.174510 0.084378 0.102025
Si Si3 0.821712 0.076851 0.219415
Si Si4 0.700849 0.921334 0.125160
Si Si5 0.635019 0.414859 0.538936
Si Si6 0.022300 0.917695 0.872071
Si Si7 0.510240 0.921582 0.065575
O O1 0.839832 0.750000 0.332055
O O2 0.749515 0.537220 0.385409
O O3 0.837943 0.484821 0.286816
O O4 0.926216 0.536337 0.390171
O O5 0.211476 0.250000 0.112863
O O6 0.084526 0.054249 0.144158
O O7 0.142077 0.062258 0.032948
O O8 0.808013 0.250000 0.222706
O O9 0.913381 0.027948 0.183332
O O10 0.731731 0.007347 0.187003
O O11 0.700455 0.750000 0.140696
O O12 0.769863 0.964068 0.070414
O O13 0.601199 0.973300 0.101840
O O14 0.614466 0.250000 0.557114
O O15 0.549659 0.505272 0.564397
O O16 0.040142 0.750000 0.885014
O O17 0.514163 0.750000 0.051911
O O18 0.500000 0.000000 0.000000
#
# Coordination Sequence:
#
# PCOD8252649 Si02
#       7
#     8   8   8   8   8   8   8
#     4  11  24  39  55  79 109 143 184 231 276 325
#     4  10  20  35  54  79 110 143 177 216 264 318
#     4  10  21  38  57  79 107 142 183 228 277 329
#     4   9  18  35  57  81 110 145 183 225 273 328
#     4   9  17  30  53  82 111 142 174 211 261 317
#     4   9  19  34  54  80 110 141 176 217 262 316
#     4  10  22  39  60  86 116 150 190 234 284 337
#
# _framework density 19.276821000000002
#
# number of rings (size 3 to 8) (size 9 to 14) (size 15 to 20)
#    0.000    2.286    0.000    2.143    0.000    5.714 
#    0.000    5.714    0.000    0.000    0.000    0.000 
#    0.000    0.000    0.000    0.000    0.000    0.000 
#
# Total GULP energy -694345.489410 kJ/mol
# GULP energy per Si atom -12399.026597 kJ/mol
# Density = 1.923295 g / cm^3
# Si number density = 19.276821 Si / 1000 Ang^3
#
#
#
# Elastic Constant Matrix: (Units=GPa)
#
#
# Indices 1 2 3 4 5 6 
#
# 1 119.5400 42.2236 46.7232 0.0000 0.0000 0.0000
# 2 42.2236 60.4292 39.0988 0.0000 0.0000 0.0000
# 3 46.7232 39.0988 80.0889 0.0000 0.0000 0.0000
# 4 0.0000 0.0000 0.0000 34.2944 0.0000 0.0000
# 5 0.0000 0.0000 0.0000 0.0000 20.4638 0.0000
# 6 0.0000 0.0000 0.0000 0.0000 0.0000 27.7201
#
#
#
# Elastic Compliance Matrix: (Units=1/GPa)
#
#
# Indices 1 2 3 4 5 6 
#
# 1 0.012024 -0.005647 -0.004258 0.000000 0.000000 0.000000
# 2 -0.005647 0.026840 -0.009809 0.000000 0.000000 0.000000
# 3 -0.004258 -0.009809 0.019759 0.000000 0.000000 0.000000
# 4 0.000000 0.000000 0.000000 0.029159 0.000000 0.000000
# 5 0.000000 0.000000 0.000000 0.000000 0.048867 0.000000
# 6 0.000000 0.000000 0.000000 0.000000 0.000000 0.036075
#
#
# Mechanical properties :
#
#
# Convention : Reuss Voigt Hill
#
# Bulk Modulus (GPa) = 52.09448 57.34993 54.72220
# Shear Modulus (GPa) = 22.87796 25.29650 24.08723
#
# Velocity S-wave (km/s) = 3.44875 3.62646 3.53872
# Velocity P-wave (km/s) = 6.55298 6.88116 6.71907
#
# Compressibility (1/GPa) = 0.01919589
#
# Stress axis : x y z
#
# Youngs Moduli (GPa) = 83.16542 37.25740 50.60963
#
# Poissons Ratio (x) = 0.21037 0.21551
# Poissons Ratio (y) = 0.46959 0.49643
# Poissons Ratio (z) = 0.35414 0.36546
#
# Static dielectric constant tensor:
#      x y z
#    x 3.772150 0.000000 0.000000 
#    y 0.000000 3.526720 0.000000 
#    z 0.000000 0.000000 3.271950 
# 
# 
# High freq. dielectric constant tensor:
#      x y z
#    x 1.758840 0.000000 0.000000 
#    y 0.000000 1.746010 0.000000 
#    z 0.000000 0.000000 1.748530 
# 
# From -- ./inp_files/27080.got.cif
#   From: 2010.03.12/outbox.cif.g09.slc.cpg/sg62_14_cif.got.tgz:27080.got - 2010.04.10 19:12:36.
