data_PCOD8252747
_publ_section_title
;
Structure prediction by ZEFSAII (Michael W. Deem and Ramdas Pophale) SiO2 
 PCOD8252747
Probable space group: P N M A
;
_chemical_formula_sum "Si O2"
_cell_formula_units_Z 64
_cell_length_a 20.064128
_cell_length_b 13.290508
_cell_length_c 12.408391
_cell_angle_alpha 90.000000
_cell_angle_beta 90.000000
_cell_angle_gamma 90.000000
_cell_volume 3308.851990
_symmetry_space_group_name_H-M "P N M A"
_symmetry_group_IT_number 62
_symmetry_cell_setting 'orthorhombic'
loop_
_space_group_symop_operation_xyz
x,y,z
1/2-x,-y,1/2+z
1/2+x,1/2-y,1/2-z
-x,1/2+y,-z
-x,-y,-z
1/2+x,y,1/2-z
1/2-x,1/2+y,1/2+z
x,1/2-y,z
loop_
_atom_site_type_symbol
_atom_site_label
_atom_site_fract_x
_atom_site_fract_y
_atom_site_fract_z
Si Si1 0.158417 0.482817 0.187790
Si Si2 0.395260 0.633272 0.276044
Si Si3 0.873859 0.861729 0.612448
Si Si4 0.243152 0.633265 0.559526
Si Si5 0.875770 0.495989 0.416116
Si Si6 0.977723 0.139041 0.314700
Si Si7 0.492596 0.492010 0.627717
Si Si8 0.252480 0.364365 0.815132
O O1 0.160830 0.395788 0.277438
O O2 0.187778 0.426253 0.082297
O O3 0.084710 0.525350 0.160797
O O4 0.204747 0.574065 0.228227
O O5 0.401648 0.750000 0.263493
O O6 0.395279 0.588931 0.157571
O O7 0.460180 0.601166 0.343116
O O8 0.324601 0.600653 0.327979
O O9 0.846289 0.750000 0.578588
O O10 0.951254 0.852269 0.632152
O O11 0.860204 0.952530 0.530085
O O12 0.248323 0.750000 0.595970
O O13 0.187132 0.570427 0.624606
O O14 0.219295 0.626868 0.435661
O O15 0.937205 0.419040 0.407894
O O16 0.947206 0.250000 0.295819
O O17 0.978935 0.086526 0.196465
O O18 0.500000 0.500000 0.500000
O O19 0.255477 0.250000 0.773047
#
# Coordination Sequence:
#
# PCOD8252747 Si02
#       8
#     8   8   8   8   8   8   8   8
#     4  11  21  39  60  86 119 157 202 253 303 361
#     4  10  21  38  59  84 118 158 197 243 303 364
#     4  10  20  35  56  83 113 150 195 241 296 357
#     4  11  22  36  59  86 116 157 202 247 302 363
#     4  11  19  34  57  83 119 150 193 240 297 352
#     4   9  20  36  55  81 115 152 194 245 295 356
#     4  10  22  38  61  87 116 156 204 254 305 360
#     4  10  21  38  59  85 118 159 200 247 304 360
#
# _framework density 19.342054999999998
#
# number of rings (size 3 to 8) (size 9 to 14) (size 15 to 20)
#    0.000    1.750    2.500    2.250    0.000    1.500 
#    0.000    0.000    0.000    0.000    0.000    0.000 
#    0.000    0.000    0.000    0.000    0.000    0.000 
#
# Total GULP energy -793012.625169 kJ/mol
# GULP energy per Si atom -12390.822268 kJ/mol
# Density = 1.929803 g / cm^3
# Si number density = 19.342055 Si / 1000 Ang^3
#
#
#
# Elastic Constant Matrix: (Units=GPa)
#
#
# Indices 1 2 3 4 5 6 
#
# 1 91.3210 66.2547 31.5683 0.0000 0.0000 0.0000
# 2 66.2547 124.0027 34.0812 0.0000 0.0000 0.0000
# 3 31.5683 34.0812 60.0775 0.0000 0.0000 0.0000
# 4 0.0000 0.0000 0.0000 17.9721 0.0000 0.0000
# 5 0.0000 0.0000 0.0000 0.0000 22.7730 0.0000
# 6 0.0000 0.0000 0.0000 0.0000 0.0000 28.3041
#
#
#
# Elastic Compliance Matrix: (Units=1/GPa)
#
#
# Indices 1 2 3 4 5 6 
#
# 1 0.019083 -0.008815 -0.005027 0.000000 0.000000 0.000000
# 2 -0.008815 0.013625 -0.003098 0.000000 0.000000 0.000000
# 3 -0.005027 -0.003098 0.021044 0.000000 0.000000 0.000000
# 4 0.000000 0.000000 0.000000 0.055642 0.000000 0.000000
# 5 0.000000 0.000000 0.000000 0.000000 0.043912 0.000000
# 6 0.000000 0.000000 0.000000 0.000000 0.000000 0.035331
#
#
# Mechanical properties :
#
#
# Convention : Reuss Voigt Hill
#
# Bulk Modulus (GPa) = 50.31759 59.91217 55.11488
# Shear Modulus (GPa) = 21.82070 23.37630 22.59850
#
# Velocity S-wave (km/s) = 3.36244 3.48023 3.42184
# Velocity P-wave (km/s) = 6.41449 6.86962 6.64595
#
# Compressibility (1/GPa) = 0.01987377
#
# Stress axis : x y z
#
# Youngs Moduli (GPa) = 52.40199 73.39254 47.51939
#
# Poissons Ratio (x) = 0.64692 0.23888
# Poissons Ratio (y) = 0.46190 0.14721
# Poissons Ratio (z) = 0.26343 0.22736
#
# Static dielectric constant tensor:
#      x y z
#    x 3.634110 0.000000 0.000000 
#    y 0.000000 3.961210 0.000000 
#    z 0.000000 0.000000 3.370820 
# 
# 
# High freq. dielectric constant tensor:
#      x y z
#    x 1.754830 0.000000 0.000000 
#    y 0.000000 1.762210 0.000000 
#    z 0.000000 0.000000 1.741180 
# 
# From -- ./inp_files/14318.got.cif
#   From: 2010.03.12/outbox.cif.g09.slc.cpg/sg62_8_cif.got.tgz:14318.got - 2010.04.10 19:12:36.
