data_PCOD8252286
_publ_section_title
;
Structure prediction by ZEFSAII (Michael W. Deem and Ramdas Pophale) SiO2 
 PCOD8252286
Probable space group: P N M A
;
_chemical_formula_sum "Si O2"
_cell_formula_units_Z 56
_cell_length_a 13.823514
_cell_length_b 9.251484
_cell_length_c 24.281570
_cell_angle_alpha 90.000000
_cell_angle_beta 90.000000
_cell_angle_gamma 90.000000
_cell_volume 3105.321876
_symmetry_space_group_name_H-M "P N M A"
_symmetry_group_IT_number 62
_symmetry_cell_setting 'orthorhombic'
loop_
_space_group_symop_operation_xyz
x,y,z
1/2-x,-y,1/2+z
1/2+x,1/2-y,1/2-z
-x,1/2+y,-z
-x,-y,-z
1/2+x,y,1/2-z
1/2-x,1/2+y,1/2+z
x,1/2-y,z
loop_
_atom_site_type_symbol
_atom_site_label
_atom_site_fract_x
_atom_site_fract_y
_atom_site_fract_z
Si Si1 0.581708 0.919981 0.344352
Si Si2 0.702300 0.079149 0.826751
Si Si3 0.082346 0.419889 0.570284
Si Si4 0.005519 0.916176 0.943478
Si Si5 0.297400 0.085663 0.381492
Si Si6 0.388042 0.919816 0.285065
Si Si7 0.390655 0.580569 0.945981
O O1 0.578880 0.750000 0.358520
O O2 0.685750 0.968655 0.320701
O O3 0.499324 0.960323 0.299353
O O4 0.565589 0.007888 0.400223
O O5 0.696426 0.250000 0.827113
O O6 0.657101 0.020676 0.883841
O O7 0.639605 0.019381 0.775299
O O8 0.064973 0.250000 0.576542
O O9 0.124281 0.459656 0.510235
O O10 0.980492 0.497145 0.580198
O O11 0.973448 0.750000 0.951085
O O12 0.115083 0.927891 0.923755
O O13 0.000000 0.000000 0.000000
O O14 0.284067 0.250000 0.361728
O O15 0.203287 0.028189 0.413137
O O16 0.313931 0.989056 0.328058
O O17 0.371555 0.750000 0.288415
O O18 0.409189 0.750000 0.939306
#
# Coordination Sequence:
#
# PCOD8252286 Si02
#       7
#     8   8   8   8   8   8   8
#     4   9  18  33  52  73 104 138 171 212 255 302
#     4   9  18  32  54  78 102 137 175 211 260 308
#     4   9  18  32  51  74 100 131 169 211 254 303
#     4  10  20  33  51  76 104 133 168 209 256 311
#     4   9  19  34  52  72  99 137 170 201 254 317
#     4   9  18  33  51  76 103 129 172 219 249 291
#     4   9  18  33  51  72 101 133 167 207 252 306
#
# _framework density 18.033556999999998
#
# number of rings (size 3 to 8) (size 9 to 14) (size 15 to 20)
#    0.000    2.857    0.000    0.429    2.000    2.286 
#    0.000    5.000    0.000    3.429    0.000    0.000 
#    0.000    0.000    0.000    0.000    0.000    0.000 
#
# Total GULP energy -694355.396261 kJ/mol
# GULP energy per Si atom -12399.203505 kJ/mol
# Density = 1.799251 g / cm^3
# Si number density = 18.033557 Si / 1000 Ang^3
#
#
#
# Elastic Constant Matrix: (Units=GPa)
#
#
# Indices 1 2 3 4 5 6 
#
# 1 130.3727 31.5641 83.4113 0.0000 0.0000 0.0000
# 2 31.5641 40.2940 35.2976 0.0000 0.0000 0.0000
# 3 83.4113 35.2976 129.8549 0.0000 0.0000 0.0000
# 4 0.0000 0.0000 0.0000 25.0221 0.0000 0.0000
# 5 0.0000 0.0000 0.0000 0.0000 28.4243 0.0000
# 6 0.0000 0.0000 0.0000 0.0000 0.0000 25.7243
#
#
#
# Elastic Compliance Matrix: (Units=1/GPa)
#
#
# Indices 1 2 3 4 5 6 
#
# 1 0.013474 -0.003902 -0.007594 0.000000 0.000000 0.000000
# 2 -0.003902 0.033704 -0.006655 0.000000 0.000000 0.000000
# 3 -0.007594 -0.006655 0.014388 0.000000 0.000000 0.000000
# 4 0.000000 0.000000 0.000000 0.039965 0.000000 0.000000
# 5 0.000000 0.000000 0.000000 0.000000 0.035181 0.000000
# 6 0.000000 0.000000 0.000000 0.000000 0.000000 0.038874
#
#
# Mechanical properties :
#
#
# Convention : Reuss Voigt Hill
#
# Bulk Modulus (GPa) = 39.58318 66.78529 53.18423
# Shear Modulus (GPa) = 22.69539 25.85068 24.27304
#
# Velocity S-wave (km/s) = 3.55140 3.79024 3.67276
# Velocity P-wave (km/s) = 6.23008 7.50125 6.89502
#
# Compressibility (1/GPa) = 0.02526326
#
# Stress axis : x y z
#
# Youngs Moduli (GPa) = 74.21907 29.66986 69.50303
#
# Poissons Ratio (x) = 0.11578 0.52781
# Poissons Ratio (y) = 0.28961 0.46255
# Poissons Ratio (z) = 0.56362 0.19746
#
# Static dielectric constant tensor:
#      x y z
#    x 3.519400 0.000000 0.000000 
#    y 0.000000 3.208580 0.000000 
#    z 0.000000 0.000000 3.493990 
# 
# 
# High freq. dielectric constant tensor:
#      x y z
#    x 1.701530 0.000000 0.000000 
#    y 0.000000 1.679660 0.000000 
#    z 0.000000 0.000000 1.699280 
# 
# From -- ./inp_files/27278.got.cif
#   From: 2010.03.12/outbox.cif.g09.slc.cpg/sg62_14_cif.got.tgz:27278.got - 2010.04.10 19:12:36.
