data_PCOD8252168
_publ_section_title
;
Structure prediction by ZEFSAII (Michael W. Deem and Ramdas Pophale) SiO2 
 PCOD8252168
Probable space group: P N M A
;
_chemical_formula_sum "Si O2"
_cell_formula_units_Z 40
_cell_length_a 13.116914
_cell_length_b 14.150588
_cell_length_c 9.897217
_cell_angle_alpha 90.000000
_cell_angle_beta 90.000000
_cell_angle_gamma 90.000000
_cell_volume 1837.042696
_symmetry_space_group_name_H-M "P N M A"
_symmetry_group_IT_number 62
_symmetry_cell_setting 'orthorhombic'
loop_
_space_group_symop_operation_xyz
x,y,z
1/2-x,-y,1/2+z
1/2+x,1/2-y,1/2-z
-x,1/2+y,-z
-x,-y,-z
1/2+x,y,1/2-z
1/2-x,1/2+y,1/2+z
x,1/2-y,z
loop_
_atom_site_type_symbol
_atom_site_label
_atom_site_fract_x
_atom_site_fract_y
_atom_site_fract_z
Si Si1 0.203344 0.942208 0.957677
Si Si2 0.473886 0.250000 0.142407
Si Si3 0.838977 0.250000 0.621632
Si Si4 0.150316 0.250000 0.059690
Si Si5 0.164093 0.552790 0.254508
Si Si6 0.210679 0.250000 0.353588
Si Si7 0.994903 0.591938 0.842517
O O1 0.233879 0.838813 0.914498
O O2 0.081356 0.955490 0.936677
O O3 0.265158 0.020618 0.877334
O O4 0.227570 0.955482 0.115624
O O5 0.593013 0.250000 0.104788
O O6 0.448786 0.342483 0.231504
O O7 0.411158 0.250000 0.006814
O O8 0.720299 0.250000 0.573850
O O9 0.865846 0.160591 0.715003
O O10 0.223428 0.250000 0.191399
O O11 0.081215 0.155131 0.064742
O O12 0.063891 0.488216 0.242310
#
# Coordination Sequence:
#
# PCOD8252168 Si02
#       7
#     8   4   4   4   8   4   8
#     4  12  24  45  70  98 137 180 218 292 330 402
#     4  10  22  40  71 103 127 176 217 286 327 411
#     4  12  27  41  65 100 146 173 221 290 334 386
#     4  10  19  44  69 103 130 177 225 269 339 420
#     4  12  27  43  66 101 139 176 234 268 345 400
#     4  10  20  43  69 100 135 166 233 261 350 391
#     4  10  22  43  72  98 131 180 227 273 339 410
#
# _framework density 21.774125999999999
#
# number of rings (size 3 to 8) (size 9 to 14) (size 15 to 20)
#    0.000    1.200    4.000    4.800    2.800    2.400 
#    0.000    3.000    0.000    0.000    0.000    0.000 
#    0.000    0.000    0.000    0.000    0.000    0.000 
#
# Total GULP energy -496178.328132 kJ/mol
# GULP energy per Si atom -12404.458203 kJ/mol
# Density = 2.172457 g / cm^3
# Si number density = 21.774126 Si / 1000 Ang^3
#
#
#
# Elastic Constant Matrix: (Units=GPa)
#
#
# Indices 1 2 3 4 5 6 
#
# 1 60.4546 16.7419 23.3594 0.0000 0.0000 0.0000
# 2 16.7419 133.8286 28.8404 0.0000 0.0000 0.0000
# 3 23.3594 28.8404 110.9070 0.0000 0.0000 0.0000
# 4 0.0000 0.0000 0.0000 -33.5422 0.0000 0.0000
# 5 0.0000 0.0000 0.0000 0.0000 35.0516 0.0000
# 6 0.0000 0.0000 0.0000 0.0000 0.0000 28.2413
#
#
#
# Elastic Compliance Matrix: (Units=1/GPa)
#
#
# Indices 1 2 3 4 5 6 
#
# 1 0.018304 -0.001546 -0.003453 0.000000 0.000000 0.000000
# 2 -0.001546 0.008046 -0.001767 0.000000 0.000000 0.000000
# 3 -0.003453 -0.001767 0.010203 0.000000 0.000000 0.000000
# 4 0.000000 0.000000 0.000000 -0.029813 0.000000 0.000000
# 5 0.000000 0.000000 0.000000 0.000000 0.028529 0.000000
# 6 0.000000 0.000000 0.000000 0.000000 0.000000 0.035409
#
#
# Mechanical properties :
#
#
# Convention : Reuss Voigt Hill
#
# Bulk Modulus (GPa) = 43.43667 49.23040 46.33354
# Shear Modulus (GPa) = 54.41641 21.70004 38.05822
#
# Velocity S-wave (km/s) = 5.00456 3.16032 4.18528
# Velocity P-wave (km/s) = 7.30658 5.99796 6.68437
#
# Compressibility (1/GPa) = 0.02302202
#
# Stress axis : x y z
#
# Youngs Moduli (GPa) = 54.63388 124.27978 98.00717
#
# Poissons Ratio (x) = 0.19209 0.33844
# Poissons Ratio (y) = 0.08444 0.17316
# Poissons Ratio (z) = 0.18866 0.21958
#
# Static dielectric constant tensor:
#      x y z
#    x 3.898110 0.000000 0.000000 
#    y 0.000000 4.132030 0.000000 
#    z 0.000000 0.000000 3.809570 
# 
# 
# High freq. dielectric constant tensor:
#      x y z
#    x 1.854240 0.000000 0.000000 
#    y 0.000000 1.873540 0.000000 
#    z 0.000000 0.000000 1.848550 
# 
# From -- ./inp_files/6165.got.cif
#   From: 2010.03.12/outbox.cif.g09.slc.cpg/sg62_4_cif.got.tgz:6165.got - 2010.04.10 19:12:36.
