data_PCOD8252143
_publ_section_title
;
Structure prediction by ZEFSAII (Michael W. Deem and Ramdas Pophale) SiO2 
 PCOD8252143
Probable space group: P N M A
;
_chemical_formula_sum "Si O2"
_cell_formula_units_Z 56
_cell_length_a 18.752680
_cell_length_b 8.647188
_cell_length_c 17.221506
_cell_angle_alpha 90.000000
_cell_angle_beta 90.000000
_cell_angle_gamma 90.000000
_cell_volume 2792.604100
_symmetry_space_group_name_H-M "P N M A"
_symmetry_group_IT_number 62
_symmetry_cell_setting 'orthorhombic'
loop_
_space_group_symop_operation_xyz
x,y,z
1/2-x,-y,1/2+z
1/2+x,1/2-y,1/2-z
-x,1/2+y,-z
-x,-y,-z
1/2+x,y,1/2-z
1/2-x,1/2+y,1/2+z
x,1/2-y,z
loop_
_atom_site_type_symbol
_atom_site_label
_atom_site_fract_x
_atom_site_fract_y
_atom_site_fract_z
Si Si1 0.644738 0.929559 0.046339
Si Si2 0.300691 0.931523 0.406715
Si Si3 0.895003 0.070479 0.373370
Si Si4 0.278655 0.931862 0.235497
Si Si5 0.947281 0.929602 0.678832
Si Si6 0.374038 0.068295 0.678523
Si Si7 0.923184 0.932906 0.982304
O O1 0.631515 0.750000 0.067090
O O2 0.728545 0.968981 0.046339
O O3 0.606860 0.034536 0.109776
O O4 0.613166 0.974131 0.963147
O O5 0.312094 0.750000 0.399323
O O6 0.296501 0.004682 0.320130
O O7 0.367258 0.001656 0.454473
O O8 0.877893 0.250000 0.359805
O O9 0.973887 0.024578 0.347985
O O10 0.840518 0.970584 0.324005
O O11 0.270505 0.750000 0.244608
O O12 0.203275 0.996563 0.204483
O O13 0.941630 0.750000 0.700531
O O14 0.930349 0.032014 0.753871
O O15 0.373493 0.250000 0.661351
O O16 0.397367 0.978738 0.602412
O O17 0.926952 0.750000 0.987857
O O18 0.000000 0.000000 0.000000
#
# Coordination Sequence:
#
# PCOD8252143 Si02
#       7
#     8   8   8   8   8   8   8
#     4  10  19  39  64  85 117 159 198 237 297 365
#     4   9  19  38  62  87 116 157 203 247 300 362
#     4  10  23  38  58  89 123 157 194 242 301 361
#     4  10  21  39  63  90 118 156 207 252 296 361
#     4  11  23  38  58  92 127 155 197 248 300 360
#     4  11  23  42  65  88 120 162 207 251 307 368
#     4  11  24  42  65  93 128 165 209 259 311 368
#
# _framework density 20.052969000000001
#
# number of rings (size 3 to 8) (size 9 to 14) (size 15 to 20)
#    0.000    1.714    1.429    2.571    2.000    4.000 
#    0.000    2.143    0.000    0.000    0.000    0.000 
#    0.000    0.000    0.000    0.000    0.000    0.000 
#
# Total GULP energy -694616.114728 kJ/mol
# GULP energy per Si atom -12403.859192 kJ/mol
# Density = 2.000733 g / cm^3
# Si number density = 20.052969 Si / 1000 Ang^3
#
#
#
# Elastic Constant Matrix: (Units=GPa)
#
#
# Indices 1 2 3 4 5 6 
#
# 1 139.8506 29.8484 70.8279 0.0000 0.0000 0.0000
# 2 29.8484 32.1474 18.9589 0.0000 0.0000 0.0000
# 3 70.8279 18.9589 138.8195 0.0000 0.0000 0.0000
# 4 0.0000 0.0000 0.0000 30.1085 0.0000 0.0000
# 5 0.0000 0.0000 0.0000 0.0000 23.4353 0.0000
# 6 0.0000 0.0000 0.0000 0.0000 0.0000 28.9740
#
#
#
# Elastic Compliance Matrix: (Units=1/GPa)
#
#
# Indices 1 2 3 4 5 6 
#
# 1 0.011118 -0.007589 -0.004636 0.000000 0.000000 0.000000
# 2 -0.007589 0.039012 -0.001456 0.000000 0.000000 0.000000
# 3 -0.004636 -0.001456 0.009768 0.000000 0.000000 0.000000
# 4 0.000000 0.000000 0.000000 0.033213 0.000000 0.000000
# 5 0.000000 0.000000 0.000000 0.000000 0.042671 0.000000
# 6 0.000000 0.000000 0.000000 0.000000 0.000000 0.034514
#
#
# Mechanical properties :
#
#
# Convention : Reuss Voigt Hill
#
# Bulk Modulus (GPa) = 30.73564 61.12087 45.92826
# Shear Modulus (GPa) = 23.98052 29.24906 26.61479
#
# Velocity S-wave (km/s) = 3.46187 3.82329 3.64706
# Velocity P-wave (km/s) = 5.59821 7.07361 6.37871
#
# Compressibility (1/GPa) = 0.03253552
#
# Stress axis : x y z
#
# Youngs Moduli (GPa) = 89.94230 25.63346 102.37576
#
# Poissons Ratio (x) = 0.19453 0.47464
# Poissons Ratio (y) = 0.68256 0.14905
# Poissons Ratio (z) = 0.41700 0.03732
#
# Static dielectric constant tensor:
#      x y z
#    x 4.028950 0.000000 0.000000 
#    y 0.000000 3.421490 0.000000 
#    z 0.000000 0.000000 4.143440 
# 
# 
# High freq. dielectric constant tensor:
#      x y z
#    x 1.796770 0.000000 0.000000 
#    y 0.000000 1.762050 0.000000 
#    z 0.000000 0.000000 1.798260 
# 
# From -- ./inp_files/20295.got.cif
#   From: 2010.03.12/outbox.cif.g09.slc.cpg/sg62_11_cif.got.tgz:20295.got - 2010.04.10 19:12:36.
