data_PCOD8252708
_publ_section_title
;
Structure prediction by ZEFSAII (Michael W. Deem and Ramdas Pophale) SiO2 
 PCOD8252708
Probable space group: P N M A
;
_chemical_formula_sum "Si O2"
_cell_formula_units_Z 56
_cell_length_a 15.745424
_cell_length_b 9.538502
_cell_length_c 18.868855
_cell_angle_alpha 90.000000
_cell_angle_beta 90.000000
_cell_angle_gamma 90.000000
_cell_volume 2833.871034
_symmetry_space_group_name_H-M "P N M A"
_symmetry_group_IT_number 62
_symmetry_cell_setting 'orthorhombic'
loop_
_space_group_symop_operation_xyz
x,y,z
1/2-x,-y,1/2+z
1/2+x,1/2-y,1/2-z
-x,1/2+y,-z
-x,-y,-z
1/2+x,y,1/2-z
1/2-x,1/2+y,1/2+z
x,1/2-y,z
loop_
_atom_site_type_symbol
_atom_site_label
_atom_site_fract_x
_atom_site_fract_y
_atom_site_fract_z
Si Si1 0.124803 0.085196 0.663707
Si Si2 0.273667 0.087327 0.764079
Si Si3 0.378446 0.909061 0.507895
Si Si4 0.979126 0.408965 0.900924
Si Si5 0.086494 0.084169 0.504588
Si Si6 0.786024 0.090753 0.577149
Si Si7 0.462605 0.411176 0.757933
O O1 0.122191 0.250000 0.680037
O O2 0.204640 0.020311 0.708904
O O3 0.133031 0.054074 0.580033
O O4 0.033698 0.020933 0.690020
O O5 0.281201 0.250000 0.743693
O O6 0.244332 0.064416 0.845532
O O7 0.368533 0.018012 0.759416
O O8 0.397993 0.750000 0.528147
O O9 0.439199 0.960624 0.444278
O O10 0.283072 0.930196 0.483504
O O11 0.396116 0.001656 0.577392
O O12 0.954956 0.250000 0.917975
O O13 0.002218 0.429302 0.819530
O O14 0.071582 0.250000 0.493670
O O15 0.141904 0.022637 0.440023
O O16 0.000000 0.000000 0.500000
O O17 0.822949 0.250000 0.574534
O O18 0.449581 0.250000 0.780114
#
# Coordination Sequence:
#
# PCOD8252708 Si02
#       7
#     8   8   8   8   8   8   8
#     4   9  18  32  52  82 111 139 184 238 282 325
#     4   9  17  30  51  78 107 139 182 231 279 325
#     4   9  18  31  47  72 105 140 171 207 265 330
#     4   9  17  29  49  75 103 134 172 217 266 321
#     4  11  23  38  59  84 113 147 189 236 286 339
#     4  10  20  35  56  79 109 146 183 228 283 336
#     4   9  16  27  47  72 101 132 169 223 275 313
#
# _framework density 19.760954000000002
#
# number of rings (size 3 to 8) (size 9 to 14) (size 15 to 20)
#    0.000    2.571    0.000    2.143    2.000    6.286 
#    0.000    0.000    0.000    6.000    0.000    0.000 
#    0.000    0.000    0.000    0.000    0.000    0.000 
#
# Total GULP energy -693961.225840 kJ/mol
# GULP energy per Si atom -12392.164747 kJ/mol
# Density = 1.971598 g / cm^3
# Si number density = 19.760954 Si / 1000 Ang^3
#
#
#
# Elastic Constant Matrix: (Units=GPa)
#
#
# Indices 1 2 3 4 5 6 
#
# 1 93.8571 23.5132 28.8428 0.0000 0.0000 0.0000
# 2 23.5132 52.8231 24.1677 0.0000 0.0000 0.0000
# 3 28.8428 24.1677 64.4532 0.0000 0.0000 0.0000
# 4 0.0000 0.0000 0.0000 18.8023 0.0000 0.0000
# 5 0.0000 0.0000 0.0000 0.0000 36.6122 0.0000
# 6 0.0000 0.0000 0.0000 0.0000 0.0000 22.2362
#
#
#
# Elastic Compliance Matrix: (Units=1/GPa)
#
#
# Indices 1 2 3 4 5 6 
#
# 1 0.012942 -0.003756 -0.004384 0.000000 0.000000 0.000000
# 2 -0.003756 0.023941 -0.007296 0.000000 0.000000 0.000000
# 3 -0.004384 -0.007296 0.020213 0.000000 0.000000 0.000000
# 4 0.000000 0.000000 0.000000 0.053185 0.000000 0.000000
# 5 0.000000 0.000000 0.000000 0.000000 0.027313 0.000000
# 6 0.000000 0.000000 0.000000 0.000000 0.000000 0.044972
#
#
# Mechanical properties :
#
#
# Convention : Reuss Voigt Hill
#
# Bulk Modulus (GPa) = 38.13135 40.46453 39.29794
# Shear Modulus (GPa) = 22.50440 24.50414 23.50427
#
# Velocity S-wave (km/s) = 3.37832 3.52522 3.45255
# Velocity P-wave (km/s) = 5.87840 6.09024 5.98526
#
# Compressibility (1/GPa) = 0.02622514
#
# Stress axis : x y z
#
# Youngs Moduli (GPa) = 77.26531 41.76920 49.47395
#
# Poissons Ratio (x) = 0.15687 0.21687
# Poissons Ratio (y) = 0.29017 0.36098
# Poissons Ratio (z) = 0.33870 0.30477
#
# Static dielectric constant tensor:
#      x y z
#    x 3.843900 0.000000 0.000000 
#    y 0.000000 3.151010 0.000000 
#    z 0.000000 0.000000 3.673170 
# 
# 
# High freq. dielectric constant tensor:
#      x y z
#    x 1.779470 0.000000 0.000000 
#    y 0.000000 1.706460 0.000000 
#    z 0.000000 0.000000 1.777450 
# 
# From -- ./inp_files/27267.got.cif
#   From: 2010.03.12/outbox.cif.g09.slc.cpg/sg62_14_cif.got.tgz:27267.got - 2010.04.10 19:12:36.
