data_PCOD8252532
_publ_section_title
;
Structure prediction by ZEFSAII (Michael W. Deem and Ramdas Pophale) SiO2 
 PCOD8252532
Probable space group: P N M A
;
_chemical_formula_sum "Si O2"
_cell_formula_units_Z 64
_cell_length_a 11.546163
_cell_length_b 9.099626
_cell_length_c 32.564778
_cell_angle_alpha 90.000000
_cell_angle_beta 90.000000
_cell_angle_gamma 90.000000
_cell_volume 3421.443314
_symmetry_space_group_name_H-M "P N M A"
_symmetry_group_IT_number 62
_symmetry_cell_setting 'orthorhombic'
loop_
_space_group_symop_operation_xyz
x,y,z
1/2-x,-y,1/2+z
1/2+x,1/2-y,1/2-z
-x,1/2+y,-z
-x,-y,-z
1/2+x,y,1/2-z
1/2-x,1/2+y,1/2+z
x,1/2-y,z
loop_
_atom_site_type_symbol
_atom_site_label
_atom_site_fract_x
_atom_site_fract_y
_atom_site_fract_z
Si Si1 0.199118 0.582094 0.324817
Si Si2 0.966359 0.577378 0.865370
Si Si3 0.918169 0.079920 0.441612
Si Si4 0.053267 0.080131 0.701322
Si Si5 0.103518 0.578059 0.783872
Si Si6 0.165535 0.418315 0.905938
Si Si7 0.721572 0.076572 0.870873
Si Si8 0.357414 0.081637 0.967003
O O1 0.222022 0.750000 0.312488
O O2 0.268911 0.485317 0.291981
O O3 0.240407 0.548112 0.370712
O O4 0.064041 0.542818 0.323131
O O5 0.947702 0.750000 0.870488
O O6 0.846070 0.496748 0.871070
O O7 0.017678 0.534744 0.820954
O O8 0.054290 0.522519 0.900765
O O9 0.919682 0.250000 0.428452
O O10 0.850163 0.056331 0.484347
O O11 0.853613 0.984833 0.407943
O O12 0.049479 0.025193 0.446242
O O13 0.058911 0.250000 0.713953
O O14 0.159988 0.037197 0.672115
O O15 0.052486 0.985453 0.742261
O O16 0.115728 0.750000 0.779123
O O17 0.122880 0.250000 0.903951
O O18 0.230140 0.453695 0.948747
O O19 0.733983 0.250000 0.876593
O O20 0.392559 0.250000 0.956707
#
# Coordination Sequence:
#
# PCOD8252532 Si02
#       8
#     8   8   8   8   8   8   8   8
#     4   9  18  34  55  78 104 134 175 223 264 313
#     4  10  22  39  56  79 112 146 182 228 281 336
#     4  10  20  34  55  86 120 151 182 228 284 333
#     4  10  22  37  56  80 104 138 184 228 269 321
#     4  10  22  37  54  78 109 140 174 221 277 330
#     4   9  17  34  59  82 106 142 186 228 269 320
#     4  11  23  39  58  80 109 148 190 231 276 331
#     4   9  18  34  58  86 117 149 186 229 275 331
#
# _framework density 18.705556999999999
#
# number of rings (size 3 to 8) (size 9 to 14) (size 15 to 20)
#    0.000    2.250    0.000    2.250    1.750    6.000 
#    0.000    3.125    0.000    0.000    0.000    0.000 
#    0.000    0.000    0.000    0.000    0.000    0.000 
#
# Total GULP energy -793796.880959 kJ/mol
# GULP energy per Si atom -12403.076265 kJ/mol
# Density = 1.866298 g / cm^3
# Si number density = 18.705557 Si / 1000 Ang^3
#
#
#
# Elastic Constant Matrix: (Units=GPa)
#
#
# Indices 1 2 3 4 5 6 
#
# 1 58.0718 28.1228 9.5172 0.0000 0.0000 0.0000
# 2 28.1228 72.5453 30.3531 0.0000 0.0000 0.0000
# 3 9.5172 30.3531 56.8879 0.0000 0.0000 0.0000
# 4 0.0000 0.0000 0.0000 29.3848 0.0000 0.0000
# 5 0.0000 0.0000 0.0000 0.0000 21.7108 0.0000
# 6 0.0000 0.0000 0.0000 0.0000 0.0000 29.3737
#
#
#
# Elastic Compliance Matrix: (Units=1/GPa)
#
#
# Indices 1 2 3 4 5 6 
#
# 1 0.021252 -0.008691 0.001082 0.000000 0.000000 0.000000
# 2 -0.008691 0.021300 -0.009911 0.000000 0.000000 0.000000
# 3 0.001082 -0.009911 0.022686 0.000000 0.000000 0.000000
# 4 0.000000 0.000000 0.000000 0.034031 0.000000 0.000000
# 5 0.000000 0.000000 0.000000 0.000000 0.046060 0.000000
# 6 0.000000 0.000000 0.000000 0.000000 0.000000 0.034044
#
#
# Mechanical properties :
#
#
# Convention : Reuss Voigt Hill
#
# Bulk Modulus (GPa) = 33.11573 35.94348 34.52961
# Shear Modulus (GPa) = 22.27378 24.06131 23.16754
#
# Velocity S-wave (km/s) = 3.45448 3.59042 3.52310
# Velocity P-wave (km/s) = 5.80115 6.03699 5.92025
#
# Compressibility (1/GPa) = 0.03019713
#
# Stress axis : x y z
#
# Youngs Moduli (GPa) = 47.05524 46.94734 44.08084
#
# Poissons Ratio (x) = 0.40802 -0.04769
# Poissons Ratio (y) = 0.40896 0.43689
# Poissons Ratio (z) = -0.05091 0.46530
#
# Static dielectric constant tensor:
#      x y z
#    x 3.429280 0.000000 0.000000 
#    y 0.000000 3.490620 0.000000 
#    z 0.000000 0.000000 3.473000 
# 
# 
# High freq. dielectric constant tensor:
#      x y z
#    x 1.724710 0.000000 0.000000 
#    y 0.000000 1.730630 0.000000 
#    z 0.000000 0.000000 1.722730 
# 
# From -- ./inp_files/32451.got.cif
#   From: 2010.03.12/outbox.cif.g09.slc.cpg/sg62_17_cif.got.tgz:32451.got - 2010.04.10 19:12:36.
