data_PCOD8252000
_publ_section_title
;
Structure prediction by ZEFSAII (Michael W. Deem and Ramdas Pophale) SiO2 
 PCOD8252000
Probable space group: P N M A
;
_chemical_formula_sum "Si O2"
_cell_formula_units_Z 64
_cell_length_a 19.786969
_cell_length_b 18.294188
_cell_length_c 9.270932
_cell_angle_alpha 90.000000
_cell_angle_beta 90.000000
_cell_angle_gamma 90.000000
_cell_volume 3355.952512
_symmetry_space_group_name_H-M "P N M A"
_symmetry_group_IT_number 62
_symmetry_cell_setting 'orthorhombic'
loop_
_space_group_symop_operation_xyz
x,y,z
1/2-x,-y,1/2+z
1/2+x,1/2-y,1/2-z
-x,1/2+y,-z
-x,-y,-z
1/2+x,y,1/2-z
1/2-x,1/2+y,1/2+z
x,1/2-y,z
loop_
_atom_site_type_symbol
_atom_site_label
_atom_site_fract_x
_atom_site_fract_y
_atom_site_fract_z
Si Si1 0.343038 0.166101 0.900022
Si Si2 0.415421 0.566464 0.399265
Si Si3 0.526437 0.587359 0.619442
Si Si4 0.263355 0.546174 0.373007
Si Si5 0.363502 0.166408 0.570050
Si Si6 0.727116 0.413453 0.949096
Si Si7 0.091773 0.163083 0.622447
Si Si8 0.970548 0.336216 0.421587
O O1 0.322071 0.250000 0.927030
O O2 0.276185 0.118493 0.923937
O O3 0.374158 0.156672 0.740795
O O4 0.399258 0.138308 0.012146
O O5 0.453163 0.591916 0.544352
O O6 0.453243 0.494921 0.337653
O O7 0.338126 0.548686 0.441262
O O8 0.418155 0.630184 0.281095
O O9 0.581516 0.617796 0.509009
O O10 0.521622 0.633811 0.762599
O O11 0.266557 0.542670 0.200544
O O12 0.224567 0.473703 0.425013
O O13 0.372806 0.250000 0.522132
O O14 0.288997 0.141235 0.524407
O O15 0.659975 0.364995 0.952353
O O16 0.094351 0.250000 0.638945
O O17 0.030843 0.135301 0.522424
O O18 0.973445 0.250000 0.413959
#
# Coordination Sequence:
#
# PCOD8252000 Si02
#       8
#     8   8   8   8   8   8   8   8
#     4   9  20  37  59  87 115 151 196 236 285 351
#     4  10  23  39  58  85 117 157 190 239 283 351
#     4  11  22  38  57  88 120 147 199 236 292 341
#     4  10  21  37  59  84 118 150 191 237 292 338
#     4  10  19  36  61  84 113 153 191 236 287 343
#     4  10  21  37  58  88 115 151 191 240 285 347
#     4  10  22  41  61  85 115 154 199 238 287 347
#     4  10  22  39  59  85 117 151 192 241 288 339
#
# _framework density 19.070591
#
# number of rings (size 3 to 8) (size 9 to 14) (size 15 to 20)
#    0.000    2.000    1.250    1.500    3.500    6.500 
#    2.250    0.000    0.000    3.750    0.000    0.000 
#    0.000    0.000    0.000    0.000    0.000    0.000 
#
# Total GULP energy -793852.774358 kJ/mol
# GULP energy per Si atom -12403.949599 kJ/mol
# Density = 1.902719 g / cm^3
# Si number density = 19.070591 Si / 1000 Ang^3
#
#
#
# Elastic Constant Matrix: (Units=GPa)
#
#
# Indices 1 2 3 4 5 6 
#
# 1 95.0365 36.1764 33.4996 0.0000 0.0000 0.0000
# 2 36.1764 33.1848 14.3618 0.0000 0.0000 0.0000
# 3 33.4996 14.3618 55.2417 0.0000 0.0000 0.0000
# 4 0.0000 0.0000 0.0000 35.2574 0.0000 0.0000
# 5 0.0000 0.0000 0.0000 0.0000 24.1722 0.0000
# 6 0.0000 0.0000 0.0000 0.0000 0.0000 29.3412
#
#
#
# Elastic Compliance Matrix: (Units=1/GPa)
#
#
# Indices 1 2 3 4 5 6 
#
# 1 0.020365 -0.018993 -0.007412 0.000000 0.000000 0.000000
# 2 -0.018993 0.051668 -0.001915 0.000000 0.000000 0.000000
# 3 -0.007412 -0.001915 0.023095 0.000000 0.000000 0.000000
# 4 0.000000 0.000000 0.000000 0.028363 0.000000 0.000000
# 5 0.000000 0.000000 0.000000 0.000000 0.041370 0.000000
# 6 0.000000 0.000000 0.000000 0.000000 0.000000 0.034082
#
#
# Mechanical properties :
#
#
# Convention : Reuss Voigt Hill
#
# Bulk Modulus (GPa) = 25.98196 39.05984 32.52090
# Shear Modulus (GPa) = 18.62815 24.38250 21.50533
#
# Velocity S-wave (km/s) = 3.12877 3.57955 3.36172
# Velocity P-wave (km/s) = 5.16778 6.13273 5.67082
#
# Compressibility (1/GPa) = 0.03848824
#
# Stress axis : x y z
#
# Youngs Moduli (GPa) = 49.10473 19.35426 43.29983
#
# Poissons Ratio (x) = 0.36759 0.32093
# Poissons Ratio (y) = 0.93264 0.08292
# Poissons Ratio (z) = 0.36395 0.03707
#
# Static dielectric constant tensor:
#      x y z
#    x 3.682310 0.000000 0.000000 
#    y 0.000000 3.523140 0.000000 
#    z 0.000000 0.000000 3.381860 
# 
# 
# High freq. dielectric constant tensor:
#      x y z
#    x 1.752920 0.000000 0.000000 
#    y 0.000000 1.747380 0.000000 
#    z 0.000000 0.000000 1.732360 
# 
# From -- ./inp_files/8897.got.cif
#   From: 2010.03.12/outbox.cif.g09.slc.cpg/sg62_5_cif.got.tgz:8897.got - 2010.04.10 19:12:36.
