data_PCOD8252178
_publ_section_title
;
Structure prediction by ZEFSAII (Michael W. Deem and Ramdas Pophale) SiO2 
 PCOD8252178
Probable space group: P N M A
;
_chemical_formula_sum "Si O2"
_cell_formula_units_Z 36
_cell_length_a 5.047856
_cell_length_b 9.666383
_cell_length_c 34.665625
_cell_angle_alpha 90.000000
_cell_angle_beta 90.000000
_cell_angle_gamma 90.000000
_cell_volume 1691.492166
_symmetry_space_group_name_H-M "P N M A"
_symmetry_group_IT_number 62
_symmetry_cell_setting 'orthorhombic'
loop_
_space_group_symop_operation_xyz
x,y,z
1/2-x,-y,1/2+z
1/2+x,1/2-y,1/2-z
-x,1/2+y,-z
-x,-y,-z
1/2+x,y,1/2-z
1/2-x,1/2+y,1/2+z
x,1/2-y,z
loop_
_atom_site_type_symbol
_atom_site_label
_atom_site_fract_x
_atom_site_fract_y
_atom_site_fract_z
Si Si1 0.394689 0.409166 0.224971
Si Si2 0.294298 0.750000 0.276131
Si Si3 0.535705 0.413433 0.961607
Si Si4 0.882306 0.403326 0.831630
Si Si5 0.042767 0.087863 0.913577
O O1 0.680057 0.446013 0.242126
O O2 0.372030 0.250000 0.212595
O O3 0.341835 0.499757 0.186908
O O4 0.488496 0.750000 0.237788
O O5 0.368355 0.615186 0.302016
O O6 0.505541 0.250000 0.970538
O O7 0.320193 0.465582 0.930417
O O8 0.819142 0.451996 0.944310
O O9 0.500000 0.500000 0.000000
O O10 0.754319 0.250000 0.839765
O O11 0.982640 0.475483 0.871257
O O12 0.059263 0.250000 0.907306
#
# Coordination Sequence:
#
# PCOD8252178 Si02
#       5
#     8   4   8   8   8
#     4  10  21  36  52  72 103 141 178 216 262 307
#     4  10  20  30  48  76 104 132 174 218 252 294
#     4  10  20  36  58  79 108 135 175 209 265 316
#     4   9  20  35  54  79 106 137 179 219 269 306
#     4   9  19  35  53  81 107 140 166 218 266 321
#
# _framework density 21.282985
#
# number of rings (size 3 to 8) (size 9 to 14) (size 15 to 20)
#    0.667    1.778    0.000    2.000    0.000    3.556 
#    0.000    2.222    0.000    0.000    0.000    0.000 
#    0.000    0.000    0.000    0.000    0.000    0.000 
#
# Total GULP energy -446202.783093 kJ/mol
# GULP energy per Si atom -12394.521753 kJ/mol
# Density = 2.123454 g / cm^3
# Si number density = 21.282985 Si / 1000 Ang^3
#
#
#
# Elastic Constant Matrix: (Units=GPa)
#
#
# Indices 1 2 3 4 5 6 
#
# 1 72.7420 8.1962 -0.7583 0.0000 0.0000 0.0000
# 2 8.1962 42.7136 27.5142 0.0000 0.0000 0.0000
# 3 -0.7583 27.5142 101.8069 0.0000 0.0000 0.0000
# 4 0.0000 0.0000 0.0000 31.7553 0.0000 0.0000
# 5 0.0000 0.0000 0.0000 0.0000 17.5067 0.0000
# 6 0.0000 0.0000 0.0000 0.0000 0.0000 11.6898
#
#
#
# Elastic Compliance Matrix: (Units=1/GPa)
#
#
# Indices 1 2 3 4 5 6 
#
# 1 0.014137 -0.003367 0.001015 0.000000 0.000000 0.000000
# 2 -0.003367 0.029148 -0.007903 0.000000 0.000000 0.000000
# 3 0.001015 -0.007903 0.011966 0.000000 0.000000 0.000000
# 4 0.000000 0.000000 0.000000 0.031491 0.000000 0.000000
# 5 0.000000 0.000000 0.000000 0.000000 0.057121 0.000000
# 6 0.000000 0.000000 0.000000 0.000000 0.000000 0.085545
#
#
# Mechanical properties :
#
#
# Convention : Reuss Voigt Hill
#
# Bulk Modulus (GPa) = 28.78280 31.90741 30.34510
# Shear Modulus (GPa) = 19.12066 24.34437 21.73252
#
# Velocity S-wave (km/s) = 3.00059 3.38574 3.19897
# Velocity P-wave (km/s) = 5.05548 5.50535 5.28520
#
# Compressibility (1/GPa) = 0.03474297
#
# Stress axis : x y z
#
# Youngs Moduli (GPa) = 70.73568 34.30729 83.57122
#
# Poissons Ratio (x) = 0.11550 -0.08484
# Poissons Ratio (y) = 0.23814 0.66043
# Poissons Ratio (z) = -0.07181 0.27112
#
# Static dielectric constant tensor:
#      x y z
#    x 4.045410 0.000000 0.000000 
#    y 0.000000 3.911900 0.000000 
#    z 0.000000 0.000000 3.988700 
# 
# 
# High freq. dielectric constant tensor:
#      x y z
#    x 1.839850 0.000000 0.000000 
#    y 0.000000 1.800370 0.000000 
#    z 0.000000 0.000000 1.833360 
# 
# From -- ./inp_files/31489.got.cif
#   From: 2010.03.12/outbox.cif.g09.slc.cpg/sg62_16_cif.got.tgz:31489.got - 2010.04.10 19:12:36.
