data_PCOD8252850
_publ_section_title
;
Structure prediction by ZEFSAII (Michael W. Deem and Ramdas Pophale) SiO2 
 PCOD8252850
Probable space group: P N M A
;
_chemical_formula_sum "Si O2"
_cell_formula_units_Z 64
_cell_length_a 14.258865
_cell_length_b 8.588914
_cell_length_c 25.205483
_cell_angle_alpha 90.000000
_cell_angle_beta 90.000000
_cell_angle_gamma 90.000000
_cell_volume 3086.869257
_symmetry_space_group_name_H-M "P N M A"
_symmetry_group_IT_number 62
_symmetry_cell_setting 'orthorhombic'
loop_
_space_group_symop_operation_xyz
x,y,z
1/2-x,-y,1/2+z
1/2+x,1/2-y,1/2-z
-x,1/2+y,-z
-x,-y,-z
1/2+x,y,1/2-z
1/2-x,1/2+y,1/2+z
x,1/2-y,z
loop_
_atom_site_type_symbol
_atom_site_label
_atom_site_fract_x
_atom_site_fract_y
_atom_site_fract_z
Si Si1 0.052677 0.433233 0.667791
Si Si2 0.277986 0.565905 0.997949
Si Si3 0.697145 0.072417 0.654884
Si Si4 0.380960 0.071974 0.900469
Si Si5 0.277685 0.433577 0.108799
Si Si6 0.054114 0.932960 0.778892
Si Si7 0.432598 0.564497 0.620955
Si Si8 0.100589 0.571144 0.941087
O O1 0.049593 0.250000 0.676581
O O2 0.156712 0.487307 0.652445
O O3 0.018108 0.515795 0.721401
O O4 0.981666 0.484096 0.620821
O O5 0.276011 0.750000 0.007472
O O6 0.313419 0.479736 0.050386
O O7 0.350329 0.531343 0.950511
O O8 0.172454 0.497186 0.984328
O O9 0.667281 0.250000 0.641709
O O10 0.809219 0.055126 0.649456
O O11 0.654905 0.019900 0.711646
O O12 0.651085 0.948633 0.615170
O O13 0.384402 0.250000 0.920114
O O14 0.281734 0.250000 0.116753
O O15 0.172495 0.501170 0.116985
O O16 0.069644 0.750000 0.780298
O O17 0.978495 0.988863 0.823236
O O18 0.432092 0.750000 0.618201
O O19 0.495142 0.501987 0.569493
O O20 0.091621 0.750000 0.955734
#
# Coordination Sequence:
#
# PCOD8252850 Si02
#       8
#     8   8   8   8   8   8   8   8
#     4  11  24  41  57  78 108 142 187 236 277 322
#     4  10  20  35  58  86 114 145 182 227 278 328
#     4   9  16  30  54  84 111 135 171 220 271 320
#     4   9  20  38  59  81 107 142 185 232 279 328
#     4  11  23  39  57  80 113 151 187 224 271 325
#     4  10  20  37  59  83 112 145 179 218 272 332
#     4   8  17  35  58  83 113 148 184 221 264 325
#     4   8  15  31  54  81 112 144 179 218 264 322
#
# _framework density 20.732980999999999
#
# number of rings (size 3 to 8) (size 9 to 14) (size 15 to 20)
#    0.000    2.500    0.000    2.625    0.000    4.000 
#    0.000    8.750    0.000    0.000    0.000    0.000 
#    0.000    0.000    0.000    0.000    0.000    0.000 
#
# Total GULP energy -792995.569188 kJ/mol
# GULP energy per Si atom -12390.555769 kJ/mol
# Density = 2.068579 g / cm^3
# Si number density = 20.732981 Si / 1000 Ang^3
#
#
#
# Elastic Constant Matrix: (Units=GPa)
#
#
# Indices 1 2 3 4 5 6 
#
# 1 74.1822 15.1204 3.5482 0.0000 0.0000 0.0000
# 2 15.1204 43.4151 13.6450 0.0000 0.0000 0.0000
# 3 3.5482 13.6450 59.3504 0.0000 0.0000 0.0000
# 4 0.0000 0.0000 0.0000 30.6684 0.0000 0.0000
# 5 0.0000 0.0000 0.0000 0.0000 25.3670 0.0000
# 6 0.0000 0.0000 0.0000 0.0000 0.0000 26.0425
#
#
#
# Elastic Compliance Matrix: (Units=1/GPa)
#
#
# Indices 1 2 3 4 5 6 
#
# 1 0.014516 -0.005155 0.000317 0.000000 0.000000 0.000000
# 2 -0.005155 0.026658 -0.005821 0.000000 0.000000 0.000000
# 3 0.000317 -0.005821 0.018168 0.000000 0.000000 0.000000
# 4 0.000000 0.000000 0.000000 0.032607 0.000000 0.000000
# 5 0.000000 0.000000 0.000000 0.000000 0.039421 0.000000
# 6 0.000000 0.000000 0.000000 0.000000 0.000000 0.038399
#
#
# Mechanical properties :
#
#
# Convention : Reuss Voigt Hill
#
# Bulk Modulus (GPa) = 26.29821 26.84166 26.56994
# Shear Modulus (GPa) = 24.53845 26.05784 25.29815
#
# Velocity S-wave (km/s) = 3.44400 3.54903 3.49691
# Velocity P-wave (km/s) = 5.34104 5.45606 5.39885
#
# Compressibility (1/GPa) = 0.03802540
#
# Stress axis : x y z
#
# Youngs Moduli (GPa) = 68.88975 37.51174 55.04084
#
# Poissons Ratio (x) = 0.19338 -0.01747
# Poissons Ratio (y) = 0.35515 0.32038
# Poissons Ratio (z) = -0.02187 0.21834
#
# Static dielectric constant tensor:
#      x y z
#    x 4.027400 0.000000 0.000000 
#    y 0.000000 3.502140 0.000000 
#    z 0.000000 0.000000 3.654070 
# 
# 
# High freq. dielectric constant tensor:
#      x y z
#    x 1.811760 0.000000 0.000000 
#    y 0.000000 1.796530 0.000000 
#    z 0.000000 0.000000 1.798530 
# 
# From -- ./inp_files/29858.got.cif
#   From: 2010.03.12/outbox.cif.g09.slc.cpg/sg62_15_cif.got.tgz:29858.got - 2010.04.10 19:12:36.
