data_PCOD8252827
_publ_section_title
;
Structure prediction by ZEFSAII (Michael W. Deem and Ramdas Pophale) SiO2 
 PCOD8252827
Probable space group: P N M A
;
_chemical_formula_sum "Si O2"
_cell_formula_units_Z 56
_cell_length_a 21.142378
_cell_length_b 8.688917
_cell_length_c 14.768646
_cell_angle_alpha 90.000000
_cell_angle_beta 90.000000
_cell_angle_gamma 90.000000
_cell_volume 2713.064774
_symmetry_space_group_name_H-M "P N M A"
_symmetry_group_IT_number 62
_symmetry_cell_setting 'orthorhombic'
loop_
_space_group_symop_operation_xyz
x,y,z
1/2-x,-y,1/2+z
1/2+x,1/2-y,1/2-z
-x,1/2+y,-z
-x,-y,-z
1/2+x,y,1/2-z
1/2-x,1/2+y,1/2+z
x,1/2-y,z
loop_
_atom_site_type_symbol
_atom_site_label
_atom_site_fract_x
_atom_site_fract_y
_atom_site_fract_z
Si Si1 0.974657 0.073204 0.142068
Si Si2 0.899829 0.570836 0.291109
Si Si3 0.909509 0.928165 0.977046
Si Si4 0.686118 0.429479 0.060453
Si Si5 0.931396 0.068903 0.481814
Si Si6 0.729422 0.425107 0.419144
Si Si7 0.725856 0.573022 0.722613
O O1 0.965560 0.250000 0.169896
O O2 0.045647 0.037975 0.108974
O O3 0.960746 0.969124 0.229771
O O4 0.926693 0.035017 0.061013
O O5 0.898748 0.750000 0.314339
O O6 0.903810 0.478278 0.384351
O O7 0.838157 0.524324 0.232922
O O8 0.915690 0.750000 0.006237
O O9 0.839803 0.975451 0.948897
O O10 0.673804 0.250000 0.073441
O O11 0.731093 0.493296 0.140882
O O12 0.617587 0.511577 0.059187
O O13 0.720234 0.462148 0.965075
O O14 0.937035 0.250000 0.487098
O O15 0.000000 0.000000 0.500000
O O16 0.744941 0.250000 0.448356
O O17 0.732013 0.443730 0.311846
O O18 0.706955 0.750000 0.703968
#
# Coordination Sequence:
#
# PCOD8252827 Si02
#       7
#     8   8   8   8   8   8   8
#     4  10  20  35  57  85 121 164 205 253 313 372
#     4  12  24  40  63  92 125 165 215 264 315 382
#     4   9  19  35  56  86 121 160 207 257 310 368
#     4  11  23  40  63  95 129 165 212 264 319 381
#     4  12  26  46  69  93 126 167 212 265 325 386
#     4  10  20  37  60  85 118 160 201 251 309 367
#     4  10  22  39  62  91 124 164 208 258 318 380
#
# _framework density 20.640864000000001
#
# number of rings (size 3 to 8) (size 9 to 14) (size 15 to 20)
#    0.000    1.429    1.429    4.286    0.000    5.714 
#    0.000    2.857    0.000    0.000    0.000    0.000 
#    0.000    0.000    0.000    0.000    0.000    0.000 
#
# Total GULP energy -694642.748581 kJ/mol
# GULP energy per Si atom -12404.334796 kJ/mol
# Density = 2.059388 g / cm^3
# Si number density = 20.640864 Si / 1000 Ang^3
#
#
#
# Elastic Constant Matrix: (Units=GPa)
#
#
# Indices 1 2 3 4 5 6 
#
# 1 125.1377 41.1831 34.3829 0.0000 0.0000 0.0000
# 2 41.1831 97.1725 26.6289 0.0000 0.0000 0.0000
# 3 34.3829 26.6289 77.2631 0.0000 0.0000 0.0000
# 4 0.0000 0.0000 0.0000 33.1908 0.0000 0.0000
# 5 0.0000 0.0000 0.0000 0.0000 31.9185 0.0000
# 6 0.0000 0.0000 0.0000 0.0000 0.0000 32.2555
#
#
#
# Elastic Compliance Matrix: (Units=1/GPa)
#
#
# Indices 1 2 3 4 5 6 
#
# 1 0.009994 -0.003332 -0.003299 0.000000 0.000000 0.000000
# 2 -0.003332 0.012475 -0.002817 0.000000 0.000000 0.000000
# 3 -0.003299 -0.002817 0.015382 0.000000 0.000000 0.000000
# 4 0.000000 0.000000 0.000000 0.030129 0.000000 0.000000
# 5 0.000000 0.000000 0.000000 0.000000 0.031330 0.000000
# 6 0.000000 0.000000 0.000000 0.000000 0.000000 0.031002
#
#
# Mechanical properties :
#
#
# Convention : Reuss Voigt Hill
#
# Bulk Modulus (GPa) = 52.75544 55.99592 54.37568
# Shear Modulus (GPa) = 32.14899 32.63152 32.39026
#
# Velocity S-wave (km/s) = 3.95085 3.98039 3.96565
# Velocity P-wave (km/s) = 6.81370 6.95070 6.88254
#
# Compressibility (1/GPa) = 0.01895539
#
# Stress axis : x y z
#
# Youngs Moduli (GPa) = 100.05879 80.16112 65.01166
#
# Poissons Ratio (x) = 0.26706 0.21449
# Poissons Ratio (y) = 0.33335 0.18313
# Poissons Ratio (z) = 0.33012 0.22581
#
# Static dielectric constant tensor:
#      x y z
#    x 3.883230 0.000000 0.000000 
#    y 0.000000 3.693380 0.000000 
#    z 0.000000 0.000000 3.754310 
# 
# 
# High freq. dielectric constant tensor:
#      x y z
#    x 1.816570 0.000000 0.000000 
#    y 0.000000 1.803630 0.000000 
#    z 0.000000 0.000000 1.805940 
# 
# From -- ./inp_files/20313.got.cif
#   From: 2010.03.12/outbox.cif.g09.slc.cpg/sg62_11_cif.got.tgz:20313.got - 2010.04.10 19:12:36.
