data_PCOD8252716
_publ_section_title
;
Structure prediction by ZEFSAII (Michael W. Deem and Ramdas Pophale) SiO2 
 PCOD8252716
Probable space group: P N M A
;
_chemical_formula_sum "Si O2"
_cell_formula_units_Z 64
_cell_length_a 19.511550
_cell_length_b 9.143651
_cell_length_c 19.747816
_cell_angle_alpha 90.000000
_cell_angle_beta 90.000000
_cell_angle_gamma 90.000000
_cell_volume 3523.144732
_symmetry_space_group_name_H-M "P N M A"
_symmetry_group_IT_number 62
_symmetry_cell_setting 'orthorhombic'
loop_
_space_group_symop_operation_xyz
x,y,z
1/2-x,-y,1/2+z
1/2+x,1/2-y,1/2-z
-x,1/2+y,-z
-x,-y,-z
1/2+x,y,1/2-z
1/2-x,1/2+y,1/2+z
x,1/2-y,z
loop_
_atom_site_type_symbol
_atom_site_label
_atom_site_fract_x
_atom_site_fract_y
_atom_site_fract_z
Si Si1 0.764640 0.584398 0.210436
Si Si2 0.787149 0.579028 0.359435
Si Si3 0.426314 0.423341 0.165626
Si Si4 0.061430 0.578338 0.962274
Si Si5 0.602706 0.580707 0.683395
Si Si6 0.026415 0.575832 0.432904
Si Si7 0.789379 0.078388 0.993160
Si Si8 0.682081 0.917008 0.085766
O O1 0.790670 0.750000 0.209012
O O2 0.750882 0.538322 0.288140
O O3 0.824255 0.493965 0.174942
O O4 0.696123 0.562936 0.166235
O O5 0.807214 0.750000 0.364510
O O6 0.855926 0.483372 0.366803
O O7 0.732706 0.535499 0.416950
O O8 0.430441 0.250000 0.152080
O O9 0.432495 0.462978 0.245468
O O10 0.489009 0.507013 0.131585
O O11 0.053849 0.750000 0.975021
O O12 0.056491 0.539840 0.881885
O O13 0.133894 0.520121 0.992316
O O14 0.000000 0.500000 0.000000
O O15 0.619740 0.750000 0.682869
O O16 0.014994 0.750000 0.435141
O O17 0.105411 0.531318 0.427426
O O18 0.000000 0.500000 0.500000
O O19 0.787804 0.250000 0.005168
O O20 0.734621 0.012312 0.043843
O O21 0.692311 0.750000 0.063255
#
# Coordination Sequence:
#
# PCOD8252716 Si02
#       8
#     8   8   8   8   8   8   8   8
#     4   9  17  32  54  78 103 132 171 217 265 317
#     4   9  18  33  55  81 108 138 175 220 269 322
#     4  10  20  35  56  81 110 147 185 224 268 320
#     4  10  21  37  55  79 108 140 179 223 271 325
#     4   9  18  35  57  78 106 140 179 221 263 318
#     4  11  23  38  54  79 113 148 185 227 273 325
#     4  10  20  35  56  81 107 138 175 217 268 324
#     4  10  21  35  54  79 106 138 177 223 268 316
#
# _framework density 18.165588
#
# number of rings (size 3 to 8) (size 9 to 14) (size 15 to 20)
#    0.000    2.250    1.250    1.500    0.000    5.000 
#    2.250    0.000    0.000    0.000    0.000    0.000 
#    0.000    0.000    0.000    0.000    0.000    0.000 
#
# Total GULP energy -793476.630510 kJ/mol
# GULP energy per Si atom -12398.072352 kJ/mol
# Density = 1.812424 g / cm^3
# Si number density = 18.165588 Si / 1000 Ang^3
#
#
#
# Elastic Constant Matrix: (Units=GPa)
#
#
# Indices 1 2 3 4 5 6 
#
# 1 141.7152 50.0330 82.3567 0.0000 0.0000 0.0000
# 2 50.0330 52.6781 45.7782 0.0000 0.0000 0.0000
# 3 82.3567 45.7782 129.2677 0.0000 0.0000 0.0000
# 4 0.0000 0.0000 0.0000 28.2369 0.0000 0.0000
# 5 0.0000 0.0000 0.0000 0.0000 32.2742 0.0000
# 6 0.0000 0.0000 0.0000 0.0000 0.0000 28.6023
#
#
#
# Elastic Compliance Matrix: (Units=1/GPa)
#
#
# Indices 1 2 3 4 5 6 
#
# 1 0.012936 -0.007402 -0.005620 0.000000 0.000000 0.000000
# 2 -0.007402 0.031658 -0.006495 0.000000 0.000000 0.000000
# 3 -0.005620 -0.006495 0.013617 0.000000 0.000000 0.000000
# 4 0.000000 0.000000 0.000000 0.035415 0.000000 0.000000
# 5 0.000000 0.000000 0.000000 0.000000 0.030985 0.000000
# 6 0.000000 0.000000 0.000000 0.000000 0.000000 0.034962
#
#
# Mechanical properties :
#
#
# Convention : Reuss Voigt Hill
#
# Bulk Modulus (GPa) = 52.14979 75.55517 63.85248
# Shear Modulus (GPa) = 24.39029 27.52222 25.95625
#
# Velocity S-wave (km/s) = 3.66821 3.89662 3.78414
# Velocity P-wave (km/s) = 6.83457 7.86941 7.37018
#
# Compressibility (1/GPa) = 0.01917553
#
# Stress axis : x y z
#
# Youngs Moduli (GPa) = 77.30430 31.58714 73.43984
#
# Poissons Ratio (x) = 0.23382 0.41273
# Poissons Ratio (y) = 0.57224 0.47701
# Poissons Ratio (z) = 0.43445 0.20517
#
# Static dielectric constant tensor:
#      x y z
#    x 3.299810 0.000000 0.000000 
#    y 0.000000 3.360180 0.000000 
#    z 0.000000 0.000000 3.760530 
# 
# 
# High freq. dielectric constant tensor:
#      x y z
#    x 1.687650 0.000000 0.000000 
#    y 0.000000 1.703320 0.000000 
#    z 0.000000 0.000000 1.721250 
# 
# From -- ./inp_files/27682.got.cif
#   From: 2010.03.12/outbox.cif.g09.slc.cpg/sg62_14_cif.got.tgz:27682.got - 2010.04.10 19:12:36.
