data_PCOD8252528
_publ_section_title
;
Structure prediction by ZEFSAII (Michael W. Deem and Ramdas Pophale) SiO2 
 PCOD8252528
Probable space group: P N M A
;
_chemical_formula_sum "Si O2"
_cell_formula_units_Z 48
_cell_length_a 14.604429
_cell_length_b 8.866581
_cell_length_c 20.092131
_cell_angle_alpha 90.000000
_cell_angle_beta 90.000000
_cell_angle_gamma 90.000000
_cell_volume 2601.757222
_symmetry_space_group_name_H-M "P N M A"
_symmetry_group_IT_number 62
_symmetry_cell_setting 'orthorhombic'
loop_
_space_group_symop_operation_xyz
x,y,z
1/2-x,-y,1/2+z
1/2+x,1/2-y,1/2-z
-x,1/2+y,-z
-x,-y,-z
1/2+x,y,1/2-z
1/2-x,1/2+y,1/2+z
x,1/2-y,z
loop_
_atom_site_type_symbol
_atom_site_label
_atom_site_fract_x
_atom_site_fract_y
_atom_site_fract_z
Si Si1 0.605900 0.573197 0.183523
Si Si2 0.994158 0.427712 0.198580
Si Si3 0.737774 0.423013 0.518510
Si Si4 0.560334 0.424782 0.444156
Si Si5 0.921302 0.927602 0.543296
Si Si6 0.312800 0.922924 0.333451
O O1 0.590110 0.750000 0.172970
O O2 0.548175 0.514697 0.244906
O O3 0.571528 0.489746 0.117761
O O4 0.713054 0.538623 0.196505
O O5 0.006160 0.250000 0.208666
O O6 0.886927 0.470224 0.202022
O O7 0.036212 0.486540 0.128856
O O8 0.772322 0.250000 0.518658
O O9 0.667589 0.455574 0.458496
O O10 0.824496 0.530846 0.509449
O O11 0.686416 0.457130 0.587830
O O12 0.500000 0.500000 0.500000
O O13 0.537027 0.250000 0.447737
O O14 0.933565 0.750000 0.544646
O O15 0.000000 0.000000 0.500000
O O16 0.339500 0.750000 0.319437
#
# Coordination Sequence:
#
# PCOD8252528 Si02
#       6
#     8   8   8   8   8   8
#     4  10  22  41  61  82 113 153 195 237 285 344
#     4  11  22  35  56  87 118 151 190 239 290 341
#     4   9  18  35  57  82 115 152 189 234 281 335
#     4  10  20  34  55  85 119 152 189 232 282 336
#     4  11  22  39  63  88 114 148 191 239 288 344
#     4   9  18  35  59  80 106 150 192 231 284 341
#
# _framework density 18.449071
#
# number of rings (size 3 to 8) (size 9 to 14) (size 15 to 20)
#    0.000    2.000    1.667    3.500    0.000    4.667 
#    3.000    0.000    0.000    0.000    0.000    0.000 
#    0.000    0.000    0.000    0.000    0.000    0.000 
#
# Total GULP energy -595306.921433 kJ/mol
# GULP energy per Si atom -12402.227530 kJ/mol
# Density = 1.840708 g / cm^3
# Si number density = 18.449071 Si / 1000 Ang^3
#
#
#
# Elastic Constant Matrix: (Units=GPa)
#
#
# Indices 1 2 3 4 5 6 
#
# 1 120.1695 60.1892 76.0755 0.0000 0.0000 0.0000
# 2 60.1892 103.0978 53.9120 0.0000 0.0000 0.0000
# 3 76.0755 53.9120 100.4149 0.0000 0.0000 0.0000
# 4 0.0000 0.0000 0.0000 29.6800 0.0000 0.0000
# 5 0.0000 0.0000 0.0000 0.0000 32.5344 0.0000
# 6 0.0000 0.0000 0.0000 0.0000 0.0000 35.2107
#
#
#
# Elastic Compliance Matrix: (Units=1/GPa)
#
#
# Indices 1 2 3 4 5 6 
#
# 1 0.017395 -0.004538 -0.010742 0.000000 0.000000 0.000000
# 2 -0.004538 0.014670 -0.004438 0.000000 0.000000 0.000000
# 3 -0.010742 -0.004438 0.020480 0.000000 0.000000 0.000000
# 4 0.000000 0.000000 0.000000 0.033693 0.000000 0.000000
# 5 0.000000 0.000000 0.000000 0.000000 0.030737 0.000000
# 6 0.000000 0.000000 0.000000 0.000000 0.000000 0.028400
#
#
# Mechanical properties :
#
#
# Convention : Reuss Voigt Hill
#
# Bulk Modulus (GPa) = 76.28908 78.22618 77.25763
# Shear Modulus (GPa) = 26.42982 28.38541 27.40761
#
# Velocity S-wave (km/s) = 3.78905 3.92673 3.85851
# Velocity P-wave (km/s) = 7.78354 7.94054 7.86243
#
# Compressibility (1/GPa) = 0.01310804
#
# Stress axis : x y z
#
# Youngs Moduli (GPa) = 57.48723 68.16854 48.82842
#
# Poissons Ratio (x) = 0.30935 0.52453
# Poissons Ratio (y) = 0.26088 0.21670
# Poissons Ratio (z) = 0.61755 0.30252
#
# Static dielectric constant tensor:
#      x y z
#    x 3.612310 0.000000 0.000000 
#    y 0.000000 3.390700 0.000000 
#    z 0.000000 0.000000 2.951210 
# 
# 
# High freq. dielectric constant tensor:
#      x y z
#    x 1.722740 0.000000 0.000000 
#    y 0.000000 1.719680 0.000000 
#    z 0.000000 0.000000 1.703120 
# 
# From -- ./inp_files/26853.got.cif
#   From: 2010.03.12/outbox.cif.g09.slc.cpg/sg62_14_cif.got.tgz:26853.got - 2010.04.10 19:12:36.
