data_PCOD8252541
_publ_section_title
;
Structure prediction by ZEFSAII (Michael W. Deem and Ramdas Pophale) SiO2 
 PCOD8252541
Probable space group: P N M A
;
_chemical_formula_sum "Si O2"
_cell_formula_units_Z 40
_cell_length_a 22.578500
_cell_length_b 10.840904
_cell_length_c 8.602207
_cell_angle_alpha 90.000000
_cell_angle_beta 90.000000
_cell_angle_gamma 90.000000
_cell_volume 2105.573829
_symmetry_space_group_name_H-M "P N M A"
_symmetry_group_IT_number 62
_symmetry_cell_setting 'orthorhombic'
loop_
_space_group_symop_operation_xyz
x,y,z
1/2-x,-y,1/2+z
1/2+x,1/2-y,1/2-z
-x,1/2+y,-z
-x,-y,-z
1/2+x,y,1/2-z
1/2-x,1/2+y,1/2+z
x,1/2-y,z
loop_
_atom_site_type_symbol
_atom_site_label
_atom_site_fract_x
_atom_site_fract_y
_atom_site_fract_z
Si Si1 0.198597 0.892012 0.637211
Si Si2 0.924012 0.385428 0.501775
Si Si3 0.205178 0.109886 0.871402
Si Si4 0.487212 0.957176 0.752890
Si Si5 0.425975 0.615105 0.453050
O O1 0.194708 0.750000 0.706286
O O2 0.134494 0.940297 0.579006
O O3 0.244066 0.891756 0.497755
O O4 0.220377 0.997795 0.755245
O O5 0.908117 0.250000 0.560994
O O6 0.940900 0.457897 0.656422
O O7 0.978421 0.376039 0.379965
O O8 0.203418 0.250000 0.796873
O O9 0.142758 0.077341 0.952905
O O10 0.537140 0.027819 0.657402
O O11 0.448598 0.880393 0.631025
O O12 0.434161 0.750000 0.381154
#
# Coordination Sequence:
#
# PCOD8252541 Si02
#       5
#     8   8   8   8   8
#     4  10  22  40  60  83 114 147 188 235 279 331
#     4  10  20  36  55  81 112 144 183 230 278 329
#     4  10  22  40  60  83 114 147 188 235 279 331
#     4  10  20  34  56  82 108 148 180 226 274 340
#     4  10  20  36  55  81 112 144 183 230 278 329
#
# _framework density 18.997198000000001
#
# number of rings (size 3 to 8) (size 9 to 14) (size 15 to 20)
#    0.000    2.000    2.000    1.200    2.800    0.800 
#    0.000    2.000    0.000    0.000    0.000    0.000 
#    0.000    0.000    0.000    0.000    0.000    0.000 
#
# Total GULP energy -495683.016456 kJ/mol
# GULP energy per Si atom -12392.075411 kJ/mol
# Density = 1.895396 g / cm^3
# Si number density = 18.997198 Si / 1000 Ang^3
#
#
#
# Elastic Constant Matrix: (Units=GPa)
#
#
# Indices 1 2 3 4 5 6 
#
# 1 70.5298 26.7063 20.8309 0.0000 0.0000 0.0000
# 2 26.7063 97.4215 36.1776 0.0000 0.0000 0.0000
# 3 20.8309 36.1776 62.9934 0.0000 0.0000 0.0000
# 4 0.0000 0.0000 0.0000 15.2925 0.0000 0.0000
# 5 0.0000 0.0000 0.0000 0.0000 31.4904 0.0000
# 6 0.0000 0.0000 0.0000 0.0000 0.0000 24.4638
#
#
#
# Elastic Compliance Matrix: (Units=1/GPa)
#
#
# Indices 1 2 3 4 5 6 
#
# 1 0.016446 -0.003163 -0.003622 0.000000 0.000000 0.000000
# 2 -0.003163 0.013656 -0.006797 0.000000 0.000000 0.000000
# 3 -0.003622 -0.006797 0.020976 0.000000 0.000000 0.000000
# 4 0.000000 0.000000 0.000000 0.065392 0.000000 0.000000
# 5 0.000000 0.000000 0.000000 0.000000 0.031756 0.000000
# 6 0.000000 0.000000 0.000000 0.000000 0.000000 0.040877
#
#
# Mechanical properties :
#
#
# Convention : Reuss Voigt Hill
#
# Bulk Modulus (GPa) = 41.81630 44.26380 43.04005
# Shear Modulus (GPa) = 22.29794 24.06464 23.18129
#
# Velocity S-wave (km/s) = 3.42972 3.56300 3.49699
# Velocity P-wave (km/s) = 6.14358 6.34645 6.24584
#
# Compressibility (1/GPa) = 0.02391412
#
# Stress axis : x y z
#
# Youngs Moduli (GPa) = 60.80545 73.22908 47.67453
#
# Poissons Ratio (x) = 0.23166 0.17266
# Poissons Ratio (y) = 0.19236 0.32402
# Poissons Ratio (z) = 0.22021 0.49770
#
# Static dielectric constant tensor:
#      x y z
#    x 3.591540 0.000000 0.000000 
#    y 0.000000 3.650580 0.000000 
#    z 0.000000 0.000000 3.347640 
# 
# 
# High freq. dielectric constant tensor:
#      x y z
#    x 1.753240 0.000000 0.000000 
#    y 0.000000 1.742120 0.000000 
#    z 0.000000 0.000000 1.722050 
# 
# From -- ./inp_files/7278.got.cif
#   From: 2010.03.12/outbox.cif.g09.slc.cpg/sg62_4_cif.got.tgz:7278.got - 2010.04.10 19:12:36.
