data_PCOD8252620
_publ_section_title
;
Structure prediction by ZEFSAII (Michael W. Deem and Ramdas Pophale) SiO2 
 PCOD8252620
Probable space group: P N M A
;
_chemical_formula_sum "Si O2"
_cell_formula_units_Z 64
_cell_length_a 23.099828
_cell_length_b 8.886504
_cell_length_c 18.803156
_cell_angle_alpha 90.000000
_cell_angle_beta 90.000000
_cell_angle_gamma 90.000000
_cell_volume 3859.850075
_symmetry_space_group_name_H-M "P N M A"
_symmetry_group_IT_number 62
_symmetry_cell_setting 'orthorhombic'
loop_
_space_group_symop_operation_xyz
x,y,z
1/2-x,-y,1/2+z
1/2+x,1/2-y,1/2-z
-x,1/2+y,-z
-x,-y,-z
1/2+x,y,1/2-z
1/2-x,1/2+y,1/2+z
x,1/2-y,z
loop_
_atom_site_type_symbol
_atom_site_label
_atom_site_fract_x
_atom_site_fract_y
_atom_site_fract_z
Si Si1 0.248173 0.573265 0.002044
Si Si2 0.375999 0.574776 0.499239
Si Si3 0.270140 0.077552 0.861242
Si Si4 0.935259 0.924760 0.852653
Si Si5 0.666000 0.575096 0.279010
Si Si6 0.836372 0.577260 0.235366
Si Si7 0.443910 0.576124 0.358784
Si Si8 0.772364 0.427450 0.356103
O O1 0.250733 0.750000 0.011947
O O2 0.181967 0.520946 0.001253
O O3 0.283190 0.496546 0.066312
O O4 0.280381 0.527410 0.929218
O O5 0.358828 0.750000 0.494319
O O6 0.413854 0.537481 0.568237
O O7 0.413618 0.524930 0.431656
O O8 0.269560 0.250000 0.886683
O O9 0.320982 0.047727 0.804244
O O10 0.208430 0.034253 0.826865
O O11 0.929140 0.750000 0.835018
O O12 0.898240 0.017233 0.795026
O O13 0.001358 0.972511 0.844625
O O14 0.672367 0.750000 0.298424
O O15 0.710740 0.484104 0.327483
O O16 0.825714 0.750000 0.257326
O O17 0.900828 0.549385 0.207317
O O18 0.824883 0.476125 0.304643
O O19 0.462818 0.750000 0.363808
O O20 0.770149 0.250000 0.362099
#
# Coordination Sequence:
#
# PCOD8252620 Si02
#       8
#     8   8   8   8   8   8   8   8
#     4  12  22  31  50  77 103 135 171 207 250 309
#     4  10  20  35  49  68 101 141 177 212 250 289
#     4   9  18  34  53  72 100 131 164 209 257 303
#     4  11  22  33  50  74 103 138 177 217 250 292
#     4  10  20  35  53  73  98 133 172 209 254 305
#     4   9  18  34  53  73  98 133 171 210 254 301
#     4  10  20  35  53  70 100 141 177 212 252 299
#     4  11  21  33  51  73 102 133 165 211 259 302
#
# _framework density 16.580954999999999
#
# number of rings (size 3 to 8) (size 9 to 14) (size 15 to 20)
#    0.000    1.750    2.500    4.125    0.000    4.000 
#    0.000    0.000    0.000    0.000    0.000    0.875 
#    0.000    0.000    0.000    0.000    0.000    0.000 
#
# Total GULP energy -793849.427809 kJ/mol
# GULP energy per Si atom -12403.897310 kJ/mol
# Density = 1.654322 g / cm^3
# Si number density = 16.580955 Si / 1000 Ang^3
#
#
#
# Elastic Constant Matrix: (Units=GPa)
#
#
# Indices 1 2 3 4 5 6 
#
# 1 66.9854 34.5485 44.2882 0.0000 0.0000 0.0000
# 2 34.5485 106.9215 61.2485 0.0000 0.0000 0.0000
# 3 44.2882 61.2485 110.6163 0.0000 0.0000 0.0000
# 4 0.0000 0.0000 0.0000 28.2239 0.0000 0.0000
# 5 0.0000 0.0000 0.0000 0.0000 21.6742 0.0000
# 6 0.0000 0.0000 0.0000 0.0000 0.0000 26.6039
#
#
#
# Elastic Compliance Matrix: (Units=1/GPa)
#
#
# Indices 1 2 3 4 5 6 
#
# 1 0.020887 -0.002868 -0.006774 0.000000 0.000000 0.000000
# 2 -0.002868 0.014091 -0.006654 0.000000 0.000000 0.000000
# 3 -0.006774 -0.006654 0.015437 0.000000 0.000000 0.000000
# 4 0.000000 0.000000 0.000000 0.035431 0.000000 0.000000
# 5 0.000000 0.000000 0.000000 0.000000 0.046138 0.000000
# 6 0.000000 0.000000 0.000000 0.000000 0.000000 0.037588
#
#
# Mechanical properties :
#
#
# Convention : Reuss Voigt Hill
#
# Bulk Modulus (GPa) = 56.11164 62.74374 59.42769
# Shear Modulus (GPa) = 24.02621 24.92958 24.47790
#
# Velocity S-wave (km/s) = 3.81074 3.88171 3.84639
# Velocity P-wave (km/s) = 7.29909 7.61664 7.45956
#
# Compressibility (1/GPa) = 0.01782161
#
# Stress axis : x y z
#
# Youngs Moduli (GPa) = 47.87653 70.96717 64.78016
#
# Poissons Ratio (x) = 0.20356 0.43885
# Poissons Ratio (y) = 0.13733 0.43103
# Poissons Ratio (z) = 0.32434 0.47220
#
# Static dielectric constant tensor:
#      x y z
#    x 2.916950 0.000000 0.000000 
#    y 0.000000 3.117680 0.000000 
#    z 0.000000 0.000000 3.258900 
# 
# 
# High freq. dielectric constant tensor:
#      x y z
#    x 1.609760 0.000000 0.000000 
#    y 0.000000 1.645070 0.000000 
#    z 0.000000 0.000000 1.637400 
# 
# From -- ./inp_files/24906.got.cif
#   From: 2010.03.12/outbox.cif.g09.slc.cpg/sg62_13_cif.got.tgz:24906.got - 2010.04.10 19:12:36.
