data_PCOD8252100
_publ_section_title
;
Structure prediction by ZEFSAII (Michael W. Deem and Ramdas Pophale) SiO2 
 PCOD8252100
Probable space group: P N M A
;
_chemical_formula_sum "Si O2"
_cell_formula_units_Z 64
_cell_length_a 15.380795
_cell_length_b 8.537665
_cell_length_c 23.521864
_cell_angle_alpha 90.000000
_cell_angle_beta 90.000000
_cell_angle_gamma 90.000000
_cell_volume 3088.798861
_symmetry_space_group_name_H-M "P N M A"
_symmetry_group_IT_number 62
_symmetry_cell_setting 'orthorhombic'
loop_
_space_group_symop_operation_xyz
x,y,z
1/2-x,-y,1/2+z
1/2+x,1/2-y,1/2-z
-x,1/2+y,-z
-x,-y,-z
1/2+x,y,1/2-z
1/2-x,1/2+y,1/2+z
x,1/2-y,z
loop_
_atom_site_type_symbol
_atom_site_label
_atom_site_fract_x
_atom_site_fract_y
_atom_site_fract_z
Si Si1 0.904683 0.936318 0.488160
Si Si2 0.002500 0.931763 0.286426
Si Si3 0.787616 0.072911 0.812184
Si Si4 0.816666 0.933119 0.693693
Si Si5 0.866021 0.070453 0.367397
Si Si6 0.986697 0.072486 0.839752
Si Si7 0.438515 0.432150 0.451009
Si Si8 0.253499 0.564100 0.928052
O O1 0.907400 0.750000 0.484578
O O2 0.835248 0.995999 0.534952
O O3 0.872795 0.010330 0.430476
O O4 0.000000 0.000000 0.500000
O O5 0.031428 0.750000 0.286748
O O6 0.976066 0.979382 0.221884
O O7 0.920756 0.960190 0.325937
O O8 0.080431 0.035884 0.311428
O O9 0.753766 0.250000 0.820596
O O10 0.883782 0.054900 0.835876
O O11 0.778684 0.031496 0.745851
O O12 0.733337 0.950039 0.849060
O O13 0.800616 0.750000 0.704016
O O14 0.768295 0.992596 0.636708
O O15 0.895916 0.250000 0.362621
O O16 0.013465 0.250000 0.854913
O O17 0.022470 0.960590 0.888615
O O18 0.500000 0.500000 0.500000
O O19 0.434233 0.250000 0.462821
O O20 0.339235 0.500491 0.452084
O O21 0.252101 0.750000 0.929406
#
# Coordination Sequence:
#
# PCOD8252100 Si02
#       8
#     8   8   8   8   8   8   8   8
#     4  11  23  43  67  93 127 169 211 259 317 380
#     4  10  21  39  62  92 127 165 203 248 313 380
#     4  10  22  40  61  88 124 165 204 252 313 377
#     4  10  19  37  63  93 125 159 204 255 311 374
#     4  12  25  39  60  92 126 161 209 262 313 372
#     4   9  21  41  63  88 121 159 202 253 311 369
#     4  11  24  42  63  89 121 162 211 261 313 370
#     4   9  22  41  63  90 125 166 205 254 316 372
#
# _framework density 20.720029
#
# number of rings (size 3 to 8) (size 9 to 14) (size 15 to 20)
#    0.000    1.750    0.000    4.500    3.500    4.000 
#    0.000    5.625    0.000    0.000    0.000    0.000 
#    0.000    0.000    0.000    0.000    0.000    0.000 
#
# Total GULP energy -793641.669167 kJ/mol
# GULP energy per Si atom -12400.651081 kJ/mol
# Density = 2.067287 g / cm^3
# Si number density = 20.720029 Si / 1000 Ang^3
#
#
#
# Elastic Constant Matrix: (Units=GPa)
#
#
# Indices 1 2 3 4 5 6 
#
# 1 114.1103 26.3205 72.0146 0.0000 0.0000 0.0000
# 2 26.3205 60.1290 26.4202 0.0000 0.0000 0.0000
# 3 72.0146 26.4202 129.9333 0.0000 0.0000 0.0000
# 4 0.0000 0.0000 0.0000 32.5972 0.0000 0.0000
# 5 0.0000 0.0000 0.0000 0.0000 31.7110 0.0000
# 6 0.0000 0.0000 0.0000 0.0000 0.0000 31.6848
#
#
#
# Elastic Compliance Matrix: (Units=1/GPa)
#
#
# Indices 1 2 3 4 5 6 
#
# 1 0.013946 -0.002974 -0.007125 0.000000 0.000000 0.000000
# 2 -0.002974 0.018897 -0.002194 0.000000 0.000000 0.000000
# 3 -0.007125 -0.002194 0.012091 0.000000 0.000000 0.000000
# 4 0.000000 0.000000 0.000000 0.030677 0.000000 0.000000
# 5 0.000000 0.000000 0.000000 0.000000 0.031535 0.000000
# 6 0.000000 0.000000 0.000000 0.000000 0.000000 0.031561
#
#
# Mechanical properties :
#
#
# Convention : Reuss Voigt Hill
#
# Bulk Modulus (GPa) = 49.14420 61.52036 55.33228
# Shear Modulus (GPa) = 29.39879 31.15976 30.27928
#
# Velocity S-wave (km/s) = 3.77086 3.88215 3.82691
# Velocity P-wave (km/s) = 6.53673 7.06049 6.80365
#
# Compressibility (1/GPa) = 0.02034828
#
# Stress axis : x y z
#
# Youngs Moduli (GPa) = 71.70645 52.91900 82.70509
#
# Poissons Ratio (x) = 0.15738 0.58924
# Poissons Ratio (y) = 0.21326 0.18146
# Poissons Ratio (z) = 0.51088 0.11611
#
# Static dielectric constant tensor:
#      x y z
#    x 3.890830 0.000000 0.000000 
#    y 0.000000 3.640090 0.000000 
#    z 0.000000 0.000000 3.843930 
# 
# 
# High freq. dielectric constant tensor:
#      x y z
#    x 1.817840 0.000000 0.000000 
#    y 0.000000 1.802350 0.000000 
#    z 0.000000 0.000000 1.820630 
# 
# From -- ./inp_files/29826.got.cif
#   From: 2010.03.12/outbox.cif.g09.slc.cpg/sg62_15_cif.got.tgz:29826.got - 2010.04.10 19:12:36.
