data_PCOD8252274
_publ_section_title
;
Structure prediction by ZEFSAII (Michael W. Deem and Ramdas Pophale) SiO2 
 PCOD8252274
Probable space group: P N M A
;
_chemical_formula_sum "Si O2"
_cell_formula_units_Z 56
_cell_length_a 14.883116
_cell_length_b 9.358604
_cell_length_c 20.521657
_cell_angle_alpha 90.000000
_cell_angle_beta 90.000000
_cell_angle_gamma 90.000000
_cell_volume 2858.362872
_symmetry_space_group_name_H-M "P N M A"
_symmetry_group_IT_number 62
_symmetry_cell_setting 'orthorhombic'
loop_
_space_group_symop_operation_xyz
x,y,z
1/2-x,-y,1/2+z
1/2+x,1/2-y,1/2-z
-x,1/2+y,-z
-x,-y,-z
1/2+x,y,1/2-z
1/2-x,1/2+y,1/2+z
x,1/2-y,z
loop_
_atom_site_type_symbol
_atom_site_label
_atom_site_fract_x
_atom_site_fract_y
_atom_site_fract_z
Si Si1 0.756042 0.083055 0.095478
Si Si2 0.177765 0.587357 0.155637
Si Si3 0.513904 0.910319 0.257576
Si Si4 0.929456 0.594448 0.645850
Si Si5 0.268724 0.920511 0.531928
Si Si6 0.810934 0.919645 0.225486
Si Si7 0.433338 0.091400 0.041385
O O1 0.785350 0.250000 0.092817
O O2 0.647537 0.065043 0.091451
O O3 0.782138 0.011395 0.163497
O O4 0.800794 0.997018 0.035080
O O5 0.200404 0.750000 0.134489
O O6 0.179114 0.482027 0.094018
O O7 0.248399 0.541392 0.212393
O O8 0.073470 0.577253 0.177341
O O9 0.503728 0.750000 0.233583
O O10 0.413619 0.972596 0.263486
O O11 0.575438 0.982991 0.203405
O O12 0.911235 0.750000 0.676871
O O13 0.028173 0.590372 0.614435
O O14 0.283239 0.750000 0.527027
O O15 0.166506 0.968892 0.544046
O O16 0.805305 0.750000 0.209994
O O17 0.432021 0.250000 0.011192
O O18 0.500000 0.000000 0.000000
#
# Coordination Sequence:
#
# PCOD8252274 Si02
#       7
#     8   8   8   8   8   8   8
#     4  11  22  37  59  85 117 155 193 236 290 345
#     4  10  21  38  59  85 119 153 189 238 293 346
#     4  10  21  37  60  87 113 149 193 237 288 345
#     4  10  20  34  54  82 115 149 186 233 284 343
#     4  11  23  37  57  84 117 156 196 240 290 346
#     4  10  21  39  62  88 118 152 195 242 288 343
#     4  10  20  33  50  78 113 147 183 226 279 341
#
# _framework density 19.591633999999999
#
# number of rings (size 3 to 8) (size 9 to 14) (size 15 to 20)
#    0.000    1.714    2.857    1.714    0.000    3.429 
#    0.000    0.714    0.000    0.000    0.000    0.000 
#    0.000    0.000    0.000    0.000    0.000    0.000 
#
# Total GULP energy -694098.843567 kJ/mol
# GULP energy per Si atom -12394.622207 kJ/mol
# Density = 1.954704 g / cm^3
# Si number density = 19.591634 Si / 1000 Ang^3
#
#
#
# Elastic Constant Matrix: (Units=GPa)
#
#
# Indices 1 2 3 4 5 6 
#
# 1 58.6620 14.3075 10.3452 0.0000 0.0000 0.0000
# 2 14.3075 83.3531 55.5988 0.0000 0.0000 0.0000
# 3 10.3452 55.5988 107.8224 0.0000 0.0000 0.0000
# 4 0.0000 0.0000 0.0000 41.1641 0.0000 0.0000
# 5 0.0000 0.0000 0.0000 0.0000 22.8944 0.0000
# 6 0.0000 0.0000 0.0000 0.0000 0.0000 23.0343
#
#
#
# Elastic Compliance Matrix: (Units=1/GPa)
#
#
# Indices 1 2 3 4 5 6 
#
# 1 0.017795 -0.002920 -0.000202 0.000000 0.000000 0.000000
# 2 -0.002920 0.018766 -0.009397 0.000000 0.000000 0.000000
# 3 -0.000202 -0.009397 0.014139 0.000000 0.000000 0.000000
# 4 0.000000 0.000000 0.000000 0.024293 0.000000 0.000000
# 5 0.000000 0.000000 0.000000 0.000000 0.043679 0.000000
# 6 0.000000 0.000000 0.000000 0.000000 0.000000 0.043414
#
#
# Mechanical properties :
#
#
# Convention : Reuss Voigt Hill
#
# Bulk Modulus (GPa) = 38.96582 45.59337 42.27959
# Shear Modulus (GPa) = 25.55242 28.72430 27.13836
#
# Velocity S-wave (km/s) = 3.61536 3.83319 3.72587
# Velocity P-wave (km/s) = 6.11228 6.55084 6.33536
#
# Compressibility (1/GPa) = 0.02566352
#
# Stress axis : x y z
#
# Youngs Moduli (GPa) = 56.19708 53.28742 70.72509
#
# Poissons Ratio (x) = 0.15559 0.01426
# Poissons Ratio (y) = 0.16409 0.66458
# Poissons Ratio (z) = 0.01133 0.50072
#
# Static dielectric constant tensor:
#      x y z
#    x 3.742600 0.000000 0.000000 
#    y 0.000000 3.595830 0.000000 
#    z 0.000000 0.000000 3.399490 
# 
# 
# High freq. dielectric constant tensor:
#      x y z
#    x 1.754860 0.000000 0.000000 
#    y 0.000000 1.765470 0.000000 
#    z 0.000000 0.000000 1.753750 
# 
# From -- ./inp_files/27069.got.cif
#   From: 2010.03.12/outbox.cif.g09.slc.cpg/sg62_14_cif.got.tgz:27069.got - 2010.04.10 19:12:36.
