data_PCOD8252061
_publ_section_title
;
Structure prediction by ZEFSAII (Michael W. Deem and Ramdas Pophale) SiO2 
 PCOD8252061
Probable space group: P N M A
;
_chemical_formula_sum "Si O2"
_cell_formula_units_Z 64
_cell_length_a 12.201454
_cell_length_b 8.718489
_cell_length_c 30.823150
_cell_angle_alpha 90.000000
_cell_angle_beta 90.000000
_cell_angle_gamma 90.000000
_cell_volume 3278.912525
_symmetry_space_group_name_H-M "P N M A"
_symmetry_group_IT_number 62
_symmetry_cell_setting 'orthorhombic'
loop_
_space_group_symop_operation_xyz
x,y,z
1/2-x,-y,1/2+z
1/2+x,1/2-y,1/2-z
-x,1/2+y,-z
-x,-y,-z
1/2+x,y,1/2-z
1/2-x,1/2+y,1/2+z
x,1/2-y,z
loop_
_atom_site_type_symbol
_atom_site_label
_atom_site_fract_x
_atom_site_fract_y
_atom_site_fract_z
Si Si1 0.512873 0.433359 0.302526
Si Si2 0.013114 0.068600 0.047060
Si Si3 0.245346 0.422722 0.172494
Si Si4 0.467392 0.570540 0.045376
Si Si5 0.645015 0.932608 0.622540
Si Si6 0.746713 0.577183 0.927701
Si Si7 0.894588 0.932509 0.624044
Si Si8 0.531771 0.933205 0.793766
O O1 0.512489 0.250000 0.304639
O O2 0.628772 0.503755 0.318894
O O3 0.416479 0.494391 0.334139
O O4 0.499904 0.494500 0.253625
O O5 0.005827 0.250000 0.044444
O O6 0.919388 0.006563 0.079841
O O7 0.131004 0.015752 0.064666
O O8 0.000000 0.000000 0.000000
O O9 0.233213 0.250000 0.190076
O O10 0.278499 0.423564 0.122773
O O11 0.346918 0.502119 0.197233
O O12 0.488953 0.750000 0.045204
O O13 0.338376 0.537050 0.049996
O O14 0.537625 0.496803 0.083812
O O15 0.500000 0.500000 0.000000
O O16 0.644030 0.750000 0.622786
O O17 0.769545 0.994146 0.621870
O O18 0.732090 0.750000 0.946232
O O19 0.898215 0.750000 0.621019
O O20 0.946325 0.990814 0.669600
O O21 0.535063 0.750000 0.795158
#
# Coordination Sequence:
#
# PCOD8252061 Si02
#       8
#     8   8   8   8   8   8   8   8
#     4   9  16  26  44  77 114 149 185 226 278 327
#     4  10  21  36  55  81 112 150 188 232 281 333
#     4   9  15  27  47  71 109 149 182 227 276 324
#     4  12  26  42  61  84 110 143 185 231 282 341
#     4   9  18  32  50  76 115 152 182 223 279 333
#     4  10  19  37  60  81 112 149 188 233 284 329
#     4  10  20  36  55  81 117 150 183 228 278 331
#     4   9  17  26  45  77 112 149 187 227 274 325
#
# _framework density 19.518667000000001
#
# number of rings (size 3 to 8) (size 9 to 14) (size 15 to 20)
#    0.000    2.250    2.500    1.125    3.500    0.500 
#    0.000    0.000    0.000    0.000    0.000    4.375 
#    0.000    0.000    0.000    0.000    0.000    0.000 
#
# Total GULP energy -793340.205340 kJ/mol
# GULP energy per Si atom -12395.940708 kJ/mol
# Density = 1.947424 g / cm^3
# Si number density = 19.518667 Si / 1000 Ang^3
#
#
#
# Elastic Constant Matrix: (Units=GPa)
#
#
# Indices 1 2 3 4 5 6 
#
# 1 142.2158 21.9229 54.8989 0.0000 0.0000 0.0000
# 2 21.9229 22.6965 19.5660 0.0000 0.0000 0.0000
# 3 54.8989 19.5660 139.8912 0.0000 0.0000 0.0000
# 4 0.0000 0.0000 0.0000 17.5927 0.0000 0.0000
# 5 0.0000 0.0000 0.0000 0.0000 36.7016 0.0000
# 6 0.0000 0.0000 0.0000 0.0000 0.0000 13.9664
#
#
#
# Elastic Compliance Matrix: (Units=1/GPa)
#
#
# Indices 1 2 3 4 5 6 
#
# 1 0.009049 -0.006458 -0.002648 0.000000 0.000000 0.000000
# 2 -0.006458 0.054709 -0.005118 0.000000 0.000000 0.000000
# 3 -0.002648 -0.005118 0.008903 0.000000 0.000000 0.000000
# 4 0.000000 0.000000 0.000000 0.056842 0.000000 0.000000
# 5 0.000000 0.000000 0.000000 0.000000 0.027247 0.000000
# 6 0.000000 0.000000 0.000000 0.000000 0.000000 0.071601
#
#
# Mechanical properties :
#
#
# Convention : Reuss Voigt Hill
#
# Bulk Modulus (GPa) = 22.61697 55.28657 38.95177
# Shear Modulus (GPa) = 18.41374 27.54652 22.98013
#
# Velocity S-wave (km/s) = 3.07480 3.76079 3.43496
# Velocity P-wave (km/s) = 4.92122 6.87347 5.97758
#
# Compressibility (1/GPa) = 0.04421458
#
# Stress axis : x y z
#
# Youngs Moduli (GPa) = 110.50571 18.27847 112.31690
#
# Poissons Ratio (x) = 0.11804 0.29742
# Poissons Ratio (y) = 0.71365 0.57479
# Poissons Ratio (z) = 0.29262 0.09354
#
# Static dielectric constant tensor:
#      x y z
#    x 3.931140 0.000000 0.000000 
#    y 0.000000 2.993580 0.000000 
#    z 0.000000 0.000000 3.688030 
# 
# 
# High freq. dielectric constant tensor:
#      x y z
#    x 1.782070 0.000000 0.000000 
#    y 0.000000 1.689720 0.000000 
#    z 0.000000 0.000000 1.770760 
# 
# From -- ./inp_files/32443.got.cif
#   From: 2010.03.12/outbox.cif.g09.slc.cpg/sg62_17_cif.got.tgz:32443.got - 2010.04.10 19:12:36.
