data_PCOD8252489
_publ_section_title
;
Structure prediction by ZEFSAII (Michael W. Deem and Ramdas Pophale) SiO2 
 PCOD8252489
Probable space group: P N M A
;
_chemical_formula_sum "Si O2"
_cell_formula_units_Z 64
_cell_length_a 19.791986
_cell_length_b 9.134102
_cell_length_c 19.479579
_cell_angle_alpha 90.000000
_cell_angle_beta 90.000000
_cell_angle_gamma 90.000000
_cell_volume 3521.557619
_symmetry_space_group_name_H-M "P N M A"
_symmetry_group_IT_number 62
_symmetry_cell_setting 'orthorhombic'
loop_
_space_group_symop_operation_xyz
x,y,z
1/2-x,-y,1/2+z
1/2+x,1/2-y,1/2-z
-x,1/2+y,-z
-x,-y,-z
1/2+x,y,1/2-z
1/2-x,1/2+y,1/2+z
x,1/2-y,z
loop_
_atom_site_type_symbol
_atom_site_label
_atom_site_fract_x
_atom_site_fract_y
_atom_site_fract_z
Si Si1 0.318243 0.920859 0.103389
Si Si2 0.583731 0.581983 0.684443
Si Si3 0.063450 0.578845 0.969044
Si Si4 0.211450 0.914562 0.736114
Si Si5 0.986018 0.423155 0.712056
Si Si6 0.331974 0.420894 0.582790
Si Si7 0.461978 0.578358 0.061303
Si Si8 0.861778 0.577484 0.778484
O O1 0.325531 0.750000 0.114396
O O2 0.246545 0.963347 0.068968
O O3 0.383170 0.974093 0.059608
O O4 0.322447 0.986214 0.178838
O O5 0.559014 0.750000 0.692305
O O6 0.573131 0.521780 0.608035
O O7 0.664330 0.570963 0.697166
O O8 0.542852 0.481869 0.736663
O O9 0.049393 0.750000 0.970369
O O10 0.129718 0.539451 0.012966
O O11 0.000000 0.500000 0.000000
O O12 0.212037 0.750000 0.706847
O O13 0.288286 0.959380 0.753908
O O14 0.979797 0.250000 0.721864
O O15 0.914969 0.498333 0.729526
O O16 0.005206 0.465207 0.634257
O O17 0.338878 0.250000 0.602332
O O18 0.364632 0.514662 0.644208
O O19 0.468114 0.750000 0.048518
O O20 0.500000 0.500000 0.000000
O O21 0.877427 0.750000 0.781039
#
# Coordination Sequence:
#
# PCOD8252489 Si02
#       8
#     8   8   8   8   8   8   8   8
#     4   9  17  34  57  80 104 138 180 220 264 318
#     4  10  20  35  56  80 107 140 178 225 271 318
#     4  10  21  35  51  76 108 141 178 219 264 317
#     4   9  18  33  54  80 106 136 176 220 267 318
#     4  11  22  37  56  81 110 141 180 222 267 324
#     4   9  18  34  56  80 108 145 184 223 268 318
#     4  10  22  38  56  80 108 140 179 224 274 328
#     4  10  20  34  54  83 112 142 179 221 268 320
#
# _framework density 18.173776
#
# number of rings (size 3 to 8) (size 9 to 14) (size 15 to 20)
#    0.000    2.250    1.250    1.500    0.000    5.000 
#    2.250    0.000    0.000    0.000    0.000    0.000 
#    0.000    0.000    0.000    0.000    0.000    0.000 
#
# Total GULP energy -793488.164644 kJ/mol
# GULP energy per Si atom -12398.252573 kJ/mol
# Density = 1.813241 g / cm^3
# Si number density = 18.173776 Si / 1000 Ang^3
#
#
#
# Elastic Constant Matrix: (Units=GPa)
#
#
# Indices 1 2 3 4 5 6 
#
# 1 144.0190 49.9327 84.5963 0.0000 0.0000 0.0000
# 2 49.9327 55.3066 51.9496 0.0000 0.0000 0.0000
# 3 84.5963 51.9496 140.4044 0.0000 0.0000 0.0000
# 4 0.0000 0.0000 0.0000 26.1142 0.0000 0.0000
# 5 0.0000 0.0000 0.0000 0.0000 31.5180 0.0000
# 6 0.0000 0.0000 0.0000 0.0000 0.0000 28.6861
#
#
#
# Elastic Compliance Matrix: (Units=1/GPa)
#
#
# Indices 1 2 3 4 5 6 
#
# 1 0.011986 -0.006189 -0.004932 0.000000 0.000000 0.000000
# 2 -0.006189 0.030908 -0.007707 0.000000 0.000000 0.000000
# 3 -0.004932 -0.007707 0.012946 0.000000 0.000000 0.000000
# 4 0.000000 0.000000 0.000000 0.038293 0.000000 0.000000
# 5 0.000000 0.000000 0.000000 0.000000 0.031728 0.000000
# 6 0.000000 0.000000 0.000000 0.000000 0.000000 0.034860
#
#
# Mechanical properties :
#
#
# Convention : Reuss Voigt Hill
#
# Bulk Modulus (GPa) = 54.99430 79.18745 67.09087
# Shear Modulus (GPa) = 24.45728 27.48043 25.96886
#
# Velocity S-wave (km/s) = 3.67242 3.89278 3.78421
# Velocity P-wave (km/s) = 6.95041 7.99199 7.48933
#
# Compressibility (1/GPa) = 0.01818370
#
# Stress axis : x y z
#
# Youngs Moduli (GPa) = 83.42779 32.35439 77.24690
#
# Poissons Ratio (x) = 0.20024 0.38099
# Poissons Ratio (y) = 0.51633 0.59533
# Poissons Ratio (z) = 0.41148 0.24935
#
# Static dielectric constant tensor:
#      x y z
#    x 3.689340 0.000000 0.000000 
#    y 0.000000 3.379820 0.000000 
#    z 0.000000 0.000000 3.233440 
# 
# 
# High freq. dielectric constant tensor:
#      x y z
#    x 1.722740 0.000000 0.000000 
#    y 0.000000 1.702960 0.000000 
#    z 0.000000 0.000000 1.687340 
# 
# From -- ./inp_files/24715.got.cif
#   From: 2010.03.12/outbox.cif.g09.slc.cpg/sg62_13_cif.got.tgz:24715.got - 2010.04.10 19:12:36.
