data_PCOD8252424
_publ_section_title
;
Structure prediction by ZEFSAII (Michael W. Deem and Ramdas Pophale) SiO2 
 PCOD8252424
Probable space group: P N M A
;
_chemical_formula_sum "Si O2"
_cell_formula_units_Z 56
_cell_length_a 23.076270
_cell_length_b 9.212488
_cell_length_c 13.204033
_cell_angle_alpha 90.000000
_cell_angle_beta 90.000000
_cell_angle_gamma 90.000000
_cell_volume 2807.043533
_symmetry_space_group_name_H-M "P N M A"
_symmetry_group_IT_number 62
_symmetry_cell_setting 'orthorhombic'
loop_
_space_group_symop_operation_xyz
x,y,z
1/2-x,-y,1/2+z
1/2+x,1/2-y,1/2-z
-x,1/2+y,-z
-x,-y,-z
1/2+x,y,1/2-z
1/2-x,1/2+y,1/2+z
x,1/2-y,z
loop_
_atom_site_type_symbol
_atom_site_label
_atom_site_fract_x
_atom_site_fract_y
_atom_site_fract_z
Si Si1 0.624417 0.410146 0.315633
Si Si2 0.228862 0.079572 0.313756
Si Si3 0.345823 0.085279 0.207996
Si Si4 0.967417 0.413597 0.914113
Si Si5 0.555810 0.087122 0.107924
Si Si6 0.840414 0.083119 0.522418
Si Si7 0.538542 0.085512 0.791827
O O1 0.627720 0.250000 0.365182
O O2 0.687912 0.464469 0.281355
O O3 0.596566 0.518980 0.397175
O O4 0.584628 0.404595 0.217054
O O5 0.219919 0.250000 0.337240
O O6 0.294496 0.041539 0.284686
O O7 0.210940 0.989069 0.412602
O O8 0.366243 0.250000 0.228419
O O9 0.398754 0.979918 0.229914
O O10 0.321713 0.071189 0.094092
O O11 0.958717 0.250000 0.951699
O O12 0.003620 0.421688 0.811871
O O13 0.000000 0.500000 0.000000
O O14 0.544752 0.250000 0.066013
O O15 0.598417 0.000064 0.033385
O O16 0.494493 0.002817 0.118912
O O17 0.848512 0.250000 0.557021
O O18 0.545329 0.250000 0.829637
#
# Coordination Sequence:
#
# PCOD8252424 Si02
#       7
#     8   8   8   8   8   8   8
#     4   8  15  30  53  76 100 136 178 222 270 318
#     4   9  19  38  59  78 107 148 189 230 277 334
#     4  10  22  39  57  80 115 153 187 228 283 339
#     4  10  20  34  53  79 110 142 181 227 276 331
#     4   9  17  32  56  81 108 143 178 217 272 333
#     4  10  20  35  57  84 111 143 186 234 279 330
#     4  10  21  36  55  82 113 144 183 234 281 327
#
# _framework density 19.949815000000001
#
# number of rings (size 3 to 8) (size 9 to 14) (size 15 to 20)
#    0.000    2.571    0.000    2.571    0.000    7.429 
#    2.571    0.000    0.000    0.000    0.000    0.000 
#    0.000    0.000    0.000    0.000    0.000    0.000 
#
# Total GULP energy -694414.819626 kJ/mol
# GULP energy per Si atom -12400.264636 kJ/mol
# Density = 1.990441 g / cm^3
# Si number density = 19.949815 Si / 1000 Ang^3
#
#
#
# Elastic Constant Matrix: (Units=GPa)
#
#
# Indices 1 2 3 4 5 6 
#
# 1 98.7761 47.8453 3.4267 0.0000 0.0000 0.0000
# 2 47.8453 131.4036 21.7009 0.0000 0.0000 0.0000
# 3 3.4267 21.7009 23.6398 0.0000 0.0000 0.0000
# 4 0.0000 0.0000 0.0000 27.4658 0.0000 0.0000
# 5 0.0000 0.0000 0.0000 0.0000 23.7514 0.0000
# 6 0.0000 0.0000 0.0000 0.0000 0.0000 33.8499
#
#
#
# Elastic Compliance Matrix: (Units=1/GPa)
#
#
# Indices 1 2 3 4 5 6 
#
# 1 0.012444 -0.004990 0.002777 0.000000 0.000000 0.000000
# 2 -0.004990 0.010971 -0.009348 0.000000 0.000000 0.000000
# 3 0.002777 -0.009348 0.050480 0.000000 0.000000 0.000000
# 4 0.000000 0.000000 0.000000 0.036409 0.000000 0.000000
# 5 0.000000 0.000000 0.000000 0.000000 0.042103 0.000000
# 6 0.000000 0.000000 0.000000 0.000000 0.000000 0.029542
#
#
# Mechanical properties :
#
#
# Convention : Reuss Voigt Hill
#
# Bulk Modulus (GPa) = 19.69524 44.41838 32.05681
# Shear Modulus (GPa) = 22.52303 29.06987 25.79645
#
# Velocity S-wave (km/s) = 3.36368 3.82140 3.59983
# Velocity P-wave (km/s) = 4.99796 6.46407 5.77771
#
# Compressibility (1/GPa) = 0.05077369
#
# Stress axis : x y z
#
# Youngs Moduli (GPa) = 80.35680 91.15220 19.80982
#
# Poissons Ratio (x) = 0.45482 -0.05500
# Poissons Ratio (y) = 0.40096 0.18517
# Poissons Ratio (z) = -0.22311 0.85205
#
# Static dielectric constant tensor:
#      x y z
#    x 3.652910 0.000000 0.000000 
#    y 0.000000 3.884660 0.000000 
#    z 0.000000 0.000000 3.613000 
# 
# 
# High freq. dielectric constant tensor:
#      x y z
#    x 1.773580 0.000000 0.000000 
#    y 0.000000 1.785770 0.000000 
#    z 0.000000 0.000000 1.759880 
# 
# From -- ./inp_files/20375.got.cif
#   From: 2010.03.12/outbox.cif.g09.slc.cpg/sg62_11_cif.got.tgz:20375.got - 2010.04.10 19:12:36.
