data_PCOD8252763
_publ_section_title
;
Structure prediction by ZEFSAII (Michael W. Deem and Ramdas Pophale) SiO2 
 PCOD8252763
Probable space group: P N M A
;
_chemical_formula_sum "Si O2"
_cell_formula_units_Z 48
_cell_length_a 18.379373
_cell_length_b 9.741418
_cell_length_c 13.774318
_cell_angle_alpha 90.000000
_cell_angle_beta 90.000000
_cell_angle_gamma 90.000000
_cell_volume 2466.169804
_symmetry_space_group_name_H-M "P N M A"
_symmetry_group_IT_number 62
_symmetry_cell_setting 'orthorhombic'
loop_
_space_group_symop_operation_xyz
x,y,z
1/2-x,-y,1/2+z
1/2+x,1/2-y,1/2-z
-x,1/2+y,-z
-x,-y,-z
1/2+x,y,1/2-z
1/2-x,1/2+y,1/2+z
x,1/2-y,z
loop_
_atom_site_type_symbol
_atom_site_label
_atom_site_fract_x
_atom_site_fract_y
_atom_site_fract_z
Si Si1 0.900240 0.593554 0.551018
Si Si2 0.359812 0.909323 0.644481
Si Si3 0.018585 0.096213 0.633943
Si Si4 0.651451 0.092181 0.572204
Si Si5 0.764466 0.591439 0.671968
Si Si6 0.501461 0.094821 0.651441
O O1 0.920492 0.750000 0.575170
O O2 0.950710 0.502573 0.618932
O O3 0.817264 0.565694 0.579963
O O4 0.914021 0.557632 0.437438
O O5 0.380153 0.750000 0.660061
O O6 0.323150 0.933362 0.538921
O O7 0.303348 0.956798 0.727960
O O8 0.434017 0.993688 0.648846
O O9 0.991731 0.250000 0.609566
O O10 0.043050 0.084057 0.744882
O O11 0.663964 0.250000 0.602739
O O12 0.564953 0.055967 0.575237
O O13 0.693892 0.998845 0.649569
O O14 0.740792 0.750000 0.680107
O O15 0.472778 0.250000 0.633491
#
# Coordination Sequence:
#
# PCOD8252763 Si02
#       6
#     8   8   8   8   8   8
#     4   9  17  31  50  75 107 142 178 220 269 322
#     4  10  21  39  60  82 111 147 187 232 279 333
#     4   9  17  29  50  79 107 135 176 225 270 320
#     4  10  23  39  56  82 115 147 185 233 282 331
#     4  10  21  37  57  81 111 149 190 229 278 336
#     4  10  20  35  56  84 112 144 187 233 278 331
#
# _framework density 19.463380000000001
#
# number of rings (size 3 to 8) (size 9 to 14) (size 15 to 20)
#    0.000    2.333    1.667    0.500    0.000    4.000 
#    0.000    1.667    0.000    0.000    0.000    0.000 
#    0.000    0.000    0.000    0.000    0.000    0.000 
#
# Total GULP energy -595001.108869 kJ/mol
# GULP energy per Si atom -12395.856435 kJ/mol
# Density = 1.941908 g / cm^3
# Si number density = 19.463380 Si / 1000 Ang^3
#
#
#
# Elastic Constant Matrix: (Units=GPa)
#
#
# Indices 1 2 3 4 5 6 
#
# 1 85.6551 53.1441 36.5567 0.0000 0.0000 0.0000
# 2 53.1441 73.1860 34.0491 0.0000 0.0000 0.0000
# 3 36.5567 34.0491 84.5389 0.0000 0.0000 0.0000
# 4 0.0000 0.0000 0.0000 23.8243 0.0000 0.0000
# 5 0.0000 0.0000 0.0000 0.0000 24.7032 0.0000
# 6 0.0000 0.0000 0.0000 0.0000 0.0000 36.4767
#
#
#
# Elastic Compliance Matrix: (Units=1/GPa)
#
#
# Indices 1 2 3 4 5 6 
#
# 1 0.022209 -0.014348 -0.003825 0.000000 0.000000 0.000000
# 2 -0.014348 0.026083 -0.004301 0.000000 0.000000 0.000000
# 3 -0.003825 -0.004301 0.015215 0.000000 0.000000 0.000000
# 4 0.000000 0.000000 0.000000 0.041974 0.000000 0.000000
# 5 0.000000 0.000000 0.000000 0.000000 0.040481 0.000000
# 6 0.000000 0.000000 0.000000 0.000000 0.000000 0.027415
#
#
# Mechanical properties :
#
#
# Convention : Reuss Voigt Hill
#
# Bulk Modulus (GPa) = 53.87901 54.54221 54.21061
# Shear Modulus (GPa) = 22.27061 24.97619 23.62340
#
# Velocity S-wave (km/s) = 3.38632 3.58612 3.48765
# Velocity P-wave (km/s) = 6.55987 6.72539 6.64314
#
# Compressibility (1/GPa) = 0.01856010
#
# Stress axis : x y z
#
# Youngs Moduli (GPa) = 45.02670 38.33864 65.72330
#
# Poissons Ratio (x) = 0.55006 0.25140
# Poissons Ratio (y) = 0.64602 0.28269
# Poissons Ratio (z) = 0.17223 0.16490
#
# Static dielectric constant tensor:
#      x y z
#    x 3.174260 0.000000 0.000000 
#    y 0.000000 3.327660 0.000000 
#    z 0.000000 0.000000 3.850280 
# 
# 
# High freq. dielectric constant tensor:
#      x y z
#    x 1.728750 0.000000 0.000000 
#    y 0.000000 1.756210 0.000000 
#    z 0.000000 0.000000 1.772860 
# 
# From -- ./inp_files/19638.got.cif
#   From: 2010.03.12/outbox.cif.g09.slc.cpg/sg62_10_cif.got.tgz:19638.got - 2010.04.10 19:12:36.
