data_PCOD8252329
_publ_section_title
;
Structure prediction by ZEFSAII (Michael W. Deem and Ramdas Pophale) SiO2 
 PCOD8252329
Probable space group: P N M A
;
_chemical_formula_sum "Si O2"
_cell_formula_units_Z 48
_cell_length_a 30.887264
_cell_length_b 9.030614
_cell_length_c 9.389106
_cell_angle_alpha 90.000000
_cell_angle_beta 90.000000
_cell_angle_gamma 90.000000
_cell_volume 2618.912338
_symmetry_space_group_name_H-M "P N M A"
_symmetry_group_IT_number 62
_symmetry_cell_setting 'orthorhombic'
loop_
_space_group_symop_operation_xyz
x,y,z
1/2-x,-y,1/2+z
1/2+x,1/2-y,1/2-z
-x,1/2+y,-z
-x,-y,-z
1/2+x,y,1/2-z
1/2-x,1/2+y,1/2+z
x,1/2-y,z
loop_
_atom_site_type_symbol
_atom_site_label
_atom_site_fract_x
_atom_site_fract_y
_atom_site_fract_z
Si Si1 0.882259 0.422516 0.094363
Si Si2 0.038460 0.926357 0.085913
Si Si3 0.462119 0.424632 0.912621
Si Si4 0.708876 0.423967 0.903960
Si Si5 0.621522 0.925194 0.914284
Si Si6 0.213864 0.577623 0.890520
O O1 0.891190 0.250000 0.099825
O O2 0.889334 0.484345 0.254854
O O3 0.833452 0.457592 0.041839
O O4 0.916951 0.489118 0.983445
O O5 0.034636 0.750000 0.075732
O O6 0.036823 0.978728 0.249553
O O7 0.000000 0.000000 0.000000
O O8 0.468233 0.250000 0.925049
O O9 0.500000 0.500000 0.000000
O O10 0.416436 0.474043 0.979683
O O11 0.701289 0.250000 0.900862
O O12 0.749523 0.469478 0.999805
O O13 0.665914 0.500157 0.967528
O O14 0.720635 0.480402 0.748378
O O15 0.628815 0.750000 0.914110
O O16 0.216460 0.750000 0.847788
#
# Coordination Sequence:
#
# PCOD8252329 Si02
#       6
#     8   8   8   8   8   8
#     4   8  15  31  52  69  93 132 171 205 245 299
#     4  10  20  34  53  77 102 131 170 211 253 304
#     4  10  21  35  54  79 105 137 175 214 259 311
#     4  10  20  33  53  80 106 136 174 216 260 306
#     4   9  18  34  53  72 101 141 176 211 260 311
#     4   9  19  35  53  75 104 137 172 211 258 309
#
# _framework density 18.328220000000002
#
# number of rings (size 3 to 8) (size 9 to 14) (size 15 to 20)
#    0.000    2.667    0.000    2.500    0.000    5.333 
#    0.000    8.333    0.000    0.000    0.000    0.000 
#    0.000    0.000    0.000    0.000    0.000    0.000 
#
# Total GULP energy -595108.677891 kJ/mol
# GULP energy per Si atom -12398.097456 kJ/mol
# Density = 1.828650 g / cm^3
# Si number density = 18.328220 Si / 1000 Ang^3
#
#
#
# Elastic Constant Matrix: (Units=GPa)
#
#
# Indices 1 2 3 4 5 6 
#
# 1 184.4876 44.8003 105.5903 0.0000 0.0000 0.0000
# 2 44.8003 34.0223 32.5173 0.0000 0.0000 0.0000
# 3 105.5903 32.5173 131.8481 0.0000 0.0000 0.0000
# 4 0.0000 0.0000 0.0000 25.5283 0.0000 0.0000
# 5 0.0000 0.0000 0.0000 0.0000 42.9717 0.0000
# 6 0.0000 0.0000 0.0000 0.0000 0.0000 32.0733
#
#
#
# Elastic Compliance Matrix: (Units=1/GPa)
#
#
# Indices 1 2 3 4 5 6 
#
# 1 0.011575 -0.008351 -0.007210 0.000000 0.000000 0.000000
# 2 -0.008351 0.044482 -0.004283 0.000000 0.000000 0.000000
# 3 -0.007210 -0.004283 0.014415 0.000000 0.000000 0.000000
# 4 0.000000 0.000000 0.000000 0.039172 0.000000 0.000000
# 5 0.000000 0.000000 0.000000 0.000000 0.023271 0.000000
# 6 0.000000 0.000000 0.000000 0.000000 0.000000 0.031179
#
#
# Mechanical properties :
#
#
# Convention : Reuss Voigt Hill
#
# Bulk Modulus (GPa) = 32.48393 79.57486 56.02940
# Shear Modulus (GPa) = 23.35976 31.27799 27.31888
#
# Velocity S-wave (km/s) = 3.57392 4.13552 3.86493
# Velocity P-wave (km/s) = 5.89851 8.14335 7.11009
#
# Compressibility (1/GPa) = 0.03078445
#
# Stress axis : x y z
#
# Youngs Moduli (GPa) = 86.39276 22.48105 69.37121
#
# Poissons Ratio (x) = 0.18773 0.50019
# Poissons Ratio (y) = 0.72142 0.29711
# Poissons Ratio (z) = 0.62293 0.09629
#
# Static dielectric constant tensor:
#      x y z
#    x 3.653620 0.000000 0.000000 
#    y 0.000000 3.157760 0.000000 
#    z 0.000000 0.000000 4.058190 
# 
# 
# High freq. dielectric constant tensor:
#      x y z
#    x 1.727150 0.000000 0.000000 
#    y 0.000000 1.687530 0.000000 
#    z 0.000000 0.000000 1.708950 
# 
# From -- ./inp_files/10190.got.cif
#   From: 2010.03.12/outbox.cif.g09.slc.cpg/sg62_6_cif.got.tgz:10190.got - 2010.04.10 19:12:36.
