data_PCOD8252935
_publ_section_title
;
Structure prediction by ZEFSAII (Michael W. Deem and Ramdas Pophale) SiO2 
 PCOD8252935
Probable space group: P N M A
;
_chemical_formula_sum "Si O2"
_cell_formula_units_Z 56
_cell_length_a 18.926006
_cell_length_b 8.527894
_cell_length_c 19.226263
_cell_angle_alpha 90.000000
_cell_angle_beta 90.000000
_cell_angle_gamma 90.000000
_cell_volume 3103.099103
_symmetry_space_group_name_H-M "P N M A"
_symmetry_group_IT_number 62
_symmetry_cell_setting 'orthorhombic'
loop_
_space_group_symop_operation_xyz
x,y,z
1/2-x,-y,1/2+z
1/2+x,1/2-y,1/2-z
-x,1/2+y,-z
-x,-y,-z
1/2+x,y,1/2-z
1/2-x,1/2+y,1/2+z
x,1/2-y,z
loop_
_atom_site_type_symbol
_atom_site_label
_atom_site_fract_x
_atom_site_fract_y
_atom_site_fract_z
Si Si1 0.056862 0.566211 0.553129
Si Si2 0.705095 0.068766 0.974883
Si Si3 0.249315 0.931337 0.176037
Si Si4 0.643667 0.931984 0.720128
Si Si5 0.137614 0.566541 0.283254
Si Si6 0.019007 0.064278 0.701178
Si Si7 0.756172 0.565701 0.111764
O O1 0.045010 0.750000 0.563250
O O2 0.134445 0.534904 0.522391
O O3 0.050088 0.479567 0.626405
O O4 0.000000 0.500000 0.500000
O O5 0.683110 0.250000 0.978730
O O6 0.750748 0.033664 0.905731
O O7 0.755676 0.022580 0.038370
O O8 0.267838 0.750000 0.192799
O O9 0.172274 0.972767 0.208029
O O10 0.308827 0.036400 0.212013
O O11 0.643335 0.750000 0.702401
O O12 0.564775 0.989291 0.737035
O O13 0.672228 0.024271 0.652791
O O14 0.129529 0.750000 0.294119
O O15 0.189387 0.502335 0.343488
O O16 0.059890 0.492082 0.290276
O O17 0.020534 0.250000 0.709456
O O18 0.752584 0.750000 0.099151
#
# Coordination Sequence:
#
# PCOD8252935 Si02
#       7
#     8   8   8   8   8   8   8
#     4  12  24  36  51  76 113 150 185 220 271 332
#     4  11  21  34  55  81 110 142 179 223 275 330
#     4   9  18  35  56  77 105 141 181 223 272 327
#     4  11  21  34  53  78 107 141 185 227 270 325
#     4   8  17  33  54  77 101 137 179 220 267 323
#     4  11  20  34  55  79 108 142 181 225 275 329
#     4  10  20  36  56  78 108 143 182 226 274 326
#
# _framework density 18.046475000000001
#
# number of rings (size 3 to 8) (size 9 to 14) (size 15 to 20)
#    0.000    1.714    1.429    5.571    0.000    1.714 
#    0.000    6.429    0.000    0.857    0.000    0.000 
#    0.000    0.000    0.000    0.000    0.000    0.000 
#
# Total GULP energy -694512.123827 kJ/mol
# GULP energy per Si atom -12402.002211 kJ/mol
# Density = 1.800540 g / cm^3
# Si number density = 18.046475 Si / 1000 Ang^3
#
#
#
# Elastic Constant Matrix: (Units=GPa)
#
#
# Indices 1 2 3 4 5 6 
#
# 1 50.7717 17.1567 26.8622 0.0000 0.0000 0.0000
# 2 17.1567 58.0554 19.8589 0.0000 0.0000 0.0000
# 3 26.8622 19.8589 106.7958 0.0000 0.0000 0.0000
# 4 0.0000 0.0000 0.0000 25.6850 0.0000 0.0000
# 5 0.0000 0.0000 0.0000 0.0000 27.8531 0.0000
# 6 0.0000 0.0000 0.0000 0.0000 0.0000 20.5181
#
#
#
# Elastic Compliance Matrix: (Units=1/GPa)
#
#
# Indices 1 2 3 4 5 6 
#
# 1 0.024216 -0.005418 -0.005084 0.000000 0.000000 0.000000
# 2 -0.005418 0.019607 -0.002283 0.000000 0.000000 0.000000
# 3 -0.005084 -0.002283 0.011067 0.000000 0.000000 0.000000
# 4 0.000000 0.000000 0.000000 0.038933 0.000000 0.000000
# 5 0.000000 0.000000 0.000000 0.000000 0.035903 0.000000
# 6 0.000000 0.000000 0.000000 0.000000 0.000000 0.048738
#
#
# Mechanical properties :
#
#
# Convention : Reuss Voigt Hill
#
# Bulk Modulus (GPa) = 34.10497 38.15316 36.12907
# Shear Modulus (GPa) = 23.38562 24.92757 24.15660
#
# Velocity S-wave (km/s) = 3.60370 3.72061 3.66263
# Velocity P-wave (km/s) = 6.02121 6.29641 6.16035
#
# Compressibility (1/GPa) = 0.02932124
#
# Stress axis : x y z
#
# Youngs Moduli (GPa) = 41.29436 51.00223 90.35918
#
# Poissons Ratio (x) = 0.27631 0.45936
# Poissons Ratio (y) = 0.22371 0.20632
# Poissons Ratio (z) = 0.20993 0.11645
#
# Static dielectric constant tensor:
#      x y z
#    x 3.485760 0.000000 0.000000 
#    y 0.000000 3.251160 0.000000 
#    z 0.000000 0.000000 3.339580 
# 
# 
# High freq. dielectric constant tensor:
#      x y z
#    x 1.686450 0.000000 0.000000 
#    y 0.000000 1.697310 0.000000 
#    z 0.000000 0.000000 1.693070 
# 
# From -- ./inp_files/24625.got.cif
#   From: 2010.03.12/outbox.cif.g09.slc.cpg/sg62_13_cif.got.tgz:24625.got - 2010.04.10 19:12:36.
