data_PCOD8252749
_publ_section_title
;
Structure prediction by ZEFSAII (Michael W. Deem and Ramdas Pophale) SiO2 
 PCOD8252749
Probable space group: P N M A
;
_chemical_formula_sum "Si O2"
_cell_formula_units_Z 64
_cell_length_a 24.819363
_cell_length_b 8.980777
_cell_length_c 15.196113
_cell_angle_alpha 90.000000
_cell_angle_beta 90.000000
_cell_angle_gamma 90.000000
_cell_volume 3387.170497
_symmetry_space_group_name_H-M "P N M A"
_symmetry_group_IT_number 62
_symmetry_cell_setting 'orthorhombic'
loop_
_space_group_symop_operation_xyz
x,y,z
1/2-x,-y,1/2+z
1/2+x,1/2-y,1/2-z
-x,1/2+y,-z
-x,-y,-z
1/2+x,y,1/2-z
1/2-x,1/2+y,1/2+z
x,1/2-y,z
loop_
_atom_site_type_symbol
_atom_site_label
_atom_site_fract_x
_atom_site_fract_y
_atom_site_fract_z
Si Si1 0.248171 0.581586 0.728369
Si Si2 0.145802 0.576052 0.182752
Si Si3 0.720533 0.581516 0.968879
Si Si4 0.447647 0.424470 0.818603
Si Si5 0.856485 0.425163 0.171530
Si Si6 0.395126 0.072012 0.998000
Si Si7 0.338030 0.927702 0.502957
Si Si8 0.940993 0.073506 0.317613
O O1 0.268756 0.750000 0.743976
O O2 0.299270 0.473005 0.731505
O O3 0.216761 0.572797 0.636310
O O4 0.204616 0.533166 0.801163
O O5 0.149568 0.750000 0.162277
O O6 0.096723 0.536695 0.246254
O O7 0.135236 0.488327 0.092230
O O8 0.721941 0.750000 0.002188
O O9 0.666123 0.505795 0.006973
O O10 0.776488 0.507929 0.001440
O O11 0.459079 0.250000 0.823719
O O12 0.427740 0.484868 0.913459
O O13 0.501661 0.507480 0.790829
O O14 0.862737 0.250000 0.156229
O O15 0.870173 0.510931 0.081131
O O16 0.898004 0.481531 0.245403
O O17 0.391412 0.250000 0.001012
O O18 0.424114 0.012552 0.086127
O O19 0.339865 0.750000 0.506527
O O20 0.944718 0.250000 0.318402
#
# Coordination Sequence:
#
# PCOD8252749 Si02
#       8
#     8   8   8   8   8   8   8   8
#     4   9  17  32  54  80 111 146 181 222 271 329
#     4  10  21  37  55  79 113 149 187 232 282 331
#     4   8  14  28  51  77 107 141 177 210 257 327
#     4  10  22  36  55  80 110 148 187 232 276 322
#     4  10  20  35  56  83 114 148 185 228 280 334
#     4   9  16  31  54  80 110 145 181 216 265 330
#     4  10  21  35  57  83 110 147 186 232 283 335
#     4  10  20  36  59  81 108 148 188 226 273 329
#
# _framework density 18.894826999999999
#
# number of rings (size 3 to 8) (size 9 to 14) (size 15 to 20)
#    0.000    2.500    1.250    1.875    1.750    2.000 
#    0.000    0.625    0.000    0.750    0.000    0.000 
#    0.000    0.000    0.000    0.000    0.000    0.000 
#
# Total GULP energy -793468.692261 kJ/mol
# GULP energy per Si atom -12397.948317 kJ/mol
# Density = 1.885182 g / cm^3
# Si number density = 18.894827 Si / 1000 Ang^3
#
#
#
# Elastic Constant Matrix: (Units=GPa)
#
#
# Indices 1 2 3 4 5 6 
#
# 1 106.3173 38.6749 66.2300 0.0000 0.0000 0.0000
# 2 38.6749 45.6289 44.9310 0.0000 0.0000 0.0000
# 3 66.2300 44.9310 133.4139 0.0000 0.0000 0.0000
# 4 0.0000 0.0000 0.0000 25.3246 0.0000 0.0000
# 5 0.0000 0.0000 0.0000 0.0000 22.8149 0.0000
# 6 0.0000 0.0000 0.0000 0.0000 0.0000 25.8485
#
#
#
# Elastic Compliance Matrix: (Units=1/GPa)
#
#
# Indices 1 2 3 4 5 6 
#
# 1 0.015467 -0.008302 -0.004882 0.000000 0.000000 0.000000
# 2 -0.008302 0.037246 -0.008422 0.000000 0.000000 0.000000
# 3 -0.004882 -0.008422 0.012756 0.000000 0.000000 0.000000
# 4 0.000000 0.000000 0.000000 0.039487 0.000000 0.000000
# 5 0.000000 0.000000 0.000000 0.000000 0.043831 0.000000
# 6 0.000000 0.000000 0.000000 0.000000 0.000000 0.038687
#
#
# Mechanical properties :
#
#
# Convention : Reuss Voigt Hill
#
# Bulk Modulus (GPa) = 44.93292 65.00353 54.96822
# Shear Modulus (GPa) = 20.99892 23.83254 22.41573
#
# Velocity S-wave (km/s) = 3.33732 3.55537 3.44807
# Velocity P-wave (km/s) = 6.21952 7.16461 6.70873
#
# Compressibility (1/GPa) = 0.02225540
#
# Stress axis : x y z
#
# Youngs Moduli (GPa) = 64.65206 26.84817 78.39683
#
# Poissons Ratio (x) = 0.22291 0.38276
# Poissons Ratio (y) = 0.53677 0.66028
# Poissons Ratio (z) = 0.31565 0.22612
#
# Static dielectric constant tensor:
#      x y z
#    x 3.462500 0.000000 0.000000 
#    y 0.000000 3.106810 0.000000 
#    z 0.000000 0.000000 3.489500 
# 
# 
# High freq. dielectric constant tensor:
#      x y z
#    x 1.729790 0.000000 0.000000 
#    y 0.000000 1.702970 0.000000 
#    z 0.000000 0.000000 1.737610 
# 
# From -- ./inp_files/20995.got.cif
#   From: 2010.03.12/outbox.cif.g09.slc.cpg/sg62_11_cif.got.tgz:20995.got - 2010.04.10 19:12:36.
