data_PCOD8252495
_publ_section_title
;
Structure prediction by ZEFSAII (Michael W. Deem and Ramdas Pophale) SiO2 
 PCOD8252495
Probable space group: P N M A
;
_chemical_formula_sum "Si O2"
_cell_formula_units_Z 56
_cell_length_a 14.901283
_cell_length_b 9.016092
_cell_length_c 21.077398
_cell_angle_alpha 90.000000
_cell_angle_beta 90.000000
_cell_angle_gamma 90.000000
_cell_volume 2831.776632
_symmetry_space_group_name_H-M "P N M A"
_symmetry_group_IT_number 62
_symmetry_cell_setting 'orthorhombic'
loop_
_space_group_symop_operation_xyz
x,y,z
1/2-x,-y,1/2+z
1/2+x,1/2-y,1/2-z
-x,1/2+y,-z
-x,-y,-z
1/2+x,y,1/2-z
1/2-x,1/2+y,1/2+z
x,1/2-y,z
loop_
_atom_site_type_symbol
_atom_site_label
_atom_site_fract_x
_atom_site_fract_y
_atom_site_fract_z
Si Si1 0.786327 0.425402 0.098270
Si Si2 0.528536 0.076283 0.565244
Si Si3 0.585799 0.579966 0.772647
Si Si4 0.521316 0.581212 0.911422
Si Si5 0.138888 0.919659 0.472984
Si Si6 0.556038 0.920814 0.305960
Si Si7 0.781252 0.578785 0.735747
O O1 0.802361 0.250000 0.095829
O O2 0.881372 0.504763 0.092885
O O3 0.724747 0.477558 0.039710
O O4 0.735049 0.473195 0.163087
O O5 0.544946 0.250000 0.552838
O O6 0.449553 0.052833 0.617817
O O7 0.500000 0.000000 0.500000
O O8 0.569733 0.750000 0.752746
O O9 0.546191 0.542370 0.840501
O O10 0.537923 0.478521 0.721292
O O11 0.691211 0.545662 0.774822
O O12 0.485408 0.750000 0.918622
O O13 0.444409 0.466996 0.929559
O O14 0.610289 0.559298 0.953923
O O15 0.163392 0.750000 0.457447
O O16 0.564957 0.750000 0.289622
O O17 0.639296 0.997654 0.271990
O O18 0.808131 0.750000 0.735656
#
# Coordination Sequence:
#
# PCOD8252495 Si02
#       7
#     8   8   8   8   8   8   8
#     4  11  22  39  62  89 120 159 208 254 303 369
#     4  11  25  44  65  90 122 162 206 256 314 374
#     4  10  20  38  61  84 113 153 199 244 292 355
#     4   9  19  35  55  82 116 154 200 247 296 358
#     4  10  20  34  54  83 119 157 198 245 300 358
#     4  11  24  40  61  92 126 157 198 257 316 365
#     4  10  22  38  61  89 118 159 205 249 303 368
#
# _framework density 19.775569999999998
#
# number of rings (size 3 to 8) (size 9 to 14) (size 15 to 20)
#    0.000    1.714    1.429    2.571    0.000    9.143 
#    0.000    1.429    0.000    0.000    0.000    0.000 
#    0.000    0.000    0.000    0.000    0.000    0.000 
#
# Total GULP energy -694425.092693 kJ/mol
# GULP energy per Si atom -12400.448084 kJ/mol
# Density = 1.973056 g / cm^3
# Si number density = 19.775570 Si / 1000 Ang^3
#
#
#
# Elastic Constant Matrix: (Units=GPa)
#
#
# Indices 1 2 3 4 5 6 
#
# 1 97.5703 52.4384 44.5731 0.0000 0.0000 0.0000
# 2 52.4384 102.5842 62.8751 0.0000 0.0000 0.0000
# 3 44.5731 62.8751 101.5480 0.0000 0.0000 0.0000
# 4 0.0000 0.0000 0.0000 28.6916 0.0000 0.0000
# 5 0.0000 0.0000 0.0000 0.0000 25.0491 0.0000
# 6 0.0000 0.0000 0.0000 0.0000 0.0000 32.1264
#
#
#
# Elastic Compliance Matrix: (Units=1/GPa)
#
#
# Indices 1 2 3 4 5 6 
#
# 1 0.014639 -0.005713 -0.002888 0.000000 0.000000 0.000000
# 2 -0.005713 0.017939 -0.008600 0.000000 0.000000 0.000000
# 3 -0.002888 -0.008600 0.016440 0.000000 0.000000 0.000000
# 4 0.000000 0.000000 0.000000 0.034853 0.000000 0.000000
# 5 0.000000 0.000000 0.000000 0.000000 0.039922 0.000000
# 6 0.000000 0.000000 0.000000 0.000000 0.000000 0.031127
#
#
# Mechanical properties :
#
#
# Convention : Reuss Voigt Hill
#
# Bulk Modulus (GPa) = 68.41686 69.05285 68.73486
# Shear Modulus (GPa) = 25.74745 26.62780 26.18762
#
# Velocity S-wave (km/s) = 3.61221 3.67345 3.64296
# Velocity P-wave (km/s) = 7.21590 7.27917 7.24761
#
# Compressibility (1/GPa) = 0.01461628
#
# Stress axis : x y z
#
# Youngs Moduli (GPa) = 68.31192 55.74397 60.82677
#
# Poissons Ratio (x) = 0.31844 0.17569
# Poissons Ratio (y) = 0.39024 0.52310
# Poissons Ratio (z) = 0.19732 0.47939
#
# Static dielectric constant tensor:
#      x y z
#    x 3.585950 0.000000 0.000000 
#    y 0.000000 3.645240 0.000000 
#    z 0.000000 0.000000 3.882050 
# 
# 
# High freq. dielectric constant tensor:
#      x y z
#    x 1.771400 0.000000 0.000000 
#    y 0.000000 1.773860 0.000000 
#    z 0.000000 0.000000 1.778570 
# 
# From -- ./inp_files/27210.got.cif
#   From: 2010.03.12/outbox.cif.g09.slc.cpg/sg62_14_cif.got.tgz:27210.got - 2010.04.10 19:12:36.
