data_PCOD8252220
_publ_section_title
;
Structure prediction by ZEFSAII (Michael W. Deem and Ramdas Pophale) SiO2 
 PCOD8252220
Probable space group: P N M A
;
_chemical_formula_sum "Si O2"
_cell_formula_units_Z 48
_cell_length_a 23.763954
_cell_length_b 9.295073
_cell_length_c 11.976905
_cell_angle_alpha 90.000000
_cell_angle_beta 90.000000
_cell_angle_gamma 90.000000
_cell_volume 2645.550845
_symmetry_space_group_name_H-M "P N M A"
_symmetry_group_IT_number 62
_symmetry_cell_setting 'orthorhombic'
loop_
_space_group_symop_operation_xyz
x,y,z
1/2-x,-y,1/2+z
1/2+x,1/2-y,1/2-z
-x,1/2+y,-z
-x,-y,-z
1/2+x,y,1/2-z
1/2-x,1/2+y,1/2+z
x,1/2-y,z
loop_
_atom_site_type_symbol
_atom_site_label
_atom_site_fract_x
_atom_site_fract_y
_atom_site_fract_z
Si Si1 0.142665 0.420919 0.857512
Si Si2 0.719122 0.079912 0.840154
Si Si3 0.955473 0.920017 0.301046
Si Si4 0.581449 0.581813 0.209836
Si Si5 0.878458 0.580198 0.500421
Si Si6 0.339970 0.418021 0.586391
O O1 0.143744 0.250000 0.874907
O O2 0.194238 0.473878 0.778450
O O3 0.084510 0.472857 0.799631
O O4 0.146898 0.497105 0.975061
O O5 0.717827 0.250000 0.835927
O O6 0.782105 0.022022 0.859214
O O7 0.679542 0.029698 0.942312
O O8 0.957204 0.750000 0.295758
O O9 0.930151 0.967481 0.420454
O O10 0.018213 0.982822 0.286799
O O11 0.581665 0.750000 0.180654
O O12 0.617644 0.501571 0.116746
O O13 0.609300 0.551753 0.329091
O O14 0.879274 0.750000 0.522496
O O15 0.334119 0.250000 0.558229
#
# Coordination Sequence:
#
# PCOD8252220 Si02
#       6
#     8   8   8   8   8   8
#     4   9  18  35  56  71  92 132 175 200 232 297
#     4   8  17  34  52  69  96 132 163 199 250 297
#     4   8  16  33  53  73  99 133 165 200 247 295
#     4  10  20  32  49  75 106 132 159 201 254 296
#     4   9  17  32  54  74  95 129 170 206 241 288
#     4  10  21  34  48  72 104 132 158 202 256 292
#
# _framework density 18.14367
#
# number of rings (size 3 to 8) (size 9 to 14) (size 15 to 20)
#    0.000    3.000    0.000    2.500    2.333    1.333 
#    0.000    5.000    0.000    0.000    0.000    0.000 
#    0.000    0.000    0.000    0.000    0.000    0.000 
#
# Total GULP energy -595049.071442 kJ/mol
# GULP energy per Si atom -12396.855655 kJ/mol
# Density = 1.810237 g / cm^3
# Si number density = 18.143670 Si / 1000 Ang^3
#
#
#
# Elastic Constant Matrix: (Units=GPa)
#
#
# Indices 1 2 3 4 5 6 
#
# 1 74.8283 18.8364 25.1411 0.0000 0.0000 0.0000
# 2 18.8364 34.0258 42.5278 0.0000 0.0000 0.0000
# 3 25.1411 42.5278 117.0186 0.0000 0.0000 0.0000
# 4 0.0000 0.0000 0.0000 34.7905 0.0000 0.0000
# 5 0.0000 0.0000 0.0000 0.0000 22.3202 0.0000
# 6 0.0000 0.0000 0.0000 0.0000 0.0000 17.0893
#
#
#
# Elastic Compliance Matrix: (Units=1/GPa)
#
#
# Indices 1 2 3 4 5 6 
#
# 1 0.015537 -0.008115 -0.000389 0.000000 0.000000 0.000000
# 2 -0.008115 0.058089 -0.019368 0.000000 0.000000 0.000000
# 3 -0.000389 -0.019368 0.015668 0.000000 0.000000 0.000000
# 4 0.000000 0.000000 0.000000 0.028744 0.000000 0.000000
# 5 0.000000 0.000000 0.000000 0.000000 0.044803 0.000000
# 6 0.000000 0.000000 0.000000 0.000000 0.000000 0.058516
#
#
# Mechanical properties :
#
#
# Convention : Reuss Voigt Hill
#
# Bulk Modulus (GPa) = 29.80565 44.32037 37.06301
# Shear Modulus (GPa) = 17.34400 24.13114 20.73757
#
# Velocity S-wave (km/s) = 3.09516 3.65088 3.38444
# Velocity P-wave (km/s) = 5.40709 6.50018 5.97867
#
# Compressibility (1/GPa) = 0.03355069
#
# Stress axis : x y z
#
# Youngs Moduli (GPa) = 64.36063 17.21494 63.82471
#
# Poissons Ratio (x) = 0.13971 0.02481
# Poissons Ratio (y) = 0.52232 1.23613
# Poissons Ratio (z) = 0.02502 0.33341
#
# Static dielectric constant tensor:
#      x y z
#    x 4.031020 0.000000 0.000000 
#    y 0.000000 2.921110 0.000000 
#    z 0.000000 0.000000 3.251840 
# 
# 
# High freq. dielectric constant tensor:
#      x y z
#    x 1.715260 0.000000 0.000000 
#    y 0.000000 1.661910 0.000000 
#    z 0.000000 0.000000 1.705430 
# 
# From -- ./inp_files/9294.got.cif
#   From: 2010.03.12/outbox.cif.g09.slc.cpg/sg62_5_cif.got.tgz:9294.got - 2010.04.10 19:12:36.
