data_PCOD8252343
_publ_section_title
;
Structure prediction by ZEFSAII (Michael W. Deem and Ramdas Pophale) SiO2 
 PCOD8252343
Probable space group: P N M A
;
_chemical_formula_sum "Si O2"
_cell_formula_units_Z 56
_cell_length_a 21.371192
_cell_length_b 9.108997
_cell_length_c 15.030708
_cell_angle_alpha 90.000000
_cell_angle_beta 90.000000
_cell_angle_gamma 90.000000
_cell_volume 2926.029787
_symmetry_space_group_name_H-M "P N M A"
_symmetry_group_IT_number 62
_symmetry_cell_setting 'orthorhombic'
loop_
_space_group_symop_operation_xyz
x,y,z
1/2-x,-y,1/2+z
1/2+x,1/2-y,1/2-z
-x,1/2+y,-z
-x,-y,-z
1/2+x,y,1/2-z
1/2-x,1/2+y,1/2+z
x,1/2-y,z
loop_
_atom_site_type_symbol
_atom_site_label
_atom_site_fract_x
_atom_site_fract_y
_atom_site_fract_z
Si Si1 0.018708 0.089400 0.723990
Si Si2 0.705657 0.577381 0.626747
Si Si3 0.337093 0.578605 0.196174
Si Si4 0.098039 0.083631 0.968888
Si Si5 0.446781 0.088900 0.953090
Si Si6 0.012045 0.083597 0.118117
Si Si7 0.677145 0.077564 0.004943
O O1 0.024179 0.250000 0.771346
O O2 0.088983 0.038600 0.696761
O O3 0.970169 0.108392 0.645863
O O4 0.984925 0.960909 0.779509
O O5 0.701141 0.750000 0.641658
O O6 0.700045 0.503660 0.724279
O O7 0.651054 0.527405 0.560613
O O8 0.767625 0.532906 0.572463
O O9 0.326263 0.750000 0.212338
O O10 0.310074 0.531597 0.098696
O O11 0.117011 0.250000 0.942900
O O12 0.081306 0.070685 0.073977
O O13 0.034246 0.039114 0.920552
O O14 0.438179 0.250000 0.997059
O O15 0.382149 0.004076 0.956037
O O16 0.500000 0.000000 0.000000
O O17 0.986629 0.250000 0.106275
O O18 0.663529 0.250000 0.007007
#
# Coordination Sequence:
#
# PCOD8252343 Si02
#       7
#     8   8   8   8   8   8   8
#     4  10  20  35  58  86 116 150 189 234 291 355
#     4  11  23  39  62  89 118 156 202 250 294 351
#     4  10  20  39  64  85 115 156 195 238 294 357
#     4  10  20  35  55  81 116 154 191 239 292 348
#     4  11  22  38  62  90 118 151 192 243 300 355
#     4  10  20  33  54  84 115 150 195 241 289 341
#     4  10  23  44  63  85 120 157 197 249 303 353
#
# _framework density 19.138560999999999
#
# number of rings (size 3 to 8) (size 9 to 14) (size 15 to 20)
#    0.000    1.714    2.857    1.714    0.000    4.571 
#    2.571    0.000    0.000    0.000    0.000    0.000 
#    0.000    0.000    0.000    0.000    0.000    0.000 
#
# Total GULP energy -693913.516835 kJ/mol
# GULP energy per Si atom -12391.312801 kJ/mol
# Density = 1.909500 g / cm^3
# Si number density = 19.138561 Si / 1000 Ang^3
#
#
#
# Elastic Constant Matrix: (Units=GPa)
#
#
# Indices 1 2 3 4 5 6 
#
# 1 110.3488 41.3935 63.8163 0.0000 0.0000 0.0000
# 2 41.3935 54.3631 55.5244 0.0000 0.0000 0.0000
# 3 63.8163 55.5244 119.0759 0.0000 0.0000 0.0000
# 4 0.0000 0.0000 0.0000 32.9774 0.0000 0.0000
# 5 0.0000 0.0000 0.0000 0.0000 33.2706 0.0000
# 6 0.0000 0.0000 0.0000 0.0000 0.0000 26.7424
#
#
#
# Elastic Compliance Matrix: (Units=1/GPa)
#
#
# Indices 1 2 3 4 5 6 
#
# 1 0.014007 -0.005725 -0.004838 0.000000 0.000000 0.000000
# 2 -0.005725 0.037461 -0.014400 0.000000 0.000000 0.000000
# 3 -0.004838 -0.014400 0.017705 0.000000 0.000000 0.000000
# 4 0.000000 0.000000 0.000000 0.030324 0.000000 0.000000
# 5 0.000000 0.000000 0.000000 0.000000 0.030057 0.000000
# 6 0.000000 0.000000 0.000000 0.000000 0.000000 0.037394
#
#
# Mechanical properties :
#
#
# Convention : Reuss Voigt Hill
#
# Bulk Modulus (GPa) = 51.94949 67.25068 59.60009
# Shear Modulus (GPa) = 22.39256 26.80166 24.59711
#
# Velocity S-wave (km/s) = 3.42427 3.74625 3.58887
# Velocity P-wave (km/s) = 6.54500 7.34355 6.95574
#
# Compressibility (1/GPa) = 0.01924947
#
# Stress axis : x y z
#
# Youngs Moduli (GPa) = 71.39213 26.69423 56.48050
#
# Poissons Ratio (x) = 0.15281 0.27323
# Poissons Ratio (y) = 0.40869 0.81332
# Poissons Ratio (z) = 0.34536 0.38440
#
# Static dielectric constant tensor:
#      x y z
#    x 3.348770 0.000000 0.000000 
#    y 0.000000 3.730830 0.000000 
#    z 0.000000 0.000000 3.692470 
# 
# 
# High freq. dielectric constant tensor:
#      x y z
#    x 1.722050 0.000000 0.000000 
#    y 0.000000 1.755320 0.000000 
#    z 0.000000 0.000000 1.750290 
# 
# From -- ./inp_files/20287.got.cif
#   From: 2010.03.12/outbox.cif.g09.slc.cpg/sg62_11_cif.got.tgz:20287.got - 2010.04.10 19:12:36.
