data_PCOD8252803
_publ_section_title
;
Structure prediction by ZEFSAII (Michael W. Deem and Ramdas Pophale) SiO2 
 PCOD8252803
Probable space group: P N M A
;
_chemical_formula_sum "Si O2"
_cell_formula_units_Z 48
_cell_length_a 18.564461
_cell_length_b 8.951651
_cell_length_c 15.049262
_cell_angle_alpha 90.000000
_cell_angle_beta 90.000000
_cell_angle_gamma 90.000000
_cell_volume 2500.925124
_symmetry_space_group_name_H-M "P N M A"
_symmetry_group_IT_number 62
_symmetry_cell_setting 'orthorhombic'
loop_
_space_group_symop_operation_xyz
x,y,z
1/2-x,-y,1/2+z
1/2+x,1/2-y,1/2-z
-x,1/2+y,-z
-x,-y,-z
1/2+x,y,1/2-z
1/2-x,1/2+y,1/2+z
x,1/2-y,z
loop_
_atom_site_type_symbol
_atom_site_label
_atom_site_fract_x
_atom_site_fract_y
_atom_site_fract_z
Si Si1 0.436304 0.077769 0.393684
Si Si2 0.088224 0.424998 0.581383
Si Si3 0.416712 0.423165 0.595637
Si Si4 0.576389 0.925666 0.100346
Si Si5 0.835538 0.923985 0.755976
Si Si6 0.330385 0.077650 0.236913
O O1 0.460517 0.250000 0.385517
O O2 0.405499 0.044786 0.491551
O O3 0.374296 0.035064 0.324908
O O4 0.504391 0.974425 0.372612
O O5 0.096407 0.250000 0.566638
O O6 0.108699 0.503727 0.489081
O O7 0.144087 0.477246 0.655458
O O8 0.007517 0.469377 0.610940
O O9 0.407914 0.250000 0.619541
O O10 0.356286 0.517711 0.646369
O O11 0.587452 0.750000 0.095527
O O12 0.618115 0.988503 0.184202
O O13 0.853255 0.750000 0.748004
O O14 0.751943 0.957964 0.740607
O O15 0.341625 0.250000 0.210572
#
# Coordination Sequence:
#
# PCOD8252803 Si02
#       6
#     8   8   8   8   8   8
#     4   9  19  37  59  80 106 142 183 228 273 321
#     4  10  21  37  59  85 111 143 184 230 278 327
#     4  10  20  35  57  84 110 140 182 229 277 328
#     4  10  21  38  60  85 111 143 185 230 276 328
#     4  11  23  37  54  80 114 150 186 226 275 328
#     4  10  22  38  55  79 112 149 186 224 271 326
#
# _framework density 19.192898
#
# number of rings (size 3 to 8) (size 9 to 14) (size 15 to 20)
#    0.000    2.000    0.000    3.000    0.000    8.667 
#    0.000    1.667    0.000    0.000    0.000    0.000 
#    0.000    0.000    0.000    0.000    0.000    0.000 
#
# Total GULP energy -595479.677247 kJ/mol
# GULP energy per Si atom -12405.826609 kJ/mol
# Density = 1.914921 g / cm^3
# Si number density = 19.192898 Si / 1000 Ang^3
#
#
#
# Elastic Constant Matrix: (Units=GPa)
#
#
# Indices 1 2 3 4 5 6 
#
# 1 53.5144 25.5730 25.5821 0.0000 0.0000 0.0000
# 2 25.5730 68.1772 30.3075 0.0000 0.0000 0.0000
# 3 25.5821 30.3075 85.6021 0.0000 0.0000 0.0000
# 4 0.0000 0.0000 0.0000 35.9779 0.0000 0.0000
# 5 0.0000 0.0000 0.0000 0.0000 14.2202 0.0000
# 6 0.0000 0.0000 0.0000 0.0000 0.0000 30.7094
#
#
#
# Elastic Compliance Matrix: (Units=1/GPa)
#
#
# Indices 1 2 3 4 5 6 
#
# 1 0.024318 -0.006991 -0.004792 0.000000 0.000000 0.000000
# 2 -0.006991 0.019417 -0.004785 0.000000 0.000000 0.000000
# 3 -0.004792 -0.004785 0.014808 0.000000 0.000000 0.000000
# 4 0.000000 0.000000 0.000000 0.027795 0.000000 0.000000
# 5 0.000000 0.000000 0.000000 0.000000 0.070323 0.000000
# 6 0.000000 0.000000 0.000000 0.000000 0.000000 0.032563
#
#
# Mechanical properties :
#
#
# Convention : Reuss Voigt Hill
#
# Bulk Modulus (GPa) = 39.36050 41.13545 40.24798
# Shear Modulus (GPa) = 21.66080 24.57024 23.11552
#
# Velocity S-wave (km/s) = 3.36308 3.58183 3.47418
# Velocity P-wave (km/s) = 5.96932 6.21170 6.09172
#
# Compressibility (1/GPa) = 0.02540618
#
# Stress axis : x y z
#
# Youngs Moduli (GPa) = 41.12104 51.50021 67.52936
#
# Poissons Ratio (x) = 0.36006 0.32362
# Poissons Ratio (y) = 0.28749 0.32315
# Poissons Ratio (z) = 0.19706 0.24645
#
# Static dielectric constant tensor:
#      x y z
#    x 3.431510 0.000000 0.000000 
#    y 0.000000 3.567470 0.000000 
#    z 0.000000 0.000000 3.626040 
# 
# 
# High freq. dielectric constant tensor:
#      x y z
#    x 1.737820 0.000000 0.000000 
#    y 0.000000 1.755080 0.000000 
#    z 0.000000 0.000000 1.758070 
# 
# From -- ./inp_files/19589.got.cif
#   From: 2010.03.12/outbox.cif.g09.slc.cpg/sg62_10_cif.got.tgz:19589.got - 2010.04.10 19:12:36.
