data_PCOD8252408
_publ_section_title
;
Structure prediction by ZEFSAII (Michael W. Deem and Ramdas Pophale) SiO2 
 PCOD8252408
Probable space group: P N M A
;
_chemical_formula_sum "Si O2"
_cell_formula_units_Z 56
_cell_length_a 18.799373
_cell_length_b 9.093384
_cell_length_c 19.133286
_cell_angle_alpha 90.000000
_cell_angle_beta 90.000000
_cell_angle_gamma 90.000000
_cell_volume 3270.833666
_symmetry_space_group_name_H-M "P N M A"
_symmetry_group_IT_number 62
_symmetry_cell_setting 'orthorhombic'
loop_
_space_group_symop_operation_xyz
x,y,z
1/2-x,-y,1/2+z
1/2+x,1/2-y,1/2-z
-x,1/2+y,-z
-x,-y,-z
1/2+x,y,1/2-z
1/2-x,1/2+y,1/2+z
x,1/2-y,z
loop_
_atom_site_type_symbol
_atom_site_label
_atom_site_fract_x
_atom_site_fract_y
_atom_site_fract_z
Si Si1 0.981261 0.919414 0.802179
Si Si2 0.551016 0.923001 0.445471
Si Si3 0.210509 0.918488 0.011711
Si Si4 0.256555 0.921536 0.371802
Si Si5 0.834903 0.918610 0.735029
Si Si6 0.380411 0.581691 0.265156
Si Si7 0.238878 0.417794 0.660332
O O1 0.989021 0.750000 0.825549
O O2 0.919232 0.938099 0.745012
O O3 0.053420 0.972582 0.765741
O O4 0.965552 0.017991 0.869014
O O5 0.536665 0.750000 0.446242
O O6 0.631283 0.962433 0.465766
O O7 0.500000 0.000000 0.500000
O O8 0.213427 0.750000 0.986619
O O9 0.262742 0.946523 0.077436
O O10 0.237184 0.020963 0.950017
O O11 0.241617 0.750000 0.373829
O O12 0.328345 0.958228 0.329425
O O13 0.189036 0.994980 0.334077
O O14 0.813258 0.750000 0.725297
O O15 0.796595 0.977444 0.804430
O O16 0.406416 0.750000 0.271297
O O17 0.339242 0.554406 0.192183
O O18 0.262879 0.250000 0.676219
#
# Coordination Sequence:
#
# PCOD8252408 Si02
#       7
#     8   8   8   8   8   8   8
#     4  11  22  34  51  77 107 138 174 215 260 311
#     4  11  22  34  51  75 108 145 175 209 256 314
#     4  10  20  34  53  76 104 138 172 213 263 310
#     4  10  21  35  53  77 105 137 175 217 259 311
#     4  10  20  34  53  76 102 136 176 218 260 307
#     4   9  19  34  53  75 102 137 174 215 260 309
#     4   9  18  35  55  76 101 134 177 218 260 312
#
# _framework density 17.121016999999998
#
# number of rings (size 3 to 8) (size 9 to 14) (size 15 to 20)
#    0.000    2.000    1.429    3.429    0.000    8.571 
#    0.000    0.000    0.000    0.857    0.000    0.000 
#    0.000    0.000    0.000    0.000    0.000    0.000 
#
# Total GULP energy -694559.702132 kJ/mol
# GULP energy per Si atom -12402.851824 kJ/mol
# Density = 1.708205 g / cm^3
# Si number density = 17.121017 Si / 1000 Ang^3
#
#
#
# Elastic Constant Matrix: (Units=GPa)
#
#
# Indices 1 2 3 4 5 6 
#
# 1 82.4423 56.0225 71.0228 0.0000 0.0000 0.0000
# 2 56.0225 99.1359 65.8566 0.0000 0.0000 0.0000
# 3 71.0228 65.8566 107.4084 0.0000 0.0000 0.0000
# 4 0.0000 0.0000 0.0000 32.3004 0.0000 0.0000
# 5 0.0000 0.0000 0.0000 0.0000 24.5017 0.0000
# 6 0.0000 0.0000 0.0000 0.0000 0.0000 28.3758
#
#
#
# Elastic Compliance Matrix: (Units=1/GPa)
#
#
# Indices 1 2 3 4 5 6 
#
# 1 0.030460 -0.006467 -0.016176 0.000000 0.000000 0.000000
# 2 -0.006467 0.018393 -0.007001 0.000000 0.000000 0.000000
# 3 -0.016176 -0.007001 0.024299 0.000000 0.000000 0.000000
# 4 0.000000 0.000000 0.000000 0.030959 0.000000 0.000000
# 5 0.000000 0.000000 0.000000 0.000000 0.040813 0.000000
# 6 0.000000 0.000000 0.000000 0.000000 0.000000 0.035241
#
#
# Mechanical properties :
#
#
# Convention : Reuss Voigt Hill
#
# Bulk Modulus (GPa) = 72.13316 74.97673 73.55494
# Shear Modulus (GPa) = 20.48558 23.44123 21.96341
#
# Velocity S-wave (km/s) = 3.46282 3.70422 3.58555
# Velocity P-wave (km/s) = 7.62961 7.88557 7.75865
#
# Compressibility (1/GPa) = 0.01386325
#
# Stress axis : x y z
#
# Youngs Moduli (GPa) = 32.83031 54.36975 41.15424
#
# Poissons Ratio (x) = 0.35163 0.66570
# Poissons Ratio (y) = 0.21232 0.28811
# Poissons Ratio (z) = 0.53106 0.38063
#
# Static dielectric constant tensor:
#      x y z
#    x 3.068830 0.000000 0.000000 
#    y 0.000000 3.246810 0.000000 
#    z 0.000000 0.000000 3.196370 
# 
# 
# High freq. dielectric constant tensor:
#      x y z
#    x 1.648600 0.000000 0.000000 
#    y 0.000000 1.673270 0.000000 
#    z 0.000000 0.000000 1.654010 
# 
# From -- ./inp_files/27545.got.cif
#   From: 2010.03.12/outbox.cif.g09.slc.cpg/sg62_14_cif.got.tgz:27545.got - 2010.04.10 19:12:36.
