data_PCOD8252438
_publ_section_title
;
Structure prediction by ZEFSAII (Michael W. Deem and Ramdas Pophale) SiO2 
 PCOD8252438
Probable space group: P N M A
;
_chemical_formula_sum "Si O2"
_cell_formula_units_Z 56
_cell_length_a 21.246850
_cell_length_b 8.899107
_cell_length_c 15.098659
_cell_angle_alpha 90.000000
_cell_angle_beta 90.000000
_cell_angle_gamma 90.000000
_cell_volume 2854.824119
_symmetry_space_group_name_H-M "P N M A"
_symmetry_group_IT_number 62
_symmetry_cell_setting 'orthorhombic'
loop_
_space_group_symop_operation_xyz
x,y,z
1/2-x,-y,1/2+z
1/2+x,1/2-y,1/2-z
-x,1/2+y,-z
-x,-y,-z
1/2+x,y,1/2-z
1/2-x,1/2+y,1/2+z
x,1/2-y,z
loop_
_atom_site_type_symbol
_atom_site_label
_atom_site_fract_x
_atom_site_fract_y
_atom_site_fract_z
Si Si1 0.108662 0.074029 0.716037
Si Si2 0.014580 0.080034 0.867413
Si Si3 0.739224 0.928370 0.738787
Si Si4 0.592840 0.079820 0.457169
Si Si5 0.566365 0.427355 0.977622
Si Si6 0.716078 0.926181 0.412140
Si Si7 0.308142 0.927510 0.935959
O O1 0.124998 0.250000 0.716320
O O2 0.048475 0.036537 0.776302
O O3 0.091778 0.017260 0.617755
O O4 0.168604 0.989853 0.756259
O O5 0.988403 0.250000 0.864062
O O6 0.064185 0.063099 0.946056
O O7 0.956943 0.966739 0.881477
O O8 0.736308 0.750000 0.736113
O O9 0.776053 0.994110 0.652576
O O10 0.779609 0.982558 0.821667
O O11 0.614712 0.250000 0.437927
O O12 0.650070 0.964334 0.456915
O O13 0.556570 0.250000 0.975873
O O14 0.618592 0.475550 0.051370
O O15 0.500000 0.500000 0.000000
O O16 0.721732 0.750000 0.392712
O O17 0.770684 0.983336 0.477577
O O18 0.303053 0.750000 0.931217
#
# Coordination Sequence:
#
# PCOD8252438 Si02
#       7
#     8   8   8   8   8   8   8
#     4  10  20  38  61  83 113 153 197 241 290 353
#     4   9  19  35  56  82 113 151 194 236 286 348
#     4  11  22  36  59  89 115 146 194 245 295 350
#     4  10  20  34  53  83 119 150 187 240 293 341
#     4  10  21  40  61  82 113 152 194 237 291 348
#     4  11  21  38  60  81 113 155 191 232 291 351
#     4   9  20  39  60  83 117 155 190 238 299 355
#
# _framework density 19.615918000000001
#
# number of rings (size 3 to 8) (size 9 to 14) (size 15 to 20)
#    0.000    2.000    1.429    2.143    0.000    2.857 
#    0.000    6.429    0.000    0.000    0.000    0.000 
#    0.000    0.000    0.000    0.000    0.000    0.000 
#
# Total GULP energy -694429.087164 kJ/mol
# GULP energy per Si atom -12400.519414 kJ/mol
# Density = 1.957127 g / cm^3
# Si number density = 19.615918 Si / 1000 Ang^3
#
#
#
# Elastic Constant Matrix: (Units=GPa)
#
#
# Indices 1 2 3 4 5 6 
#
# 1 130.3865 34.8838 59.2555 0.0000 0.0000 0.0000
# 2 34.8838 48.4729 32.5343 0.0000 0.0000 0.0000
# 3 59.2555 32.5343 117.2338 0.0000 0.0000 0.0000
# 4 0.0000 0.0000 0.0000 25.6734 0.0000 0.0000
# 5 0.0000 0.0000 0.0000 0.0000 28.6196 0.0000
# 6 0.0000 0.0000 0.0000 0.0000 0.0000 38.2608
#
#
#
# Elastic Compliance Matrix: (Units=1/GPa)
#
#
# Indices 1 2 3 4 5 6 
#
# 1 0.010891 -0.005092 -0.004092 0.000000 0.000000 0.000000
# 2 -0.005092 0.027733 -0.005123 0.000000 0.000000 0.000000
# 3 -0.004092 -0.005123 0.012020 0.000000 0.000000 0.000000
# 4 0.000000 0.000000 0.000000 0.038951 0.000000 0.000000
# 5 0.000000 0.000000 0.000000 0.000000 0.034941 0.000000
# 6 0.000000 0.000000 0.000000 0.000000 0.000000 0.026136
#
#
# Mechanical properties :
#
#
# Convention : Reuss Voigt Hill
#
# Bulk Modulus (GPa) = 45.39013 61.04893 53.21953
# Shear Modulus (GPa) = 26.79120 29.80540 28.29830
#
# Velocity S-wave (km/s) = 3.69967 3.90224 3.80230
# Velocity P-wave (km/s) = 6.43737 7.17586 6.81662
#
# Compressibility (1/GPa) = 0.02203122
#
# Stress axis : x y z
#
# Youngs Moduli (GPa) = 91.81589 36.05876 83.19532
#
# Poissons Ratio (x) = 0.18359 0.34044
# Poissons Ratio (y) = 0.46748 0.42619
# Poissons Ratio (z) = 0.37571 0.18472
#
# Static dielectric constant tensor:
#      x y z
#    x 3.608180 0.000000 0.000000 
#    y 0.000000 3.413880 0.000000 
#    z 0.000000 0.000000 3.749670 
# 
# 
# High freq. dielectric constant tensor:
#      x y z
#    x 1.771790 0.000000 0.000000 
#    y 0.000000 1.747720 0.000000 
#    z 0.000000 0.000000 1.769010 
# 
# From -- ./inp_files/20424.got.cif
#   From: 2010.03.12/outbox.cif.g09.slc.cpg/sg62_11_cif.got.tgz:20424.got - 2010.04.10 19:12:36.
