data_PCOD8252428
_publ_section_title
;
Structure prediction by ZEFSAII (Michael W. Deem and Ramdas Pophale) SiO2 
 PCOD8252428
Probable space group: P N M A
;
_chemical_formula_sum "Si O2"
_cell_formula_units_Z 64
_cell_length_a 9.644744
_cell_length_b 14.030275
_cell_length_c 26.514185
_cell_angle_alpha 90.000000
_cell_angle_beta 90.000000
_cell_angle_gamma 90.000000
_cell_volume 3587.857373
_symmetry_space_group_name_H-M "P N M A"
_symmetry_group_IT_number 62
_symmetry_cell_setting 'orthorhombic'
loop_
_space_group_symop_operation_xyz
x,y,z
1/2-x,-y,1/2+z
1/2+x,1/2-y,1/2-z
-x,1/2+y,-z
-x,-y,-z
1/2+x,y,1/2-z
1/2-x,1/2+y,1/2+z
x,1/2-y,z
loop_
_atom_site_type_symbol
_atom_site_label
_atom_site_fract_x
_atom_site_fract_y
_atom_site_fract_z
Si Si1 0.664896 0.035078 0.401222
Si Si2 0.085095 0.640275 0.946919
Si Si3 0.651792 0.052545 0.103159
Si Si4 0.425376 0.859390 0.795045
Si Si5 0.201072 0.645956 0.437687
Si Si6 0.972637 0.357591 0.938811
Si Si7 0.420032 0.074612 0.033420
Si Si8 0.753847 0.140007 0.302323
O O1 0.563983 0.113529 0.424993
O O2 0.798653 0.023678 0.435982
O O3 0.709430 0.068466 0.346091
O O4 0.592552 0.931057 0.398626
O O5 0.113310 0.750000 0.935393
O O6 0.199305 0.578404 0.918657
O O7 0.090518 0.618366 0.006330
O O8 0.640889 0.074205 0.162054
O O9 0.532360 0.113963 0.074029
O O10 0.630267 0.938343 0.094911
O O11 0.399909 0.750000 0.810548
O O12 0.587612 0.880353 0.786771
O O13 0.345235 0.884465 0.744139
O O14 0.171055 0.750000 0.412910
O O15 0.363981 0.627213 0.441223
O O16 0.141617 0.652398 0.495019
O O17 0.934535 0.250000 0.922398
O O18 0.500000 0.000000 0.000000
O O19 0.735697 0.250000 0.319556
#
# Coordination Sequence:
#
# PCOD8252428 Si02
#       8
#     8   8   8   8   8   8   8   8
#     4  12  20  37  57  80 115 151 190 230 277 341
#     4  11  22  33  53  83 114 152 192 229 271 328
#     4  11  21  38  55  82 114 151 188 230 282 337
#     4  10  22  40  59  82 112 142 182 232 282 339
#     4  10  20  34  54  81 114 151 190 229 274 329
#     4  10  20  34  53  80 112 149 191 229 267 320
#     4  10  21  34  55  81 115 152 189 228 280 332
#     4  10  23  39  59  85 111 144 184 232 287 340
#
# _framework density 17.837944
#
# number of rings (size 3 to 8) (size 9 to 14) (size 15 to 20)
#    0.000    1.500    3.750    2.625    1.750    1.500 
#    0.000    3.750    0.000    0.750    0.000    0.000 
#    0.000    0.000    0.000    0.000    0.000    0.000 
#
# Total GULP energy -793477.827179 kJ/mol
# GULP energy per Si atom -12398.091050 kJ/mol
# Density = 1.779734 g / cm^3
# Si number density = 17.837944 Si / 1000 Ang^3
#
#
#
# Elastic Constant Matrix: (Units=GPa)
#
#
# Indices 1 2 3 4 5 6 
#
# 1 101.8071 39.3979 46.6365 0.0000 0.0000 0.0000
# 2 39.3979 104.4095 58.2668 0.0000 0.0000 0.0000
# 3 46.6365 58.2668 83.9208 0.0000 0.0000 0.0000
# 4 0.0000 0.0000 0.0000 23.5212 0.0000 0.0000
# 5 0.0000 0.0000 0.0000 0.0000 20.6459 0.0000
# 6 0.0000 0.0000 0.0000 0.0000 0.0000 12.5092
#
#
#
# Elastic Compliance Matrix: (Units=1/GPa)
#
#
# Indices 1 2 3 4 5 6 
#
# 1 0.013312 -0.001461 -0.006384 0.000000 0.000000 0.000000
# 2 -0.001461 0.015796 -0.010156 0.000000 0.000000 0.000000
# 3 -0.006384 -0.010156 0.022515 0.000000 0.000000 0.000000
# 4 0.000000 0.000000 0.000000 0.042515 0.000000 0.000000
# 5 0.000000 0.000000 0.000000 0.000000 0.048436 0.000000
# 6 0.000000 0.000000 0.000000 0.000000 0.000000 0.079941
#
#
# Mechanical properties :
#
#
# Convention : Reuss Voigt Hill
#
# Bulk Modulus (GPa) = 64.00842 64.30443 64.15642
# Shear Modulus (GPa) = 18.95930 21.05767 20.00848
#
# Velocity S-wave (km/s) = 3.26370 3.43957 3.35278
# Velocity P-wave (km/s) = 7.08262 7.20428 7.14371
#
# Compressibility (1/GPa) = 0.01562294
#
# Stress axis : x y z
#
# Youngs Moduli (GPa) = 75.12017 63.30549 44.41544
#
# Poissons Ratio (x) = 0.09247 0.28353
# Poissons Ratio (y) = 0.10973 0.45107
# Poissons Ratio (z) = 0.47953 0.64292
#
# Static dielectric constant tensor:
#      x y z
#    x 3.275910 0.000000 0.000000 
#    y 0.000000 3.573240 0.000000 
#    z 0.000000 0.000000 3.229840 
# 
# 
# High freq. dielectric constant tensor:
#      x y z
#    x 1.709360 0.000000 0.000000 
#    y 0.000000 1.679580 0.000000 
#    z 0.000000 0.000000 1.665170 
# 
# From -- ./inp_files/28967.got.cif
#   From: 2010.03.12/outbox.cif.g09.slc.cpg/sg62_15_cif.got.tgz:28967.got - 2010.04.10 19:12:36.
