data_PCOD8252669
_publ_section_title
;
Structure prediction by ZEFSAII (Michael W. Deem and Ramdas Pophale) SiO2 
 PCOD8252669
Probable space group: P N M A
;
_chemical_formula_sum "Si O2"
_cell_formula_units_Z 64
_cell_length_a 15.108088
_cell_length_b 9.134643
_cell_length_c 24.114542
_cell_angle_alpha 90.000000
_cell_angle_beta 90.000000
_cell_angle_gamma 90.000000
_cell_volume 3327.975364
_symmetry_space_group_name_H-M "P N M A"
_symmetry_group_IT_number 62
_symmetry_cell_setting 'orthorhombic'
loop_
_space_group_symop_operation_xyz
x,y,z
1/2-x,-y,1/2+z
1/2+x,1/2-y,1/2-z
-x,1/2+y,-z
-x,-y,-z
1/2+x,y,1/2-z
1/2-x,1/2+y,1/2+z
x,1/2-y,z
loop_
_atom_site_type_symbol
_atom_site_label
_atom_site_fract_x
_atom_site_fract_y
_atom_site_fract_z
Si Si1 0.796552 0.076331 0.546485
Si Si2 0.047927 0.917179 0.076122
Si Si3 0.379289 0.080584 0.694757
Si Si4 0.796951 0.077062 0.312080
Si Si5 0.635938 0.576368 0.928711
Si Si6 0.619434 0.919914 0.542847
Si Si7 0.486981 0.083518 0.230167
Si Si8 0.053019 0.082605 0.393043
O O1 0.790608 0.250000 0.547332
O O2 0.821899 0.015934 0.485294
O O3 0.703609 0.008600 0.564332
O O4 0.867624 0.024023 0.591127
O O5 0.013606 0.750000 0.074086
O O6 0.108000 0.947066 0.129422
O O7 0.106819 0.952632 0.022326
O O8 0.964156 0.024357 0.077868
O O9 0.369622 0.250000 0.709392
O O10 0.289187 0.000430 0.713889
O O11 0.465453 0.020232 0.725895
O O12 0.781061 0.250000 0.311341
O O13 0.810815 0.017989 0.375041
O O14 0.883945 0.036793 0.276038
O O15 0.637971 0.750000 0.926147
O O16 0.533762 0.526406 0.925833
O O17 0.633410 0.750000 0.555461
O O18 0.492473 0.250000 0.251551
O O19 0.536961 0.068704 0.172088
O O20 0.076122 0.250000 0.409048
#
# Coordination Sequence:
#
# PCOD8252669 Si02
#       8
#     8   8   8   8   8   8   8   8
#     4  11  20  30  49  80 113 143 175 214 270 330
#     4   9  20  38  56  78 108 139 175 223 273 321
#     4  11  22  36  58  86 113 141 176 225 283 332
#     4   9  18  36  60  82 106 141 185 228 269 319
#     4   8  16  31  53  79 106 139 180 224 266 315
#     4  10  20  35  55  78 107 143 180 218 264 320
#     4   9  20  39  59  79 106 144 188 232 268 314
#     4   9  18  35  54  73 104 142 183 225 264 311
#
# _framework density 19.230910999999999
#
# number of rings (size 3 to 8) (size 9 to 14) (size 15 to 20)
#    0.000    2.500    0.000    3.750    0.000    2.500 
#    2.250    3.125    0.000    0.000    0.000    0.000 
#    0.000    0.000    0.000    0.000    0.000    0.000 
#
# Total GULP energy -793676.977031 kJ/mol
# GULP energy per Si atom -12401.202766 kJ/mol
# Density = 1.918714 g / cm^3
# Si number density = 19.230911 Si / 1000 Ang^3
#
#
#
# Elastic Constant Matrix: (Units=GPa)
#
#
# Indices 1 2 3 4 5 6 
#
# 1 124.1740 59.2679 29.9587 0.0000 0.0000 0.0000
# 2 59.2679 84.1626 26.1161 0.0000 0.0000 0.0000
# 3 29.9587 26.1161 38.1115 0.0000 0.0000 0.0000
# 4 0.0000 0.0000 0.0000 26.0868 0.0000 0.0000
# 5 0.0000 0.0000 0.0000 0.0000 23.2217 0.0000
# 6 0.0000 0.0000 0.0000 0.0000 0.0000 31.2819
#
#
#
# Elastic Compliance Matrix: (Units=1/GPa)
#
#
# Indices 1 2 3 4 5 6 
#
# 1 0.012824 -0.007497 -0.004944 0.000000 0.000000 0.000000
# 2 -0.007497 0.019473 -0.007451 0.000000 0.000000 0.000000
# 3 -0.004944 -0.007451 0.035231 0.000000 0.000000 0.000000
# 4 0.000000 0.000000 0.000000 0.038334 0.000000 0.000000
# 5 0.000000 0.000000 0.000000 0.000000 0.043063 0.000000
# 6 0.000000 0.000000 0.000000 0.000000 0.000000 0.031967
#
#
# Mechanical properties :
#
#
# Convention : Reuss Voigt Hill
#
# Bulk Modulus (GPa) = 36.04228 53.01485 44.52856
# Shear Modulus (GPa) = 21.74640 24.85845 23.30242
#
# Velocity S-wave (km/s) = 3.36639 3.59922 3.48475
# Velocity P-wave (km/s) = 5.82174 6.70073 6.27664
#
# Compressibility (1/GPa) = 0.02774519
#
# Stress axis : x y z
#
# Youngs Moduli (GPa) = 77.97801 51.35264 28.38441
#
# Poissons Ratio (x) = 0.38498 0.14032
# Poissons Ratio (y) = 0.58459 0.21149
# Poissons Ratio (z) = 0.38549 0.38263
#
# Static dielectric constant tensor:
#      x y z
#    x 3.481620 0.000000 0.000000 
#    y 0.000000 3.328420 0.000000 
#    z 0.000000 0.000000 3.406370 
# 
# 
# High freq. dielectric constant tensor:
#      x y z
#    x 1.755250 0.000000 0.000000 
#    y 0.000000 1.735990 0.000000 
#    z 0.000000 0.000000 1.732230 
# 
# From -- ./inp_files/29788.got.cif
#   From: 2010.03.12/outbox.cif.g09.slc.cpg/sg62_15_cif.got.tgz:29788.got - 2010.04.10 19:12:36.
