data_PCOD8252339
_publ_section_title
;
Structure prediction by ZEFSAII (Michael W. Deem and Ramdas Pophale) SiO2 
 PCOD8252339
Probable space group: P N M A
;
_chemical_formula_sum "Si O2"
_cell_formula_units_Z 48
_cell_length_a 10.254749
_cell_length_b 10.437283
_cell_length_c 23.489568
_cell_angle_alpha 90.000000
_cell_angle_beta 90.000000
_cell_angle_gamma 90.000000
_cell_volume 2514.128804
_symmetry_space_group_name_H-M "P N M A"
_symmetry_group_IT_number 62
_symmetry_cell_setting 'orthorhombic'
loop_
_space_group_symop_operation_xyz
x,y,z
1/2-x,-y,1/2+z
1/2+x,1/2-y,1/2-z
-x,1/2+y,-z
-x,-y,-z
1/2+x,y,1/2-z
1/2-x,1/2+y,1/2+z
x,1/2-y,z
loop_
_atom_site_type_symbol
_atom_site_label
_atom_site_fract_x
_atom_site_fract_y
_atom_site_fract_z
Si Si1 0.744342 0.392827 0.373771
Si Si2 0.625904 0.469952 0.261687
Si Si3 0.131813 0.106215 0.789982
Si Si4 0.112376 0.399744 0.013439
Si Si5 0.725226 0.605450 0.097848
Si Si6 0.466861 0.604900 0.856712
O O1 0.773255 0.250000 0.393179
O O2 0.649026 0.390341 0.319173
O O3 0.673491 0.455577 0.428015
O O4 0.886454 0.451922 0.360486
O O5 0.765806 0.527297 0.246821
O O6 0.517028 0.575347 0.275325
O O7 0.575690 0.384670 0.209363
O O8 0.156489 0.250000 0.771451
O O9 0.157150 0.084421 0.857254
O O10 0.063588 0.250000 0.018090
O O11 0.222013 0.410970 0.965364
O O12 0.000000 0.500000 0.000000
O O13 0.667056 0.750000 0.106001
O O14 0.617137 0.497009 0.107947
O O15 0.451640 0.750000 0.881364
#
# Coordination Sequence:
#
# PCOD8252339 Si02
#       6
#     8   8   8   8   8   8
#     4  10  21  37  57  84 115 150 190 242 294 342
#     4  11  19  36  54  83 115 151 193 239 291 347
#     4  10  20  33  54  79 113 151 192 237 289 345
#     4  10  21  39  61  84 117 152 194 242 289 345
#     4   9  20  38  57  82 114 153 192 237 290 341
#     4  10  21  37  57  84 115 151 194 238 290 351
#
# _framework density 19.092101
#
# number of rings (size 3 to 8) (size 9 to 14) (size 15 to 20)
#    0.000    2.000    1.667    2.000    0.000    2.000 
#    0.000    4.167    0.000    0.000    0.000    0.000 
#    0.000    0.000    0.000    0.000    0.000    0.000 
#
# Total GULP energy -594824.084688 kJ/mol
# GULP energy per Si atom -12392.168431 kJ/mol
# Density = 1.904865 g / cm^3
# Si number density = 19.092101 Si / 1000 Ang^3
#
#
#
# Elastic Constant Matrix: (Units=GPa)
#
#
# Indices 1 2 3 4 5 6 
#
# 1 101.0891 43.7166 55.8165 0.0000 0.0000 0.0000
# 2 43.7166 90.9710 38.9423 0.0000 0.0000 0.0000
# 3 55.8165 38.9423 123.0044 0.0000 0.0000 0.0000
# 4 0.0000 0.0000 0.0000 22.1084 0.0000 0.0000
# 5 0.0000 0.0000 0.0000 0.0000 27.7335 0.0000
# 6 0.0000 0.0000 0.0000 0.0000 0.0000 32.0001
#
#
#
# Elastic Compliance Matrix: (Units=1/GPa)
#
#
# Indices 1 2 3 4 5 6 
#
# 1 0.014895 -0.004933 -0.005197 0.000000 0.000000 0.000000
# 2 -0.004933 0.014350 -0.002304 0.000000 0.000000 0.000000
# 3 -0.005197 -0.002304 0.011218 0.000000 0.000000 0.000000
# 4 0.000000 0.000000 0.000000 0.045232 0.000000 0.000000
# 5 0.000000 0.000000 0.000000 0.000000 0.036057 0.000000
# 6 0.000000 0.000000 0.000000 0.000000 0.000000 0.031250
#
#
# Mechanical properties :
#
#
# Convention : Reuss Voigt Hill
#
# Bulk Modulus (GPa) = 64.13191 65.77947 64.95569
# Shear Modulus (GPa) = 27.31202 28.14099 27.72651
#
# Velocity S-wave (km/s) = 3.78635 3.84338 3.81497
# Velocity P-wave (km/s) = 7.26492 7.36370 7.31447
#
# Compressibility (1/GPa) = 0.01559286
#
# Stress axis : x y z
#
# Youngs Moduli (GPa) = 67.13483 69.68809 89.14400
#
# Poissons Ratio (x) = 0.34379 0.46331
# Poissons Ratio (y) = 0.33119 0.20543
# Poissons Ratio (z) = 0.34892 0.16059
#
# Static dielectric constant tensor:
#      x y z
#    x 3.489930 0.000000 0.000000 
#    y 0.000000 3.385180 0.000000 
#    z 0.000000 0.000000 3.649540 
# 
# 
# High freq. dielectric constant tensor:
#      x y z
#    x 1.739730 0.000000 0.000000 
#    y 0.000000 1.732340 0.000000 
#    z 0.000000 0.000000 1.750090 
# 
# From -- ./inp_files/28791.got.cif
#   From: 2010.03.12/outbox.cif.g09.slc.cpg/sg62_15_cif.got.tgz:28791.got - 2010.04.10 19:12:36.
