data_PCOD8252149
_publ_section_title
;
Structure prediction by ZEFSAII (Michael W. Deem and Ramdas Pophale) SiO2 
 PCOD8252149
Probable space group: P N M A
;
_chemical_formula_sum "Si O2"
_cell_formula_units_Z 56
_cell_length_a 16.029330
_cell_length_b 28.020202
_cell_length_c 5.364315
_cell_angle_alpha 90.000000
_cell_angle_beta 90.000000
_cell_angle_gamma 90.000000
_cell_volume 2409.355607
_symmetry_space_group_name_H-M "P N M A"
_symmetry_group_IT_number 62
_symmetry_cell_setting 'orthorhombic'
loop_
_space_group_symop_operation_xyz
x,y,z
1/2-x,-y,1/2+z
1/2+x,1/2-y,1/2-z
-x,1/2+y,-z
-x,-y,-z
1/2+x,y,1/2-z
1/2-x,1/2+y,1/2+z
x,1/2-y,z
loop_
_atom_site_type_symbol
_atom_site_label
_atom_site_fract_x
_atom_site_fract_y
_atom_site_fract_z
Si Si1 0.598215 0.803176 0.109027
Si Si2 0.780994 0.696695 0.875328
Si Si3 0.574421 0.570573 0.601007
Si Si4 0.327831 0.888201 0.326791
Si Si5 0.503981 0.394313 0.920913
Si Si6 0.692264 0.853562 0.493210
Si Si7 0.801146 0.510555 0.020044
O O1 0.559055 0.750000 0.099503
O O2 0.684217 0.805043 0.956752
O O3 0.530874 0.841461 0.011524
O O4 0.622837 0.816651 0.392379
O O5 0.818448 0.750000 0.885966
O O6 0.842835 0.661347 0.022315
O O7 0.771390 0.676357 0.597008
O O8 0.533395 0.585991 0.338874
O O9 0.647633 0.608444 0.675182
O O10 0.613415 0.518393 0.566655
O O11 0.512969 0.571170 0.840798
O O12 0.396725 0.891851 0.110431
O O13 0.329762 0.934418 0.505174
O O14 0.233806 0.886321 0.220591
O O15 0.741990 0.504585 0.262180
#
# Coordination Sequence:
#
# PCOD8252149 Si02
#       7
#     8   8   8   8   8   8   8
#     4   9  19  36  60  89 122 168 218 263 321 390
#     4  10  20  38  66  95 126 168 225 274 321 389
#     4  11  23  43  66  94 131 176 222 268 324 401
#     4  11  26  40  65  98 135 174 218 282 337 393
#     4  11  25  42  64  95 139 173 214 275 338 397
#     4  10  19  39  65  92 124 174 226 274 313 392
#     4  12  25  42  72 101 128 175 230 281 328 393
#
# _framework density 23.242732
#
# number of rings (size 3 to 8) (size 9 to 14) (size 15 to 20)
#    0.000    1.429    2.857    2.143    4.000    2.286 
#    0.000    0.000    0.000    0.000    0.000    0.000 
#    0.000    0.000    0.000    0.000    0.000    0.000 
#
# Total GULP energy -693977.710947 kJ/mol
# GULP energy per Si atom -12392.459124 kJ/mol
# Density = 2.318983 g / cm^3
# Si number density = 23.242732 Si / 1000 Ang^3
#
#
#
# Elastic Constant Matrix: (Units=GPa)
#
#
# Indices 1 2 3 4 5 6 
#
# 1 36.5039 13.1662 -2.1080 0.0000 0.0000 0.0000
# 2 13.1662 135.4276 12.7020 0.0000 0.0000 0.0000
# 3 -2.1080 12.7020 85.8167 0.0000 0.0000 0.0000
# 4 0.0000 0.0000 0.0000 24.1761 0.0000 0.0000
# 5 0.0000 0.0000 0.0000 0.0000 26.6451 0.0000
# 6 0.0000 0.0000 0.0000 0.0000 0.0000 20.5109
#
#
#
# Elastic Compliance Matrix: (Units=1/GPa)
#
#
# Indices 1 2 3 4 5 6 
#
# 1 0.028497 -0.002876 0.001126 0.000000 0.000000 0.000000
# 2 -0.002876 0.007778 -0.001222 0.000000 0.000000 0.000000
# 3 0.001126 -0.001222 0.011861 0.000000 0.000000 0.000000
# 4 0.000000 0.000000 0.000000 0.041363 0.000000 0.000000
# 5 0.000000 0.000000 0.000000 0.000000 0.037530 0.000000
# 6 0.000000 0.000000 0.000000 0.000000 0.000000 0.048755
#
#
# Mechanical properties :
#
#
# Convention : Reuss Voigt Hill
#
# Bulk Modulus (GPa) = 23.70139 33.91873 28.81006
# Shear Modulus (GPa) = 25.53721 29.86561 27.70141
#
# Velocity S-wave (km/s) = 3.31829 3.58850 3.45604
# Velocity P-wave (km/s) = 4.99007 5.63868 5.32426
#
# Compressibility (1/GPa) = 0.04219163
#
# Stress axis : x y z
#
# Youngs Moduli (GPa) = 35.09186 128.56392 84.30806
#
# Poissons Ratio (x) = 0.36975 -0.09490
# Poissons Ratio (y) = 0.10092 0.10302
# Poissons Ratio (z) = -0.03950 0.15710
#
# Static dielectric constant tensor:
#      x y z
#    x 3.881770 0.000000 0.000000 
#    y 0.000000 4.386290 0.000000 
#    z 0.000000 0.000000 4.135850 
# 
# 
# High freq. dielectric constant tensor:
#      x y z
#    x 1.892290 0.000000 0.000000 
#    y 0.000000 1.928250 0.000000 
#    z 0.000000 0.000000 1.916540 
# 
# From -- ./inp_files/1276.got.cif
#   From: 2010.03.12/outbox.cif.g09.slc.cpg/sg62_1_cif.got.tgz:1276.got - 2010.04.10 19:12:36.
