data_PCOD8252840
_publ_section_title
;
Structure prediction by ZEFSAII (Michael W. Deem and Ramdas Pophale) SiO2 
 PCOD8252840
Probable space group: P N M A
;
_chemical_formula_sum "Si O2"
_cell_formula_units_Z 48
_cell_length_a 12.628032
_cell_length_b 13.572956
_cell_length_c 15.085583
_cell_angle_alpha 90.000000
_cell_angle_beta 90.000000
_cell_angle_gamma 90.000000
_cell_volume 2585.664743
_symmetry_space_group_name_H-M "P N M A"
_symmetry_group_IT_number 62
_symmetry_cell_setting 'orthorhombic'
loop_
_space_group_symop_operation_xyz
x,y,z
1/2-x,-y,1/2+z
1/2+x,1/2-y,1/2-z
-x,1/2+y,-z
-x,-y,-z
1/2+x,y,1/2-z
1/2-x,1/2+y,1/2+z
x,1/2-y,z
loop_
_atom_site_type_symbol
_atom_site_label
_atom_site_fract_x
_atom_site_fract_y
_atom_site_fract_z
Si Si1 0.903410 0.039651 0.376296
Si Si2 0.114800 0.137355 0.900513
Si Si3 0.336535 0.359819 0.819227
Si Si4 0.468820 0.501864 0.704787
Si Si5 0.993394 0.639041 0.465563
Si Si6 0.321336 0.865506 0.599072
O O1 0.785184 0.078978 0.373717
O O2 0.982262 0.108768 0.433459
O O3 0.904939 0.930240 0.420025
O O4 0.945717 0.037829 0.276213
O O5 0.073986 0.250000 0.897132
O O6 0.212721 0.122922 0.833941
O O7 0.022334 0.064782 0.870643
O O8 0.150875 0.108728 0.998528
O O9 0.357934 0.250000 0.782147
O O10 0.375859 0.438242 0.748607
O O11 0.396300 0.372071 0.912916
O O12 0.417292 0.597686 0.660444
O O13 0.948860 0.750000 0.463202
O O14 0.304899 0.750000 0.614187
#
# Coordination Sequence:
#
# PCOD8252840 Si02
#       6
#     8   8   8   8   8   8
#     4  10  20  35  58  84 113 145 188 231 277 331
#     4  10  20  37  59  79 107 145 183 225 278 340
#     4   9  17  33  58  84 108 138 180 224 274 331
#     4  11  22  35  55  86 113 139 182 238 278 321
#     4   9  17  33  58  86 111 143 184 225 272 327
#     4  11  23  39  57  77 108 155 191 221 280 344
#
# _framework density 18.563891999999999
#
# number of rings (size 3 to 8) (size 9 to 14) (size 15 to 20)
#    0.000    2.000    1.667    2.500    0.000    2.000 
#    0.000    1.667    0.000    1.000    0.000    0.000 
#    0.000    0.000    0.000    0.000    0.000    0.000 
#
# Total GULP energy -595318.542481 kJ/mol
# GULP energy per Si atom -12402.469635 kJ/mol
# Density = 1.852164 g / cm^3
# Si number density = 18.563892 Si / 1000 Ang^3
#
#
#
# Elastic Constant Matrix: (Units=GPa)
#
#
# Indices 1 2 3 4 5 6 
#
# 1 77.3314 52.8493 48.8220 0.0000 0.0000 0.0000
# 2 52.8493 116.4474 44.8626 0.0000 0.0000 0.0000
# 3 48.8220 44.8626 81.8653 0.0000 0.0000 0.0000
# 4 0.0000 0.0000 0.0000 28.0108 0.0000 0.0000
# 5 0.0000 0.0000 0.0000 0.0000 19.9598 0.0000
# 6 0.0000 0.0000 0.0000 0.0000 0.0000 32.6049
#
#
#
# Elastic Compliance Matrix: (Units=1/GPa)
#
#
# Indices 1 2 3 4 5 6 
#
# 1 0.024508 -0.006962 -0.010801 0.000000 0.000000 0.000000
# 2 -0.006962 0.012863 -0.002897 0.000000 0.000000 0.000000
# 3 -0.010801 -0.002897 0.020244 0.000000 0.000000 0.000000
# 4 0.000000 0.000000 0.000000 0.035700 0.000000 0.000000
# 5 0.000000 0.000000 0.000000 0.000000 0.050101 0.000000
# 6 0.000000 0.000000 0.000000 0.000000 0.000000 0.030670
#
#
# Mechanical properties :
#
#
# Convention : Reuss Voigt Hill
#
# Bulk Modulus (GPa) = 61.36568 63.19022 62.27795
# Shear Modulus (GPa) = 22.64095 24.72246 23.68170
#
# Velocity S-wave (km/s) = 3.49610 3.65327 3.57555
# Velocity P-wave (km/s) = 7.03030 7.20475 7.11806
#
# Compressibility (1/GPa) = 0.01629575
#
# Stress axis : x y z
#
# Youngs Moduli (GPa) = 40.80300 77.73985 49.39677
#
# Poissons Ratio (x) = 0.54121 0.53352
# Poissons Ratio (y) = 0.28406 0.14312
# Poissons Ratio (z) = 0.44070 0.22525
#
# Static dielectric constant tensor:
#      x y z
#    x 3.210590 0.000000 0.000000 
#    y 0.000000 3.517500 0.000000 
#    z 0.000000 0.000000 3.377720 
# 
# 
# High freq. dielectric constant tensor:
#      x y z
#    x 1.706160 0.000000 0.000000 
#    y 0.000000 1.723960 0.000000 
#    z 0.000000 0.000000 1.720640 
# 
# From -- ./inp_files/17980.got.cif
#   From: 2010.03.12/outbox.cif.g09.slc.cpg/sg62_9_cif.got.tgz:17980.got - 2010.04.10 19:12:36.
