data_PCOD8252319
_publ_section_title
;
Structure prediction by ZEFSAII (Michael W. Deem and Ramdas Pophale) SiO2 
 PCOD8252319
Probable space group: P N M A
;
_chemical_formula_sum "Si O2"
_cell_formula_units_Z 40
_cell_length_a 9.343485
_cell_length_b 7.930816
_cell_length_c 29.006092
_cell_angle_alpha 90.000000
_cell_angle_beta 90.000000
_cell_angle_gamma 90.000000
_cell_volume 2149.393776
_symmetry_space_group_name_H-M "P N M A"
_symmetry_group_IT_number 62
_symmetry_cell_setting 'orthorhombic'
loop_
_space_group_symop_operation_xyz
x,y,z
1/2-x,-y,1/2+z
1/2+x,1/2-y,1/2-z
-x,1/2+y,-z
-x,-y,-z
1/2+x,y,1/2-z
1/2-x,1/2+y,1/2+z
x,1/2-y,z
loop_
_atom_site_type_symbol
_atom_site_label
_atom_site_fract_x
_atom_site_fract_y
_atom_site_fract_z
Si Si1 0.582107 0.939934 0.044597
Si Si2 0.076034 0.563139 0.858490
Si Si3 0.916449 0.250000 0.701733
Si Si4 0.605393 0.944284 0.539662
Si Si5 0.584199 0.065782 0.142040
Si Si6 0.926131 0.750000 0.201860
O O1 0.539686 0.750000 0.055709
O O2 0.751178 0.947780 0.035454
O O3 0.532084 0.045371 0.089315
O O4 0.500000 0.000000 0.000000
O O5 0.021061 0.750000 0.842720
O O6 0.027419 0.525002 0.911021
O O7 0.246005 0.559891 0.858167
O O8 0.018515 0.416838 0.824990
O O9 0.971832 0.416324 0.674807
O O10 0.745123 0.250000 0.708109
O O11 0.995044 0.250000 0.749977
O O12 0.649040 0.750000 0.534413
O O13 0.500000 0.000000 0.500000
O O14 0.530283 0.250000 0.159800
#
# Coordination Sequence:
#
# PCOD8252319 Si02
#       6
#     8   8   4   8   8   4
#     4  11  20  33  53  79 109 142 182 221 264 319
#     4   8  17  32  52  76 102 136 176 213 255 316
#     4  10  20  36  54  82  98 138 176 220 265 316
#     4  10  20  33  52  79 108 143 183 220 265 317
#     4   9  17  33  54  76 104 137 176 215 258 318
#     4  10  20  34  58  74 104 134 178 216 267 312
#
# _framework density 18.6099
#
# number of rings (size 3 to 8) (size 9 to 14) (size 15 to 20)
#    0.000    2.400    1.000    3.600    5.600    0.800 
#    0.000    2.000    0.000    2.400    0.000    0.000 
#    0.000    0.000    0.000    0.000    0.000    0.000 
#
# Total GULP energy -495826.983680 kJ/mol
# GULP energy per Si atom -12395.674592 kJ/mol
# Density = 1.856754 g / cm^3
# Si number density = 18.609900 Si / 1000 Ang^3
#
#
#
# Elastic Constant Matrix: (Units=GPa)
#
#
# Indices 1 2 3 4 5 6 
#
# 1 26.4640 20.4594 33.0674 0.0000 0.0000 0.0000
# 2 20.4594 166.0226 85.1345 0.0000 0.0000 0.0000
# 3 33.0674 85.1345 154.4888 0.0000 0.0000 0.0000
# 4 0.0000 0.0000 0.0000 32.8171 0.0000 0.0000
# 5 0.0000 0.0000 0.0000 0.0000 33.8063 0.0000
# 6 0.0000 0.0000 0.0000 0.0000 0.0000 16.4880
#
#
#
# Elastic Compliance Matrix: (Units=1/GPa)
#
#
# Indices 1 2 3 4 5 6 
#
# 1 0.051695 -0.000971 -0.010530 0.000000 0.000000 0.000000
# 2 -0.000971 0.008414 -0.004429 0.000000 0.000000 0.000000
# 3 -0.010530 -0.004429 0.011168 0.000000 0.000000 0.000000
# 4 0.000000 0.000000 0.000000 0.030472 0.000000 0.000000
# 5 0.000000 0.000000 0.000000 0.000000 0.029580 0.000000
# 6 0.000000 0.000000 0.000000 0.000000 0.000000 0.060650
#
#
# Mechanical properties :
#
#
# Convention : Reuss Voigt Hill
#
# Bulk Modulus (GPa) = 25.36969 69.36646 47.36807
# Shear Modulus (GPa) = 21.09901 30.50988 25.80444
#
# Velocity S-wave (km/s) = 3.37078 4.05340 3.72774
# Velocity P-wave (km/s) = 5.36763 7.69815 6.63600
#
# Compressibility (1/GPa) = 0.03941712
#
# Stress axis : x y z
#
# Youngs Moduli (GPa) = 19.34413 118.84921 89.54540
#
# Poissons Ratio (x) = 0.11539 0.94292
# Poissons Ratio (y) = 0.01878 0.39659
# Poissons Ratio (z) = 0.20369 0.52637
#
# Static dielectric constant tensor:
#      x y z
#    x 2.881360 0.000000 0.000000 
#    y 0.000000 3.978000 0.000000 
#    z 0.000000 0.000000 3.627300 
# 
# 
# High freq. dielectric constant tensor:
#      x y z
#    x 1.664840 0.000000 0.000000 
#    y 0.000000 1.747400 0.000000 
#    z 0.000000 0.000000 1.724650 
# 
# From -- ./inp_files/28642.got.cif
#   From: 2010.03.12/outbox.cif.g09.slc.cpg/sg62_15_cif.got.tgz:28642.got - 2010.04.10 19:12:36.
