data_PCOD8252056
_publ_section_title
;
Structure prediction by ZEFSAII (Michael W. Deem and Ramdas Pophale) SiO2 
 PCOD8252056
Probable space group: P N M A
;
_chemical_formula_sum "Si O2"
_cell_formula_units_Z 56
_cell_length_a 10.930424
_cell_length_b 16.337556
_cell_length_c 16.149744
_cell_angle_alpha 90.000000
_cell_angle_beta 90.000000
_cell_angle_gamma 90.000000
_cell_volume 2883.963374
_symmetry_space_group_name_H-M "P N M A"
_symmetry_group_IT_number 62
_symmetry_cell_setting 'orthorhombic'
loop_
_space_group_symop_operation_xyz
x,y,z
1/2-x,-y,1/2+z
1/2+x,1/2-y,1/2-z
-x,1/2+y,-z
-x,-y,-z
1/2+x,y,1/2-z
1/2-x,1/2+y,1/2+z
x,1/2-y,z
loop_
_atom_site_type_symbol
_atom_site_label
_atom_site_fract_x
_atom_site_fract_y
_atom_site_fract_z
Si Si1 0.596677 0.068636 0.171947
Si Si2 0.587493 0.488780 0.424165
Si Si3 0.097115 0.659487 0.570619
Si Si4 0.294097 0.655961 0.313977
Si Si5 0.712419 0.544086 0.044958
Si Si6 0.846477 0.658499 0.829392
Si Si7 0.951063 0.089384 0.768043
O O1 0.499669 0.132093 0.138147
O O2 0.678678 0.117466 0.239238
O O3 0.677066 0.036446 0.095754
O O4 0.529391 0.990478 0.211787
O O5 0.500000 0.500000 0.500000
O O6 0.722811 0.487992 0.462179
O O7 0.559781 0.402196 0.377556
O O8 0.576485 0.564877 0.362464
O O9 0.062833 0.750000 0.538127
O O10 0.100092 0.599576 0.490086
O O11 0.224157 0.662778 0.618533
O O12 0.294148 0.750000 0.340906
O O13 0.297627 0.600970 0.396893
O O14 0.168993 0.638807 0.262788
O O15 0.419986 0.638490 0.262867
O O16 0.902819 0.750000 0.820372
#
# Coordination Sequence:
#
# PCOD8252056 Si02
#       7
#     8   8   8   8   8   8   8
#     4  10  21  34  58  81 113 150 194 238 289 344
#     4  10  19  37  59  85 113 147 196 238 287 349
#     4  10  20  35  55  81 113 147 187 236 290 345
#     4  11  22  40  60  86 118 155 197 242 294 348
#     4  10  21  35  58  83 110 150 193 237 288 350
#     4   9  20  35  55  82 112 146 190 238 284 342
#     4  10  23  37  62  88 116 154 198 244 287 352
#
# _framework density 19.417722000000001
#
# number of rings (size 3 to 8) (size 9 to 14) (size 15 to 20)
#    0.000    2.000    1.429    1.714    8.000    0.571 
#    0.000    0.000    0.000    3.429    0.000    0.000 
#    0.000    0.000    0.000    0.000    0.000    0.000 
#
# Total GULP energy -693997.731226 kJ/mol
# GULP energy per Si atom -12392.816629 kJ/mol
# Density = 1.937353 g / cm^3
# Si number density = 19.417722 Si / 1000 Ang^3
#
#
#
# Elastic Constant Matrix: (Units=GPa)
#
#
# Indices 1 2 3 4 5 6 
#
# 1 70.2915 24.1193 15.4973 0.0000 0.0000 0.0000
# 2 24.1193 97.7865 25.6321 0.0000 0.0000 0.0000
# 3 15.4973 25.6321 83.4043 0.0000 0.0000 0.0000
# 4 0.0000 0.0000 0.0000 23.3117 0.0000 0.0000
# 5 0.0000 0.0000 0.0000 0.0000 28.2815 0.0000
# 6 0.0000 0.0000 0.0000 0.0000 0.0000 20.9325
#
#
#
# Elastic Compliance Matrix: (Units=1/GPa)
#
#
# Indices 1 2 3 4 5 6 
#
# 1 0.015812 -0.003404 -0.001892 0.000000 0.000000 0.000000
# 2 -0.003404 0.011855 -0.003011 0.000000 0.000000 0.000000
# 3 -0.001892 -0.003011 0.013267 0.000000 0.000000 0.000000
# 4 0.000000 0.000000 0.000000 0.042897 0.000000 0.000000
# 5 0.000000 0.000000 0.000000 0.000000 0.035359 0.000000
# 6 0.000000 0.000000 0.000000 0.000000 0.000000 0.047773
#
#
# Mechanical properties :
#
#
# Convention : Reuss Voigt Hill
#
# Bulk Modulus (GPa) = 41.11855 42.44220 41.78037
# Shear Modulus (GPa) = 26.08489 26.92072 26.50281
#
# Velocity S-wave (km/s) = 3.66916 3.72748 3.69843
# Velocity P-wave (km/s) = 6.25876 6.35849 6.30882
#
# Compressibility (1/GPa) = 0.02431992
#
# Stress axis : x y z
#
# Youngs Moduli (GPa) = 63.24468 84.35111 75.37717
#
# Poissons Ratio (x) = 0.28714 0.14260
# Poissons Ratio (y) = 0.21529 0.22695
# Poissons Ratio (z) = 0.11965 0.25397
#
# Static dielectric constant tensor:
#      x y z
#    x 3.736810 0.000000 0.000000 
#    y 0.000000 4.077560 0.000000 
#    z 0.000000 0.000000 3.786380 
# 
# 
# High freq. dielectric constant tensor:
#      x y z
#    x 1.731480 0.000000 0.000000 
#    y 0.000000 1.758760 0.000000 
#    z 0.000000 0.000000 1.766420 
# 
# From -- ./inp_files/18055.got.cif
#   From: 2010.03.12/outbox.cif.g09.slc.cpg/sg62_10_cif.got.tgz:18055.got - 2010.04.10 19:12:36.
