data_PCOD8252435
_publ_section_title
;
Structure prediction by ZEFSAII (Michael W. Deem and Ramdas Pophale) SiO2 
 PCOD8252435
Probable space group: P N M A
;
_chemical_formula_sum "Si O2"
_cell_formula_units_Z 64
_cell_length_a 15.252531
_cell_length_b 8.842823
_cell_length_c 24.648673
_cell_angle_alpha 90.000000
_cell_angle_beta 90.000000
_cell_angle_gamma 90.000000
_cell_volume 3324.500417
_symmetry_space_group_name_H-M "P N M A"
_symmetry_group_IT_number 62
_symmetry_cell_setting 'orthorhombic'
loop_
_space_group_symop_operation_xyz
x,y,z
1/2-x,-y,1/2+z
1/2+x,1/2-y,1/2-z
-x,1/2+y,-z
-x,-y,-z
1/2+x,y,1/2-z
1/2-x,1/2+y,1/2+z
x,1/2-y,z
loop_
_atom_site_type_symbol
_atom_site_label
_atom_site_fract_x
_atom_site_fract_y
_atom_site_fract_z
Si Si1 0.008532 0.428305 0.110556
Si Si2 0.668351 0.929073 0.556529
Si Si3 0.192040 0.073345 0.357730
Si Si4 0.715902 0.422743 0.264299
Si Si5 0.489664 0.072402 0.839435
Si Si6 0.539452 0.925876 0.283075
Si Si7 0.833617 0.074779 0.362462
Si Si8 0.815272 0.429362 0.933903
O O1 0.022924 0.250000 0.106574
O O2 0.987058 0.476020 0.172513
O O3 0.095853 0.512056 0.092362
O O4 0.928228 0.485917 0.073566
O O5 0.669593 0.750000 0.561256
O O6 0.741647 0.994154 0.597537
O O7 0.688907 0.985205 0.496131
O O8 0.174328 0.250000 0.366461
O O9 0.235423 0.042182 0.298729
O O10 0.100096 0.988666 0.364880
O O11 0.682492 0.250000 0.271339
O O12 0.642263 0.534905 0.287004
O O13 0.802331 0.450978 0.300275
O O14 0.493247 0.250000 0.848473
O O15 0.495808 0.028806 0.776062
O O16 0.570801 0.996643 0.870196
O O17 0.526637 0.750000 0.295474
O O18 0.838126 0.250000 0.377351
O O19 0.768622 0.995818 0.404211
O O20 0.813663 0.250000 0.929704
#
# Coordination Sequence:
#
# PCOD8252435 Si02
#       8
#     8   8   8   8   8   8   8   8
#     4  11  21  35  57  85 117 154 194 236 279 340
#     4   9  21  38  60  85 111 149 195 240 289 339
#     4   9  18  38  61  83 111 147 191 241 288 338
#     4   9  18  32  55  82 111 145 185 233 282 333
#     4  10  22  38  56  84 120 154 187 234 292 346
#     4  10  20  34  53  81 118 154 185 225 283 340
#     4  11  22  36  58  88 114 151 197 236 282 341
#     4  11  22  39  59  83 117 153 190 239 290 339
#
# _framework density 19.251011999999999
#
# number of rings (size 3 to 8) (size 9 to 14) (size 15 to 20)
#    0.000    2.000    1.250    2.250    1.750    2.000 
#    0.000    5.000    0.000    0.000    0.000    0.000 
#    0.000    0.000    0.000    0.000    0.000    0.000 
#
# Total GULP energy -793721.942266 kJ/mol
# GULP energy per Si atom -12401.905348 kJ/mol
# Density = 1.920720 g / cm^3
# Si number density = 19.251012 Si / 1000 Ang^3
#
#
#
# Elastic Constant Matrix: (Units=GPa)
#
#
# Indices 1 2 3 4 5 6 
#
# 1 99.7042 34.0302 54.6601 0.0000 0.0000 0.0000
# 2 34.0302 65.7207 32.5243 0.0000 0.0000 0.0000
# 3 54.6601 32.5243 105.8632 0.0000 0.0000 0.0000
# 4 0.0000 0.0000 0.0000 22.7740 0.0000 0.0000
# 5 0.0000 0.0000 0.0000 0.0000 26.8744 0.0000
# 6 0.0000 0.0000 0.0000 0.0000 0.0000 14.6956
#
#
#
# Elastic Compliance Matrix: (Units=1/GPa)
#
#
# Indices 1 2 3 4 5 6 
#
# 1 0.015117 -0.004676 -0.006369 0.000000 0.000000 0.000000
# 2 -0.004676 0.019390 -0.003543 0.000000 0.000000 0.000000
# 3 -0.006369 -0.003543 0.013823 0.000000 0.000000 0.000000
# 4 0.000000 0.000000 0.000000 0.043910 0.000000 0.000000
# 5 0.000000 0.000000 0.000000 0.000000 0.037210 0.000000
# 6 0.000000 0.000000 0.000000 0.000000 0.000000 0.068047
#
#
# Mechanical properties :
#
#
# Convention : Reuss Voigt Hill
#
# Bulk Modulus (GPa) = 52.20505 57.07972 54.64238
# Shear Modulus (GPa) = 21.45384 22.87370 22.16377
#
# Velocity S-wave (km/s) = 3.34192 3.45074 3.39677
# Velocity P-wave (km/s) = 6.48600 6.75214 6.62041
#
# Compressibility (1/GPa) = 0.01915524
#
# Stress axis : x y z
#
# Youngs Moduli (GPa) = 66.15016 51.57180 72.34266
#
# Poissons Ratio (x) = 0.24114 0.46074
# Poissons Ratio (y) = 0.30931 0.25631
# Poissons Ratio (z) = 0.42130 0.18272
#
# Static dielectric constant tensor:
#      x y z
#    x 3.448490 0.000000 0.000000 
#    y 0.000000 3.407310 0.000000 
#    z 0.000000 0.000000 3.719360 
# 
# 
# High freq. dielectric constant tensor:
#      x y z
#    x 1.745260 0.000000 0.000000 
#    y 0.000000 1.743420 0.000000 
#    z 0.000000 0.000000 1.746230 
# 
# From -- ./inp_files/29727.got.cif
#   From: 2010.03.12/outbox.cif.g09.slc.cpg/sg62_15_cif.got.tgz:29727.got - 2010.04.10 19:12:36.
