data_PCOD8252776
_publ_section_title
;
Structure prediction by ZEFSAII (Michael W. Deem and Ramdas Pophale) SiO2 
 PCOD8252776
Probable space group: P N M A
;
_chemical_formula_sum "Si O2"
_cell_formula_units_Z 48
_cell_length_a 8.652927
_cell_length_b 13.552003
_cell_length_c 19.841926
_cell_angle_alpha 90.000000
_cell_angle_beta 90.000000
_cell_angle_gamma 90.000000
_cell_volume 2326.753386
_symmetry_space_group_name_H-M "P N M A"
_symmetry_group_IT_number 62
_symmetry_cell_setting 'orthorhombic'
loop_
_space_group_symop_operation_xyz
x,y,z
1/2-x,-y,1/2+z
1/2+x,1/2-y,1/2-z
-x,1/2+y,-z
-x,-y,-z
1/2+x,y,1/2-z
1/2-x,1/2+y,1/2+z
x,1/2-y,z
loop_
_atom_site_type_symbol
_atom_site_label
_atom_site_fract_x
_atom_site_fract_y
_atom_site_fract_z
Si Si1 0.996674 0.000314 0.919357
Si Si2 0.088915 0.035110 0.292716
Si Si3 0.237468 0.361151 0.852004
Si Si4 0.465724 0.356435 0.975635
Si Si5 0.108047 0.636320 0.818467
Si Si6 0.350147 0.479907 0.086294
O O1 0.079623 0.898718 0.895382
O O2 0.823301 0.999319 0.890108
O O3 0.082137 0.093203 0.884464
O O4 0.000000 0.000000 0.000000
O O5 0.210514 0.123909 0.303185
O O6 0.997509 0.059996 0.224696
O O7 0.187155 0.931476 0.293417
O O8 0.960451 0.032043 0.350324
O O9 0.204203 0.250000 0.823473
O O10 0.359823 0.354971 0.910770
O O11 0.541297 0.250000 0.987783
O O12 0.605301 0.431571 0.964354
O O13 0.362835 0.381676 0.041144
O O14 0.060609 0.750000 0.807296
#
# Coordination Sequence:
#
# PCOD8252776 Si02
#       6
#     8   8   8   8   8   8
#     4  11  22  38  60  90 129 166 208 263 315 375
#     4  10  22  41  62  90 125 161 209 264 319 381
#     4   9  19  38  61  87 122 164 211 260 314 376
#     4   9  18  32  53  81 115 159 204 248 302 363
#     4  11  24  41  63  91 124 165 209 258 322 390
#     4  10  20  35  56  85 122 160 203 256 311 366
#
# _framework density 20.629604
#
# number of rings (size 3 to 8) (size 9 to 14) (size 15 to 20)
#    0.000    2.000    1.667    1.500    2.333    3.333 
#    0.000    3.333    0.000    4.000    0.000    0.000 
#    0.000    0.000    0.000    0.000    0.000    0.000 
#
# Total GULP energy -594847.160031 kJ/mol
# GULP energy per Si atom -12392.649167 kJ/mol
# Density = 2.058265 g / cm^3
# Si number density = 20.629604 Si / 1000 Ang^3
#
#
#
# Elastic Constant Matrix: (Units=GPa)
#
#
# Indices 1 2 3 4 5 6 
#
# 1 108.0795 30.0817 22.8684 0.0000 0.0000 0.0000
# 2 30.0817 134.6812 45.5234 0.0000 0.0000 0.0000
# 3 22.8684 45.5234 76.7538 0.0000 0.0000 0.0000
# 4 0.0000 0.0000 0.0000 20.3253 0.0000 0.0000
# 5 0.0000 0.0000 0.0000 0.0000 29.6544 0.0000
# 6 0.0000 0.0000 0.0000 0.0000 0.0000 24.1704
#
#
#
# Elastic Compliance Matrix: (Units=1/GPa)
#
#
# Indices 1 2 3 4 5 6 
#
# 1 0.010128 -0.001554 -0.002096 0.000000 0.000000 0.000000
# 2 -0.001554 0.009525 -0.005186 0.000000 0.000000 0.000000
# 3 -0.002096 -0.005186 0.016729 0.000000 0.000000 0.000000
# 4 0.000000 0.000000 0.000000 0.049200 0.000000 0.000000
# 5 0.000000 0.000000 0.000000 0.000000 0.033722 0.000000
# 6 0.000000 0.000000 0.000000 0.000000 0.000000 0.041373
#
#
# Mechanical properties :
#
#
# Convention : Reuss Voigt Hill
#
# Bulk Modulus (GPa) = 53.44711 57.38462 55.41586
# Shear Modulus (GPa) = 27.08752 29.56608 28.32680
#
# Velocity S-wave (km/s) = 3.62752 3.78985 3.70958
# Velocity P-wave (km/s) = 6.59617 6.85767 6.72819
#
# Compressibility (1/GPa) = 0.01871009
#
# Stress axis : x y z
#
# Youngs Moduli (GPa) = 98.73206 104.98640 59.77513
#
# Poissons Ratio (x) = 0.16312 0.12530
# Poissons Ratio (y) = 0.15340 0.31002
# Poissons Ratio (z) = 0.20696 0.54451
#
# Static dielectric constant tensor:
#      x y z
#    x 3.814500 0.000000 0.000000 
#    y 0.000000 4.127400 0.000000 
#    z 0.000000 0.000000 3.665670 
# 
# 
# High freq. dielectric constant tensor:
#      x y z
#    x 1.812990 0.000000 0.000000 
#    y 0.000000 1.800500 0.000000 
#    z 0.000000 0.000000 1.799540 
# 
# From -- ./inp_files/22194.got.cif
#   From: 2010.03.12/outbox.cif.g09.slc.cpg/sg62_12_cif.got.tgz:22194.got - 2010.04.10 19:12:36.
