data_PCOD8252554
_publ_section_title
;
Structure prediction by ZEFSAII (Michael W. Deem and Ramdas Pophale) SiO2 
 PCOD8252554
Probable space group: P N M A
;
_chemical_formula_sum "Si O2"
_cell_formula_units_Z 48
_cell_length_a 29.243359
_cell_length_b 8.756528
_cell_length_c 10.289127
_cell_angle_alpha 90.000000
_cell_angle_beta 90.000000
_cell_angle_gamma 90.000000
_cell_volume 2634.739754
_symmetry_space_group_name_H-M "P N M A"
_symmetry_group_IT_number 62
_symmetry_cell_setting 'orthorhombic'
loop_
_space_group_symop_operation_xyz
x,y,z
1/2-x,-y,1/2+z
1/2+x,1/2-y,1/2-z
-x,1/2+y,-z
-x,-y,-z
1/2+x,y,1/2-z
1/2-x,1/2+y,1/2+z
x,1/2-y,z
loop_
_atom_site_type_symbol
_atom_site_label
_atom_site_fract_x
_atom_site_fract_y
_atom_site_fract_z
Si Si1 0.615020 0.573643 0.775277
Si Si2 0.979497 0.431999 0.370986
Si Si3 0.878171 0.423870 0.979966
Si Si4 0.715634 0.931899 0.771781
Si Si5 0.474871 0.070913 0.622713
Si Si6 0.784016 0.570732 0.994393
O O1 0.617492 0.750000 0.809619
O O2 0.572668 0.503857 0.856612
O O3 0.603403 0.545383 0.624722
O O4 0.664903 0.503071 0.808400
O O5 0.980282 0.250000 0.374659
O O6 0.000000 0.500000 0.500000
O O7 0.009872 0.487439 0.252104
O O8 0.860811 0.250000 0.967386
O O9 0.835353 0.531837 0.948214
O O10 0.920271 0.457627 0.884632
O O11 0.715023 0.750000 0.761162
O O12 0.729993 0.993514 0.630277
O O13 0.750191 0.990435 0.881886
O O14 0.486109 0.250000 0.628323
O O15 0.500000 0.000000 0.500000
O O16 0.778843 0.750000 0.011785
#
# Coordination Sequence:
#
# PCOD8252554 Si02
#       6
#     8   8   8   8   8   8
#     4   8  15  33  57  75 101 145 183 213 263 330
#     4  11  22  38  56  80 114 149 187 229 274 330
#     4   9  18  35  57  80 108 145 181 219 274 330
#     4   9  19  37  57  78 109 143 177 221 274 330
#     4  11  21  36  59  85 111 145 184 227 275 328
#     4  10  20  34  56  84 110 140 181 229 271 315
#
# _framework density 18.218119000000002
#
# number of rings (size 3 to 8) (size 9 to 14) (size 15 to 20)
#    0.000    2.333    1.667    2.500    0.000    2.667 
#    3.000    0.833    0.000    0.000    0.000    0.000 
#    0.000    0.000    0.000    0.000    0.000    0.000 
#
# Total GULP energy -595016.538575 kJ/mol
# GULP energy per Si atom -12396.177887 kJ/mol
# Density = 1.817665 g / cm^3
# Si number density = 18.218119 Si / 1000 Ang^3
#
#
#
# Elastic Constant Matrix: (Units=GPa)
#
#
# Indices 1 2 3 4 5 6 
#
# 1 129.2588 36.4707 83.0753 0.0000 0.0000 0.0000
# 2 36.4707 57.7205 39.1522 0.0000 0.0000 0.0000
# 3 83.0753 39.1522 133.4883 0.0000 0.0000 0.0000
# 4 0.0000 0.0000 0.0000 31.5439 0.0000 0.0000
# 5 0.0000 0.0000 0.0000 0.0000 29.6303 0.0000
# 6 0.0000 0.0000 0.0000 0.0000 0.0000 27.3701
#
#
#
# Elastic Compliance Matrix: (Units=1/GPa)
#
#
# Indices 1 2 3 4 5 6 
#
# 1 0.013443 -0.003519 -0.007334 0.000000 0.000000 0.000000
# 2 -0.003519 0.022549 -0.004423 0.000000 0.000000 0.000000
# 3 -0.007334 -0.004423 0.013353 0.000000 0.000000 0.000000
# 4 0.000000 0.000000 0.000000 0.031702 0.000000 0.000000
# 5 0.000000 0.000000 0.000000 0.000000 0.033749 0.000000
# 6 0.000000 0.000000 0.000000 0.000000 0.000000 0.036536
#
#
# Mechanical properties :
#
#
# Convention : Reuss Voigt Hill
#
# Bulk Modulus (GPa) = 53.21537 70.87378 62.04457
# Shear Modulus (GPa) = 26.57467 28.49348 27.53408
#
# Velocity S-wave (km/s) = 3.82343 3.95906 3.89183
# Velocity P-wave (km/s) = 6.98320 7.73862 7.37059
#
# Compressibility (1/GPa) = 0.01879156
#
# Stress axis : x y z
#
# Youngs Moduli (GPa) = 74.38864 44.34789 74.89027
#
# Poissons Ratio (x) = 0.15607 0.54924
# Poissons Ratio (y) = 0.26180 0.33127
# Poissons Ratio (z) = 0.54556 0.19617
#
# Static dielectric constant tensor:
#      x y z
#    x 3.834520 0.000000 0.000000 
#    y 0.000000 3.248670 0.000000 
#    z 0.000000 0.000000 3.436580 
# 
# 
# High freq. dielectric constant tensor:
#      x y z
#    x 1.720140 0.000000 0.000000 
#    y 0.000000 1.693840 0.000000 
#    z 0.000000 0.000000 1.692290 
# 
# From -- ./inp_files/10150.got.cif
#   From: 2010.03.12/outbox.cif.g09.slc.cpg/sg62_6_cif.got.tgz:10150.got - 2010.04.10 19:12:36.
