data_PCOD8252326
_publ_section_title
;
Structure prediction by ZEFSAII (Michael W. Deem and Ramdas Pophale) SiO2 
 PCOD8252326
Probable space group: P N M A
;
_chemical_formula_sum "Si O2"
_cell_formula_units_Z 56
_cell_length_a 14.461068
_cell_length_b 9.145655
_cell_length_c 21.757341
_cell_angle_alpha 90.000000
_cell_angle_beta 90.000000
_cell_angle_gamma 90.000000
_cell_volume 2877.537561
_symmetry_space_group_name_H-M "P N M A"
_symmetry_group_IT_number 62
_symmetry_cell_setting 'orthorhombic'
loop_
_space_group_symop_operation_xyz
x,y,z
1/2-x,-y,1/2+z
1/2+x,1/2-y,1/2-z
-x,1/2+y,-z
-x,-y,-z
1/2+x,y,1/2-z
1/2-x,1/2+y,1/2+z
x,1/2-y,z
loop_
_atom_site_type_symbol
_atom_site_label
_atom_site_fract_x
_atom_site_fract_y
_atom_site_fract_z
Si Si1 0.659249 0.083649 0.650935
Si Si2 0.012409 0.586312 0.645600
Si Si3 0.293789 0.422693 0.622090
Si Si4 0.183738 0.924319 0.723530
Si Si5 0.855823 0.414312 0.596031
Si Si6 0.649688 0.917459 0.959997
Si Si7 0.009323 0.578255 0.065477
O O1 0.643141 0.250000 0.674436
O O2 0.747705 0.073896 0.607785
O O3 0.573084 0.027899 0.610689
O O4 0.679355 0.975552 0.706858
O O5 0.987567 0.750000 0.664790
O O6 0.087296 0.522570 0.693206
O O7 0.054752 0.575725 0.577541
O O8 0.915986 0.499998 0.646706
O O9 0.282362 0.250000 0.631277
O O10 0.269116 0.501722 0.686773
O O11 0.226290 0.478004 0.568965
O O12 0.396952 0.464712 0.600963
O O13 0.195489 0.750000 0.718606
O O14 0.892156 0.250000 0.600041
O O15 0.871895 0.477051 0.527817
O O16 0.687589 0.750000 0.961407
O O17 0.004054 0.750000 0.052295
O O18 0.000000 0.500000 0.000000
#
# Coordination Sequence:
#
# PCOD8252326 Si02
#       7
#     8   8   8   8   8   8   8
#     4  10  22  39  56  78 110 146 183 228 275 325
#     4   9  19  34  53  78 108 139 176 219 264 318
#     4  10  20  35  58  86 111 142 184 228 273 326
#     4  10  22  40  58  79 107 143 184 226 276 331
#     4  10  20  33  53  79 107 141 177 213 263 317
#     4   9  18  34  54  80 113 145 175 212 262 322
#     4  10  22  39  60  86 116 150 190 234 284 337
#
# _framework density 19.461082999999999
#
# number of rings (size 3 to 8) (size 9 to 14) (size 15 to 20)
#    0.000    2.286    0.000    3.000    0.000    8.000 
#    0.000    4.286    0.000    0.000    0.000    0.000 
#    0.000    0.000    0.000    0.000    0.000    0.000 
#
# Total GULP energy -694374.485395 kJ/mol
# GULP energy per Si atom -12399.544382 kJ/mol
# Density = 1.941679 g / cm^3
# Si number density = 19.461083 Si / 1000 Ang^3
#
#
#
# Elastic Constant Matrix: (Units=GPa)
#
#
# Indices 1 2 3 4 5 6 
#
# 1 99.1323 37.2559 24.4471 0.0000 0.0000 0.0000
# 2 37.2559 67.7637 35.8037 0.0000 0.0000 0.0000
# 3 24.4471 35.8037 96.4197 0.0000 0.0000 0.0000
# 4 0.0000 0.0000 0.0000 32.4976 0.0000 0.0000
# 5 0.0000 0.0000 0.0000 0.0000 21.2372 0.0000
# 6 0.0000 0.0000 0.0000 0.0000 0.0000 26.8016
#
#
#
# Elastic Compliance Matrix: (Units=1/GPa)
#
#
# Indices 1 2 3 4 5 6 
#
# 1 0.012762 -0.006602 -0.000784 0.000000 0.000000 0.000000
# 2 -0.006602 0.021775 -0.006412 0.000000 0.000000 0.000000
# 3 -0.000784 -0.006412 0.012951 0.000000 0.000000 0.000000
# 4 0.000000 0.000000 0.000000 0.030771 0.000000 0.000000
# 5 0.000000 0.000000 0.000000 0.000000 0.047087 0.000000
# 6 0.000000 0.000000 0.000000 0.000000 0.000000 0.037311
#
#
# Mechanical properties :
#
#
# Convention : Reuss Voigt Hill
#
# Bulk Modulus (GPa) = 50.27216 50.92543 50.59880
# Shear Modulus (GPa) = 25.39564 27.16123 26.27844
#
# Velocity S-wave (km/s) = 3.61632 3.73992 3.67864
# Velocity P-wave (km/s) = 6.58219 6.69880 6.64075
#
# Compressibility (1/GPa) = 0.01989173
#
# Stress axis : x y z
#
# Youngs Moduli (GPa) = 78.35672 45.92499 77.21398
#
# Poissons Ratio (x) = 0.30320 0.06055
# Poissons Ratio (y) = 0.51732 0.49507
# Poissons Ratio (z) = 0.06145 0.29446
#
# Static dielectric constant tensor:
#      x y z
#    x 3.552790 0.000000 0.000000 
#    y 0.000000 3.509760 0.000000 
#    z 0.000000 0.000000 3.489420 
# 
# 
# High freq. dielectric constant tensor:
#      x y z
#    x 1.761230 0.000000 0.000000 
#    y 0.000000 1.752490 0.000000 
#    z 0.000000 0.000000 1.756330 
# 
# From -- ./inp_files/27142.got.cif
#   From: 2010.03.12/outbox.cif.g09.slc.cpg/sg62_14_cif.got.tgz:27142.got - 2010.04.10 19:12:36.
