data_PCOD8252031
_publ_section_title
;
Structure prediction by ZEFSAII (Michael W. Deem and Ramdas Pophale) SiO2 
 PCOD8252031
Probable space group: P N M A
;
_chemical_formula_sum "Si O2"
_cell_formula_units_Z 52
_cell_length_a 15.231347
_cell_length_b 7.488434
_cell_length_c 23.641137
_cell_angle_alpha 90.000000
_cell_angle_beta 90.000000
_cell_angle_gamma 90.000000
_cell_volume 2696.482950
_symmetry_space_group_name_H-M "P N M A"
_symmetry_group_IT_number 62
_symmetry_cell_setting 'orthorhombic'
loop_
_space_group_symop_operation_xyz
x,y,z
1/2-x,-y,1/2+z
1/2+x,1/2-y,1/2-z
-x,1/2+y,-z
-x,-y,-z
1/2+x,y,1/2-z
1/2-x,1/2+y,1/2+z
x,1/2-y,z
loop_
_atom_site_type_symbol
_atom_site_label
_atom_site_fract_x
_atom_site_fract_y
_atom_site_fract_z
Si Si1 0.020767 0.453814 0.379456
Si Si2 0.165441 0.040286 0.195336
Si Si3 0.773451 0.250000 0.887953
Si Si4 0.089674 0.250000 0.569808
Si Si5 0.196425 0.960222 0.791955
Si Si6 0.261686 0.750000 0.988972
Si Si7 0.716542 0.549271 0.095349
Si Si8 0.988233 0.038751 0.254056
O O1 0.988647 0.250000 0.386186
O O2 0.124621 0.462402 0.387317
O O3 0.969715 0.573226 0.425121
O O4 0.998758 0.534601 0.317631
O O5 0.169731 0.250000 0.180564
O O6 0.233677 0.988471 0.244165
O O7 0.069443 0.977435 0.215481
O O8 0.188432 0.929722 0.139456
O O9 0.667131 0.250000 0.882883
O O10 0.799287 0.250000 0.954782
O O11 0.134619 0.250000 0.507513
O O12 0.195280 0.750000 0.802472
O O13 0.101499 0.033887 0.773055
O O14 0.220707 0.055438 0.850254
O O15 0.240214 0.572327 0.953285
O O16 0.704777 0.750000 0.072076
O O17 0.987627 0.250000 0.258335
#
# Coordination Sequence:
#
# PCOD8252031 Si02
#       8
#     8   8   4   4   8   4   8   8
#     4  11  20  38  60  87 134 161 199 253 303 371
#     4  10  20  37  62  91 130 161 197 252 315 372
#     4  10  24  41  59  87 119 162 204 254 315 354
#     4  10  24  39  57  89 109 166 215 241 307 355
#     4  10  19  36  62  92 131 162 196 253 313 368
#     4  10  26  46  58  84 124 170 209 267 306 363
#     4  12  23  40  63  87 119 171 211 253 314 365
#     4   9  19  33  59  98 128 164 197 245 319 376
#
# _framework density 19.284379000000001
#
# number of rings (size 3 to 8) (size 9 to 14) (size 15 to 20)
#    0.462    1.231    3.846    0.923    1.077    4.308 
#    2.769    0.000    0.000    0.923    0.000    0.000 
#    0.000    0.000    0.000    0.000    0.000    0.000 
#
# Total GULP energy -644840.287816 kJ/mol
# GULP energy per Si atom -12400.774766 kJ/mol
# Density = 1.924049 g / cm^3
# Si number density = 19.284379 Si / 1000 Ang^3
#
#
#
# Elastic Constant Matrix: (Units=GPa)
#
#
# Indices 1 2 3 4 5 6 
#
# 1 101.5364 17.9480 29.9456 0.0000 0.0000 0.0000
# 2 17.9480 105.1765 45.9881 0.0000 0.0000 0.0000
# 3 29.9456 45.9881 115.8854 0.0000 0.0000 0.0000
# 4 0.0000 0.0000 0.0000 19.3163 0.0000 0.0000
# 5 0.0000 0.0000 0.0000 0.0000 32.8844 0.0000
# 6 0.0000 0.0000 0.0000 0.0000 0.0000 18.0285
#
#
#
# Elastic Compliance Matrix: (Units=1/GPa)
#
#
# Indices 1 2 3 4 5 6 
#
# 1 0.010709 -0.000747 -0.002471 0.000000 0.000000 0.000000
# 2 -0.000747 0.011556 -0.004393 0.000000 0.000000 0.000000
# 3 -0.002471 -0.004393 0.011011 0.000000 0.000000 0.000000
# 4 0.000000 0.000000 0.000000 0.051770 0.000000 0.000000
# 5 0.000000 0.000000 0.000000 0.000000 0.030410 0.000000
# 6 0.000000 0.000000 0.000000 0.000000 0.000000 0.055468
#
#
# Mechanical properties :
#
#
# Convention : Reuss Voigt Hill
#
# Bulk Modulus (GPa) = 55.38714 56.70685 56.04700
# Shear Modulus (GPa) = 26.01951 29.29363 27.65657
#
# Velocity S-wave (km/s) = 3.67720 3.90171 3.79112
# Velocity P-wave (km/s) = 6.84198 7.05459 6.94910
#
# Compressibility (1/GPa) = 0.01805473
#
# Stress axis : x y z
#
# Youngs Moduli (GPa) = 93.37520 86.53447 90.81843
#
# Poissons Ratio (x) = 0.06465 0.22440
# Poissons Ratio (y) = 0.06976 0.39895
# Poissons Ratio (z) = 0.23072 0.38013
#
# Static dielectric constant tensor:
#      x y z
#    x 3.541350 0.000000 0.000000 
#    y 0.000000 3.409100 0.000000 
#    z 0.000000 0.000000 3.381940 
# 
# 
# High freq. dielectric constant tensor:
#      x y z
#    x 1.735860 0.000000 0.000000 
#    y 0.000000 1.755390 0.000000 
#    z 0.000000 0.000000 1.736350 
# 
# From -- ./inp_files/27044.got.cif
#   From: 2010.03.12/outbox.cif.g09.slc.cpg/sg62_14_cif.got.tgz:27044.got - 2010.04.10 19:12:36.
