data_PCOD8252786
_publ_section_title
;
Structure prediction by ZEFSAII (Michael W. Deem and Ramdas Pophale) SiO2 
 PCOD8252786
Probable space group: P N M A
;
_chemical_formula_sum "Si O2"
_cell_formula_units_Z 48
_cell_length_a 18.334203
_cell_length_b 12.361536
_cell_length_c 11.242570
_cell_angle_alpha 90.000000
_cell_angle_beta 90.000000
_cell_angle_gamma 90.000000
_cell_volume 2548.003815
_symmetry_space_group_name_H-M "P N M A"
_symmetry_group_IT_number 62
_symmetry_cell_setting 'orthorhombic'
loop_
_space_group_symop_operation_xyz
x,y,z
1/2-x,-y,1/2+z
1/2+x,1/2-y,1/2-z
-x,1/2+y,-z
-x,-y,-z
1/2+x,y,1/2-z
1/2-x,1/2+y,1/2+z
x,1/2-y,z
loop_
_atom_site_type_symbol
_atom_site_label
_atom_site_fract_x
_atom_site_fract_y
_atom_site_fract_z
Si Si1 0.966176 0.371624 0.907354
Si Si2 0.602485 0.991186 0.597025
Si Si3 0.145996 0.627845 0.474997
Si Si4 0.893549 0.976720 0.730241
Si Si5 0.543620 0.626943 0.814675
Si Si6 0.197472 0.374327 0.057036
O O1 0.980464 0.250000 0.874157
O O2 0.935917 0.425249 0.789437
O O3 0.042505 0.422516 0.947200
O O4 0.908793 0.384387 0.015697
O O5 0.676433 0.053369 0.560031
O O6 0.591987 0.955136 0.733072
O O7 0.146504 0.750000 0.419088
O O8 0.150282 0.532204 0.377759
O O9 0.072665 0.610941 0.551784
O O10 0.215132 0.616575 0.563725
O O11 0.837475 0.918750 0.820348
O O12 0.956634 0.894293 0.686925
O O13 0.556663 0.750000 0.771709
O O14 0.172745 0.250000 0.039802
#
# Coordination Sequence:
#
# PCOD8252786 Si02
#       6
#     8   8   8   8   8   8
#     4   9  16  28  48  76 104 132 173 221 267 310
#     4   9  18  29  51  80 105 140 175 221 269 319
#     4  10  22  37  55  79 110 147 183 223 275 332
#     4  10  20  35  57  79 105 145 183 226 271 324
#     4  10  20  35  57  84 112 145 187 228 271 323
#     4  10  21  36  56  81 110 146 183 227 280 329
#
# _framework density 18.838276
#
# number of rings (size 3 to 8) (size 9 to 14) (size 15 to 20)
#    0.000    2.333    0.000    3.500    2.333    0.000 
#    0.000    0.000    0.000    6.000    0.000    0.000 
#    0.000    0.000    0.000    0.000    0.000    0.000 
#
# Total GULP energy -594801.101809 kJ/mol
# GULP energy per Si atom -12391.689621 kJ/mol
# Density = 1.879540 g / cm^3
# Si number density = 18.838276 Si / 1000 Ang^3
#
#
#
# Elastic Constant Matrix: (Units=GPa)
#
#
# Indices 1 2 3 4 5 6 
#
# 1 75.6708 25.1148 27.2434 0.0000 0.0000 0.0000
# 2 25.1148 95.4079 33.2628 0.0000 0.0000 0.0000
# 3 27.2434 33.2628 69.1435 0.0000 0.0000 0.0000
# 4 0.0000 0.0000 0.0000 26.3318 0.0000 0.0000
# 5 0.0000 0.0000 0.0000 0.0000 28.9515 0.0000
# 6 0.0000 0.0000 0.0000 0.0000 0.0000 25.0975
#
#
#
# Elastic Compliance Matrix: (Units=1/GPa)
#
#
# Indices 1 2 3 4 5 6 
#
# 1 0.015843 -0.002396 -0.005090 0.000000 0.000000 0.000000
# 2 -0.002396 0.012956 -0.005289 0.000000 0.000000 0.000000
# 3 -0.005090 -0.005289 0.019012 0.000000 0.000000 0.000000
# 4 0.000000 0.000000 0.000000 0.037977 0.000000 0.000000
# 5 0.000000 0.000000 0.000000 0.000000 0.034541 0.000000
# 6 0.000000 0.000000 0.000000 0.000000 0.000000 0.039845
#
#
# Mechanical properties :
#
#
# Convention : Reuss Voigt Hill
#
# Bulk Modulus (GPa) = 44.91871 45.71824 45.31847
# Shear Modulus (GPa) = 25.88767 26.38288 26.13527
#
# Velocity S-wave (km/s) = 3.71105 3.74638 3.72876
# Velocity P-wave (km/s) = 6.50067 6.56013 6.53046
#
# Compressibility (1/GPa) = 0.02226244
#
# Stress axis : x y z
#
# Youngs Moduli (GPa) = 63.12046 77.18529 52.59766
#
# Poissons Ratio (x) = 0.18493 0.26770
# Poissons Ratio (y) = 0.15123 0.27817
# Poissons Ratio (z) = 0.32126 0.40820
#
# Static dielectric constant tensor:
#      x y z
#    x 3.371140 0.000000 0.000000 
#    y 0.000000 3.481070 0.000000 
#    z 0.000000 0.000000 3.307560 
# 
# 
# High freq. dielectric constant tensor:
#      x y z
#    x 1.721050 0.000000 0.000000 
#    y 0.000000 1.735720 0.000000 
#    z 0.000000 0.000000 1.717200 
# 
# From -- ./inp_files/14091.got.cif
#   From: 2010.03.12/outbox.cif.g09.slc.cpg/sg62_8_cif.got.tgz:14091.got - 2010.04.10 19:12:36.
