data_PCOD8252661
_publ_section_title
;
Structure prediction by ZEFSAII (Michael W. Deem and Ramdas Pophale) SiO2 
 PCOD8252661
Probable space group: P N M A
;
_chemical_formula_sum "Si O2"
_cell_formula_units_Z 48
_cell_length_a 23.552715
_cell_length_b 12.191653
_cell_length_c 9.128220
_cell_angle_alpha 90.000000
_cell_angle_beta 90.000000
_cell_angle_gamma 90.000000
_cell_volume 2621.136684
_symmetry_space_group_name_H-M "P N M A"
_symmetry_group_IT_number 62
_symmetry_cell_setting 'orthorhombic'
loop_
_space_group_symop_operation_xyz
x,y,z
1/2-x,-y,1/2+z
1/2+x,1/2-y,1/2-z
-x,1/2+y,-z
-x,-y,-z
1/2+x,y,1/2-z
1/2-x,1/2+y,1/2+z
x,1/2-y,z
loop_
_atom_site_type_symbol
_atom_site_label
_atom_site_fract_x
_atom_site_fract_y
_atom_site_fract_z
Si Si1 0.355979 0.480944 0.192865
Si Si2 0.056695 0.876000 0.909197
Si Si3 0.240407 0.124078 0.200840
Si Si4 0.928881 0.933482 0.877854
Si Si5 0.171114 0.370057 0.942641
Si Si6 0.643105 0.381228 0.096047
O O1 0.410832 0.429023 0.269972
O O2 0.307746 0.387715 0.185962
O O3 0.324333 0.570618 0.289607
O O4 0.371805 0.542034 0.042556
O O5 0.075559 0.750000 0.931260
O O6 0.990932 0.882048 0.868825
O O7 0.069514 0.940640 0.061049
O O8 0.223804 0.250000 0.182881
O O9 0.207789 0.089254 0.351286
O O10 0.209942 0.065458 0.061960
O O11 0.901194 0.922499 0.718384
O O12 0.893227 0.864371 0.996427
O O13 0.194397 0.250000 0.908789
O O14 0.635453 0.250000 0.063161
#
# Coordination Sequence:
#
# PCOD8252661 Si02
#       6
#     8   8   8   8   8   8
#     4  11  20  30  49  78 108 130 160 208 265 310
#     4  10  20  35  55  77 104 135 170 212 257 307
#     4   9  18  33  50  68  97 137 174 208 250 299
#     4   9  19  36  56  74  97 136 178 211 248 297
#     4   9  17  31  51  70  92 129 174 211 242 293
#     4  10  20  35  55  77 104 137 174 214 252 299
#
# _framework density 18.312667000000001
#
# number of rings (size 3 to 8) (size 9 to 14) (size 15 to 20)
#    0.000    2.333    0.000    4.500    0.000    0.667 
#    0.000    2.500    0.000    6.000    0.000    0.000 
#    0.000    0.000    0.000    0.000    0.000    0.000 
#
# Total GULP energy -594638.980934 kJ/mol
# GULP energy per Si atom -12388.312103 kJ/mol
# Density = 1.827099 g / cm^3
# Si number density = 18.312667 Si / 1000 Ang^3
#
#
#
# Elastic Constant Matrix: (Units=GPa)
#
#
# Indices 1 2 3 4 5 6 
#
# 1 77.3878 4.3230 13.1891 0.0000 0.0000 0.0000
# 2 4.3230 80.2699 32.8698 0.0000 0.0000 0.0000
# 3 13.1891 32.8698 89.0319 0.0000 0.0000 0.0000
# 4 0.0000 0.0000 0.0000 25.4838 0.0000 0.0000
# 5 0.0000 0.0000 0.0000 0.0000 21.7490 0.0000
# 6 0.0000 0.0000 0.0000 0.0000 0.0000 22.3748
#
#
#
# Elastic Compliance Matrix: (Units=1/GPa)
#
#
# Indices 1 2 3 4 5 6 
#
# 1 0.013257 0.000106 -0.002003 0.000000 0.000000 0.000000
# 2 0.000106 0.014678 -0.005435 0.000000 0.000000 0.000000
# 3 -0.002003 -0.005435 0.013535 0.000000 0.000000 0.000000
# 4 0.000000 0.000000 0.000000 0.039241 0.000000 0.000000
# 5 0.000000 0.000000 0.000000 0.000000 0.045979 0.000000
# 6 0.000000 0.000000 0.000000 0.000000 0.000000 0.044693
#
#
# Mechanical properties :
#
#
# Convention : Reuss Voigt Hill
#
# Bulk Modulus (GPa) = 37.30345 38.60592 37.95469
# Shear Modulus (GPa) = 25.64343 27.00870 26.32606
#
# Velocity S-wave (km/s) = 3.74613 3.84456 3.79567
# Velocity P-wave (km/s) = 6.25507 6.39022 6.32300
#
# Compressibility (1/GPa) = 0.02680717
#
# Stress axis : x y z
#
# Youngs Moduli (GPa) = 75.42958 68.13070 73.88201
#
# Poissons Ratio (x) = -0.00724 0.14800
# Poissons Ratio (y) = -0.00802 0.40152
# Poissons Ratio (z) = 0.15110 0.37026
#
# Static dielectric constant tensor:
#      x y z
#    x 3.286560 0.000000 0.000000 
#    y 0.000000 3.689650 0.000000 
#    z 0.000000 0.000000 3.344790 
# 
# 
# High freq. dielectric constant tensor:
#      x y z
#    x 1.710770 0.000000 0.000000 
#    y 0.000000 1.703210 0.000000 
#    z 0.000000 0.000000 1.704740 
# 
# From -- ./inp_files/9318.got.cif
#   From: 2010.03.12/outbox.cif.g09.slc.cpg/sg62_5_cif.got.tgz:9318.got - 2010.04.10 19:12:36.
