data_PCOD8252551
_publ_section_title
;
Structure prediction by ZEFSAII (Michael W. Deem and Ramdas Pophale) SiO2 
 PCOD8252551
Probable space group: P N M A
;
_chemical_formula_sum "Si O2"
_cell_formula_units_Z 56
_cell_length_a 8.991728
_cell_length_b 15.550079
_cell_length_c 20.882471
_cell_angle_alpha 90.000000
_cell_angle_beta 90.000000
_cell_angle_gamma 90.000000
_cell_volume 2919.830546
_symmetry_space_group_name_H-M "P N M A"
_symmetry_group_IT_number 62
_symmetry_cell_setting 'orthorhombic'
loop_
_space_group_symop_operation_xyz
x,y,z
1/2-x,-y,1/2+z
1/2+x,1/2-y,1/2-z
-x,1/2+y,-z
-x,-y,-z
1/2+x,y,1/2-z
1/2-x,1/2+y,1/2+z
x,1/2-y,z
loop_
_atom_site_type_symbol
_atom_site_label
_atom_site_fract_x
_atom_site_fract_y
_atom_site_fract_z
Si Si1 0.618878 0.848759 0.062020
Si Si2 0.491310 0.848184 0.922391
Si Si3 0.693288 0.652392 0.802515
Si Si4 0.744569 0.013311 0.116838
Si Si5 0.328785 0.069491 0.751331
Si Si6 0.933139 0.844180 0.319145
Si Si7 0.005474 0.929736 0.808606
O O1 0.677746 0.750000 0.073356
O O2 0.474502 0.866457 0.107203
O O3 0.743084 0.921936 0.078353
O O4 0.570182 0.861966 0.989802
O O5 0.430689 0.750000 0.915806
O O6 0.613553 0.868520 0.869084
O O7 0.359195 0.916328 0.916675
O O8 0.671486 0.750000 0.781358
O O9 0.622199 0.595605 0.746883
O O10 0.869214 0.636655 0.812465
O O11 0.907272 0.058578 0.123318
O O12 0.700036 0.995724 0.190323
O O13 0.411709 0.153619 0.779142
O O14 0.182600 0.088991 0.710191
O O15 0.442645 0.024384 0.703650
O O16 0.862756 0.750000 0.314188
#
# Coordination Sequence:
#
# PCOD8252551 Si02
#       7
#     8   8   8   8   8   8   8
#     4   9  21  40  63  86 113 154 205 243 280 346
#     4  10  21  40  64  86 113 153 202 245 285 345
#     4  11  22  36  58  84 114 153 193 240 296 353
#     4  11  21  36  59  87 114 155 186 241 291 348
#     4  11  19  34  53  81 117 146 181 232 291 344
#     4  10  20  34  56  83 111 147 191 237 289 343
#     4  12  21  36  54  84 122 146 187 237 296 354
#
# _framework density 19.179195
#
# number of rings (size 3 to 8) (size 9 to 14) (size 15 to 20)
#    0.000    1.429    4.286    1.286    2.000    2.857 
#    0.000    0.714    0.000    0.000    0.000    0.000 
#    0.000    0.000    0.000    0.000    0.000    0.000 
#
# Total GULP energy -693927.315130 kJ/mol
# GULP energy per Si atom -12391.559199 kJ/mol
# Density = 1.913554 g / cm^3
# Si number density = 19.179195 Si / 1000 Ang^3
#
#
#
# Elastic Constant Matrix: (Units=GPa)
#
#
# Indices 1 2 3 4 5 6 
#
# 1 69.6619 24.2609 14.2005 0.0000 0.0000 0.0000
# 2 24.2609 86.9935 29.8487 0.0000 0.0000 0.0000
# 3 14.2005 29.8487 72.0558 0.0000 0.0000 0.0000
# 4 0.0000 0.0000 0.0000 29.9703 0.0000 0.0000
# 5 0.0000 0.0000 0.0000 0.0000 19.9287 0.0000
# 6 0.0000 0.0000 0.0000 0.0000 0.0000 29.1349
#
#
#
# Elastic Compliance Matrix: (Units=1/GPa)
#
#
# Indices 1 2 3 4 5 6 
#
# 1 0.016042 -0.003951 -0.001525 0.000000 0.000000 0.000000
# 2 -0.003951 0.014373 -0.005175 0.000000 0.000000 0.000000
# 3 -0.001525 -0.005175 0.016322 0.000000 0.000000 0.000000
# 4 0.000000 0.000000 0.000000 0.033366 0.000000 0.000000
# 5 0.000000 0.000000 0.000000 0.000000 0.050179 0.000000
# 6 0.000000 0.000000 0.000000 0.000000 0.000000 0.034323
#
#
# Mechanical properties :
#
#
# Convention : Reuss Voigt Hill
#
# Bulk Modulus (GPa) = 39.31529 40.59237 39.95383
# Shear Modulus (GPa) = 25.72218 26.50019 26.11119
#
# Velocity S-wave (km/s) = 3.66614 3.72118 3.69376
# Velocity P-wave (km/s) = 6.20196 6.29870 6.25051
#
# Compressibility (1/GPa) = 0.02543539
#
# Stress axis : x y z
#
# Youngs Moduli (GPa) = 62.33739 69.57729 61.26526
#
# Poissons Ratio (x) = 0.27487 0.09343
# Poissons Ratio (y) = 0.24626 0.31706
# Poissons Ratio (z) = 0.09506 0.36007
#
# Static dielectric constant tensor:
#      x y z
#    x 3.522390 0.000000 0.000000 
#    y 0.000000 3.692510 0.000000 
#    z 0.000000 0.000000 3.461910 
# 
# 
# High freq. dielectric constant tensor:
#      x y z
#    x 1.729320 0.000000 0.000000 
#    y 0.000000 1.763610 0.000000 
#    z 0.000000 0.000000 1.731620 
# 
# From -- ./inp_files/25999.got.cif
#   From: 2010.03.12/outbox.cif.g09.slc.cpg/sg62_13_cif.got.tgz:25999.got - 2010.04.10 19:12:36.
