data_PCOD8252266
_publ_section_title
;
Structure prediction by ZEFSAII (Michael W. Deem and Ramdas Pophale) SiO2 
 PCOD8252266
Probable space group: P N M A
;
_chemical_formula_sum "Si O2"
_cell_formula_units_Z 64
_cell_length_a 29.868281
_cell_length_b 8.668282
_cell_length_c 14.394727
_cell_angle_alpha 90.000000
_cell_angle_beta 90.000000
_cell_angle_gamma 90.000000
_cell_volume 3726.891014
_symmetry_space_group_name_H-M "P N M A"
_symmetry_group_IT_number 62
_symmetry_cell_setting 'orthorhombic'
loop_
_space_group_symop_operation_xyz
x,y,z
1/2-x,-y,1/2+z
1/2+x,1/2-y,1/2-z
-x,1/2+y,-z
-x,-y,-z
1/2+x,y,1/2-z
1/2-x,1/2+y,1/2+z
x,1/2-y,z
loop_
_atom_site_type_symbol
_atom_site_label
_atom_site_fract_x
_atom_site_fract_y
_atom_site_fract_z
Si Si1 0.955454 0.928549 0.392621
Si Si2 0.221710 0.924375 0.991361
Si Si3 0.451115 0.928826 0.892254
Si Si4 0.196825 0.068552 0.176075
Si Si5 0.368313 0.429204 0.163751
Si Si6 0.214609 0.566327 0.782748
Si Si7 0.825475 0.923306 0.505203
Si Si8 0.135719 0.930608 0.318706
O O1 0.966278 0.750000 0.379197
O O2 0.942587 0.966537 0.499252
O O3 0.914967 0.979427 0.325065
O O4 0.999086 0.023465 0.362594
O O5 0.202820 0.750000 0.995990
O O6 0.214638 0.995091 0.888465
O O7 0.273554 0.925185 0.016815
O O8 0.196871 0.030048 0.066612
O O9 0.444110 0.750000 0.870867
O O10 0.416246 0.025436 0.830721
O O11 0.191386 0.250000 0.190237
O O12 0.242174 0.005273 0.226018
O O13 0.153712 0.981033 0.217863
O O14 0.377789 0.250000 0.179424
O O15 0.331354 0.493849 0.235791
O O16 0.350080 0.455313 0.060333
O O17 0.216263 0.750000 0.780822
O O18 0.845029 0.750000 0.490187
O O19 0.833496 0.973793 0.610358
O O20 0.141994 0.750000 0.333976
#
# Coordination Sequence:
#
# PCOD8252266 Si02
#       8
#     8   8   8   8   8   8   8   8
#     4  10  20  33  50  74 106 138 169 212 260 309
#     4  10  20  36  52  71 102 139 177 219 260 300
#     4  10  20  34  52  74 103 137 171 212 260 309
#     4  11  21  36  53  75 104 137 176 219 260 304
#     4  11  20  32  51  75 103 141 180 214 256 311
#     4   9  19  34  51  72 102 138 176 216 258 302
#     4  11  20  31  49  73 104 140 175 218 260 300
#     4  12  23  34  51  76 104 140 179 213 256 313
#
# _framework density 17.17249
#
# number of rings (size 3 to 8) (size 9 to 14) (size 15 to 20)
#    0.000    1.500    3.750    3.000    0.000    1.500 
#    0.000    1.250    0.000    0.000    0.000    0.875 
#    0.000    0.000    0.000    0.000    0.000    0.000 
#
# Total GULP energy -793738.367373 kJ/mol
# GULP energy per Si atom -12402.161990 kJ/mol
# Density = 1.713340 g / cm^3
# Si number density = 17.172490 Si / 1000 Ang^3
#
#
#
# Elastic Constant Matrix: (Units=GPa)
#
#
# Indices 1 2 3 4 5 6 
#
# 1 94.0436 28.0222 33.0494 0.0000 0.0000 0.0000
# 2 28.0222 59.9937 15.9311 0.0000 0.0000 0.0000
# 3 33.0494 15.9311 74.1440 0.0000 0.0000 0.0000
# 4 0.0000 0.0000 0.0000 23.7640 0.0000 0.0000
# 5 0.0000 0.0000 0.0000 0.0000 25.9876 0.0000
# 6 0.0000 0.0000 0.0000 0.0000 0.0000 27.2193
#
#
#
# Elastic Compliance Matrix: (Units=1/GPa)
#
#
# Indices 1 2 3 4 5 6 
#
# 1 0.013971 -0.005167 -0.005117 0.000000 0.000000 0.000000
# 2 -0.005167 0.019588 -0.001906 0.000000 0.000000 0.000000
# 3 -0.005117 -0.001906 0.016178 0.000000 0.000000 0.000000
# 4 0.000000 0.000000 0.000000 0.042080 0.000000 0.000000
# 5 0.000000 0.000000 0.000000 0.000000 0.038480 0.000000
# 6 0.000000 0.000000 0.000000 0.000000 0.000000 0.036739
#
#
# Mechanical properties :
#
#
# Convention : Reuss Voigt Hill
#
# Bulk Modulus (GPa) = 39.43689 42.46518 40.95104
# Shear Modulus (GPa) = 25.01646 25.47276 25.24461
#
# Velocity S-wave (km/s) = 3.82091 3.85560 3.83830
# Velocity P-wave (km/s) = 6.51773 6.67856 6.59864
#
# Compressibility (1/GPa) = 0.02535697
#
# Stress axis : x y z
#
# Youngs Moduli (GPa) = 71.57496 51.05209 61.81297
#
# Poissons Ratio (x) = 0.26378 0.31633
# Poissons Ratio (y) = 0.36982 0.11779
# Poissons Ratio (z) = 0.36628 0.09729
#
# Static dielectric constant tensor:
#      x y z
#    x 3.204740 0.000000 0.000000 
#    y 0.000000 3.132230 0.000000 
#    z 0.000000 0.000000 3.053490 
# 
# 
# High freq. dielectric constant tensor:
#      x y z
#    x 1.656900 0.000000 0.000000 
#    y 0.000000 1.664010 0.000000 
#    z 0.000000 0.000000 1.631280 
# 
# From -- ./inp_files/21255.got.cif
#   From: 2010.03.12/outbox.cif.g09.slc.cpg/sg62_11_cif.got.tgz:21255.got - 2010.04.10 19:12:36.
