data_PCOD8252903
_publ_section_title
;
Structure prediction by ZEFSAII (Michael W. Deem and Ramdas Pophale) SiO2 
 PCOD8252903
Probable space group: P N M A
;
_chemical_formula_sum "Si O2"
_cell_formula_units_Z 64
_cell_length_a 11.381297
_cell_length_b 8.646857
_cell_length_c 32.818082
_cell_angle_alpha 90.000000
_cell_angle_beta 90.000000
_cell_angle_gamma 90.000000
_cell_volume 3229.707776
_symmetry_space_group_name_H-M "P N M A"
_symmetry_group_IT_number 62
_symmetry_cell_setting 'orthorhombic'
loop_
_space_group_symop_operation_xyz
x,y,z
1/2-x,-y,1/2+z
1/2+x,1/2-y,1/2-z
-x,1/2+y,-z
-x,-y,-z
1/2+x,y,1/2-z
1/2-x,1/2+y,1/2+z
x,1/2-y,z
loop_
_atom_site_type_symbol
_atom_site_label
_atom_site_fract_x
_atom_site_fract_y
_atom_site_fract_z
Si Si1 0.090813 0.930670 0.552499
Si Si2 0.831288 0.930396 0.527739
Si Si3 0.393932 0.070501 0.287205
Si Si4 0.942036 0.429287 0.304331
Si Si5 0.818827 0.428136 0.671565
Si Si6 0.708522 0.070426 0.870473
Si Si7 0.041157 0.070499 0.134684
Si Si8 0.671950 0.070955 0.592466
O O1 0.106977 0.750000 0.544109
O O2 0.954786 0.979210 0.548148
O O3 0.168828 0.023344 0.519695
O O4 0.133312 0.973178 0.597288
O O5 0.806440 0.750000 0.532379
O O6 0.726301 0.022457 0.549385
O O7 0.359012 0.250000 0.290577
O O8 0.445056 0.026725 0.243255
O O9 0.492798 0.028504 0.320442
O O10 0.277047 0.970917 0.294358
O O11 0.913515 0.250000 0.310753
O O12 0.839111 0.526355 0.325842
O O13 0.067373 0.466727 0.323648
O O14 0.854728 0.250000 0.676543
O O15 0.767561 0.465086 0.627165
O O16 0.689137 0.250000 0.879131
O O17 0.845088 0.031495 0.873705
O O18 0.074282 0.250000 0.131084
O O19 0.944680 0.028538 0.100692
O O20 0.636636 0.250000 0.592084
#
# Coordination Sequence:
#
# PCOD8252903 Si02
#       8
#     8   8   8   8   8   8   8   8
#     4  10  21  38  60  88 121 158 195 238 290 347
#     4  10  20  35  60  91 121 153 193 241 291 343
#     4   9  21  39  59  81 109 148 193 238 285 343
#     4  11  23  38  58  83 112 151 195 238 287 346
#     4  10  21  36  56  84 115 145 185 239 289 337
#     4  12  25  40  58  85 119 155 193 240 294 349
#     4  10  21  40  62  83 112 153 197 242 292 349
#     4  10  20  36  58  85 116 152 193 237 288 346
#
# _framework density 19.816033000000001
#
# number of rings (size 3 to 8) (size 9 to 14) (size 15 to 20)
#    0.000    1.750    0.000    4.125    1.750    6.500 
#    0.000    0.625    0.000    0.000    0.000    0.000 
#    0.000    0.000    0.000    0.000    0.000    0.000 
#
# Total GULP energy -794043.514397 kJ/mol
# GULP energy per Si atom -12406.929912 kJ/mol
# Density = 1.977093 g / cm^3
# Si number density = 19.816033 Si / 1000 Ang^3
#
#
#
# Elastic Constant Matrix: (Units=GPa)
#
#
# Indices 1 2 3 4 5 6 
#
# 1 70.5361 21.9904 18.9693 0.0000 0.0000 0.0000
# 2 21.9904 51.2967 16.5952 0.0000 0.0000 0.0000
# 3 18.9693 16.5952 68.1287 0.0000 0.0000 0.0000
# 4 0.0000 0.0000 0.0000 31.4108 0.0000 0.0000
# 5 0.0000 0.0000 0.0000 0.0000 21.7029 0.0000
# 6 0.0000 0.0000 0.0000 0.0000 0.0000 35.3200
#
#
#
# Elastic Compliance Matrix: (Units=1/GPa)
#
#
# Indices 1 2 3 4 5 6 
#
# 1 0.016987 -0.006244 -0.003209 0.000000 0.000000 0.000000
# 2 -0.006244 0.023457 -0.003975 0.000000 0.000000 0.000000
# 3 -0.003209 -0.003975 0.016540 0.000000 0.000000 0.000000
# 4 0.000000 0.000000 0.000000 0.031836 0.000000 0.000000
# 5 0.000000 0.000000 0.000000 0.000000 0.046077 0.000000
# 6 0.000000 0.000000 0.000000 0.000000 0.000000 0.028313
#
#
# Mechanical properties :
#
#
# Convention : Reuss Voigt Hill
#
# Bulk Modulus (GPa) = 33.19199 33.89681 33.54440
# Shear Modulus (GPa) = 24.98650 26.51382 25.75016
#
# Velocity S-wave (km/s) = 3.55480 3.66183 3.60871
# Velocity P-wave (km/s) = 5.79959 5.91790 5.85905
#
# Compressibility (1/GPa) = 0.03012775
#
# Stress axis : x y z
#
# Youngs Moduli (GPa) = 58.86960 42.63073 60.46000
#
# Poissons Ratio (x) = 0.26619 0.19400
# Poissons Ratio (y) = 0.36758 0.24035
# Poissons Ratio (z) = 0.18890 0.16947
#
# Static dielectric constant tensor:
#      x y z
#    x 3.493420 0.000000 0.000000 
#    y 0.000000 3.582490 0.000000 
#    z 0.000000 0.000000 3.606820 
# 
# 
# High freq. dielectric constant tensor:
#      x y z
#    x 1.767100 0.000000 0.000000 
#    y 0.000000 1.781210 0.000000 
#    z 0.000000 0.000000 1.770820 
# 
# From -- ./inp_files/32579.got.cif
#   From: 2010.03.12/outbox.cif.g09.slc.cpg/sg62_17_cif.got.tgz:32579.got - 2010.04.10 19:12:36.
