data_PCOD8252299
_publ_section_title
;
Structure prediction by ZEFSAII (Michael W. Deem and Ramdas Pophale) SiO2 
 PCOD8252299
Probable space group: P N M A
;
_chemical_formula_sum "Si O2"
_cell_formula_units_Z 56
_cell_length_a 20.998025
_cell_length_b 9.513149
_cell_length_c 14.733863
_cell_angle_alpha 90.000000
_cell_angle_beta 90.000000
_cell_angle_gamma 90.000000
_cell_volume 2943.197289
_symmetry_space_group_name_H-M "P N M A"
_symmetry_group_IT_number 62
_symmetry_cell_setting 'orthorhombic'
loop_
_space_group_symop_operation_xyz
x,y,z
1/2-x,-y,1/2+z
1/2+x,1/2-y,1/2-z
-x,1/2+y,-z
-x,-y,-z
1/2+x,y,1/2-z
1/2-x,1/2+y,1/2+z
x,1/2-y,z
loop_
_atom_site_type_symbol
_atom_site_label
_atom_site_fract_x
_atom_site_fract_y
_atom_site_fract_z
Si Si1 0.990741 0.092043 0.136023
Si Si2 0.891507 0.416987 0.283113
Si Si3 0.911418 0.092194 0.952920
Si Si4 0.688040 0.589757 0.082559
Si Si5 0.936636 0.084845 0.479101
Si Si6 0.706004 0.408483 0.438516
Si Si7 0.747773 0.587071 0.738679
O O1 0.013964 0.250000 0.159666
O O2 0.946698 0.029863 0.215631
O O3 0.951777 0.094099 0.043679
O O4 0.052113 0.992381 0.126577
O O5 0.886159 0.250000 0.282054
O O6 0.908105 0.469920 0.383693
O O7 0.823554 0.476713 0.248576
O O8 0.898664 0.250000 0.918036
O O9 0.845352 0.017264 0.976584
O O10 0.693966 0.750000 0.115864
O O11 0.712398 0.491747 0.162398
O O12 0.615000 0.553667 0.057738
O O13 0.728322 0.565940 0.991067
O O14 0.952674 0.250000 0.473655
O O15 0.000000 0.000000 0.500000
O O16 0.681196 0.250000 0.455417
O O17 0.716124 0.435764 0.332765
O O18 0.744924 0.750000 0.711250
#
# Coordination Sequence:
#
# PCOD8252299 Si02
#       7
#     8   8   8   8   8   8   8
#     4   9  18  33  54  78 105 143 186 226 273 333
#     4   9  17  35  60  80 103 144 195 233 269 332
#     4  10  20  33  51  80 114 143 178 230 283 327
#     4  10  21  38  58  84 117 149 183 236 296 338
#     4  10  21  39  60  81 111 149 188 233 284 337
#     4  10  20  36  57  79 109 148 185 222 275 340
#     4  10  20  36  60  85 108 145 193 233 275 339
#
# _framework density 19.026927000000001
#
# number of rings (size 3 to 8) (size 9 to 14) (size 15 to 20)
#    0.000    2.286    1.429    1.286    0.000    4.571 
#    0.000    6.429    0.000    0.000    0.000    0.000 
#    0.000    0.000    0.000    0.000    0.000    0.000 
#
# Total GULP energy -694446.149377 kJ/mol
# GULP energy per Si atom -12400.824096 kJ/mol
# Density = 1.898362 g / cm^3
# Si number density = 19.026927 Si / 1000 Ang^3
#
#
#
# Elastic Constant Matrix: (Units=GPa)
#
#
# Indices 1 2 3 4 5 6 
#
# 1 109.8498 53.9834 24.3222 0.0000 0.0000 0.0000
# 2 53.9834 87.7178 34.6369 0.0000 0.0000 0.0000
# 3 24.3222 34.6369 77.7252 0.0000 0.0000 0.0000
# 4 0.0000 0.0000 0.0000 21.9571 0.0000 0.0000
# 5 0.0000 0.0000 0.0000 0.0000 29.4011 0.0000
# 6 0.0000 0.0000 0.0000 0.0000 0.0000 31.7757
#
#
#
# Elastic Compliance Matrix: (Units=1/GPa)
#
#
# Indices 1 2 3 4 5 6 
#
# 1 0.013074 -0.007804 -0.000614 0.000000 0.000000 0.000000
# 2 -0.007804 0.018493 -0.005799 0.000000 0.000000 0.000000
# 3 -0.000614 -0.005799 0.015642 0.000000 0.000000 0.000000
# 4 0.000000 0.000000 0.000000 0.045543 0.000000 0.000000
# 5 0.000000 0.000000 0.000000 0.000000 0.034012 0.000000
# 6 0.000000 0.000000 0.000000 0.000000 0.000000 0.031471
#
#
# Mechanical properties :
#
#
# Convention : Reuss Voigt Hill
#
# Bulk Modulus (GPa) = 53.25897 55.68641 54.47269
# Shear Modulus (GPa) = 25.91655 27.45011 26.68333
#
# Velocity S-wave (km/s) = 3.69467 3.80241 3.74892
# Velocity P-wave (km/s) = 6.80095 6.97197 6.88699
#
# Compressibility (1/GPa) = 0.01877618
#
# Stress axis : x y z
#
# Youngs Moduli (GPa) = 76.48618 54.07547 63.93030
#
# Poissons Ratio (x) = 0.42200 0.03923
# Poissons Ratio (y) = 0.59689 0.37073
# Poissons Ratio (z) = 0.04693 0.31358
#
# Static dielectric constant tensor:
#      x y z
#    x 3.546120 0.000000 0.000000 
#    y 0.000000 3.411510 0.000000 
#    z 0.000000 0.000000 3.443640 
# 
# 
# High freq. dielectric constant tensor:
#      x y z
#    x 1.746830 0.000000 0.000000 
#    y 0.000000 1.719370 0.000000 
#    z 0.000000 0.000000 1.737570 
# 
# From -- ./inp_files/20254.got.cif
#   From: 2010.03.12/outbox.cif.g09.slc.cpg/sg62_11_cif.got.tgz:20254.got - 2010.04.10 19:12:36.
