data_PCOD8252764
_publ_section_title
;
Structure prediction by ZEFSAII (Michael W. Deem and Ramdas Pophale) SiO2 
 PCOD8252764
Probable space group: P N M A
;
_chemical_formula_sum "Si O2"
_cell_formula_units_Z 48
_cell_length_a 11.524781
_cell_length_b 13.369929
_cell_length_c 16.637711
_cell_angle_alpha 90.000000
_cell_angle_beta 90.000000
_cell_angle_gamma 90.000000
_cell_volume 2563.630080
_symmetry_space_group_name_H-M "P N M A"
_symmetry_group_IT_number 62
_symmetry_cell_setting 'orthorhombic'
loop_
_space_group_symop_operation_xyz
x,y,z
1/2-x,-y,1/2+z
1/2+x,1/2-y,1/2-z
-x,1/2+y,-z
-x,-y,-z
1/2+x,y,1/2-z
1/2-x,1/2+y,1/2+z
x,1/2-y,z
loop_
_atom_site_type_symbol
_atom_site_label
_atom_site_fract_x
_atom_site_fract_y
_atom_site_fract_z
Si Si1 0.436935 0.368351 0.227871
Si Si2 0.116920 0.960518 0.893229
Si Si3 0.731424 0.638170 0.904674
Si Si4 0.609404 0.448469 0.105222
Si Si5 0.944207 0.866495 0.002269
Si Si6 0.529267 0.861439 0.032785
O O1 0.426251 0.250000 0.244568
O O2 0.442190 0.429162 0.309947
O O3 0.328545 0.410550 0.174067
O O4 0.556398 0.387453 0.179825
O O5 0.253672 0.950093 0.884559
O O6 0.070517 0.887944 0.964668
O O7 0.077297 0.073681 0.914701
O O8 0.763144 0.750000 0.879442
O O9 0.850664 0.589445 0.936707
O O10 0.641831 0.636210 0.977362
O O11 0.553102 0.560300 0.104791
O O12 0.581515 0.394540 0.020270
O O13 0.926235 0.750000 0.021273
O O14 0.508142 0.750000 0.067901
#
# Coordination Sequence:
#
# PCOD8252764 Si02
#       6
#     8   8   8   8   8   8
#     4  10  22  36  54  83 115 145 183 236 289 331
#     4  11  23  36  57  86 112 151 190 231 278 333
#     4   8  15  32  56  78 105 142 177 216 275 334
#     4  10  20  35  56  84 113 143 189 234 277 334
#     4  10  21  38  58  82 114 151 189 227 279 341
#     4   9  17  33  58  83 108 144 182 227 279 332
#
# _framework density 18.723448999999999
#
# number of rings (size 3 to 8) (size 9 to 14) (size 15 to 20)
#    0.000    2.333    1.667    2.000    2.333    2.667 
#    0.000    0.833    0.000    0.000    0.000    0.000 
#    0.000    0.000    0.000    0.000    0.000    0.000 
#
# Total GULP energy -594871.589145 kJ/mol
# GULP energy per Si atom -12393.158107 kJ/mol
# Density = 1.868083 g / cm^3
# Si number density = 18.723449 Si / 1000 Ang^3
#
#
#
# Elastic Constant Matrix: (Units=GPa)
#
#
# Indices 1 2 3 4 5 6 
#
# 1 71.4181 28.4991 35.2880 0.0000 0.0000 0.0000
# 2 28.4991 106.7700 40.8744 0.0000 0.0000 0.0000
# 3 35.2880 40.8744 88.5013 0.0000 0.0000 0.0000
# 4 0.0000 0.0000 0.0000 30.0496 0.0000 0.0000
# 5 0.0000 0.0000 0.0000 0.0000 16.5378 0.0000
# 6 0.0000 0.0000 0.0000 0.0000 0.0000 19.7151
#
#
#
# Elastic Compliance Matrix: (Units=1/GPa)
#
#
# Indices 1 2 3 4 5 6 
#
# 1 0.017968 -0.002494 -0.006012 0.000000 0.000000 0.000000
# 2 -0.002494 0.011724 -0.004420 0.000000 0.000000 0.000000
# 3 -0.006012 -0.004420 0.015738 0.000000 0.000000 0.000000
# 4 0.000000 0.000000 0.000000 0.033278 0.000000 0.000000
# 5 0.000000 0.000000 0.000000 0.000000 0.060468 0.000000
# 6 0.000000 0.000000 0.000000 0.000000 0.000000 0.050723
#
#
# Mechanical properties :
#
#
# Convention : Reuss Voigt Hill
#
# Bulk Modulus (GPa) = 51.08214 52.89027 51.98621
# Shear Modulus (GPa) = 22.49439 24.06236 23.27837
#
# Velocity S-wave (km/s) = 3.46988 3.58878 3.52983
# Velocity P-wave (km/s) = 6.58750 6.74403 6.66622
#
# Compressibility (1/GPa) = 0.01957631
#
# Stress axis : x y z
#
# Youngs Moduli (GPa) = 55.65393 85.29614 63.54042
#
# Poissons Ratio (x) = 0.21276 0.38203
# Poissons Ratio (y) = 0.13882 0.28086
# Poissons Ratio (z) = 0.33461 0.37702
#
# Static dielectric constant tensor:
#      x y z
#    x 3.526590 0.000000 0.000000 
#    y 0.000000 3.557910 0.000000 
#    z 0.000000 0.000000 3.280830 
# 
# 
# High freq. dielectric constant tensor:
#      x y z
#    x 1.733510 0.000000 0.000000 
#    y 0.000000 1.715560 0.000000 
#    z 0.000000 0.000000 1.697630 
# 
# From -- ./inp_files/17993.got.cif
#   From: 2010.03.12/outbox.cif.g09.slc.cpg/sg62_9_cif.got.tgz:17993.got - 2010.04.10 19:12:36.
