data_PCOD8252574
_publ_section_title
;
Structure prediction by ZEFSAII (Michael W. Deem and Ramdas Pophale) SiO2 
 PCOD8252574
Probable space group: P N M A
;
_chemical_formula_sum "Si O2"
_cell_formula_units_Z 64
_cell_length_a 9.376589
_cell_length_b 21.730140
_cell_length_c 17.982835
_cell_angle_alpha 90.000000
_cell_angle_beta 90.000000
_cell_angle_gamma 90.000000
_cell_volume 3664.085203
_symmetry_space_group_name_H-M "P N M A"
_symmetry_group_IT_number 62
_symmetry_cell_setting 'orthorhombic'
loop_
_space_group_symop_operation_xyz
x,y,z
1/2-x,-y,1/2+z
1/2+x,1/2-y,1/2-z
-x,1/2+y,-z
-x,-y,-z
1/2+x,y,1/2-z
1/2-x,1/2+y,1/2+z
x,1/2-y,z
loop_
_atom_site_type_symbol
_atom_site_label
_atom_site_fract_x
_atom_site_fract_y
_atom_site_fract_z
Si Si1 0.703888 0.536880 0.323157
Si Si2 0.921642 0.321369 0.308595
Si Si3 0.367579 0.922310 0.042928
Si Si4 0.683329 0.955433 0.039931
Si Si5 0.782280 0.906812 0.889707
Si Si6 0.866785 0.524952 0.177287
Si Si7 0.167127 0.321109 0.426282
Si Si8 0.587555 0.613125 0.655987
O O1 0.762489 0.583341 0.386300
O O2 0.756362 0.468962 0.345885
O O3 0.779290 0.553790 0.245783
O O4 0.533280 0.542042 0.316226
O O5 0.892439 0.250000 0.294062
O O6 0.780125 0.349139 0.345179
O O7 0.960079 0.353806 0.231550
O O8 0.051643 0.334234 0.363173
O O9 0.525996 0.940205 0.070838
O O10 0.370549 0.857235 0.001328
O O11 0.308629 0.973644 0.985927
O O12 0.801125 0.944790 0.103258
O O13 0.718268 0.909410 0.972372
O O14 0.951266 0.899559 0.895483
O O15 0.838574 0.451705 0.175586
O O16 0.174635 0.250000 0.448225
O O17 0.315813 0.342425 0.392550
#
# Coordination Sequence:
#
# PCOD8252574 Si02
#       8
#     8   8   8   8   8   8   8   8
#     4  10  22  33  56  84 112 141 179 222 284 332
#     4  11  22  37  53  75 109 155 200 224 260 319
#     4  10  20  36  56  78 108 148 183 231 280 327
#     4  10  20  34  57  78 110 146 185 227 281 328
#     4  10  21  35  53  78 109 152 187 227 273 317
#     4  11  21  34  55  86 114 144 178 224 279 339
#     4  11  23  37  55  79 108 151 195 230 272 321
#     4  11  22  32  53  77 118 147 187 226 266 318
#
# _framework density 17.466843000000001
#
# number of rings (size 3 to 8) (size 9 to 14) (size 15 to 20)
#    0.000    1.500    3.750    1.875    3.500    3.500 
#    0.000    0.000    0.000    0.000    0.000    4.375 
#    0.000    0.000    0.000    0.000    0.000    0.000 
#
# Total GULP energy -793879.058236 kJ/mol
# GULP energy per Si atom -12404.360285 kJ/mol
# Density = 1.742709 g / cm^3
# Si number density = 17.466843 Si / 1000 Ang^3
#
#
#
# Elastic Constant Matrix: (Units=GPa)
#
#
# Indices 1 2 3 4 5 6 
#
# 1 86.6454 14.0256 43.9573 0.0000 0.0000 0.0000
# 2 14.0256 55.4119 26.3267 0.0000 0.0000 0.0000
# 3 43.9573 26.3267 94.4433 0.0000 0.0000 0.0000
# 4 0.0000 0.0000 0.0000 23.8482 0.0000 0.0000
# 5 0.0000 0.0000 0.0000 0.0000 34.9997 0.0000
# 6 0.0000 0.0000 0.0000 0.0000 0.0000 20.7836
#
#
#
# Elastic Compliance Matrix: (Units=1/GPa)
#
#
# Indices 1 2 3 4 5 6 
#
# 1 0.015124 -0.000558 -0.006884 0.000000 0.000000 0.000000
# 2 -0.000558 0.020822 -0.005545 0.000000 0.000000 0.000000
# 3 -0.006884 -0.005545 0.015338 0.000000 0.000000 0.000000
# 4 0.000000 0.000000 0.000000 0.041932 0.000000 0.000000
# 5 0.000000 0.000000 0.000000 0.000000 0.028572 0.000000
# 6 0.000000 0.000000 0.000000 0.000000 0.000000 0.048115
#
#
# Mechanical properties :
#
#
# Convention : Reuss Voigt Hill
#
# Bulk Modulus (GPa) = 39.50734 45.01331 42.26033
# Shear Modulus (GPa) = 24.47236 26.07235 25.27236
#
# Velocity S-wave (km/s) = 3.74715 3.86771 3.80791
# Velocity P-wave (km/s) = 6.43344 6.76552 6.60157
#
# Compressibility (1/GPa) = 0.02531175
#
# Stress axis : x y z
#
# Youngs Moduli (GPa) = 66.12073 48.02567 65.19763
#
# Poissons Ratio (x) = 0.02678 0.44881
# Poissons Ratio (y) = 0.03687 0.36151
# Poissons Ratio (z) = 0.45516 0.26629
#
# Static dielectric constant tensor:
#      x y z
#    x 3.275270 0.000000 0.000000 
#    y 0.000000 2.991950 0.000000 
#    z 0.000000 0.000000 3.210510 
# 
# 
# High freq. dielectric constant tensor:
#      x y z
#    x 1.689580 0.000000 0.000000 
#    y 0.000000 1.637090 0.000000 
#    z 0.000000 0.000000 1.673810 
# 
# From -- ./inp_files/22545.got.cif
#   From: 2010.03.12/outbox.cif.g09.slc.cpg/sg62_12_cif.got.tgz:22545.got - 2010.04.10 19:12:36.
