data_PCOD8252486
_publ_section_title
;
Structure prediction by ZEFSAII (Michael W. Deem and Ramdas Pophale) SiO2 
 PCOD8252486
Probable space group: P N M A
;
_chemical_formula_sum "Si O2"
_cell_formula_units_Z 40
_cell_length_a 9.421881
_cell_length_b 7.786375
_cell_length_c 28.121338
_cell_angle_alpha 90.000000
_cell_angle_beta 90.000000
_cell_angle_gamma 90.000000
_cell_volume 2063.045997
_symmetry_space_group_name_H-M "P N M A"
_symmetry_group_IT_number 62
_symmetry_cell_setting 'orthorhombic'
loop_
_space_group_symop_operation_xyz
x,y,z
1/2-x,-y,1/2+z
1/2+x,1/2-y,1/2-z
-x,1/2+y,-z
-x,-y,-z
1/2+x,y,1/2-z
1/2-x,1/2+y,1/2+z
x,1/2-y,z
loop_
_atom_site_type_symbol
_atom_site_label
_atom_site_fract_x
_atom_site_fract_y
_atom_site_fract_z
Si Si1 0.823360 0.750000 0.693047
Si Si2 0.151941 0.750000 0.712675
Si Si3 0.816766 0.558355 0.354041
Si Si4 0.686452 0.548487 0.541025
Si Si5 0.635513 0.942312 0.126651
Si Si6 0.632373 0.449832 0.438697
O O1 0.706865 0.750000 0.733926
O O2 0.793190 0.580210 0.661816
O O3 0.981485 0.750000 0.714445
O O4 0.212940 0.580085 0.687039
O O5 0.812958 0.750000 0.331658
O O6 0.699130 0.551073 0.394883
O O7 0.968609 0.517788 0.377800
O O8 0.703531 0.750000 0.546981
O O9 0.800130 0.454900 0.574108
O O10 0.717170 0.493388 0.486938
O O11 0.529370 0.486943 0.556098
O O12 0.661659 0.750000 0.146739
O O13 0.643128 0.250000 0.427543
#
# Coordination Sequence:
#
# PCOD8252486 Si02
#       6
#     4   4   8   8   8   8
#     4  10  22  40  60  84 114 146 188 238 285 338
#     4  10  22  40  60  84 114 146 188 238 285 338
#     4  10  21  38  59  83 113 149 188 232 281 335
#     4  10  20  34  54  82 116 152 190 232 279 332
#     4  10  21  38  59  83 113 149 188 232 281 335
#     4  10  20  34  54  82 116 152 190 232 279 332
#
# _framework density 19.388805999999999
#
# number of rings (size 3 to 8) (size 9 to 14) (size 15 to 20)
#    0.000    2.000    2.000    1.200    0.000    5.600 
#    0.000    0.000    0.000    0.000    0.000    0.000 
#    0.000    0.000    0.000    0.000    0.000    0.000 
#
# Total GULP energy -496137.018940 kJ/mol
# GULP energy per Si atom -12403.425473 kJ/mol
# Density = 1.934468 g / cm^3
# Si number density = 19.388806 Si / 1000 Ang^3
#
#
#
# Elastic Constant Matrix: (Units=GPa)
#
#
# Indices 1 2 3 4 5 6 
#
# 1 20.6512 6.9785 -1.1038 0.0000 0.0000 0.0000
# 2 6.9785 106.2368 14.6550 0.0000 0.0000 0.0000
# 3 -1.1038 14.6550 40.6689 0.0000 0.0000 0.0000
# 4 0.0000 0.0000 0.0000 27.5510 0.0000 0.0000
# 5 0.0000 0.0000 0.0000 0.0000 37.9050 0.0000
# 6 0.0000 0.0000 0.0000 0.0000 0.0000 18.8071
#
#
#
# Elastic Compliance Matrix: (Units=1/GPa)
#
#
# Indices 1 2 3 4 5 6 
#
# 1 0.049795 -0.003638 0.002663 0.000000 0.000000 0.000000
# 2 -0.003638 0.010171 -0.003764 0.000000 0.000000 0.000000
# 3 0.002663 -0.003764 0.026017 0.000000 0.000000 0.000000
# 4 0.000000 0.000000 0.000000 0.036296 0.000000 0.000000
# 5 0.000000 0.000000 0.000000 0.000000 0.026382 0.000000
# 6 0.000000 0.000000 0.000000 0.000000 0.000000 0.053171
#
#
# Mechanical properties :
#
#
# Convention : Reuss Voigt Hill
#
# Bulk Modulus (GPa) = 13.07113 23.17960 18.12536
# Shear Modulus (GPa) = 21.11364 26.65445 23.88404
#
# Velocity S-wave (km/s) = 3.30352 3.71176 3.51358
# Velocity P-wave (km/s) = 4.61597 5.50914 5.08222
#
# Compressibility (1/GPa) = 0.07650450
#
# Stress axis : x y z
#
# Youngs Moduli (GPa) = 20.08227 98.31736 38.43583
#
# Poissons Ratio (x) = 0.35770 -0.10234
# Poissons Ratio (y) = 0.07306 0.14467
# Poissons Ratio (z) = -0.05347 0.37006
#
# Static dielectric constant tensor:
#      x y z
#    x 3.432570 0.000000 0.000000 
#    y 0.000000 3.772480 0.000000 
#    z 0.000000 0.000000 3.316140 
# 
# 
# High freq. dielectric constant tensor:
#      x y z
#    x 1.743660 0.000000 0.000000 
#    y 0.000000 1.773580 0.000000 
#    z 0.000000 0.000000 1.738720 
# 
# From -- ./inp_files/28635.got.cif
#   From: 2010.03.12/outbox.cif.g09.slc.cpg/sg62_15_cif.got.tgz:28635.got - 2010.04.10 19:12:36.
