data_PCOD8252213
_publ_section_title
;
Structure prediction by ZEFSAII (Michael W. Deem and Ramdas Pophale) SiO2 
 PCOD8252213
Probable space group: P N M A
;
_chemical_formula_sum "Si O2"
_cell_formula_units_Z 56
_cell_length_a 19.247479
_cell_length_b 8.778825
_cell_length_c 19.327444
_cell_angle_alpha 90.000000
_cell_angle_beta 90.000000
_cell_angle_gamma 90.000000
_cell_volume 3265.763041
_symmetry_space_group_name_H-M "P N M A"
_symmetry_group_IT_number 62
_symmetry_cell_setting 'orthorhombic'
loop_
_space_group_symop_operation_xyz
x,y,z
1/2-x,-y,1/2+z
1/2+x,1/2-y,1/2-z
-x,1/2+y,-z
-x,-y,-z
1/2+x,y,1/2-z
1/2-x,1/2+y,1/2+z
x,1/2-y,z
loop_
_atom_site_type_symbol
_atom_site_label
_atom_site_fract_x
_atom_site_fract_y
_atom_site_fract_z
Si Si1 0.948540 0.069250 0.944426
Si Si2 0.383211 0.569238 0.255746
Si Si3 0.272795 0.571037 0.149252
Si Si4 0.977722 0.573197 0.797148
Si Si5 0.671346 0.076560 0.250040
Si Si6 0.280132 0.427883 0.361141
Si Si7 0.295699 0.431030 0.515221
O O1 0.953218 0.250000 0.947303
O O2 0.871597 0.008903 0.962904
O O3 0.970241 0.014954 0.868748
O O4 0.000000 0.000000 0.000000
O O5 0.391501 0.750000 0.255733
O O6 0.341604 0.507372 0.187671
O O7 0.458001 0.491605 0.253812
O O8 0.341386 0.519979 0.323989
O O9 0.279186 0.750000 0.147618
O O10 0.204100 0.531471 0.192372
O O11 0.261548 0.508276 0.071041
O O12 0.989345 0.750000 0.813828
O O13 0.910934 0.546386 0.747890
O O14 0.687476 0.250000 0.271834
O O15 0.705734 0.041883 0.175298
O O16 0.300336 0.250000 0.359846
O O17 0.274742 0.490848 0.439365
O O18 0.296363 0.250000 0.516089
#
# Coordination Sequence:
#
# PCOD8252213 Si02
#       7
#     8   8   8   8   8   8   8
#     4  11  21  32  48  73 105 137 165 197 245 301
#     4  10  20  32  49  72  97 127 164 206 249 294
#     4   9  17  32  51  71  94 123 163 205 247 298
#     4  11  21  33  48  69  99 134 169 204 243 292
#     4   9  18  31  49  72  95 126 166 204 242 289
#     4   9  17  32  52  73  98 126 160 202 249 298
#     4   9  17  30  50  72  95 126 158 196 246 297
#
# _framework density 17.147600000000001
#
# number of rings (size 3 to 8) (size 9 to 14) (size 15 to 20)
#    0.000    2.286    1.429    2.143    0.000    2.286 
#    0.000    1.429    0.000    0.857    0.000    0.000 
#    0.000    0.000    0.000    0.000    0.000    0.571 
#
# Total GULP energy -694216.338411 kJ/mol
# GULP energy per Si atom -12396.720329 kJ/mol
# Density = 1.710857 g / cm^3
# Si number density = 17.147600 Si / 1000 Ang^3
#
#
#
# Elastic Constant Matrix: (Units=GPa)
#
#
# Indices 1 2 3 4 5 6 
#
# 1 118.3075 24.7681 54.9912 0.0000 0.0000 0.0000
# 2 24.7681 36.9152 14.2145 0.0000 0.0000 0.0000
# 3 54.9912 14.2145 89.2733 0.0000 0.0000 0.0000
# 4 0.0000 0.0000 0.0000 19.0426 0.0000 0.0000
# 5 0.0000 0.0000 0.0000 0.0000 26.1386 0.0000
# 6 0.0000 0.0000 0.0000 0.0000 0.0000 21.1000
#
#
#
# Elastic Compliance Matrix: (Units=1/GPa)
#
#
# Indices 1 2 3 4 5 6 
#
# 1 0.012981 -0.005998 -0.007041 0.000000 0.000000 0.000000
# 2 -0.005998 0.031630 -0.001341 0.000000 0.000000 0.000000
# 3 -0.007041 -0.001341 0.015752 0.000000 0.000000 0.000000
# 4 0.000000 0.000000 0.000000 0.052514 0.000000 0.000000
# 5 0.000000 0.000000 0.000000 0.000000 0.038258 0.000000
# 6 0.000000 0.000000 0.000000 0.000000 0.000000 0.047393
#
#
# Mechanical properties :
#
#
# Convention : Reuss Voigt Hill
#
# Bulk Modulus (GPa) = 31.64365 48.04929 39.84647
# Shear Modulus (GPa) = 21.02393 23.29106 22.15750
#
# Velocity S-wave (km/s) = 3.50531 3.68947 3.59857
# Velocity P-wave (km/s) = 5.90565 6.79937 6.36821
#
# Compressibility (1/GPa) = 0.03160192
#
# Stress axis : x y z
#
# Youngs Moduli (GPa) = 77.03466 31.61536 63.48253
#
# Poissons Ratio (x) = 0.18964 0.44699
# Poissons Ratio (y) = 0.46209 0.08515
# Poissons Ratio (z) = 0.54241 0.04241
#
# Static dielectric constant tensor:
#      x y z
#    x 3.371750 0.000000 0.000000 
#    y 0.000000 3.132880 0.000000 
#    z 0.000000 0.000000 2.521200 
# 
# 
# High freq. dielectric constant tensor:
#      x y z
#    x 1.656210 0.000000 0.000000 
#    y 0.000000 1.654000 0.000000 
#    z 0.000000 0.000000 1.655030 
# 
# From -- ./inp_files/24636.got.cif
#   From: 2010.03.12/outbox.cif.g09.slc.cpg/sg62_13_cif.got.tgz:24636.got - 2010.04.10 19:12:36.
