data_PCOD8252948
_publ_section_title
;
Structure prediction by ZEFSAII (Michael W. Deem and Ramdas Pophale) SiO2 
 PCOD8252948
Probable space group: P N M A
;
_chemical_formula_sum "Si O2"
_cell_formula_units_Z 64
_cell_length_a 17.882475
_cell_length_b 8.726893
_cell_length_c 20.629592
_cell_angle_alpha 90.000000
_cell_angle_beta 90.000000
_cell_angle_gamma 90.000000
_cell_volume 3219.422067
_symmetry_space_group_name_H-M "P N M A"
_symmetry_group_IT_number 62
_symmetry_cell_setting 'orthorhombic'
loop_
_space_group_symop_operation_xyz
x,y,z
1/2-x,-y,1/2+z
1/2+x,1/2-y,1/2-z
-x,1/2+y,-z
-x,-y,-z
1/2+x,y,1/2-z
1/2-x,1/2+y,1/2+z
x,1/2-y,z
loop_
_atom_site_type_symbol
_atom_site_label
_atom_site_fract_x
_atom_site_fract_y
_atom_site_fract_z
Si Si1 0.418480 0.931289 0.993821
Si Si2 0.330245 0.570821 0.621179
Si Si3 0.836641 0.430848 0.627779
Si Si4 0.915123 0.929105 0.748696
Si Si5 0.667529 0.431317 0.630003
Si Si6 0.418229 0.567778 0.496182
Si Si7 0.923714 0.930939 0.254865
Si Si8 0.331055 0.929890 0.119220
O O1 0.425318 0.750000 0.996124
O O2 0.382513 0.982767 0.926989
O O3 0.367847 0.992979 0.053130
O O4 0.500000 0.000000 0.000000
O O5 0.318666 0.750000 0.614523
O O6 0.381679 0.527169 0.681767
O O7 0.370215 0.506243 0.556844
O O8 0.249714 0.498886 0.630300
O O9 0.840929 0.250000 0.615257
O O10 0.872109 0.468835 0.696693
O O11 0.751963 0.494064 0.626965
O O12 0.905349 0.750000 0.732669
O O13 0.001462 0.972089 0.749423
O O14 0.670109 0.250000 0.627805
O O15 0.621358 0.494897 0.568780
O O16 0.628893 0.486363 0.696114
O O17 0.500000 0.500000 0.500000
O O18 0.423923 0.750000 0.496561
O O19 0.941264 0.750000 0.251270
O O20 0.883785 0.977307 0.321380
O O21 0.321274 0.750000 0.116059
#
# Coordination Sequence:
#
# PCOD8252948 Si02
#       8
#     8   8   8   8   8   8   8   8
#     4  11  23  39  59  87 119 153 193 238 284 339
#     4  10  22  38  57  82 116 153 191 234 284 339
#     4  11  22  39  62  85 111 150 192 237 291 344
#     4  11  23  38  56  84 117 150 189 237 288 342
#     4   9  19  35  58  84 111 145 190 237 282 334
#     4  10  20  36  56  82 113 147 186 229 277 334
#     4  10  20  37  59  84 112 147 191 237 283 341
#     4  10  22  38  58  84 114 147 190 237 282 335
#
# _framework density 19.879345000000001
#
# number of rings (size 3 to 8) (size 9 to 14) (size 15 to 20)
#    0.000    1.750    0.000    4.125    0.000    6.000 
#    0.000    2.500    0.000    0.000    0.000    0.000 
#    0.000    0.000    0.000    0.000    0.000    0.000 
#
# Total GULP energy -793896.307203 kJ/mol
# GULP energy per Si atom -12404.629800 kJ/mol
# Density = 1.983410 g / cm^3
# Si number density = 19.879345 Si / 1000 Ang^3
#
#
#
# Elastic Constant Matrix: (Units=GPa)
#
#
# Indices 1 2 3 4 5 6 
#
# 1 128.0432 27.8689 30.5568 0.0000 0.0000 0.0000
# 2 27.8689 33.8715 26.0873 0.0000 0.0000 0.0000
# 3 30.5568 26.0873 97.8000 0.0000 0.0000 0.0000
# 4 0.0000 0.0000 0.0000 14.5736 0.0000 0.0000
# 5 0.0000 0.0000 0.0000 0.0000 38.8798 0.0000
# 6 0.0000 0.0000 0.0000 0.0000 0.0000 36.2093
#
#
#
# Elastic Compliance Matrix: (Units=1/GPa)
#
#
# Indices 1 2 3 4 5 6 
#
# 1 0.009611 -0.007042 -0.001125 0.000000 0.000000 0.000000
# 2 -0.007042 0.042316 -0.009087 0.000000 0.000000 0.000000
# 3 -0.001125 -0.009087 0.013000 0.000000 0.000000 0.000000
# 4 0.000000 0.000000 0.000000 0.068617 0.000000 0.000000
# 5 0.000000 0.000000 0.000000 0.000000 0.025720 0.000000
# 6 0.000000 0.000000 0.000000 0.000000 0.000000 0.027617
#
#
# Mechanical properties :
#
#
# Convention : Reuss Voigt Hill
#
# Bulk Modulus (GPa) = 32.87293 47.63786 40.25540
# Shear Modulus (GPa) = 21.59560 29.61265 25.60412
#
# Velocity S-wave (km/s) = 3.29953 3.86375 3.59273
# Velocity P-wave (km/s) = 5.57566 6.62723 6.12406
#
# Compressibility (1/GPa) = 0.03042016
#
# Stress axis : x y z
#
# Youngs Moduli (GPa) = 104.04920 23.63177 76.92135
#
# Poissons Ratio (x) = 0.16640 0.08650
# Poissons Ratio (y) = 0.73266 0.69901
# Poissons Ratio (z) = 0.11701 0.21475
#
# Static dielectric constant tensor:
#      x y z
#    x 3.597320 0.000000 0.000000 
#    y 0.000000 3.427950 0.000000 
#    z 0.000000 0.000000 4.081740 
# 
# 
# High freq. dielectric constant tensor:
#      x y z
#    x 1.793650 0.000000 0.000000 
#    y 0.000000 1.757610 0.000000 
#    z 0.000000 0.000000 1.796820 
# 
# From -- ./inp_files/27745.got.cif
#   From: 2010.03.12/outbox.cif.g09.slc.cpg/sg62_14_cif.got.tgz:27745.got - 2010.04.10 19:12:36.
