data_PCOD8252261
_publ_section_title
;
Structure prediction by ZEFSAII (Michael W. Deem and Ramdas Pophale) SiO2 
 PCOD8252261
Probable space group: P N M A
;
_chemical_formula_sum "Si O2"
_cell_formula_units_Z 40
_cell_length_a 18.608366
_cell_length_b 8.969258
_cell_length_c 13.496128
_cell_angle_alpha 90.000000
_cell_angle_beta 90.000000
_cell_angle_gamma 90.000000
_cell_volume 2252.547431
_symmetry_space_group_name_H-M "P N M A"
_symmetry_group_IT_number 62
_symmetry_cell_setting 'orthorhombic'
loop_
_space_group_symop_operation_xyz
x,y,z
1/2-x,-y,1/2+z
1/2+x,1/2-y,1/2-z
-x,1/2+y,-z
-x,-y,-z
1/2+x,y,1/2-z
1/2-x,1/2+y,1/2+z
x,1/2-y,z
loop_
_atom_site_type_symbol
_atom_site_label
_atom_site_fract_x
_atom_site_fract_y
_atom_site_fract_z
Si Si1 0.276184 0.077498 0.108639
Si Si2 0.858011 0.425425 0.804944
Si Si3 0.996445 0.927175 0.892799
Si Si4 0.145050 0.576211 0.802365
Si Si5 0.721962 0.578546 0.111751
O O1 0.253077 0.250000 0.121569
O O2 0.337759 0.034125 0.187943
O O3 0.206505 0.974989 0.123388
O O4 0.307773 0.047806 0.998868
O O5 0.871632 0.250000 0.818269
O O6 0.928785 0.515250 0.831819
O O7 0.837761 0.470736 0.691864
O O8 0.992256 0.750000 0.904328
O O9 0.065991 0.980481 0.830695
O O10 0.000000 0.000000 0.000000
O O11 0.150125 0.750000 0.820523
O O12 0.203182 0.505783 0.875479
O O13 0.740432 0.750000 0.129159
#
# Coordination Sequence:
#
# PCOD8252261 Si02
#       5
#     8   8   8   8   8
#     4   9  17  33  54  73  95 128 165 203 244 287
#     4  10  20  33  49  74 103 129 160 200 242 291
#     4  11  22  35  51  73 100 131 163 201 247 294
#     4   9  19  33  50  72  98 126 162 203 242 286
#     4   9  18  32  52  74  97 126 161 199 242 288
#
# _framework density 17.757673
#
# number of rings (size 3 to 8) (size 9 to 14) (size 15 to 20)
#    0.000    2.400    0.000    2.400    0.000    6.400 
#    0.000    1.000    0.000    0.000    0.000    0.000 
#    0.000    0.000    0.000    0.000    0.000    0.000 
#
# Total GULP energy -495968.554333 kJ/mol
# GULP energy per Si atom -12399.213858 kJ/mol
# Density = 1.771726 g / cm^3
# Si number density = 17.757673 Si / 1000 Ang^3
#
#
#
# Elastic Constant Matrix: (Units=GPa)
#
#
# Indices 1 2 3 4 5 6 
#
# 1 140.3123 46.4060 74.8554 0.0000 0.0000 0.0000
# 2 46.4060 49.5134 37.7400 0.0000 0.0000 0.0000
# 3 74.8554 37.7400 144.8772 0.0000 0.0000 0.0000
# 4 0.0000 0.0000 0.0000 25.5123 0.0000 0.0000
# 5 0.0000 0.0000 0.0000 0.0000 20.0319 0.0000
# 6 0.0000 0.0000 0.0000 0.0000 0.0000 25.8974
#
#
#
# Elastic Compliance Matrix: (Units=1/GPa)
#
#
# Indices 1 2 3 4 5 6 
#
# 1 0.011992 -0.008131 -0.004078 0.000000 0.000000 0.000000
# 2 -0.008131 0.030713 -0.003800 0.000000 0.000000 0.000000
# 3 -0.004078 -0.003800 0.009999 0.000000 0.000000 0.000000
# 4 0.000000 0.000000 0.000000 0.039197 0.000000 0.000000
# 5 0.000000 0.000000 0.000000 0.000000 0.049920 0.000000
# 6 0.000000 0.000000 0.000000 0.000000 0.000000 0.038614
#
#
# Mechanical properties :
#
#
# Convention : Reuss Voigt Hill
#
# Bulk Modulus (GPa) = 48.33850 72.52286 60.43068
# Shear Modulus (GPa) = 22.79489 26.00174 24.39832
#
# Velocity S-wave (km/s) = 3.58671 3.83071 3.71072
# Velocity P-wave (km/s) = 6.66581 7.77784 7.24319
#
# Compressibility (1/GPa) = 0.02068744
#
# Stress axis : x y z
#
# Youngs Moduli (GPa) = 83.39204 32.55917 100.00903
#
# Poissons Ratio (x) = 0.26473 0.40781
# Poissons Ratio (y) = 0.67805 0.38000
# Poissons Ratio (z) = 0.34005 0.12371
#
# Static dielectric constant tensor:
#      x y z
#    x 3.299560 0.000000 0.000000 
#    y 0.000000 3.336020 0.000000 
#    z 0.000000 0.000000 3.642700 
# 
# 
# High freq. dielectric constant tensor:
#      x y z
#    x 1.670610 0.000000 0.000000 
#    y 0.000000 1.691070 0.000000 
#    z 0.000000 0.000000 1.698110 
# 
# From -- ./inp_files/13856.got.cif
#   From: 2010.03.12/outbox.cif.g09.slc.cpg/sg62_7_cif.got.tgz:13856.got - 2010.04.10 19:12:36.
