data_PCOD8252754
_publ_section_title
;
Structure prediction by ZEFSAII (Michael W. Deem and Ramdas Pophale) SiO2 
 PCOD8252754
Probable space group: P N M A
;
_chemical_formula_sum "Si O2"
_cell_formula_units_Z 64
_cell_length_a 18.544188
_cell_length_b 8.708392
_cell_length_c 20.325382
_cell_angle_alpha 90.000000
_cell_angle_beta 90.000000
_cell_angle_gamma 90.000000
_cell_volume 3282.347127
_symmetry_space_group_name_H-M "P N M A"
_symmetry_group_IT_number 62
_symmetry_cell_setting 'orthorhombic'
loop_
_space_group_symop_operation_xyz
x,y,z
1/2-x,-y,1/2+z
1/2+x,1/2-y,1/2-z
-x,1/2+y,-z
-x,-y,-z
1/2+x,y,1/2-z
1/2-x,1/2+y,1/2+z
x,1/2-y,z
loop_
_atom_site_type_symbol
_atom_site_label
_atom_site_fract_x
_atom_site_fract_y
_atom_site_fract_z
Si Si1 0.543449 0.431674 0.559613
Si Si2 0.789118 0.426501 0.820545
Si Si3 0.200925 0.569746 0.567130
Si Si4 0.704529 0.068169 0.555062
Si Si5 0.541522 0.070096 0.176536
Si Si6 0.955102 0.568983 0.440247
Si Si7 0.194880 0.570708 0.328739
Si Si8 0.953555 0.429922 0.814916
O O1 0.500000 0.500000 0.500000
O O2 0.543122 0.250000 0.553011
O O3 0.624081 0.500501 0.557527
O O4 0.506567 0.482836 0.627487
O O5 0.773737 0.250000 0.838633
O O6 0.735558 0.532118 0.862270
O O7 0.773322 0.458697 0.743799
O O8 0.871905 0.470548 0.836130
O O9 0.185470 0.750000 0.562328
O O10 0.256352 0.512596 0.511154
O O11 0.127459 0.480749 0.554769
O O12 0.700222 0.250000 0.557094
O O13 0.747147 0.009194 0.619102
O O14 0.531782 0.250000 0.167171
O O15 0.485788 0.985701 0.129224
O O16 0.622484 0.023194 0.158250
O O17 0.522601 0.023256 0.250865
O O18 0.960436 0.750000 0.445014
O O19 0.000000 0.500000 0.500000
O O20 0.176323 0.750000 0.338375
O O21 0.959039 0.250000 0.798255
#
# Coordination Sequence:
#
# PCOD8252754 Si02
#       8
#     8   8   8   8   8   8   8   8
#     4  10  20  35  56  83 114 150 191 233 281 332
#     4   9  18  33  54  81 111 147 189 232 280 332
#     4  11  22  36  56  83 114 148 187 232 284 339
#     4   9  19  35  56  80 107 142 184 230 277 327
#     4  11  22  37  59  87 116 147 186 232 285 342
#     4  12  25  42  62  84 113 147 186 233 284 342
#     4   9  18  36  59  81 110 150 193 234 280 335
#     4   9  19  36  58  83 114 155 198 236 279 335
#
# _framework density 19.498241
#
# number of rings (size 3 to 8) (size 9 to 14) (size 15 to 20)
#    0.000    2.000    0.000    4.875    0.000    4.500 
#    0.000    4.375    0.000    0.000    0.000    0.000 
#    0.000    0.000    0.000    0.000    0.000    0.000 
#
# Total GULP energy -793831.064794 kJ/mol
# GULP energy per Si atom -12403.610387 kJ/mol
# Density = 1.945386 g / cm^3
# Si number density = 19.498241 Si / 1000 Ang^3
#
#
#
# Elastic Constant Matrix: (Units=GPa)
#
#
# Indices 1 2 3 4 5 6 
#
# 1 126.8845 41.4367 75.5720 0.0000 0.0000 0.0000
# 2 41.4367 88.1185 42.2895 0.0000 0.0000 0.0000
# 3 75.5720 42.2895 121.9804 0.0000 0.0000 0.0000
# 4 0.0000 0.0000 0.0000 30.8267 0.0000 0.0000
# 5 0.0000 0.0000 0.0000 0.0000 42.6491 0.0000
# 6 0.0000 0.0000 0.0000 0.0000 0.0000 29.4189
#
#
#
# Elastic Compliance Matrix: (Units=1/GPa)
#
#
# Indices 1 2 3 4 5 6 
#
# 1 0.013003 -0.002697 -0.007121 0.000000 0.000000 0.000000
# 2 -0.002697 0.014173 -0.003243 0.000000 0.000000 0.000000
# 3 -0.007121 -0.003243 0.013734 0.000000 0.000000 0.000000
# 4 0.000000 0.000000 0.000000 0.032439 0.000000 0.000000
# 5 0.000000 0.000000 0.000000 0.000000 0.023447 0.000000
# 6 0.000000 0.000000 0.000000 0.000000 0.000000 0.033992
#
#
# Mechanical properties :
#
#
# Convention : Reuss Voigt Hill
#
# Bulk Modulus (GPa) = 67.61969 72.84218 70.23093
# Shear Modulus (GPa) = 30.89487 32.42464 31.65975
#
# Velocity S-wave (km/s) = 3.98489 4.08235 4.03392
# Velocity P-wave (km/s) = 7.47848 7.72401 7.60223
#
# Compressibility (1/GPa) = 0.01478859
#
# Stress axis : x y z
#
# Youngs Moduli (GPa) = 76.90406 70.55761 72.81230
#
# Poissons Ratio (x) = 0.19030 0.51849
# Poissons Ratio (y) = 0.20742 0.23610
# Poissons Ratio (z) = 0.54763 0.22879
#
# Static dielectric constant tensor:
#      x y z
#    x 3.745940 0.000000 0.000000 
#    y 0.000000 2.940510 0.000000 
#    z 0.000000 0.000000 3.695110 
# 
# 
# High freq. dielectric constant tensor:
#      x y z
#    x 1.763990 0.000000 0.000000 
#    y 0.000000 1.743970 0.000000 
#    z 0.000000 0.000000 1.773600 
# 
# From -- ./inp_files/27715.got.cif
#   From: 2010.03.12/outbox.cif.g09.slc.cpg/sg62_14_cif.got.tgz:27715.got - 2010.04.10 19:12:36.
