data_PCOD8252497
_publ_section_title
;
Structure prediction by ZEFSAII (Michael W. Deem and Ramdas Pophale) SiO2 
 PCOD8252497
Probable space group: P N M A
;
_chemical_formula_sum "Si O2"
_cell_formula_units_Z 56
_cell_length_a 5.027055
_cell_length_b 16.393049
_cell_length_c 32.703369
_cell_angle_alpha 90.000000
_cell_angle_beta 90.000000
_cell_angle_gamma 90.000000
_cell_volume 2695.044052
_symmetry_space_group_name_H-M "P N M A"
_symmetry_group_IT_number 62
_symmetry_cell_setting 'orthorhombic'
loop_
_space_group_symop_operation_xyz
x,y,z
1/2-x,-y,1/2+z
1/2+x,1/2-y,1/2-z
-x,1/2+y,-z
-x,-y,-z
1/2+x,y,1/2-z
1/2-x,1/2+y,1/2+z
x,1/2-y,z
loop_
_atom_site_type_symbol
_atom_site_label
_atom_site_fract_x
_atom_site_fract_y
_atom_site_fract_z
Si Si1 0.781327 0.653001 0.226408
Si Si2 0.885059 0.400172 0.133705
Si Si3 0.383213 0.345271 0.862726
Si Si4 0.362527 0.342848 0.087213
Si Si5 0.750059 0.986167 0.971910
Si Si6 0.401641 0.072343 0.606696
Si Si7 0.141819 0.845660 0.776046
O O1 0.557257 0.617688 0.256846
O O2 0.776212 0.750000 0.227829
O O3 0.737132 0.623955 0.180247
O O4 0.124997 0.340175 0.120527
O O5 0.986242 0.491142 0.127183
O O6 0.813115 0.390128 0.181018
O O7 0.625064 0.383580 0.106312
O O8 0.444553 0.250000 0.864178
O O9 0.664487 0.389628 0.867018
O O10 0.156930 0.367202 0.896373
O O11 0.423200 0.250000 0.073394
O O12 0.265968 0.396006 0.048229
O O13 0.772898 0.055322 0.937322
O O14 0.500000 0.000000 0.000000
O O15 0.000000 0.000000 0.000000
O O16 0.865243 0.872579 0.756154
O O17 0.157809 0.750000 0.784947
#
# Coordination Sequence:
#
# PCOD8252497 Si02
#       7
#     8   8   8   8   8   8   8
#     4   9  17  31  52  78 109 148 196 251 303 345
#     4  11  22  39  61  87 124 163 206 256 300 356
#     4  11  22  39  61  87 120 158 209 260 302 363
#     4  11  22  39  66  95 119 155 208 253 291 349
#     4  11  23  43  66  89 123 158 187 234 304 369
#     4  11  23  41  63  87 117 160 203 245 311 377
#     4  10  20  34  54  83 121 162 201 245 301 359
#
# _framework density 20.778881999999999
#
# number of rings (size 3 to 8) (size 9 to 14) (size 15 to 20)
#    0.000    1.429    0.000    7.714    0.000    3.429 
#    0.000    8.571    0.000    0.000    0.000    0.000 
#    0.000    0.000    0.000    0.000    0.000    0.000 
#
# Total GULP energy -694400.347471 kJ/mol
# GULP energy per Si atom -12400.006205 kJ/mol
# Density = 2.073159 g / cm^3
# Si number density = 20.778882 Si / 1000 Ang^3
#
#
#
# Elastic Constant Matrix: (Units=GPa)
#
#
# Indices 1 2 3 4 5 6 
#
# 1 127.7460 30.3710 35.2683 0.0000 0.0000 0.0000
# 2 30.3710 78.9573 50.6597 0.0000 0.0000 0.0000
# 3 35.2683 50.6597 111.4422 0.0000 0.0000 0.0000
# 4 0.0000 0.0000 0.0000 18.0574 0.0000 0.0000
# 5 0.0000 0.0000 0.0000 0.0000 45.6842 0.0000
# 6 0.0000 0.0000 0.0000 0.0000 0.0000 30.5937
#
#
#
# Elastic Compliance Matrix: (Units=1/GPa)
#
#
# Indices 1 2 3 4 5 6 
#
# 1 0.008857 -0.002271 -0.001771 0.000000 0.000000 0.000000
# 2 -0.002271 0.018462 -0.007674 0.000000 0.000000 0.000000
# 3 -0.001771 -0.007674 0.013022 0.000000 0.000000 0.000000
# 4 0.000000 0.000000 0.000000 0.055379 0.000000 0.000000
# 5 0.000000 0.000000 0.000000 0.000000 0.021889 0.000000
# 6 0.000000 0.000000 0.000000 0.000000 0.000000 0.032686
#
#
# Mechanical properties :
#
#
# Convention : Reuss Voigt Hill
#
# Bulk Modulus (GPa) = 59.13550 61.19374 60.16462
# Shear Modulus (GPa) = 27.87637 32.32348 30.09992
#
# Velocity S-wave (km/s) = 3.66672 3.94838 3.81015
# Velocity P-wave (km/s) = 6.81525 7.09226 6.95514
#
# Compressibility (1/GPa) = 0.01691032
#
# Stress axis : x y z
#
# Youngs Moduli (GPa) = 112.90849 54.16473 76.79249
#
# Poissons Ratio (x) = 0.12299 0.13598
# Poissons Ratio (y) = 0.25638 0.58931
# Poissons Ratio (z) = 0.19993 0.41566
#
# Static dielectric constant tensor:
#      x y z
#    x 4.033970 0.000000 0.000000 
#    y 0.000000 3.661420 0.000000 
#    z 0.000000 0.000000 3.884240 
# 
# 
# High freq. dielectric constant tensor:
#      x y z
#    x 1.839610 0.000000 0.000000 
#    y 0.000000 1.799760 0.000000 
#    z 0.000000 0.000000 1.808550 
# 
# From -- ./inp_files/31613.got.cif
#   From: 2010.03.12/outbox.cif.g09.slc.cpg/sg62_16_cif.got.tgz:31613.got - 2010.04.10 19:12:36.
