data_PCOD8252898
_publ_section_title
;
Structure prediction by ZEFSAII (Michael W. Deem and Ramdas Pophale) SiO2 
 PCOD8252898
Probable space group: P N M A
;
_chemical_formula_sum "Si O2"
_cell_formula_units_Z 48
_cell_length_a 14.600907
_cell_length_b 21.708897
_cell_length_c 7.680727
_cell_angle_alpha 90.000000
_cell_angle_beta 90.000000
_cell_angle_gamma 90.000000
_cell_volume 2434.556859
_symmetry_space_group_name_H-M "P N M A"
_symmetry_group_IT_number 62
_symmetry_cell_setting 'orthorhombic'
loop_
_space_group_symop_operation_xyz
x,y,z
1/2-x,-y,1/2+z
1/2+x,1/2-y,1/2-z
-x,1/2+y,-z
-x,-y,-z
1/2+x,y,1/2-z
1/2-x,1/2+y,1/2+z
x,1/2-y,z
loop_
_atom_site_type_symbol
_atom_site_label
_atom_site_fract_x
_atom_site_fract_y
_atom_site_fract_z
Si Si1 0.347074 0.983999 0.400470
Si Si2 0.218021 0.320588 0.199796
Si Si3 0.837957 0.118867 0.995465
Si Si4 0.195570 0.883579 0.389203
Si Si5 0.036827 0.387407 0.102981
Si Si6 0.058355 0.547240 0.598215
O O1 0.254674 0.945668 0.399344
O O2 0.427854 0.938617 0.465649
O O3 0.338058 0.044417 0.522162
O O4 0.364416 0.011026 0.207885
O O5 0.223218 0.250000 0.257258
O O6 0.266860 0.359887 0.353818
O O7 0.112881 0.337812 0.158682
O O8 0.268854 0.330192 0.016384
O O9 0.807628 0.144078 0.806181
O O10 0.941849 0.143084 0.032197
O O11 0.097050 0.903401 0.461265
O O12 0.014115 0.419839 0.281127
O O13 0.000000 0.500000 0.500000
#
# Coordination Sequence:
#
# PCOD8252898 Si02
#       6
#     8   8   8   8   8   8
#     4  10  20  35  59  99 135 159 194 257 320 386
#     4  11  26  46  63  87 125 172 224 263 303 368
#     4  11  22  41  66  94 128 166 207 260 323 378
#     4  11  22  38  65  94 128 165 205 257 318 382
#     4  10  22  40  61  95 132 167 206 260 321 375
#     4  11  20  32  59  98 130 161 199 251 320 391
#
# _framework density 19.716114999999999
#
# number of rings (size 3 to 8) (size 9 to 14) (size 15 to 20)
#    0.000    1.333    3.333    5.000    7.000    1.333 
#    0.000    0.000    0.000    0.000    0.000    0.000 
#    0.000    0.000    0.000    0.000    0.000    0.000 
#
# Total GULP energy -594861.752516 kJ/mol
# GULP energy per Si atom -12392.953177 kJ/mol
# Density = 1.967124 g / cm^3
# Si number density = 19.716115 Si / 1000 Ang^3
#
#
#
# Elastic Constant Matrix: (Units=GPa)
#
#
# Indices 1 2 3 4 5 6 
#
# 1 93.3168 17.6858 36.4958 0.0000 0.0000 0.0000
# 2 17.6858 59.2859 20.0253 0.0000 0.0000 0.0000
# 3 36.4958 20.0253 132.6417 0.0000 0.0000 0.0000
# 4 0.0000 0.0000 0.0000 17.1764 0.0000 0.0000
# 5 0.0000 0.0000 0.0000 0.0000 5.7407 0.0000
# 6 0.0000 0.0000 0.0000 0.0000 0.0000 12.3260
#
#
#
# Elastic Compliance Matrix: (Units=1/GPa)
#
#
# Indices 1 2 3 4 5 6 
#
# 1 0.012401 -0.002684 -0.003007 0.000000 0.000000 0.000000
# 2 -0.002684 0.018355 -0.002033 0.000000 0.000000 0.000000
# 3 -0.003007 -0.002033 0.008673 0.000000 0.000000 0.000000
# 4 0.000000 0.000000 0.000000 0.058219 0.000000 0.000000
# 5 0.000000 0.000000 0.000000 0.000000 0.174196 0.000000
# 6 0.000000 0.000000 0.000000 0.000000 0.000000 0.081129
#
#
# Mechanical properties :
#
#
# Convention : Reuss Voigt Hill
#
# Bulk Modulus (GPa) = 41.69741 48.18424 44.94083
# Shear Modulus (GPa) = 13.28326 21.11778 17.20052
#
# Velocity S-wave (km/s) = 2.59844 3.27631 2.95686
# Velocity P-wave (km/s) = 5.49521 6.22931 5.87374
#
# Compressibility (1/GPa) = 0.02398230
#
# Stress axis : x y z
#
# Youngs Moduli (GPa) = 80.64011 54.48232 115.29629
#
# Poissons Ratio (x) = 0.14621 0.34668
# Poissons Ratio (y) = 0.21641 0.23436
# Poissons Ratio (z) = 0.24247 0.11074
#
# Static dielectric constant tensor:
#      x y z
#    x 3.691180 0.000000 0.000000 
#    y 0.000000 3.238870 0.000000 
#    z 0.000000 0.000000 3.703330 
# 
# 
# High freq. dielectric constant tensor:
#      x y z
#    x 1.779830 0.000000 0.000000 
#    y 0.000000 1.732110 0.000000 
#    z 0.000000 0.000000 1.780230 
# 
# From -- ./inp_files/6610.got.cif
#   From: 2010.03.12/outbox.cif.g09.slc.cpg/sg62_4_cif.got.tgz:6610.got - 2010.04.10 19:12:36.
