data_PCOD8252491
_publ_section_title
;
Structure prediction by ZEFSAII (Michael W. Deem and Ramdas Pophale) SiO2 
 PCOD8252491
Probable space group: P N M A
;
_chemical_formula_sum "Si O2"
_cell_formula_units_Z 64
_cell_length_a 18.860173
_cell_length_b 18.648908
_cell_length_c 10.003846
_cell_angle_alpha 90.000000
_cell_angle_beta 90.000000
_cell_angle_gamma 90.000000
_cell_volume 3518.569033
_symmetry_space_group_name_H-M "P N M A"
_symmetry_group_IT_number 62
_symmetry_cell_setting 'orthorhombic'
loop_
_space_group_symop_operation_xyz
x,y,z
1/2-x,-y,1/2+z
1/2+x,1/2-y,1/2-z
-x,1/2+y,-z
-x,-y,-z
1/2+x,y,1/2-z
1/2-x,1/2+y,1/2+z
x,1/2-y,z
loop_
_atom_site_type_symbol
_atom_site_label
_atom_site_fract_x
_atom_site_fract_y
_atom_site_fract_z
Si Si1 0.377155 0.831533 0.390169
Si Si2 0.976595 0.167424 0.758292
Si Si3 0.816215 0.572515 0.878847
Si Si4 0.367348 0.894608 0.901362
Si Si5 0.513849 0.916701 0.987035
Si Si6 0.333685 0.052279 0.995510
Si Si7 0.291852 0.669611 0.130762
Si Si8 0.160431 0.585188 0.193388
O O1 0.356051 0.750000 0.429066
O O2 0.460807 0.836915 0.365841
O O3 0.356702 0.885437 0.506700
O O4 0.337585 0.856921 0.256489
O O5 0.960674 0.250000 0.718818
O O6 0.997639 0.123164 0.627185
O O7 0.909640 0.131581 0.830881
O O8 0.828605 0.614208 0.740164
O O9 0.851805 0.494471 0.863507
O O10 0.732164 0.567326 0.907007
O O11 0.346959 0.968026 0.977833
O O12 0.453468 0.887173 0.884971
O O13 0.339370 0.831943 0.997249
O O14 0.596216 0.908689 0.940484
O O15 0.500000 0.000000 0.000000
O O16 0.318936 0.085974 0.850042
O O17 0.265511 0.750000 0.155046
O O18 0.223786 0.619904 0.110211
#
# Coordination Sequence:
#
# PCOD8252491 Si02
#       8
#     8   8   8   8   8   8   8   8
#     4  10  22  38  58  83 115 155 194 236 292 358
#     4  10  20  37  60  86 116 153 199 244 291 349
#     4  11  21  36  58  85 120 153 190 239 302 348
#     4  10  20  34  54  83 113 146 195 238 288 346
#     4   9  18  34  55  82 113 150 198 244 287 340
#     4   9  18  34  55  79 112 151 188 237 283 341
#     4  11  20  34  56  82 112 150 196 243 289 343
#     4  10  20  35  57  86 112 151 198 247 285 338
#
# _framework density 18.189212999999999
#
# number of rings (size 3 to 8) (size 9 to 14) (size 15 to 20)
#    0.000    2.000    3.750    1.125    0.000    1.000 
#    0.000    1.250    0.000    0.000    0.000    0.000 
#    0.000    0.000    0.000    0.000    0.000    0.000 
#
# Total GULP energy -793377.126470 kJ/mol
# GULP energy per Si atom -12396.517601 kJ/mol
# Density = 1.814781 g / cm^3
# Si number density = 18.189213 Si / 1000 Ang^3
#
#
#
# Elastic Constant Matrix: (Units=GPa)
#
#
# Indices 1 2 3 4 5 6 
#
# 1 125.8678 40.9847 51.4176 0.0000 0.0000 0.0000
# 2 40.9847 81.0144 45.0954 0.0000 0.0000 0.0000
# 3 51.4176 45.0954 100.2589 0.0000 0.0000 0.0000
# 4 0.0000 0.0000 0.0000 30.1909 0.0000 0.0000
# 5 0.0000 0.0000 0.0000 0.0000 27.2618 0.0000
# 6 0.0000 0.0000 0.0000 0.0000 0.0000 25.8672
#
#
#
# Elastic Compliance Matrix: (Units=1/GPa)
#
#
# Indices 1 2 3 4 5 6 
#
# 1 0.010610 -0.003120 -0.004038 0.000000 0.000000 0.000000
# 2 -0.003120 0.017383 -0.006219 0.000000 0.000000 0.000000
# 3 -0.004038 -0.006219 0.014842 0.000000 0.000000 0.000000
# 4 0.000000 0.000000 0.000000 0.033123 0.000000 0.000000
# 5 0.000000 0.000000 0.000000 0.000000 0.036681 0.000000
# 6 0.000000 0.000000 0.000000 0.000000 0.000000 0.038659
#
#
# Mechanical properties :
#
#
# Convention : Reuss Voigt Hill
#
# Bulk Modulus (GPa) = 62.18048 64.68183 63.43115
# Shear Modulus (GPa) = 27.26075 27.97352 27.61714
#
# Velocity S-wave (km/s) = 3.87555 3.92588 3.90080
# Velocity P-wave (km/s) = 7.36791 7.49585 7.43216
#
# Compressibility (1/GPa) = 0.01608222
#
# Stress axis : x y z
#
# Youngs Moduli (GPa) = 94.24745 57.52590 67.37480
#
# Poissons Ratio (x) = 0.17948 0.27207
# Poissons Ratio (y) = 0.29404 0.41899
# Poissons Ratio (z) = 0.38059 0.35775
#
# Static dielectric constant tensor:
#      x y z
#    x 3.510030 0.000000 0.000000 
#    y 0.000000 3.334200 0.000000 
#    z 0.000000 0.000000 3.092160 
# 
# 
# High freq. dielectric constant tensor:
#      x y z
#    x 1.719220 0.000000 0.000000 
#    y 0.000000 1.701220 0.000000 
#    z 0.000000 0.000000 1.674400 
# 
# From -- ./inp_files/8916.got.cif
#   From: 2010.03.12/outbox.cif.g09.slc.cpg/sg62_5_cif.got.tgz:8916.got - 2010.04.10 19:12:36.
