data_PCOD8252413
_publ_section_title
;
Structure prediction by ZEFSAII (Michael W. Deem and Ramdas Pophale) SiO2 
 PCOD8252413
Probable space group: P N M A
;
_chemical_formula_sum "Si O2"
_cell_formula_units_Z 48
_cell_length_a 18.337142
_cell_length_b 8.850356
_cell_length_c 16.221602
_cell_angle_alpha 90.000000
_cell_angle_beta 90.000000
_cell_angle_gamma 90.000000
_cell_volume 2632.607596
_symmetry_space_group_name_H-M "P N M A"
_symmetry_group_IT_number 62
_symmetry_cell_setting 'orthorhombic'
loop_
_space_group_symop_operation_xyz
x,y,z
1/2-x,-y,1/2+z
1/2+x,1/2-y,1/2-z
-x,1/2+y,-z
-x,-y,-z
1/2+x,y,1/2-z
1/2-x,1/2+y,1/2+z
x,1/2-y,z
loop_
_atom_site_type_symbol
_atom_site_label
_atom_site_fract_x
_atom_site_fract_y
_atom_site_fract_z
Si Si1 0.203018 0.081212 0.413473
Si Si2 0.210655 0.583361 0.082773
Si Si3 0.077137 0.928785 0.981304
Si Si4 0.333093 0.075588 0.167444
Si Si5 0.665973 0.071643 0.664743
Si Si6 0.921425 0.426848 0.496862
O O1 0.187547 0.250000 0.379524
O O2 0.247345 0.090128 0.497172
O O3 0.251731 0.989935 0.347832
O O4 0.126718 0.996674 0.429273
O O5 0.211871 0.750000 0.124112
O O6 0.128284 0.533280 0.060543
O O7 0.249457 0.465269 0.143512
O O8 0.071386 0.750000 0.967955
O O9 0.108800 0.000842 0.898493
O O10 0.000000 0.000000 0.000000
O O11 0.335931 0.250000 0.192408
O O12 0.386189 0.037149 0.091738
O O13 0.359718 0.974917 0.243867
O O14 0.665509 0.250000 0.653755
O O15 0.927449 0.250000 0.512570
O O16 0.000000 0.500000 0.500000
#
# Coordination Sequence:
#
# PCOD8252413 Si02
#       6
#     8   8   8   8   8   8
#     4   9  17  32  53  75 101 132 169 211 253 303
#     4   8  16  31  51  74  99 130 167 206 249 301
#     4  10  20  35  55  79 108 140 175 214 259 313
#     4  10  20  34  53  77 104 135 173 217 262 308
#     4  11  21  34  54  78 105 137 174 217 263 310
#     4  10  20  34  54  79 107 140 177 215 260 315
#
# _framework density 18.232872
#
# number of rings (size 3 to 8) (size 9 to 14) (size 15 to 20)
#    0.000    2.333    0.000    4.500    0.000    6.667 
#    0.000    1.667    0.000    8.000    0.000    0.000 
#    0.000    0.000    0.000    0.000    0.000    0.000 
#
# Total GULP energy -595146.323964 kJ/mol
# GULP energy per Si atom -12398.881749 kJ/mol
# Density = 1.819137 g / cm^3
# Si number density = 18.232872 Si / 1000 Ang^3
#
#
#
# Elastic Constant Matrix: (Units=GPa)
#
#
# Indices 1 2 3 4 5 6 
#
# 1 140.3651 64.9080 37.1226 0.0000 0.0000 0.0000
# 2 64.9080 136.8870 48.3610 0.0000 0.0000 0.0000
# 3 37.1226 48.3610 68.5765 0.0000 0.0000 0.0000
# 4 0.0000 0.0000 0.0000 29.9138 0.0000 0.0000
# 5 0.0000 0.0000 0.0000 0.0000 17.2777 0.0000
# 6 0.0000 0.0000 0.0000 0.0000 0.0000 35.0070
#
#
#
# Elastic Compliance Matrix: (Units=1/GPa)
#
#
# Indices 1 2 3 4 5 6 
#
# 1 0.009463 -0.003566 -0.002608 0.000000 0.000000 0.000000
# 2 -0.003566 0.011073 -0.005879 0.000000 0.000000 0.000000
# 3 -0.002608 -0.005879 0.020140 0.000000 0.000000 0.000000
# 4 0.000000 0.000000 0.000000 0.033429 0.000000 0.000000
# 5 0.000000 0.000000 0.000000 0.000000 0.057878 0.000000
# 6 0.000000 0.000000 0.000000 0.000000 0.000000 0.028566
#
#
# Mechanical properties :
#
#
# Convention : Reuss Voigt Hill
#
# Bulk Modulus (GPa) = 60.34627 71.84577 66.09602
# Shear Modulus (GPa) = 26.29135 29.46882 27.88009
#
# Velocity S-wave (km/s) = 3.80145 4.02462 3.91463
# Velocity P-wave (km/s) = 7.24137 7.81581 7.53406
#
# Compressibility (1/GPa) = 0.01657103
#
# Stress axis : x y z
#
# Youngs Moduli (GPa) = 105.67633 90.31097 49.65323
#
# Poissons Ratio (x) = 0.32202 0.12950
# Poissons Ratio (y) = 0.37680 0.29189
# Poissons Ratio (z) = 0.27561 0.53090
#
# Static dielectric constant tensor:
#      x y z
#    x 3.457330 0.000000 0.000000 
#    y 0.000000 3.583750 0.000000 
#    z 0.000000 0.000000 3.225670 
# 
# 
# High freq. dielectric constant tensor:
#      x y z
#    x 1.698760 0.000000 0.000000 
#    y 0.000000 1.722490 0.000000 
#    z 0.000000 0.000000 1.685330 
# 
# From -- ./inp_files/19562.got.cif
#   From: 2010.03.12/outbox.cif.g09.slc.cpg/sg62_10_cif.got.tgz:19562.got - 2010.04.10 19:12:36.
