data_PCOD8252695
_publ_section_title
;
Structure prediction by ZEFSAII (Michael W. Deem and Ramdas Pophale) SiO2 
 PCOD8252695
Probable space group: P N M A
;
_chemical_formula_sum "Si O2"
_cell_formula_units_Z 56
_cell_length_a 23.246330
_cell_length_b 8.846267
_cell_length_c 13.907120
_cell_angle_alpha 90.000000
_cell_angle_beta 90.000000
_cell_angle_gamma 90.000000
_cell_volume 2859.905243
_symmetry_space_group_name_H-M "P N M A"
_symmetry_group_IT_number 62
_symmetry_cell_setting 'orthorhombic'
loop_
_space_group_symop_operation_xyz
x,y,z
1/2-x,-y,1/2+z
1/2+x,1/2-y,1/2-z
-x,1/2+y,-z
-x,-y,-z
1/2+x,y,1/2-z
1/2-x,1/2+y,1/2+z
x,1/2-y,z
loop_
_atom_site_type_symbol
_atom_site_label
_atom_site_fract_x
_atom_site_fract_y
_atom_site_fract_z
Si Si1 0.622257 0.425164 0.306474
Si Si2 0.526760 0.924109 0.408304
Si Si3 0.336489 0.072003 0.181171
Si Si4 0.230848 0.427179 0.299179
Si Si5 0.045238 0.078211 0.717270
Si Si6 0.337241 0.930020 0.983220
Si Si7 0.431486 0.073939 0.875009
O O1 0.614182 0.250000 0.329656
O O2 0.591956 0.516376 0.392631
O O3 0.689186 0.469677 0.291096
O O4 0.592245 0.464764 0.206783
O O5 0.531490 0.750000 0.430287
O O6 0.487909 0.959506 0.315689
O O7 0.500000 0.000000 0.500000
O O8 0.330375 0.250000 0.162735
O O9 0.294870 0.019135 0.269506
O O10 0.401680 0.034444 0.208659
O O11 0.314993 0.982973 0.086838
O O12 0.229544 0.250000 0.314592
O O13 0.207329 0.492668 0.401242
O O14 0.068504 0.250000 0.717918
O O15 0.001015 0.056081 0.627205
O O16 0.344952 0.750000 0.980781
O O17 0.400185 0.011078 0.970718
O O18 0.415750 0.250000 0.856076
#
# Coordination Sequence:
#
# PCOD8252695 Si02
#       7
#     8   8   8   8   8   8   8
#     4   9  16  31  55  78 105 141 180 225 278 327
#     4  10  20  35  55  81 113 146 188 234 280 336
#     4  11  22  37  57  82 113 147 187 232 277 332
#     4   8  18  37  57  77 107 144 183 229 277 328
#     4   9  20  37  54  78 113 147 179 226 281 331
#     4  10  20  37  59  81 108 144 186 230 283 337
#     4   9  17  32  55  81 109 138 178 223 267 330
#
# _framework density 19.581068999999999
#
# number of rings (size 3 to 8) (size 9 to 14) (size 15 to 20)
#    0.000    2.571    0.000    3.857    0.000    4.000 
#    2.571    8.571    0.000    0.000    0.000    0.000 
#    0.000    0.000    0.000    0.000    0.000    0.000 
#
# Total GULP energy -693907.827169 kJ/mol
# GULP energy per Si atom -12391.211199 kJ/mol
# Density = 1.953650 g / cm^3
# Si number density = 19.581069 Si / 1000 Ang^3
#
#
#
# Elastic Constant Matrix: (Units=GPa)
#
#
# Indices 1 2 3 4 5 6 
#
# 1 103.2778 39.5668 29.2739 0.0000 0.0000 0.0000
# 2 39.5668 74.1763 30.0735 0.0000 0.0000 0.0000
# 3 29.2739 30.0735 60.1563 0.0000 0.0000 0.0000
# 4 0.0000 0.0000 0.0000 30.5351 0.0000 0.0000
# 5 0.0000 0.0000 0.0000 0.0000 25.8512 0.0000
# 6 0.0000 0.0000 0.0000 0.0000 0.0000 25.8881
#
#
#
# Elastic Compliance Matrix: (Units=1/GPa)
#
#
# Indices 1 2 3 4 5 6 
#
# 1 0.012735 -0.005369 -0.003513 0.000000 0.000000 0.000000
# 2 -0.005369 0.019172 -0.006972 0.000000 0.000000 0.000000
# 3 -0.003513 -0.006972 0.021818 0.000000 0.000000 0.000000
# 4 0.000000 0.000000 0.000000 0.032749 0.000000 0.000000
# 5 0.000000 0.000000 0.000000 0.000000 0.038683 0.000000
# 6 0.000000 0.000000 0.000000 0.000000 0.000000 0.038628
#
#
# Mechanical properties :
#
#
# Convention : Reuss Voigt Hill
#
# Bulk Modulus (GPa) = 45.41827 48.38208 46.90017
# Shear Modulus (GPa) = 24.65087 25.70131 25.17609
#
# Velocity S-wave (km/s) = 3.55197 3.62686 3.58961
# Velocity P-wave (km/s) = 6.32987 6.50392 6.41749
#
# Compressibility (1/GPa) = 0.02201757
#
# Stress axis : x y z
#
# Youngs Moduli (GPa) = 78.52183 52.15998 45.83274
#
# Poissons Ratio (x) = 0.28003 0.16103
# Poissons Ratio (y) = 0.42156 0.31954
# Poissons Ratio (z) = 0.27588 0.36365
#
# Static dielectric constant tensor:
#      x y z
#    x 3.895940 0.000000 0.000000 
#    y 0.000000 3.524710 0.000000 
#    z 0.000000 0.000000 3.469910 
# 
# 
# High freq. dielectric constant tensor:
#      x y z
#    x 1.759230 0.000000 0.000000 
#    y 0.000000 1.759350 0.000000 
#    z 0.000000 0.000000 1.746310 
# 
# From -- ./inp_files/20438.got.cif
#   From: 2010.03.12/outbox.cif.g09.slc.cpg/sg62_11_cif.got.tgz:20438.got - 2010.04.10 19:12:36.
