data_PCOD8252765
_publ_section_title
;
Structure prediction by ZEFSAII (Michael W. Deem and Ramdas Pophale) SiO2 
 PCOD8252765
Probable space group: P N M A
;
_chemical_formula_sum "Si O2"
_cell_formula_units_Z 40
_cell_length_a 7.788033
_cell_length_b 8.684441
_cell_length_c 29.101383
_cell_angle_alpha 90.000000
_cell_angle_beta 90.000000
_cell_angle_gamma 90.000000
_cell_volume 1968.263690
_symmetry_space_group_name_H-M "P N M A"
_symmetry_group_IT_number 62
_symmetry_cell_setting 'orthorhombic'
loop_
_space_group_symop_operation_xyz
x,y,z
1/2-x,-y,1/2+z
1/2+x,1/2-y,1/2-z
-x,1/2+y,-z
-x,-y,-z
1/2+x,y,1/2-z
1/2-x,1/2+y,1/2+z
x,1/2-y,z
loop_
_atom_site_type_symbol
_atom_site_label
_atom_site_fract_x
_atom_site_fract_y
_atom_site_fract_z
Si Si1 0.526048 0.932585 0.950078
Si Si2 0.648367 0.576847 0.710514
Si Si3 0.309466 0.423349 0.705989
Si Si4 0.835527 0.429969 0.896595
Si Si5 0.291087 0.426213 0.390034
O O1 0.524800 0.750000 0.951487
O O2 0.369248 0.995512 0.918407
O O3 0.711363 0.986275 0.932214
O O4 0.500000 0.000000 0.000000
O O5 0.569587 0.750000 0.712317
O O6 0.513380 0.439322 0.706988
O O7 0.748871 0.549605 0.757551
O O8 0.761458 0.560552 0.664071
O O9 0.255826 0.250000 0.719756
O O10 0.254070 0.463168 0.653956
O O11 0.837050 0.250000 0.907289
O O12 0.030808 0.488284 0.901582
O O13 0.321542 0.250000 0.404093
#
# Coordination Sequence:
#
# PCOD8252765 Si02
#       5
#     8   8   8   8   8
#     4  11  24  42  65  92 121 156 204 255 308 365
#     4  10  20  35  56  84 115 155 201 243 292 353
#     4  10  21  36  54  84 120 157 196 242 298 356
#     4  10  22  40  62  89 122 160 200 247 305 363
#     4   9  21  41  62  87 119 158 202 250 300 356
#
# _framework density 20.322481
#
# number of rings (size 3 to 8) (size 9 to 14) (size 15 to 20)
#    0.000    2.000    0.000    2.400    2.800    5.600 
#    0.000    0.000    0.000    0.000    0.000    0.000 
#    0.000    0.000    0.000    0.000    0.000    0.000 
#
# Total GULP energy -495734.708608 kJ/mol
# GULP energy per Si atom -12393.367715 kJ/mol
# Density = 2.027623 g / cm^3
# Si number density = 20.322481 Si / 1000 Ang^3
#
#
#
# Elastic Constant Matrix: (Units=GPa)
#
#
# Indices 1 2 3 4 5 6 
#
# 1 64.8409 21.7818 21.7511 0.0000 0.0000 0.0000
# 2 21.7818 70.5131 33.3257 0.0000 0.0000 0.0000
# 3 21.7511 33.3257 88.0110 0.0000 0.0000 0.0000
# 4 0.0000 0.0000 0.0000 32.3269 0.0000 0.0000
# 5 0.0000 0.0000 0.0000 0.0000 36.8493 0.0000
# 6 0.0000 0.0000 0.0000 0.0000 0.0000 28.5295
#
#
#
# Elastic Compliance Matrix: (Units=1/GPa)
#
#
# Indices 1 2 3 4 5 6 
#
# 1 0.017763 -0.004156 -0.002816 0.000000 0.000000 0.000000
# 2 -0.004156 0.018245 -0.005881 0.000000 0.000000 0.000000
# 3 -0.002816 -0.005881 0.014285 0.000000 0.000000 0.000000
# 4 0.000000 0.000000 0.000000 0.030934 0.000000 0.000000
# 5 0.000000 0.000000 0.000000 0.000000 0.027138 0.000000
# 6 0.000000 0.000000 0.000000 0.000000 0.000000 0.035051
#
#
# Mechanical properties :
#
#
# Convention : Reuss Voigt Hill
#
# Bulk Modulus (GPa) = 40.67356 41.89804 41.28580
# Shear Modulus (GPa) = 28.19762 29.30824 28.75293
#
# Velocity S-wave (km/s) = 3.72897 3.80170 3.76551
# Velocity P-wave (km/s) = 6.21271 6.31917 6.26617
#
# Compressibility (1/GPa) = 0.02458600
#
# Stress axis : x y z
#
# Youngs Moduli (GPa) = 56.29602 54.80867 70.00209
#
# Poissons Ratio (x) = 0.22779 0.19715
# Poissons Ratio (y) = 0.23397 0.41172
# Poissons Ratio (z) = 0.15855 0.32236
#
# Static dielectric constant tensor:
#      x y z
#    x 3.646020 0.000000 0.000000 
#    y 0.000000 3.608770 0.000000 
#    z 0.000000 0.000000 3.961690 
# 
# 
# High freq. dielectric constant tensor:
#      x y z
#    x 1.781410 0.000000 0.000000 
#    y 0.000000 1.799420 0.000000 
#    z 0.000000 0.000000 1.800220 
# 
# From -- ./inp_files/30673.got.cif
#   From: 2010.03.12/outbox.cif.g09.slc.cpg/sg62_16_cif.got.tgz:30673.got - 2010.04.10 19:12:36.
