data_PCOD8252097
_publ_section_title
;
Structure prediction by ZEFSAII (Michael W. Deem and Ramdas Pophale) SiO2 
 PCOD8252097
Probable space group: P N M A
;
_chemical_formula_sum "Si O2"
_cell_formula_units_Z 64
_cell_length_a 9.655702
_cell_length_b 17.888684
_cell_length_c 19.036742
_cell_angle_alpha 90.000000
_cell_angle_beta 90.000000
_cell_angle_gamma 90.000000
_cell_volume 3288.174601
_symmetry_space_group_name_H-M "P N M A"
_symmetry_group_IT_number 62
_symmetry_cell_setting 'orthorhombic'
loop_
_space_group_symop_operation_xyz
x,y,z
1/2-x,-y,1/2+z
1/2+x,1/2-y,1/2-z
-x,1/2+y,-z
-x,-y,-z
1/2+x,y,1/2-z
1/2-x,1/2+y,1/2+z
x,1/2-y,z
loop_
_atom_site_type_symbol
_atom_site_label
_atom_site_fract_x
_atom_site_fract_y
_atom_site_fract_z
Si Si1 0.878411 0.664526 0.967705
Si Si2 0.369517 0.089318 0.960011
Si Si3 0.764005 0.661100 0.309768
Si Si4 0.865880 0.915233 0.550932
Si Si5 0.311368 0.838963 0.808988
Si Si6 0.154887 0.835304 0.041447
Si Si7 0.002432 0.161553 0.179965
Si Si8 0.576205 0.838589 0.184131
O O1 0.826805 0.750000 0.958470
O O2 0.943116 0.633142 0.895296
O O3 0.752325 0.611266 0.987205
O O4 0.990485 0.659994 0.030279
O O5 0.359737 0.138071 0.889937
O O6 0.357876 0.003480 0.938619
O O7 0.512031 0.108195 0.998713
O O8 0.764984 0.750000 0.306407
O O9 0.692328 0.633632 0.381656
O O10 0.674172 0.628391 0.245416
O O11 0.920535 0.629453 0.305950
O O12 0.890205 0.876731 0.625881
O O13 0.723864 0.885525 0.518221
O O14 0.318983 0.750000 0.817852
O O15 0.391791 0.866542 0.739595
O O16 0.152856 0.868290 0.805003
O O17 0.207222 0.750000 0.032141
O O18 0.995676 0.250000 0.178998
O O19 0.573277 0.750000 0.187752
#
# Coordination Sequence:
#
# PCOD8252097 Si02
#       8
#     8   8   8   8   8   8   8   8
#     4  10  21  37  61  90 117 144 190 244 291 341
#     4  11  25  39  56  84 119 155 198 242 281 338
#     4   9  19  33  57  86 112 144 186 236 289 340
#     4  11  23  41  58  80 118 158 198 236 282 343
#     4  10  20  37  61  85 114 150 192 240 291 344
#     4  10  19  37  63  87 112 148 189 235 292 347
#     4   9  19  35  57  89 117 143 186 238 288 346
#     4  10  20  37  58  83 113 147 191 238 288 341
#
# _framework density 19.463687
#
# number of rings (size 3 to 8) (size 9 to 14) (size 15 to 20)
#    0.000    2.000    2.500    0.750    3.500    2.000 
#    0.000    2.500    0.000    0.000    0.000    0.000 
#    0.000    0.000    0.000    0.000    0.000    0.000 
#
# Total GULP energy -793774.334511 kJ/mol
# GULP energy per Si atom -12402.723977 kJ/mol
# Density = 1.941939 g / cm^3
# Si number density = 19.463687 Si / 1000 Ang^3
#
#
#
# Elastic Constant Matrix: (Units=GPa)
#
#
# Indices 1 2 3 4 5 6 
#
# 1 76.3699 32.1897 43.6055 0.0000 0.0000 0.0000
# 2 32.1897 24.8707 23.9585 0.0000 0.0000 0.0000
# 3 43.6055 23.9585 131.2110 0.0000 0.0000 0.0000
# 4 0.0000 0.0000 0.0000 12.0062 0.0000 0.0000
# 5 0.0000 0.0000 0.0000 0.0000 38.6680 0.0000
# 6 0.0000 0.0000 0.0000 0.0000 0.0000 17.3917
#
#
#
# Elastic Compliance Matrix: (Units=1/GPa)
#
#
# Indices 1 2 3 4 5 6 
#
# 1 0.030084 -0.035562 -0.003505 0.000000 0.000000 0.000000
# 2 -0.035562 0.090826 -0.004766 0.000000 0.000000 0.000000
# 3 -0.003505 -0.004766 0.009656 0.000000 0.000000 0.000000
# 4 0.000000 0.000000 0.000000 0.083290 0.000000 0.000000
# 5 0.000000 0.000000 0.000000 0.000000 0.025861 0.000000
# 6 0.000000 0.000000 0.000000 0.000000 0.000000 0.057499
#
#
# Mechanical properties :
#
#
# Convention : Reuss Voigt Hill
#
# Bulk Modulus (GPa) = 23.30895 47.99545 35.65220
# Shear Modulus (GPa) = 12.52562 22.45972 17.49267
#
# Velocity S-wave (km/s) = 2.53956 3.40064 3.00114
# Velocity P-wave (km/s) = 4.53880 6.33495 5.51055
#
# Compressibility (1/GPa) = 0.04290198
#
# Stress axis : x y z
#
# Youngs Moduli (GPa) = 33.23994 11.01005 103.55958
#
# Poissons Ratio (x) = 0.39153 0.36293
# Poissons Ratio (y) = 1.18206 0.49359
# Poissons Ratio (z) = 0.11649 0.05248
#
# Static dielectric constant tensor:
#      x y z
#    x 3.676450 0.000000 0.000000 
#    y 0.000000 3.127160 0.000000 
#    z 0.000000 0.000000 3.695850 
# 
# 
# High freq. dielectric constant tensor:
#      x y z
#    x 1.766220 0.000000 0.000000 
#    y 0.000000 1.716330 0.000000 
#    z 0.000000 0.000000 1.770170 
# 
# From -- ./inp_files/22570.got.cif
#   From: 2010.03.12/outbox.cif.g09.slc.cpg/sg62_12_cif.got.tgz:22570.got - 2010.04.10 19:12:36.
