data_PCOD8252351
_publ_section_title
;
Structure prediction by ZEFSAII (Michael W. Deem and Ramdas Pophale) SiO2 
 PCOD8252351
Probable space group: P N M A
;
_chemical_formula_sum "Si O2"
_cell_formula_units_Z 52
_cell_length_a 12.670971
_cell_length_b 7.509617
_cell_length_c 27.833716
_cell_angle_alpha 90.000000
_cell_angle_beta 90.000000
_cell_angle_gamma 90.000000
_cell_volume 2648.493287
_symmetry_space_group_name_H-M "P N M A"
_symmetry_group_IT_number 62
_symmetry_cell_setting 'orthorhombic'
loop_
_space_group_symop_operation_xyz
x,y,z
1/2-x,-y,1/2+z
1/2+x,1/2-y,1/2-z
-x,1/2+y,-z
-x,-y,-z
1/2+x,y,1/2-z
1/2-x,1/2+y,1/2+z
x,1/2-y,z
loop_
_atom_site_type_symbol
_atom_site_label
_atom_site_fract_x
_atom_site_fract_y
_atom_site_fract_z
Si Si1 0.334824 0.250000 0.164756
Si Si2 0.049249 0.962380 0.109700
Si Si3 0.394269 0.750000 0.685807
Si Si4 0.942664 0.750000 0.704427
Si Si5 0.879745 0.040207 0.631397
Si Si6 0.895089 0.951813 0.404122
Si Si7 0.215495 0.953694 0.028362
Si Si8 0.676842 0.051808 0.576812
O O1 0.229980 0.250000 0.195615
O O2 0.432489 0.250000 0.199810
O O3 0.333516 0.426539 0.132907
O O4 0.052669 0.750000 0.119812
O O5 0.136250 0.017974 0.070177
O O6 0.935797 0.033215 0.090205
O O7 0.070592 0.070620 0.158349
O O8 0.437602 0.750000 0.738945
O O9 0.893042 0.572452 0.680290
O O10 0.872511 0.250000 0.644260
O O11 0.776885 0.962633 0.603812
O O12 0.979817 0.004125 0.595671
O O13 0.875159 0.750000 0.387252
O O14 0.837997 0.983192 0.455627
O O15 0.192229 0.750000 0.015800
O O16 0.194293 0.061299 0.980169
O O17 0.673470 0.250000 0.596798
#
# Coordination Sequence:
#
# PCOD8252351 Si02
#       8
#     4   8   4   4   8   8   8   8
#     4  10  20  38  60  84 114 152 188 244 299 336
#     4  10  23  40  55  84 123 153 198 249 288 353
#     4  12  24  38  68  88 110 160 199 250 304 347
#     4  10  24  40  62  92 114 148 203 252 305 353
#     4   9  20  40  59  81 119 157 191 246 303 350
#     4   9  18  35  57  81 114 152 194 239 279 342
#     4  10  20  33  55  85 117 160 201 235 292 348
#     4  10  22  36  57  85 121 165 193 234 300 358
#
# _framework density 19.633804000000001
#
# number of rings (size 3 to 8) (size 9 to 14) (size 15 to 20)
#    0.000    2.154    1.538    0.462    4.308    2.462 
#    0.000    0.000    0.000    0.000    0.000    0.000 
#    0.000    0.000    0.000    0.000    0.000    0.000 
#
# Total GULP energy -644473.931802 kJ/mol
# GULP energy per Si atom -12393.729458 kJ/mol
# Density = 1.958912 g / cm^3
# Si number density = 19.633804 Si / 1000 Ang^3
#
#
#
# Elastic Constant Matrix: (Units=GPa)
#
#
# Indices 1 2 3 4 5 6 
#
# 1 116.0420 30.7421 58.4606 0.0000 0.0000 0.0000
# 2 30.7421 73.3423 38.6035 0.0000 0.0000 0.0000
# 3 58.4606 38.6035 133.2863 0.0000 0.0000 0.0000
# 4 0.0000 0.0000 0.0000 24.7366 0.0000 0.0000
# 5 0.0000 0.0000 0.0000 0.0000 24.7836 0.0000
# 6 0.0000 0.0000 0.0000 0.0000 0.0000 16.4138
#
#
#
# Elastic Compliance Matrix: (Units=1/GPa)
#
#
# Indices 1 2 3 4 5 6 
#
# 1 0.011450 -0.002544 -0.004286 0.000000 0.000000 0.000000
# 2 -0.002544 0.016652 -0.003707 0.000000 0.000000 0.000000
# 3 -0.004286 -0.003707 0.010456 0.000000 0.000000 0.000000
# 4 0.000000 0.000000 0.000000 0.040426 0.000000 0.000000
# 5 0.000000 0.000000 0.000000 0.000000 0.040349 0.000000
# 6 0.000000 0.000000 0.000000 0.000000 0.000000 0.060924
#
#
# Mechanical properties :
#
#
# Convention : Reuss Voigt Hill
#
# Bulk Modulus (GPa) = 57.19002 64.25365 60.72183
# Shear Modulus (GPa) = 24.13596 26.17778 25.15687
#
# Velocity S-wave (km/s) = 3.50995 3.65540 3.58341
# Velocity P-wave (km/s) = 6.75410 7.11428 6.93653
#
# Compressibility (1/GPa) = 0.01748557
#
# Stress axis : x y z
#
# Youngs Moduli (GPa) = 87.33253 60.05195 95.63876
#
# Poissons Ratio (x) = 0.15277 0.40986
# Poissons Ratio (y) = 0.22217 0.35455
# Poissons Ratio (z) = 0.37426 0.22262
#
# Static dielectric constant tensor:
#      x y z
#    x 3.987550 0.000000 0.000000 
#    y 0.000000 3.512020 0.000000 
#    z 0.000000 0.000000 3.157510 
# 
# 
# High freq. dielectric constant tensor:
#      x y z
#    x 1.784990 0.000000 0.000000 
#    y 0.000000 1.771370 0.000000 
#    z 0.000000 0.000000 1.729020 
# 
# From -- ./inp_files/32386.got.cif
#   From: 2010.03.12/outbox.cif.g09.slc.cpg/sg62_17_cif.got.tgz:32386.got - 2010.04.10 19:12:36.
