data_PCOD8252124
_publ_section_title
;
Structure prediction by ZEFSAII (Michael W. Deem and Ramdas Pophale) SiO2 
 PCOD8252124
Probable space group: P N M A
;
_chemical_formula_sum "Si O2"
_cell_formula_units_Z 64
_cell_length_a 15.293130
_cell_length_b 8.760912
_cell_length_c 24.352294
_cell_angle_alpha 90.000000
_cell_angle_beta 90.000000
_cell_angle_gamma 90.000000
_cell_volume 3262.763360
_symmetry_space_group_name_H-M "P N M A"
_symmetry_group_IT_number 62
_symmetry_cell_setting 'orthorhombic'
loop_
_space_group_symop_operation_xyz
x,y,z
1/2-x,-y,1/2+z
1/2+x,1/2-y,1/2-z
-x,1/2+y,-z
-x,-y,-z
1/2+x,y,1/2-z
1/2-x,1/2+y,1/2+z
x,1/2-y,z
loop_
_atom_site_type_symbol
_atom_site_label
_atom_site_fract_x
_atom_site_fract_y
_atom_site_fract_z
Si Si1 0.750502 0.931491 0.430713
Si Si2 0.081260 0.569335 0.763634
Si Si3 0.905670 0.569432 0.507749
Si Si4 0.267202 0.930624 0.194094
Si Si5 0.594996 0.932381 0.507781
Si Si6 0.353312 0.921333 0.872145
Si Si7 0.850240 0.079381 0.124266
Si Si8 0.599110 0.572196 0.235667
O O1 0.751131 0.750000 0.432604
O O2 0.836482 0.993409 0.462762
O O3 0.752114 0.991093 0.368054
O O4 0.662158 0.990964 0.460765
O O5 0.094927 0.750000 0.762280
O O6 0.142679 0.499603 0.716503
O O7 0.106075 0.497834 0.823166
O O8 0.981064 0.527295 0.756294
O O9 0.911264 0.750000 0.503412
O O10 0.873963 0.517213 0.567509
O O11 0.000000 0.500000 0.500000
O O12 0.277036 0.750000 0.194719
O O13 0.185281 0.982473 0.231428
O O14 0.592364 0.750000 0.507012
O O15 0.628133 0.999838 0.566247
O O16 0.500000 0.000000 0.500000
O O17 0.391384 0.750000 0.862880
O O18 0.251105 0.918847 0.863906
O O19 0.392792 0.039724 0.828916
O O20 0.887989 0.250000 0.120447
O O21 0.580540 0.750000 0.245315
#
# Coordination Sequence:
#
# PCOD8252124 Si02
#       8
#     8   8   8   8   8   8   8   8
#     4   9  19  38  60  80 113 155 186 224 285 346
#     4  11  23  39  61  86 115 153 194 241 290 343
#     4  10  21  37  60  86 113 149 191 236 286 343
#     4  10  22  40  59  84 118 154 193 237 289 347
#     4  10  20  37  60  86 114 150 191 231 281 339
#     4  10  19  38  63  84 110 148 198 245 286 341
#     4   9  18  36  61  84 110 146 191 239 286 335
#     4  11  24  39  58  86 120 155 192 239 290 347
#
# _framework density 19.615273999999999
#
# number of rings (size 3 to 8) (size 9 to 14) (size 15 to 20)
#    0.000    2.000    2.500    0.750    3.500    1.000 
#    0.000    2.500    0.000    0.000    0.000    0.000 
#    0.000    0.000    0.000    0.000    0.000    0.000 
#
# Total GULP energy -793469.337144 kJ/mol
# GULP energy per Si atom -12397.958393 kJ/mol
# Density = 1.957063 g / cm^3
# Si number density = 19.615274 Si / 1000 Ang^3
#
#
#
# Elastic Constant Matrix: (Units=GPa)
#
#
# Indices 1 2 3 4 5 6 
#
# 1 101.0634 23.1548 30.6404 0.0000 0.0000 0.0000
# 2 23.1548 24.4122 29.6964 0.0000 0.0000 0.0000
# 3 30.6404 29.6964 131.0104 0.0000 0.0000 0.0000
# 4 0.0000 0.0000 0.0000 23.1436 0.0000 0.0000
# 5 0.0000 0.0000 0.0000 0.0000 35.4414 0.0000
# 6 0.0000 0.0000 0.0000 0.0000 0.0000 30.6023
#
#
#
# Elastic Compliance Matrix: (Units=1/GPa)
#
#
# Indices 1 2 3 4 5 6 
#
# 1 0.012652 -0.011599 -0.000330 0.000000 0.000000 0.000000
# 2 -0.011599 0.067192 -0.012518 0.000000 0.000000 0.000000
# 3 -0.000330 -0.012518 0.010548 0.000000 0.000000 0.000000
# 4 0.000000 0.000000 0.000000 0.043208 0.000000 0.000000
# 5 0.000000 0.000000 0.000000 0.000000 0.028216 0.000000
# 6 0.000000 0.000000 0.000000 0.000000 0.000000 0.032677
#
#
# Mechanical properties :
#
#
# Convention : Reuss Voigt Hill
#
# Bulk Modulus (GPa) = 24.09746 47.05213 35.57480
# Shear Modulus (GPa) = 19.43859 29.37043 24.40451
#
# Velocity S-wave (km/s) = 3.15142 3.87373 3.53109
# Velocity P-wave (km/s) = 5.05506 6.63681 5.89919
#
# Compressibility (1/GPa) = 0.04149815
#
# Stress axis : x y z
#
# Youngs Moduli (GPa) = 79.03669 14.88264 94.80871
#
# Poissons Ratio (x) = 0.17263 0.03127
# Poissons Ratio (y) = 0.91678 1.18679
# Poissons Ratio (z) = 0.02607 0.18630
#
# Static dielectric constant tensor:
#      x y z
#    x 3.602270 0.000000 0.000000 
#    y 0.000000 3.250400 0.000000 
#    z 0.000000 0.000000 4.144940 
# 
# 
# High freq. dielectric constant tensor:
#      x y z
#    x 1.772200 0.000000 0.000000 
#    y 0.000000 1.727870 0.000000 
#    z 0.000000 0.000000 1.783820 
# 
# From -- ./inp_files/29760.got.cif
#   From: 2010.03.12/outbox.cif.g09.slc.cpg/sg62_15_cif.got.tgz:29760.got - 2010.04.10 19:12:36.
