data_PCOD8252647
_publ_section_title
;
Structure prediction by ZEFSAII (Michael W. Deem and Ramdas Pophale) SiO2 
 PCOD8252647
Probable space group: P N M A
;
_chemical_formula_sum "Si O2"
_cell_formula_units_Z 64
_cell_length_a 11.162774
_cell_length_b 9.106816
_cell_length_c 34.418292
_cell_angle_alpha 90.000000
_cell_angle_beta 90.000000
_cell_angle_gamma 90.000000
_cell_volume 3498.871629
_symmetry_space_group_name_H-M "P N M A"
_symmetry_group_IT_number 62
_symmetry_cell_setting 'orthorhombic'
loop_
_space_group_symop_operation_xyz
x,y,z
1/2-x,-y,1/2+z
1/2+x,1/2-y,1/2-z
-x,1/2+y,-z
-x,-y,-z
1/2+x,y,1/2-z
1/2-x,1/2+y,1/2+z
x,1/2-y,z
loop_
_atom_site_type_symbol
_atom_site_label
_atom_site_fract_x
_atom_site_fract_y
_atom_site_fract_z
Si Si1 0.393318 0.417061 0.232022
Si Si2 0.337562 0.573605 0.779094
Si Si3 0.741785 0.581322 0.417863
Si Si4 0.885713 0.418812 0.357679
Si Si5 0.752022 0.585151 0.062307
Si Si6 0.877639 0.917377 0.496452
Si Si7 0.872559 0.076262 0.640769
Si Si8 0.012979 0.585150 0.039557
O O1 0.398617 0.250000 0.245458
O O2 0.279969 0.487257 0.255709
O O3 0.530658 0.480611 0.238145
O O4 0.355308 0.434679 0.187494
O O5 0.341176 0.750000 0.781315
O O6 0.321759 0.509426 0.822091
O O7 0.732504 0.750000 0.403598
O O8 0.773002 0.476174 0.381975
O O9 0.837445 0.565367 0.452198
O O10 0.616215 0.518025 0.433483
O O11 0.915717 0.250000 0.368013
O O12 0.994154 0.524690 0.369213
O O13 0.703390 0.750000 0.054368
O O14 0.705396 0.528666 0.103676
O O15 0.894541 0.582674 0.065356
O O16 0.717255 0.483418 0.026398
O O17 0.896517 0.750000 0.508179
O O18 0.000000 0.000000 0.500000
O O19 0.869595 0.250000 0.648615
O O20 0.051609 0.750000 0.027995
O O21 0.000000 0.500000 0.000000
#
# Coordination Sequence:
#
# PCOD8252647 Si02
#       8
#     8   8   8   8   8   8   8   8
#     4   8  16  32  55  79 106 135 173 214 259 308
#     4   9  17  34  57  80 106 142 176 215 263 316
#     4  10  21  36  52  74 105 138 172 216 269 317
#     4  10  20  35  56  81 106 140 179 218 261 313
#     4  10  21  36  54  74 102 138 175 216 265 314
#     4  11  22  34  51  76 103 133 173 219 264 313
#     4  10  20  35  54  79 109 139 171 215 264 313
#     4  10  20  37  56  73 100 140 179 218 268 317
#
# _framework density 18.291612000000001
#
# number of rings (size 3 to 8) (size 9 to 14) (size 15 to 20)
#    0.000    2.250    1.250    2.625    0.000    5.500 
#    2.250    3.125    0.000    0.000    0.000    0.000 
#    0.000    0.000    0.000    0.000    0.000    0.000 
#
# Total GULP energy -793272.856530 kJ/mol
# GULP energy per Si atom -12394.888383 kJ/mol
# Density = 1.824998 g / cm^3
# Si number density = 18.291612 Si / 1000 Ang^3
#
#
#
# Elastic Constant Matrix: (Units=GPa)
#
#
# Indices 1 2 3 4 5 6 
#
# 1 80.1518 10.9600 28.2593 0.0000 0.0000 0.0000
# 2 10.9600 47.5307 20.4840 0.0000 0.0000 0.0000
# 3 28.2593 20.4840 71.0557 0.0000 0.0000 0.0000
# 4 0.0000 0.0000 0.0000 30.5208 0.0000 0.0000
# 5 0.0000 0.0000 0.0000 0.0000 36.6478 0.0000
# 6 0.0000 0.0000 0.0000 0.0000 0.0000 22.8158
#
#
#
# Elastic Compliance Matrix: (Units=1/GPa)
#
#
# Indices 1 2 3 4 5 6 
#
# 1 0.014551 -0.000983 -0.005504 0.000000 0.000000 0.000000
# 2 -0.000983 0.024090 -0.006554 0.000000 0.000000 0.000000
# 3 -0.005504 -0.006554 0.018152 0.000000 0.000000 0.000000
# 4 0.000000 0.000000 0.000000 0.032765 0.000000 0.000000
# 5 0.000000 0.000000 0.000000 0.000000 0.027287 0.000000
# 6 0.000000 0.000000 0.000000 0.000000 0.000000 0.043829
#
#
# Mechanical properties :
#
#
# Convention : Reuss Voigt Hill
#
# Bulk Modulus (GPa) = 32.56100 35.34943 33.95522
# Shear Modulus (GPa) = 25.38173 27.26588 26.32380
#
# Velocity S-wave (km/s) = 3.72911 3.86505 3.79769
# Velocity P-wave (km/s) = 6.03170 6.26782 6.15089
#
# Compressibility (1/GPa) = 0.03071159
#
# Stress axis : x y z
#
# Youngs Moduli (GPa) = 68.72268 41.51073 55.09171
#
# Poissons Ratio (x) = 0.04083 0.30320
# Poissons Ratio (y) = 0.06759 0.36105
# Poissons Ratio (z) = 0.37822 0.27204
#
# Static dielectric constant tensor:
#      x y z
#    x 3.502900 0.000000 0.000000 
#    y 0.000000 3.196690 0.000000 
#    z 0.000000 0.000000 3.336810 
# 
# 
# High freq. dielectric constant tensor:
#      x y z
#    x 1.719330 0.000000 0.000000 
#    y 0.000000 1.697100 0.000000 
#    z 0.000000 0.000000 1.700810 
# 
# From -- ./inp_files/32604.got.cif
#   From: 2010.03.12/outbox.cif.g09.slc.cpg/sg62_17_cif.got.tgz:32604.got - 2010.04.10 19:12:36.
