data_PCOD8252771
_publ_section_title
;
Structure prediction by ZEFSAII (Michael W. Deem and Ramdas Pophale) SiO2 
 PCOD8252771
Probable space group: P N M A
;
_chemical_formula_sum "Si O2"
_cell_formula_units_Z 64
_cell_length_a 9.625419
_cell_length_b 10.885553
_cell_length_c 30.899578
_cell_angle_alpha 90.000000
_cell_angle_beta 90.000000
_cell_angle_gamma 90.000000
_cell_volume 3237.596252
_symmetry_space_group_name_H-M "P N M A"
_symmetry_group_IT_number 62
_symmetry_cell_setting 'orthorhombic'
loop_
_space_group_symop_operation_xyz
x,y,z
1/2-x,-y,1/2+z
1/2+x,1/2-y,1/2-z
-x,1/2+y,-z
-x,-y,-z
1/2+x,y,1/2-z
1/2-x,1/2+y,1/2+z
x,1/2-y,z
loop_
_atom_site_type_symbol
_atom_site_label
_atom_site_fract_x
_atom_site_fract_y
_atom_site_fract_z
Si Si1 0.839693 0.484894 0.250997
Si Si2 0.231197 0.610500 0.659270
Si Si3 0.237884 0.887905 0.900897
Si Si4 0.390017 0.110282 0.493026
Si Si5 0.084468 0.111414 0.523174
Si Si6 0.467391 0.392759 0.332339
Si Si7 0.498763 0.038069 0.886581
Si Si8 0.917449 0.385481 0.707327
O O1 0.811518 0.393375 0.290444
O O2 0.933892 0.410719 0.217636
O O3 0.698273 0.524909 0.227193
O O4 0.932976 0.596001 0.269783
O O5 0.231057 0.750000 0.643831
O O6 0.383571 0.548175 0.655772
O O7 0.130220 0.540533 0.627470
O O8 0.275794 0.750000 0.887111
O O9 0.142620 0.892385 0.942626
O O10 0.151176 0.953484 0.862311
O O11 0.382132 0.954446 0.908640
O O12 0.445246 0.250000 0.504843
O O13 0.248610 0.082159 0.519326
O O14 0.500000 0.000000 0.500000
O O15 0.054995 0.250000 0.503329
O O16 0.047579 0.124433 0.574155
O O17 0.000000 0.000000 0.500000
O O18 0.478024 0.250000 0.343102
O O19 0.434892 0.104984 0.844652
O O20 0.865368 0.250000 0.718185
#
# Coordination Sequence:
#
# PCOD8252771 Si02
#       8
#     8   8   8   8   8   8   8   8
#     4  11  20  38  57  79 113 152 198 246 303 355
#     4  10  22  36  57  88 119 157 200 246 302 367
#     4  10  20  37  61  89 121 157 194 247 307 365
#     4  10  23  43  65  93 128 165 206 254 310 377
#     4  11  24  43  68  96 129 165 211 265 318 380
#     4  10  20  35  56  85 118 148 191 245 297 356
#     4  11  22  39  62  88 123 155 203 250 309 370
#     4  11  23  38  57  79 112 156 204 251 299 360
#
# _framework density 19.767751000000001
#
# number of rings (size 3 to 8) (size 9 to 14) (size 15 to 20)
#    0.000    1.500    3.750    1.500    1.750    1.000 
#    0.000    0.000    0.000    0.000    0.000    0.000 
#    0.000    0.000    0.000    0.000    0.000    0.000 
#
# Total GULP energy -793088.381872 kJ/mol
# GULP energy per Si atom -12392.005967 kJ/mol
# Density = 1.972276 g / cm^3
# Si number density = 19.767751 Si / 1000 Ang^3
#
#
#
# Elastic Constant Matrix: (Units=GPa)
#
#
# Indices 1 2 3 4 5 6 
#
# 1 114.9093 52.8239 25.6265 0.0000 0.0000 0.0000
# 2 52.8239 88.7500 19.7534 0.0000 0.0000 0.0000
# 3 25.6265 19.7534 82.7568 0.0000 0.0000 0.0000
# 4 0.0000 0.0000 0.0000 11.6639 0.0000 0.0000
# 5 0.0000 0.0000 0.0000 0.0000 34.9397 0.0000
# 6 0.0000 0.0000 0.0000 0.0000 0.0000 24.1444
#
#
#
# Elastic Compliance Matrix: (Units=1/GPa)
#
#
# Indices 1 2 3 4 5 6 
#
# 1 0.012344 -0.006861 -0.002185 0.000000 0.000000 0.000000
# 2 -0.006861 0.015713 -0.001626 0.000000 0.000000 0.000000
# 3 -0.002185 -0.001626 0.013148 0.000000 0.000000 0.000000
# 4 0.000000 0.000000 0.000000 0.085735 0.000000 0.000000
# 5 0.000000 0.000000 0.000000 0.000000 0.028621 0.000000
# 6 0.000000 0.000000 0.000000 0.000000 0.000000 0.041417
#
#
# Mechanical properties :
#
#
# Convention : Reuss Voigt Hill
#
# Bulk Modulus (GPa) = 50.34767 53.64707 51.99737
# Shear Modulus (GPa) = 22.22801 26.69709 24.46255
#
# Velocity S-wave (km/s) = 3.35693 3.67895 3.52163
# Velocity P-wave (km/s) = 6.36791 6.72636 6.54958
#
# Compressibility (1/GPa) = 0.01986189
#
# Stress axis : x y z
#
# Youngs Moduli (GPa) = 81.01375 63.64166 76.05568
#
# Poissons Ratio (x) = 0.43662 0.16616
# Poissons Ratio (y) = 0.55581 0.12367
# Poissons Ratio (z) = 0.17699 0.10349
#
# Static dielectric constant tensor:
#      x y z
#    x 3.782800 0.000000 0.000000 
#    y 0.000000 3.371630 0.000000 
#    z 0.000000 0.000000 3.638860 
# 
# 
# High freq. dielectric constant tensor:
#      x y z
#    x 1.780760 0.000000 0.000000 
#    y 0.000000 1.750430 0.000000 
#    z 0.000000 0.000000 1.778330 
# 
# From -- ./inp_files/32254.got.cif
#   From: 2010.03.12/outbox.cif.g09.slc.cpg/sg62_17_cif.got.tgz:32254.got - 2010.04.10 19:12:36.
