data_PCOD8252402
_publ_section_title
;
Structure prediction by ZEFSAII (Michael W. Deem and Ramdas Pophale) SiO2 
 PCOD8252402
Probable space group: P N M A
;
_chemical_formula_sum "Si O2"
_cell_formula_units_Z 64
_cell_length_a 18.475375
_cell_length_b 12.756986
_cell_length_c 15.128634
_cell_angle_alpha 90.000000
_cell_angle_beta 90.000000
_cell_angle_gamma 90.000000
_cell_volume 3565.669264
_symmetry_space_group_name_H-M "P N M A"
_symmetry_group_IT_number 62
_symmetry_cell_setting 'orthorhombic'
loop_
_space_group_symop_operation_xyz
x,y,z
1/2-x,-y,1/2+z
1/2+x,1/2-y,1/2-z
-x,1/2+y,-z
-x,-y,-z
1/2+x,y,1/2-z
1/2-x,1/2+y,1/2+z
x,1/2-y,z
loop_
_atom_site_type_symbol
_atom_site_label
_atom_site_fract_x
_atom_site_fract_y
_atom_site_fract_z
Si Si1 0.038338 0.631414 0.187329
Si Si2 0.852358 0.367672 0.168380
Si Si3 0.788554 0.126940 0.348640
Si Si4 0.386807 0.485105 0.016598
Si Si5 0.764766 0.633032 0.522891
Si Si6 0.661721 0.997455 0.409525
Si Si7 0.502160 0.625880 0.110130
Si Si8 0.063912 0.468158 0.937235
O O1 0.067241 0.750000 0.180077
O O2 0.098964 0.552009 0.151062
O O3 0.020302 0.602606 0.288016
O O4 0.964670 0.623339 0.127889
O O5 0.883175 0.250000 0.176316
O O6 0.831381 0.415228 0.263175
O O7 0.778952 0.369897 0.113173
O O8 0.915905 0.434205 0.124804
O O9 0.778009 0.250000 0.342828
O O10 0.836266 0.096492 0.432397
O O11 0.707933 0.078705 0.352074
O O12 0.432724 0.557019 0.083807
O O13 0.335627 0.562866 0.961491
O O14 0.432342 0.414228 0.950108
O O15 0.790016 0.750000 0.499204
O O16 0.715017 0.594486 0.441709
O O17 0.630502 0.059267 0.496774
O O18 0.488601 0.750000 0.094187
O O19 0.000000 0.500000 0.000000
#
# Coordination Sequence:
#
# PCOD8252402 Si02
#       8
#     8   8   8   8   8   8   8   8
#     4  10  20  34  53  74 102 137 172 215 258 306
#     4   9  18  32  52  76 102 133 169 210 253 307
#     4  10  20  34  53  76 105 136 168 209 259 310
#     4  10  20  34  53  73 100 139 166 214 259 304
#     4   9  17  31  52  76  99 130 173 210 251 305
#     4   9  19  33  52  77 104 136 168 215 258 311
#     4  10  21  35  52  75 101 132 174 213 256 308
#     4   9  18  33  52  77 104 135 173 210 258 302
#
# _framework density 17.948944000000001
#
# number of rings (size 3 to 8) (size 9 to 14) (size 15 to 20)
#    0.000    2.500    0.000    1.875    1.750    3.500 
#    0.000    1.875    0.000    2.250    0.000    0.000 
#    0.000    0.000    0.000    0.000    0.000    0.000 
#
# Total GULP energy -793311.412065 kJ/mol
# GULP energy per Si atom -12395.490814 kJ/mol
# Density = 1.790809 g / cm^3
# Si number density = 17.948944 Si / 1000 Ang^3
#
#
#
# Elastic Constant Matrix: (Units=GPa)
#
#
# Indices 1 2 3 4 5 6 
#
# 1 76.5150 33.8626 31.0612 0.0000 0.0000 0.0000
# 2 33.8626 72.5795 40.3791 0.0000 0.0000 0.0000
# 3 31.0612 40.3791 96.3727 0.0000 0.0000 0.0000
# 4 0.0000 0.0000 0.0000 24.5642 0.0000 0.0000
# 5 0.0000 0.0000 0.0000 0.0000 23.7268 0.0000
# 6 0.0000 0.0000 0.0000 0.0000 0.0000 27.9534
#
#
#
# Elastic Compliance Matrix: (Units=1/GPa)
#
#
# Indices 1 2 3 4 5 6 
#
# 1 0.017037 -0.006381 -0.002817 0.000000 0.000000 0.000000
# 2 -0.006381 0.020356 -0.006472 0.000000 0.000000 0.000000
# 3 -0.002817 -0.006472 0.013996 0.000000 0.000000 0.000000
# 4 0.000000 0.000000 0.000000 0.040710 0.000000 0.000000
# 5 0.000000 0.000000 0.000000 0.000000 0.042146 0.000000
# 6 0.000000 0.000000 0.000000 0.000000 0.000000 0.035774
#
#
# Mechanical properties :
#
#
# Convention : Reuss Voigt Hill
#
# Bulk Modulus (GPa) = 49.88167 50.67477 50.27822
# Shear Modulus (GPa) = 24.03340 24.59319 24.31329
#
# Velocity S-wave (km/s) = 3.66319 3.70560 3.68446
# Velocity P-wave (km/s) = 6.76337 6.82662 6.79506
#
# Compressibility (1/GPa) = 0.02004745
#
# Stress axis : x y z
#
# Youngs Moduli (GPa) = 58.69500 49.12537 71.44786
#
# Poissons Ratio (x) = 0.31349 0.20130
# Poissons Ratio (y) = 0.37456 0.46243
# Poissons Ratio (z) = 0.16537 0.31795
#
# Static dielectric constant tensor:
#      x y z
#    x 3.433460 0.000000 0.000000 
#    y 0.000000 3.379790 0.000000 
#    z 0.000000 0.000000 3.471540 
# 
# 
# High freq. dielectric constant tensor:
#      x y z
#    x 1.696280 0.000000 0.000000 
#    y 0.000000 1.688150 0.000000 
#    z 0.000000 0.000000 1.701020 
# 
# From -- ./inp_files/19923.got.cif
#   From: 2010.03.12/outbox.cif.g09.slc.cpg/sg62_10_cif.got.tgz:19923.got - 2010.04.10 19:12:36.
