data_PCOD8252327
_publ_section_title
;
Structure prediction by ZEFSAII (Michael W. Deem and Ramdas Pophale) SiO2 
 PCOD8252327
Probable space group: P N M A
;
_chemical_formula_sum "Si O2"
_cell_formula_units_Z 56
_cell_length_a 14.723827
_cell_length_b 9.124626
_cell_length_c 21.505026
_cell_angle_alpha 90.000000
_cell_angle_beta 90.000000
_cell_angle_gamma 90.000000
_cell_volume 2889.187655
_symmetry_space_group_name_H-M "P N M A"
_symmetry_group_IT_number 62
_symmetry_cell_setting 'orthorhombic'
loop_
_space_group_symop_operation_xyz
x,y,z
1/2-x,-y,1/2+z
1/2+x,1/2-y,1/2-z
-x,1/2+y,-z
-x,-y,-z
1/2+x,y,1/2-z
1/2-x,1/2+y,1/2+z
x,1/2-y,z
loop_
_atom_site_type_symbol
_atom_site_label
_atom_site_fract_x
_atom_site_fract_y
_atom_site_fract_z
Si Si1 0.833369 0.421472 0.149205
Si Si2 0.696667 0.423425 0.376358
Si Si3 0.469346 0.414246 0.150057
Si Si4 0.505573 0.422047 0.433564
Si Si5 0.318034 0.576196 0.220879
Si Si6 0.354636 0.580053 0.910268
Si Si7 0.350463 0.087970 0.032554
O O1 0.836109 0.250000 0.167722
O O2 0.920932 0.467395 0.109256
O O3 0.823827 0.521322 0.209167
O O4 0.747035 0.461461 0.107601
O O5 0.706566 0.250000 0.363853
O O6 0.594647 0.469437 0.394459
O O7 0.730972 0.505063 0.313970
O O8 0.760522 0.474060 0.433247
O O9 0.461347 0.250000 0.179633
O O10 0.413370 0.529376 0.190328
O O11 0.574337 0.466923 0.144354
O O12 0.433501 0.410584 0.079951
O O13 0.500000 0.500000 0.500000
O O14 0.506928 0.250000 0.447182
O O15 0.308017 0.750000 0.218670
O O16 0.367155 0.750000 0.921134
O O17 0.379712 0.508904 0.975225
O O18 0.329069 0.250000 0.007505
#
# Coordination Sequence:
#
# PCOD8252327 Si02
#       7
#     8   8   8   8   8   8   8
#     4  10  22  39  56  78 110 147 183 223 272 329
#     4   9  19  37  58  80 110 150 186 220 271 333
#     4   9  19  36  55  77 108 145 177 211 262 325
#     4  10  21  37  60  87 116 152 191 231 280 333
#     4  11  23  38  57  81 105 137 183 235 281 322
#     4  10  20  33  53  79 107 141 178 213 257 314
#     4   9  17  30  51  78 109 140 172 215 264 310
#
# _framework density 19.382612000000002
#
# number of rings (size 3 to 8) (size 9 to 14) (size 15 to 20)
#    0.000    2.286    0.000    3.429    0.000    5.714 
#    0.000    5.714    0.000    0.000    0.000    0.000 
#    0.000    0.000    0.000    0.000    0.000    0.000 
#
# Total GULP energy -694316.068585 kJ/mol
# GULP energy per Si atom -12398.501225 kJ/mol
# Density = 1.933850 g / cm^3
# Si number density = 19.382612 Si / 1000 Ang^3
#
#
#
# Elastic Constant Matrix: (Units=GPa)
#
#
# Indices 1 2 3 4 5 6 
#
# 1 99.5362 21.5519 -0.0499 0.0000 0.0000 0.0000
# 2 21.5519 68.3662 39.1948 0.0000 0.0000 0.0000
# 3 -0.0499 39.1948 61.3950 0.0000 0.0000 0.0000
# 4 0.0000 0.0000 0.0000 36.7752 0.0000 0.0000
# 5 0.0000 0.0000 0.0000 0.0000 17.3829 0.0000
# 6 0.0000 0.0000 0.0000 0.0000 0.0000 19.5036
#
#
#
# Elastic Compliance Matrix: (Units=1/GPa)
#
#
# Indices 1 2 3 4 5 6 
#
# 1 0.011263 -0.005608 0.003590 0.000000 0.000000 0.000000
# 2 -0.005608 0.025864 -0.016516 0.000000 0.000000 0.000000
# 3 0.003590 -0.016516 0.026835 0.000000 0.000000 0.000000
# 4 0.000000 0.000000 0.000000 0.027192 0.000000 0.000000
# 5 0.000000 0.000000 0.000000 0.000000 0.057528 0.000000
# 6 0.000000 0.000000 0.000000 0.000000 0.000000 0.051273
#
#
# Mechanical properties :
#
#
# Convention : Reuss Voigt Hill
#
# Bulk Modulus (GPa) = 37.18641 38.96564 38.07603
# Shear Modulus (GPa) = 20.32616 25.97237 23.14927
#
# Velocity S-wave (km/s) = 3.24185 3.66455 3.45966
# Velocity P-wave (km/s) = 5.76540 6.16865 5.97043
#
# Compressibility (1/GPa) = 0.02689154
#
# Stress axis : x y z
#
# Youngs Moduli (GPa) = 88.78825 38.66378 37.26486
#
# Poissons Ratio (x) = 0.21684 -0.13377
# Poissons Ratio (y) = 0.49796 0.61548
# Poissons Ratio (z) = -0.31871 0.63858
#
# Static dielectric constant tensor:
#      x y z
#    x 4.151830 0.000000 0.000000 
#    y 0.000000 3.394120 0.000000 
#    z 0.000000 0.000000 3.390380 
# 
# 
# High freq. dielectric constant tensor:
#      x y z
#    x 1.769860 0.000000 0.000000 
#    y 0.000000 1.738550 0.000000 
#    z 0.000000 0.000000 1.746540 
# 
# From -- ./inp_files/27098.got.cif
#   From: 2010.03.12/outbox.cif.g09.slc.cpg/sg62_14_cif.got.tgz:27098.got - 2010.04.10 19:12:36.
