data_PCOD8252346
_publ_section_title
;
Structure prediction by ZEFSAII (Michael W. Deem and Ramdas Pophale) SiO2 
 PCOD8252346
Probable space group: P N M A
;
_chemical_formula_sum "Si O2"
_cell_formula_units_Z 48
_cell_length_a 14.308767
_cell_length_b 9.022733
_cell_length_c 20.150612
_cell_angle_alpha 90.000000
_cell_angle_beta 90.000000
_cell_angle_gamma 90.000000
_cell_volume 2601.528323
_symmetry_space_group_name_H-M "P N M A"
_symmetry_group_IT_number 62
_symmetry_cell_setting 'orthorhombic'
loop_
_space_group_symop_operation_xyz
x,y,z
1/2-x,-y,1/2+z
1/2+x,1/2-y,1/2-z
-x,1/2+y,-z
-x,-y,-z
1/2+x,y,1/2-z
1/2-x,1/2+y,1/2+z
x,1/2-y,z
loop_
_atom_site_type_symbol
_atom_site_label
_atom_site_fract_x
_atom_site_fract_y
_atom_site_fract_z
Si Si1 0.491638 0.924348 0.122205
Si Si2 0.828946 0.920686 0.577888
Si Si3 0.208604 0.078242 0.570799
Si Si4 0.670689 0.075652 0.324363
Si Si5 0.510713 0.425787 0.726234
Si Si6 0.202394 0.575793 0.800489
O O1 0.500803 0.750000 0.116424
O O2 0.393269 0.978733 0.092969
O O3 0.500153 0.978810 0.197911
O O4 0.573536 0.993665 0.078580
O O5 0.853783 0.750000 0.589378
O O6 0.778588 0.946322 0.507624
O O7 0.760606 0.977376 0.635576
O O8 0.222070 0.250000 0.590737
O O9 0.286132 0.979417 0.606636
O O10 0.653156 0.250000 0.326837
O O11 0.739887 0.031103 0.264806
O O12 0.572294 0.994890 0.316289
O O13 0.508646 0.250000 0.719945
O O14 0.607302 0.484930 0.697032
O O15 0.180306 0.750000 0.802333
#
# Coordination Sequence:
#
# PCOD8252346 Si02
#       6
#     8   8   8   8   8   8
#     4  10  20  33  54  85 118 147 182 230 282 341
#     4  10  21  37  58  83 116 153 187 231 284 338
#     4  10  21  38  57  83 118 152 189 231 281 340
#     4  11  22  37  59  84 114 150 189 235 279 331
#     4  11  22  36  58  86 114 147 187 234 282 332
#     4  10  21  37  57  83 112 147 189 231 279 331
#
# _framework density 18.450693000000001
#
# number of rings (size 3 to 8) (size 9 to 14) (size 15 to 20)
#    0.000    1.667    3.333    1.500    0.000    3.333 
#    0.000    0.833    0.000    0.000    0.000    0.000 
#    0.000    0.000    0.000    0.000    0.000    0.000 
#
# Total GULP energy -595486.799346 kJ/mol
# GULP energy per Si atom -12405.974986 kJ/mol
# Density = 1.840870 g / cm^3
# Si number density = 18.450693 Si / 1000 Ang^3
#
#
#
# Elastic Constant Matrix: (Units=GPa)
#
#
# Indices 1 2 3 4 5 6 
#
# 1 101.1273 37.4439 23.3944 0.0000 0.0000 0.0000
# 2 37.4439 50.2301 23.0114 0.0000 0.0000 0.0000
# 3 23.3944 23.0114 74.7316 0.0000 0.0000 0.0000
# 4 0.0000 0.0000 0.0000 24.4251 0.0000 0.0000
# 5 0.0000 0.0000 0.0000 0.0000 29.2447 0.0000
# 6 0.0000 0.0000 0.0000 0.0000 0.0000 31.5939
#
#
#
# Elastic Compliance Matrix: (Units=1/GPa)
#
#
# Indices 1 2 3 4 5 6 
#
# 1 0.013773 -0.009653 -0.001339 0.000000 0.000000 0.000000
# 2 -0.009653 0.029944 -0.006198 0.000000 0.000000 0.000000
# 3 -0.001339 -0.006198 0.015709 0.000000 0.000000 0.000000
# 4 0.000000 0.000000 0.000000 0.040942 0.000000 0.000000
# 5 0.000000 0.000000 0.000000 0.000000 0.034194 0.000000
# 6 0.000000 0.000000 0.000000 0.000000 0.000000 0.031652
#
#
# Mechanical properties :
#
#
# Convention : Reuss Voigt Hill
#
# Bulk Modulus (GPa) = 39.92954 43.75426 41.84190
# Shear Modulus (GPa) = 23.93002 26.53536 25.23269
#
# Velocity S-wave (km/s) = 3.60526 3.79644 3.70208
# Velocity P-wave (km/s) = 6.24649 6.55614 6.40319
#
# Compressibility (1/GPa) = 0.02504411
#
# Stress axis : x y z
#
# Youngs Moduli (GPa) = 72.60812 33.39565 63.65774
#
# Poissons Ratio (x) = 0.32238 0.08524
# Poissons Ratio (y) = 0.70091 0.39458
# Poissons Ratio (z) = 0.09722 0.20700
#
# Static dielectric constant tensor:
#      x y z
#    x 3.343000 0.000000 0.000000 
#    y 0.000000 3.293610 0.000000 
#    z 0.000000 0.000000 3.443870 
# 
# 
# High freq. dielectric constant tensor:
#      x y z
#    x 1.715880 0.000000 0.000000 
#    y 0.000000 1.713630 0.000000 
#    z 0.000000 0.000000 1.715390 
# 
# From -- ./inp_files/23636.got.cif
#   From: 2010.03.12/outbox.cif.g09.slc.cpg/sg62_12_cif.got.tgz:23636.got - 2010.04.10 19:12:36.
