data_PCOD8252164
_publ_section_title
;
Structure prediction by ZEFSAII (Michael W. Deem and Ramdas Pophale) SiO2 
 PCOD8252164
Probable space group: P N M A
;
_chemical_formula_sum "Si O2"
_cell_formula_units_Z 40
_cell_length_a 13.886135
_cell_length_b 14.066820
_cell_length_c 9.449012
_cell_angle_alpha 90.000000
_cell_angle_beta 90.000000
_cell_angle_gamma 90.000000
_cell_volume 1845.711057
_symmetry_space_group_name_H-M "P N M A"
_symmetry_group_IT_number 62
_symmetry_cell_setting 'orthorhombic'
loop_
_space_group_symop_operation_xyz
x,y,z
1/2-x,-y,1/2+z
1/2+x,1/2-y,1/2-z
-x,1/2+y,-z
-x,-y,-z
1/2+x,y,1/2-z
1/2-x,1/2+y,1/2+z
x,1/2-y,z
loop_
_atom_site_type_symbol
_atom_site_label
_atom_site_fract_x
_atom_site_fract_y
_atom_site_fract_z
Si Si1 0.547676 0.429041 0.334261
Si Si2 0.191640 0.750000 0.067765
Si Si3 0.894687 0.250000 0.520745
Si Si4 0.408592 0.750000 0.160355
Si Si5 0.385911 0.921533 0.366983
Si Si6 0.673901 0.587727 0.215206
Si Si7 0.432491 0.250000 0.281052
O O1 0.611911 0.392123 0.467458
O O2 0.452066 0.486783 0.370914
O O3 0.610593 0.492770 0.226417
O O4 0.505663 0.336663 0.261681
O O5 0.308194 0.750000 0.073898
O O6 0.158184 0.846857 0.145318
O O7 0.139518 0.750000 0.915852
O O8 0.850305 0.346281 0.582625
O O9 0.865126 0.250000 0.356763
O O10 0.009464 0.250000 0.542925
O O11 0.424703 0.839227 0.264337
O O12 0.281210 0.949996 0.310338
#
# Coordination Sequence:
#
# PCOD8252164 Si02
#       7
#     8   4   4   4   8   8   4
#     4  11  23  42  68  97 138 171 223 281 329 395
#     4   9  20  41  69  96 131 174 225 268 326 410
#     4  11  24  44  64  96 139 174 219 284 335 396
#     4  10  19  42  70  96 137 174 219 269 339 394
#     4  10  21  40  72 102 124 176 224 272 330 405
#     4  10  22  43  71  97 129 179 222 270 341 404
#     4  12  27  43  61 100 135 178 225 281 330 386
#
# _framework density 21.671865
#
# number of rings (size 3 to 8) (size 9 to 14) (size 15 to 20)
#    0.000    1.600    2.000    3.600    2.800    2.400 
#   14.400    0.000    0.000    0.000    0.000    0.000 
#    0.000    0.000    0.000    0.000    0.000    0.000 
#
# Total GULP energy -495721.389030 kJ/mol
# GULP energy per Si atom -12393.034726 kJ/mol
# Density = 2.162254 g / cm^3
# Si number density = 21.671865 Si / 1000 Ang^3
#
#
#
# Elastic Constant Matrix: (Units=GPa)
#
#
# Indices 1 2 3 4 5 6 
#
# 1 99.6965 45.0985 43.4647 0.0000 0.0000 0.0000
# 2 45.0985 103.5521 43.0937 0.0000 0.0000 0.0000
# 3 43.4647 43.0937 140.5337 0.0000 0.0000 0.0000
# 4 0.0000 0.0000 0.0000 21.3185 0.0000 0.0000
# 5 0.0000 0.0000 0.0000 0.0000 32.0152 0.0000
# 6 0.0000 0.0000 0.0000 0.0000 0.0000 31.0758
#
#
#
# Elastic Compliance Matrix: (Units=1/GPa)
#
#
# Indices 1 2 3 4 5 6 
#
# 1 0.013319 -0.004684 -0.002683 0.000000 0.000000 0.000000
# 2 -0.004684 0.012717 -0.002451 0.000000 0.000000 0.000000
# 3 -0.002683 -0.002451 0.008697 0.000000 0.000000 0.000000
# 4 0.000000 0.000000 0.000000 0.046908 0.000000 0.000000
# 5 0.000000 0.000000 0.000000 0.000000 0.031235 0.000000
# 6 0.000000 0.000000 0.000000 0.000000 0.000000 0.032179
#
#
# Mechanical properties :
#
#
# Convention : Reuss Voigt Hill
#
# Bulk Modulus (GPa) = 66.23778 67.45513 66.84646
# Shear Modulus (GPa) = 29.45968 31.02359 30.24163
#
# Velocity S-wave (km/s) = 3.69094 3.78764 3.73960
# Velocity P-wave (km/s) = 6.98529 7.09377 7.03974
#
# Compressibility (1/GPa) = 0.01509712
#
# Stress axis : x y z
#
# Youngs Moduli (GPa) = 75.08045 78.63551 114.98125
#
# Poissons Ratio (x) = 0.36834 0.30850
# Poissons Ratio (y) = 0.35168 0.28180
# Poissons Ratio (z) = 0.20144 0.19272
#
# Static dielectric constant tensor:
#      x y z
#    x 3.950000 0.000000 0.000000 
#    y 0.000000 3.887300 0.000000 
#    z 0.000000 0.000000 3.765350 
# 
# 
# High freq. dielectric constant tensor:
#      x y z
#    x 1.860010 0.000000 0.000000 
#    y 0.000000 1.854820 0.000000 
#    z 0.000000 0.000000 1.838130 
# 
# From -- ./inp_files/6169.got.cif
#   From: 2010.03.12/outbox.cif.g09.slc.cpg/sg62_4_cif.got.tgz:6169.got - 2010.04.10 19:12:36.
