data_PCOD8252340
_publ_section_title
;
Structure prediction by ZEFSAII (Michael W. Deem and Ramdas Pophale) SiO2 
 PCOD8252340
Probable space group: P N M A
;
_chemical_formula_sum "Si O2"
_cell_formula_units_Z 56
_cell_length_a 20.175224
_cell_length_b 8.928962
_cell_length_c 16.456929
_cell_angle_alpha 90.000000
_cell_angle_beta 90.000000
_cell_angle_gamma 90.000000
_cell_volume 2964.613865
_symmetry_space_group_name_H-M "P N M A"
_symmetry_group_IT_number 62
_symmetry_cell_setting 'orthorhombic'
loop_
_space_group_symop_operation_xyz
x,y,z
1/2-x,-y,1/2+z
1/2+x,1/2-y,1/2-z
-x,1/2+y,-z
-x,-y,-z
1/2+x,y,1/2-z
1/2-x,1/2+y,1/2+z
x,1/2-y,z
loop_
_atom_site_type_symbol
_atom_site_label
_atom_site_fract_x
_atom_site_fract_y
_atom_site_fract_z
Si Si1 0.709219 0.424434 0.827789
Si Si2 0.526027 0.928204 0.244678
Si Si3 0.113674 0.426047 0.816483
Si Si4 0.190740 0.574365 0.504806
Si Si5 0.856689 0.074967 0.853420
Si Si6 0.048777 0.574125 0.436384
Si Si7 0.825004 0.427855 0.031328
O O1 0.698807 0.250000 0.848964
O O2 0.669825 0.471619 0.747810
O O3 0.786284 0.460828 0.811250
O O4 0.681677 0.517935 0.903308
O O5 0.531260 0.750000 0.242330
O O6 0.456526 0.980593 0.281938
O O7 0.584562 0.998942 0.300491
O O8 0.532726 0.990048 0.153203
O O9 0.114374 0.250000 0.834620
O O10 0.126579 0.514309 0.899053
O O11 0.204903 0.750000 0.505309
O O12 0.124565 0.533695 0.455916
O O13 0.251341 0.494183 0.458741
O O14 0.869882 0.250000 0.856297
O O15 0.855814 0.014550 0.945882
O O16 0.036369 0.750000 0.440730
O O17 0.000000 0.500000 0.500000
O O18 0.819451 0.250000 0.033720
#
# Coordination Sequence:
#
# PCOD8252340 Si02
#       7
#     8   8   8   8   8   8   8
#     4   9  18  33  55  78 106 145 180 220 275 331
#     4   9  18  33  53  78 105 139 183 223 265 326
#     4  10  20  33  54  81 106 139 182 225 270 327
#     4  10  20  34  55  83 110 139 181 230 274 324
#     4   8  16  32  53  74 100 138 181 220 265 323
#     4  10  21  35  56  82 111 145 180 222 273 331
#     4  10  21  36  54  78 107 143 183 227 278 326
#
# _framework density 18.889475000000001
#
# number of rings (size 3 to 8) (size 9 to 14) (size 15 to 20)
#    0.000    2.571    0.000    2.571    2.000    3.429 
#    0.000    0.714    0.000    5.143    0.000    0.000 
#    0.000    0.000    0.000    0.000    0.000    0.000 
#
# Total GULP energy -694418.632072 kJ/mol
# GULP energy per Si atom -12400.332716 kJ/mol
# Density = 1.884648 g / cm^3
# Si number density = 18.889475 Si / 1000 Ang^3
#
#
#
# Elastic Constant Matrix: (Units=GPa)
#
#
# Indices 1 2 3 4 5 6 
#
# 1 155.0975 38.4788 107.3451 0.0000 0.0000 0.0000
# 2 38.4788 39.7028 34.0521 0.0000 0.0000 0.0000
# 3 107.3451 34.0521 148.1787 0.0000 0.0000 0.0000
# 4 0.0000 0.0000 0.0000 29.8452 0.0000 0.0000
# 5 0.0000 0.0000 0.0000 0.0000 39.1737 0.0000
# 6 0.0000 0.0000 0.0000 0.0000 0.0000 22.7743
#
#
#
# Elastic Compliance Matrix: (Units=1/GPa)
#
#
# Indices 1 2 3 4 5 6 
#
# 1 0.014015 -0.006072 -0.008758 0.000000 0.000000 0.000000
# 2 -0.006072 0.034001 -0.003415 0.000000 0.000000 0.000000
# 3 -0.008758 -0.003415 0.013878 0.000000 0.000000 0.000000
# 4 0.000000 0.000000 0.000000 0.033506 0.000000 0.000000
# 5 0.000000 0.000000 0.000000 0.000000 0.025527 0.000000
# 6 0.000000 0.000000 0.000000 0.000000 0.000000 0.043909
#
#
# Mechanical properties :
#
#
# Convention : Reuss Voigt Hill
#
# Bulk Modulus (GPa) = 39.36281 78.08122 58.72202
# Shear Modulus (GPa) = 23.83294 29.23217 26.53255
#
# Velocity S-wave (km/s) = 3.55590 3.93814 3.75189
# Velocity P-wave (km/s) = 6.14353 7.88062 7.06566
#
# Compressibility (1/GPa) = 0.02540469
#
# Stress axis : x y z
#
# Youngs Moduli (GPa) = 71.35031 29.41124 72.05779
#
# Poissons Ratio (x) = 0.17858 0.63107
# Poissons Ratio (y) = 0.43323 0.24606
# Poissons Ratio (z) = 0.62487 0.10043
#
# Static dielectric constant tensor:
#      x y z
#    x 3.761530 0.000000 0.000000 
#    y 0.000000 3.157600 0.000000 
#    z 0.000000 0.000000 3.754570 
# 
# 
# High freq. dielectric constant tensor:
#      x y z
#    x 1.744060 0.000000 0.000000 
#    y 0.000000 1.700950 0.000000 
#    z 0.000000 0.000000 1.741840 
# 
# From -- ./inp_files/20267.got.cif
#   From: 2010.03.12/outbox.cif.g09.slc.cpg/sg62_11_cif.got.tgz:20267.got - 2010.04.10 19:12:36.
