data_PCOD8252219
_publ_section_title
;
Structure prediction by ZEFSAII (Michael W. Deem and Ramdas Pophale) SiO2 
 PCOD8252219
Probable space group: P N M A
;
_chemical_formula_sum "Si O2"
_cell_formula_units_Z 48
_cell_length_a 15.379904
_cell_length_b 9.405881
_cell_length_c 18.414121
_cell_angle_alpha 90.000000
_cell_angle_beta 90.000000
_cell_angle_gamma 90.000000
_cell_volume 2663.815227
_symmetry_space_group_name_H-M "P N M A"
_symmetry_group_IT_number 62
_symmetry_cell_setting 'orthorhombic'
loop_
_space_group_symop_operation_xyz
x,y,z
1/2-x,-y,1/2+z
1/2+x,1/2-y,1/2-z
-x,1/2+y,-z
-x,-y,-z
1/2+x,y,1/2-z
1/2-x,1/2+y,1/2+z
x,1/2-y,z
loop_
_atom_site_type_symbol
_atom_site_label
_atom_site_fract_x
_atom_site_fract_y
_atom_site_fract_z
Si Si1 0.575184 0.416802 0.786034
Si Si2 0.269630 0.407264 0.711271
Si Si3 0.570127 0.411321 0.293236
Si Si4 0.931422 0.583410 0.452711
Si Si5 0.577265 0.088277 0.465718
Si Si6 0.262391 0.407710 0.538889
O O1 0.557264 0.250000 0.775486
O O2 0.673937 0.454411 0.762153
O O3 0.513852 0.505936 0.733904
O O4 0.558283 0.462517 0.869023
O O5 0.292315 0.250000 0.741645
O O6 0.342386 0.517172 0.739182
O O7 0.268281 0.400627 0.625020
O O8 0.567465 0.250000 0.265053
O O9 0.569811 0.418477 0.379588
O O10 0.948212 0.750000 0.461180
O O11 0.835101 0.544196 0.482219
O O12 0.000000 0.500000 0.500000
O O13 0.573785 0.250000 0.494050
O O14 0.500000 0.000000 0.500000
O O15 0.668226 0.019685 0.492572
O O16 0.282527 0.250000 0.507437
#
# Coordination Sequence:
#
# PCOD8252219 Si02
#       6
#     8   8   8   8   8   8
#     4   9  18  33  52  73  97 128 165 198 233 285
#     4   8  15  30  51  70  91 125 164 197 232 281
#     4  10  20  32  49  75 101 124 156 200 245 286
#     4   9  18  32  51  75 100 127 161 199 238 283
#     4  10  20  33  50  73  98 125 160 199 240 288
#     4   8  15  30  50  70  94 125 160 197 237 281
#
# _framework density 18.019269000000001
#
# number of rings (size 3 to 8) (size 9 to 14) (size 15 to 20)
#    0.000    3.000    0.000    3.000    0.000    4.000 
#    0.000    5.000    0.000    0.000    0.000    0.000 
#    0.000    0.000    0.000    0.000    0.000    0.000 
#
# Total GULP energy -595036.621493 kJ/mol
# GULP energy per Si atom -12396.596281 kJ/mol
# Density = 1.797826 g / cm^3
# Si number density = 18.019269 Si / 1000 Ang^3
#
#
#
# Elastic Constant Matrix: (Units=GPa)
#
#
# Indices 1 2 3 4 5 6 
#
# 1 152.8534 87.7255 22.1445 0.0000 0.0000 0.0000
# 2 87.7255 118.3006 22.7566 0.0000 0.0000 0.0000
# 3 22.1445 22.7566 15.7365 0.0000 0.0000 0.0000
# 4 0.0000 0.0000 0.0000 25.5836 0.0000 0.0000
# 5 0.0000 0.0000 0.0000 0.0000 30.6002 0.0000
# 6 0.0000 0.0000 0.0000 0.0000 0.0000 35.9806
#
#
#
# Elastic Compliance Matrix: (Units=1/GPa)
#
#
# Indices 1 2 3 4 5 6 
#
# 1 0.011716 -0.007642 -0.005435 0.000000 0.000000 0.000000
# 2 -0.007642 0.016696 -0.013390 0.000000 0.000000 0.000000
# 3 -0.005435 -0.013390 0.090557 0.000000 0.000000 0.000000
# 4 0.000000 0.000000 0.000000 0.039088 0.000000 0.000000
# 5 0.000000 0.000000 0.000000 0.000000 0.032680 0.000000
# 6 0.000000 0.000000 0.000000 0.000000 0.000000 0.027793
#
#
# Mechanical properties :
#
#
# Convention : Reuss Voigt Hill
#
# Bulk Modulus (GPa) = 15.14341 61.34929 38.24635
# Shear Modulus (GPa) = 17.03730 28.71714 22.87722
#
# Velocity S-wave (km/s) = 3.07824 3.99644 3.56701
# Velocity P-wave (km/s) = 4.58872 7.44418 6.18353
#
# Compressibility (1/GPa) = 0.06603532
#
# Stress axis : x y z
#
# Youngs Moduli (GPa) = 85.35642 59.89548 11.04273
#
# Poissons Ratio (x) = 0.45773 0.06002
# Poissons Ratio (y) = 0.65231 0.14786
# Poissons Ratio (z) = 0.46390 0.80198
#
# Static dielectric constant tensor:
#      x y z
#    x 3.583640 0.000000 0.000000 
#    y 0.000000 3.999010 0.000000 
#    z 0.000000 0.000000 2.910230 
# 
# 
# High freq. dielectric constant tensor:
#      x y z
#    x 1.713300 0.000000 0.000000 
#    y 0.000000 1.700820 0.000000 
#    z 0.000000 0.000000 1.652830 
# 
# From -- ./inp_files/26863.got.cif
#   From: 2010.03.12/outbox.cif.g09.slc.cpg/sg62_14_cif.got.tgz:26863.got - 2010.04.10 19:12:36.
