data_PCOD8252062
_publ_section_title
;
Structure prediction by ZEFSAII (Michael W. Deem and Ramdas Pophale) SiO2 
 PCOD8252062
Probable space group: P N M A
;
_chemical_formula_sum "Si O2"
_cell_formula_units_Z 64
_cell_length_a 19.102042
_cell_length_b 9.405365
_cell_length_c 18.883360
_cell_angle_alpha 90.000000
_cell_angle_beta 90.000000
_cell_angle_gamma 90.000000
_cell_volume 3392.616130
_symmetry_space_group_name_H-M "P N M A"
_symmetry_group_IT_number 62
_symmetry_cell_setting 'orthorhombic'
loop_
_space_group_symop_operation_xyz
x,y,z
1/2-x,-y,1/2+z
1/2+x,1/2-y,1/2-z
-x,1/2+y,-z
-x,-y,-z
1/2+x,y,1/2-z
1/2-x,1/2+y,1/2+z
x,1/2-y,z
loop_
_atom_site_type_symbol
_atom_site_label
_atom_site_fract_x
_atom_site_fract_y
_atom_site_fract_z
Si Si1 0.880236 0.084886 0.649153
Si Si2 0.814031 0.913389 0.526511
Si Si3 0.470879 0.918323 0.209031
Si Si4 0.154130 0.911937 0.965008
Si Si5 0.956337 0.410330 0.150282
Si Si6 0.307227 0.083926 0.707901
Si Si7 0.332685 0.581719 0.132470
Si Si8 0.606648 0.087265 0.402100
O O1 0.882916 0.250000 0.629538
O O2 0.821117 0.055535 0.708969
O O3 0.955961 0.031306 0.675710
O O4 0.864136 0.000325 0.578020
O O5 0.838404 0.750000 0.528221
O O6 0.735188 0.930468 0.553777
O O7 0.820196 0.976470 0.446882
O O8 0.468757 0.750000 0.217070
O O9 0.406978 0.975322 0.160704
O O10 0.462118 0.980663 0.286418
O O11 0.138072 0.750000 0.989409
O O12 0.111748 0.952068 0.894775
O O13 0.134408 0.018410 0.026723
O O14 0.950351 0.250000 0.180314
O O15 0.022886 0.423370 0.098654
O O16 0.318162 0.250000 0.689799
O O17 0.229755 0.031368 0.685027
O O18 0.364569 0.995191 0.665720
O O19 0.332358 0.750000 0.130207
O O20 0.632260 0.250000 0.399126
#
# Coordination Sequence:
#
# PCOD8252062 Si02
#       8
#     8   8   8   8   8   8   8   8
#     4  10  22  37  57  86 115 145 186 234 282 333
#     4  10  21  38  60  82 110 151 191 231 280 336
#     4  10  21  38  60  83 109 147 193 235 278 335
#     4  10  21  38  57  80 115 156 190 225 280 344
#     4  10  22  37  54  83 119 149 185 231 282 339
#     4  10  19  37  60  81 112 152 186 224 281 342
#     4   9  19  37  60  83 108 146 193 230 275 335
#     4  11  21  34  56  86 116 147 186 233 277 331
#
# _framework density 18.864497
#
# number of rings (size 3 to 8) (size 9 to 14) (size 15 to 20)
#    0.000    2.000    2.500    0.750    1.750    3.000 
#    0.000    1.250    0.000    0.000    0.000    0.000 
#    0.000    0.000    0.000    0.000    0.000    0.000 
#
# Total GULP energy -793721.504667 kJ/mol
# GULP energy per Si atom -12401.898510 kJ/mol
# Density = 1.882156 g / cm^3
# Si number density = 18.864497 Si / 1000 Ang^3
#
#
#
# Elastic Constant Matrix: (Units=GPa)
#
#
# Indices 1 2 3 4 5 6 
#
# 1 87.3024 24.0076 43.7422 0.0000 0.0000 0.0000
# 2 24.0076 48.5809 28.2123 0.0000 0.0000 0.0000
# 3 43.7422 28.2123 77.4694 0.0000 0.0000 0.0000
# 4 0.0000 0.0000 0.0000 32.3137 0.0000 0.0000
# 5 0.0000 0.0000 0.0000 0.0000 37.5976 0.0000
# 6 0.0000 0.0000 0.0000 0.0000 0.0000 15.4296
#
#
#
# Elastic Compliance Matrix: (Units=1/GPa)
#
#
# Indices 1 2 3 4 5 6 
#
# 1 0.016420 -0.003463 -0.008011 0.000000 0.000000 0.000000
# 2 -0.003463 0.026835 -0.007818 0.000000 0.000000 0.000000
# 3 -0.008011 -0.007818 0.020278 0.000000 0.000000 0.000000
# 4 0.000000 0.000000 0.000000 0.030947 0.000000 0.000000
# 5 0.000000 0.000000 0.000000 0.000000 0.026597 0.000000
# 6 0.000000 0.000000 0.000000 0.000000 0.000000 0.064810
#
#
# Mechanical properties :
#
#
# Convention : Reuss Voigt Hill
#
# Bulk Modulus (GPa) = 40.07622 45.03076 42.55349
# Shear Modulus (GPa) = 21.47886 24.89423 23.18654
#
# Velocity S-wave (km/s) = 3.37796 3.63662 3.50967
# Velocity P-wave (km/s) = 6.04189 6.44638 6.24741
#
# Compressibility (1/GPa) = 0.02495245
#
# Stress axis : x y z
#
# Youngs Moduli (GPa) = 60.90048 37.26446 49.31380
#
# Poissons Ratio (x) = 0.12903 0.39503
# Poissons Ratio (y) = 0.21087 0.38551
# Poissons Ratio (z) = 0.48784 0.29132
#
# Static dielectric constant tensor:
#      x y z
#    x 3.730460 0.000000 0.000000 
#    y 0.000000 3.312110 0.000000 
#    z 0.000000 0.000000 3.405000 
# 
# 
# High freq. dielectric constant tensor:
#      x y z
#    x 1.742540 0.000000 0.000000 
#    y 0.000000 1.715490 0.000000 
#    z 0.000000 0.000000 1.731100 
# 
# From -- ./inp_files/24759.got.cif
#   From: 2010.03.12/outbox.cif.g09.slc.cpg/sg62_13_cif.got.tgz:24759.got - 2010.04.10 19:12:36.
