data_PCOD8252974
_publ_section_title
;
Structure prediction by ZEFSAII (Michael W. Deem and Ramdas Pophale) SiO2 
 PCOD8252974
Probable space group: P N M A
;
_chemical_formula_sum "Si O2"
_cell_formula_units_Z 64
_cell_length_a 25.806250
_cell_length_b 8.949870
_cell_length_c 14.834101
_cell_angle_alpha 90.000000
_cell_angle_beta 90.000000
_cell_angle_gamma 90.000000
_cell_volume 3426.122279
_symmetry_space_group_name_H-M "P N M A"
_symmetry_group_IT_number 62
_symmetry_cell_setting 'orthorhombic'
loop_
_space_group_symop_operation_xyz
x,y,z
1/2-x,-y,1/2+z
1/2+x,1/2-y,1/2-z
-x,1/2+y,-z
-x,-y,-z
1/2+x,y,1/2-z
1/2-x,1/2+y,1/2+z
x,1/2-y,z
loop_
_atom_site_type_symbol
_atom_site_label
_atom_site_fract_x
_atom_site_fract_y
_atom_site_fract_z
Si Si1 0.604063 0.575874 0.660604
Si Si2 0.055191 0.073965 0.504848
Si Si3 0.128564 0.923364 0.366985
Si Si4 0.997969 0.572796 0.097758
Si Si5 0.628365 0.922644 0.862509
Si Si6 0.891458 0.073567 0.832559
Si Si7 0.174386 0.926719 0.002537
Si Si8 0.782857 0.420242 0.496552
O O1 0.591134 0.750000 0.646345
O O2 0.550725 0.485260 0.654682
O O3 0.631523 0.546446 0.756310
O O4 0.643891 0.515703 0.585578
O O5 0.049186 0.250000 0.505279
O O6 0.087035 0.023414 0.417927
O O7 0.082809 0.022694 0.596705
O O8 0.000000 0.000000 0.500000
O O9 0.111507 0.750000 0.373259
O O10 0.129553 0.981107 0.264152
O O11 0.184801 0.945867 0.411612
O O12 0.994813 0.750000 0.086556
O O13 0.049331 0.522755 0.152023
O O14 0.000000 0.500000 0.000000
O O15 0.615625 0.750000 0.884576
O O16 0.682835 0.965421 0.909355
O O17 0.888113 0.250000 0.838982
O O18 0.854368 0.004805 0.909826
O O19 0.173479 0.750000 0.004709
O O20 0.233420 0.975695 0.999716
O O21 0.764248 0.250000 0.488843
#
# Coordination Sequence:
#
# PCOD8252974 Si02
#       8
#     8   8   8   8   8   8   8   8
#     4  10  21  38  58  83 115 150 188 231 284 338
#     4  11  22  36  55  81 112 146 187 231 277 332
#     4   9  19  38  59  79 110 147 183 230 284 331
#     4  11  21  36  57  82 114 150 189 233 281 335
#     4   9  20  39  59  80 112 150 185 229 286 337
#     4   9  19  36  57  81 110 147 186 225 277 334
#     4  10  20  36  57  81 111 149 189 229 276 332
#     4   9  19  36  56  80 111 146 186 233 284 331
#
# _framework density 18.680009999999999
#
# number of rings (size 3 to 8) (size 9 to 14) (size 15 to 20)
#    0.000    2.250    1.250    2.250    1.750    4.000 
#    0.000    1.250    0.000    0.000    0.000    0.000 
#    0.000    0.000    0.000    0.000    0.000    0.000 
#
# Total GULP energy -793673.097158 kJ/mol
# GULP energy per Si atom -12401.142143 kJ/mol
# Density = 1.863749 g / cm^3
# Si number density = 18.680010 Si / 1000 Ang^3
#
#
#
# Elastic Constant Matrix: (Units=GPa)
#
#
# Indices 1 2 3 4 5 6 
#
# 1 134.4979 40.2791 65.5117 0.0000 0.0000 0.0000
# 2 40.2791 63.5913 33.8910 0.0000 0.0000 0.0000
# 3 65.5117 33.8910 159.2559 0.0000 0.0000 0.0000
# 4 0.0000 0.0000 0.0000 21.3247 0.0000 0.0000
# 5 0.0000 0.0000 0.0000 0.0000 16.1277 0.0000
# 6 0.0000 0.0000 0.0000 0.0000 0.0000 35.8145
#
#
#
# Elastic Compliance Matrix: (Units=1/GPa)
#
#
# Indices 1 2 3 4 5 6 
#
# 1 0.010499 -0.004905 -0.003275 0.000000 0.000000 0.000000
# 2 -0.004905 0.020028 -0.002245 0.000000 0.000000 0.000000
# 3 -0.003275 -0.002245 0.008104 0.000000 0.000000 0.000000
# 4 0.000000 0.000000 0.000000 0.046894 0.000000 0.000000
# 5 0.000000 0.000000 0.000000 0.000000 0.062005 0.000000
# 6 0.000000 0.000000 0.000000 0.000000 0.000000 0.027922
#
#
# Mechanical properties :
#
#
# Convention : Reuss Voigt Hill
#
# Bulk Modulus (GPa) = 56.23451 70.74543 63.48997
# Shear Modulus (GPa) = 24.72442 29.16426 26.94434
#
# Velocity S-wave (km/s) = 3.64205 3.95556 3.80204
# Velocity P-wave (km/s) = 6.91776 7.66919 7.30315
#
# Compressibility (1/GPa) = 0.01778268
#
# Stress axis : x y z
#
# Youngs Moduli (GPa) = 95.24520 49.92920 123.39340
#
# Poissons Ratio (x) = 0.24489 0.40414
# Poissons Ratio (y) = 0.46715 0.27697
# Poissons Ratio (z) = 0.31195 0.11207
#
# Static dielectric constant tensor:
#      x y z
#    x 3.473440 0.000000 0.000000 
#    y 0.000000 4.000280 0.000000 
#    z 0.000000 0.000000 3.638190 
# 
# 
# High freq. dielectric constant tensor:
#      x y z
#    x 1.726220 0.000000 0.000000 
#    y 0.000000 1.707940 0.000000 
#    z 0.000000 0.000000 1.735860 
# 
# From -- ./inp_files/20814.got.cif
#   From: 2010.03.12/outbox.cif.g09.slc.cpg/sg62_11_cif.got.tgz:20814.got - 2010.04.10 19:12:36.
