data_PCOD8252003
_publ_section_title
;
Structure prediction by ZEFSAII (Michael W. Deem and Ramdas Pophale) SiO2 
 PCOD8252003
Probable space group: P N M A
;
_chemical_formula_sum "Si O2"
_cell_formula_units_Z 64
_cell_length_a 16.504475
_cell_length_b 11.547901
_cell_length_c 16.872922
_cell_angle_alpha 90.000000
_cell_angle_beta 90.000000
_cell_angle_gamma 90.000000
_cell_volume 3215.844681
_symmetry_space_group_name_H-M "P N M A"
_symmetry_group_IT_number 62
_symmetry_cell_setting 'orthorhombic'
loop_
_space_group_symop_operation_xyz
x,y,z
1/2-x,-y,1/2+z
1/2+x,1/2-y,1/2-z
-x,1/2+y,-z
-x,-y,-z
1/2+x,y,1/2-z
1/2-x,1/2+y,1/2+z
x,1/2-y,z
loop_
_atom_site_type_symbol
_atom_site_label
_atom_site_fract_x
_atom_site_fract_y
_atom_site_fract_z
Si Si1 0.180955 0.616360 0.532641
Si Si2 0.068412 0.880779 0.210442
Si Si3 0.431087 0.056048 0.294354
Si Si4 0.975459 0.121014 0.375023
Si Si5 0.170758 0.055361 0.121078
Si Si6 0.490720 0.878094 0.549413
Si Si7 0.627698 0.975532 0.128852
Si Si8 0.753657 0.118630 0.218850
O O1 0.200285 0.750000 0.552007
O O2 0.106252 0.571649 0.585770
O O3 0.258596 0.538248 0.556035
O O4 0.163054 0.604059 0.440052
O O5 0.058242 0.750000 0.186325
O O6 0.131147 0.933994 0.147094
O O7 0.105382 0.893273 0.297963
O O8 0.978313 0.933868 0.203835
O O9 0.468276 0.126526 0.220323
O O10 0.446845 0.120500 0.377150
O O11 0.334878 0.040049 0.281552
O O12 0.992188 0.250000 0.406931
O O13 0.048344 0.040278 0.403362
O O14 0.100129 0.131897 0.082820
O O15 0.209488 0.118710 0.196668
O O16 0.505551 0.750000 0.506434
O O17 0.500000 0.000000 0.500000
O O18 0.693328 0.071635 0.152394
O O19 0.778326 0.250000 0.198246
#
# Coordination Sequence:
#
# PCOD8252003 Si02
#       8
#     8   8   8   8   8   8   8   8
#     4  11  21  36  59  85 121 156 190 241 300 359
#     4   9  20  41  61  81 116 160 201 242 295 363
#     4  10  21  37  62  88 114 153 201 252 294 357
#     4  10  19  36  61  86 115 155 196 242 293 348
#     4  10  22  39  63  87 116 154 205 251 300 360
#     4  11  24  40  61  89 123 164 205 252 310 370
#     4  10  22  34  57  87 123 151 193 234 297 364
#     4  11  20  37  63  91 120 150 197 255 300 345
#
# _framework density 19.901458000000002
#
# number of rings (size 3 to 8) (size 9 to 14) (size 15 to 20)
#    0.000    1.750    1.250    4.125    1.750    2.000 
#    0.000    4.375    0.000    0.750    0.000    0.000 
#    0.000    0.000    0.000    0.000    0.000    0.000 
#
# Total GULP energy -793304.996043 kJ/mol
# GULP energy per Si atom -12395.390563 kJ/mol
# Density = 1.985616 g / cm^3
# Si number density = 19.901458 Si / 1000 Ang^3
#
#
#
# Elastic Constant Matrix: (Units=GPa)
#
#
# Indices 1 2 3 4 5 6 
#
# 1 142.6734 48.2835 33.7910 0.0000 0.0000 0.0000
# 2 48.2835 127.7040 30.6372 0.0000 0.0000 0.0000
# 3 33.7910 30.6372 81.0938 0.0000 0.0000 0.0000
# 4 0.0000 0.0000 0.0000 18.2035 0.0000 0.0000
# 5 0.0000 0.0000 0.0000 0.0000 28.9261 0.0000
# 6 0.0000 0.0000 0.0000 0.0000 0.0000 15.6451
#
#
#
# Elastic Compliance Matrix: (Units=1/GPa)
#
#
# Indices 1 2 3 4 5 6 
#
# 1 0.008494 -0.002598 -0.002558 0.000000 0.000000 0.000000
# 2 -0.002598 0.009406 -0.002471 0.000000 0.000000 0.000000
# 3 -0.002558 -0.002471 0.014331 0.000000 0.000000 0.000000
# 4 0.000000 0.000000 0.000000 0.054934 0.000000 0.000000
# 5 0.000000 0.000000 0.000000 0.000000 0.034571 0.000000
# 6 0.000000 0.000000 0.000000 0.000000 0.000000 0.063918
#
#
# Mechanical properties :
#
#
# Convention : Reuss Voigt Hill
#
# Bulk Modulus (GPa) = 58.90312 64.09939 61.50126
# Shear Modulus (GPa) = 24.20538 28.47226 26.33882
#
# Velocity S-wave (km/s) = 3.49128 3.78651 3.64189
# Velocity P-wave (km/s) = 6.77596 7.16905 6.97527
#
# Compressibility (1/GPa) = 0.01697703
#
# Stress axis : x y z
#
# Youngs Moduli (GPa) = 117.73036 106.31945 69.77984
#
# Poissons Ratio (x) = 0.27620 0.17849
# Poissons Ratio (y) = 0.30584 0.17242
# Poissons Ratio (z) = 0.30114 0.26271
#
# Static dielectric constant tensor:
#      x y z
#    x 3.794190 0.000000 0.000000 
#    y 0.000000 3.381100 0.000000 
#    z 0.000000 0.000000 3.591450 
# 
# 
# High freq. dielectric constant tensor:
#      x y z
#    x 1.786280 0.000000 0.000000 
#    y 0.000000 1.756220 0.000000 
#    z 0.000000 0.000000 1.772200 
# 
# From -- ./inp_files/24056.got.cif
#   From: 2010.03.12/outbox.cif.g09.slc.cpg/sg62_13_cif.got.tgz:24056.got - 2010.04.10 19:12:36.
