data_PCOD8252512
_publ_section_title
;
Structure prediction by ZEFSAII (Michael W. Deem and Ramdas Pophale) SiO2 
 PCOD8252512
Probable space group: P N M A
;
_chemical_formula_sum "Si O2"
_cell_formula_units_Z 56
_cell_length_a 15.000280
_cell_length_b 8.745389
_cell_length_c 21.396248
_cell_angle_alpha 90.000000
_cell_angle_beta 90.000000
_cell_angle_gamma 90.000000
_cell_volume 2806.830072
_symmetry_space_group_name_H-M "P N M A"
_symmetry_group_IT_number 62
_symmetry_cell_setting 'orthorhombic'
loop_
_space_group_symop_operation_xyz
x,y,z
1/2-x,-y,1/2+z
1/2+x,1/2-y,1/2-z
-x,1/2+y,-z
-x,-y,-z
1/2+x,y,1/2-z
1/2-x,1/2+y,1/2+z
x,1/2-y,z
loop_
_atom_site_type_symbol
_atom_site_label
_atom_site_fract_x
_atom_site_fract_y
_atom_site_fract_z
Si Si1 0.641704 0.071441 0.519768
Si Si2 0.421119 0.430925 0.722552
Si Si3 0.459857 0.070216 0.586526
Si Si4 0.432765 0.568104 0.183119
Si Si5 0.732362 0.431070 0.733252
Si Si6 0.981627 0.931185 0.567858
Si Si7 0.217172 0.070149 0.396206
O O1 0.663011 0.250000 0.521148
O O2 0.557498 0.027279 0.562540
O O3 0.618325 0.017629 0.450035
O O4 0.728200 0.980720 0.542751
O O5 0.426255 0.250000 0.722391
O O6 0.456671 0.492607 0.656815
O O7 0.482255 0.492574 0.778222
O O8 0.321198 0.488492 0.732538
O O9 0.440811 0.250000 0.580940
O O10 0.429810 0.750000 0.174471
O O11 0.347447 0.509785 0.222574
O O12 0.441082 0.491268 0.114904
O O13 0.726176 0.250000 0.725779
O O14 0.733165 0.497023 0.663400
O O15 0.986728 0.750000 0.562729
O O16 0.884859 0.985522 0.593952
O O17 0.000000 0.000000 0.500000
O O18 0.220475 0.250000 0.388564
#
# Coordination Sequence:
#
# PCOD8252512 Si02
#       7
#     8   8   8   8   8   8   8
#     4  10  20  34  55  82 114 154 198 240 289 350
#     4   9  17  32  55  81 112 148 184 233 284 339
#     4   9  18  34  54  81 118 154 192 238 290 347
#     4  10  20  37  61  89 120 155 199 245 296 360
#     4  10  20  35  60  88 113 150 196 238 295 361
#     4  11  25  43  63  87 118 159 204 252 307 362
#     4  11  23  39  59  85 117 155 200 247 299 359
#
# _framework density 19.951333000000002
#
# number of rings (size 3 to 8) (size 9 to 14) (size 15 to 20)
#    0.000    2.000    1.429    2.143    0.000    6.286 
#    0.000    4.286    0.000    0.000    0.000    0.000 
#    0.000    0.000    0.000    0.000    0.000    0.000 
#
# Total GULP energy -694401.055672 kJ/mol
# GULP energy per Si atom -12400.018851 kJ/mol
# Density = 1.990592 g / cm^3
# Si number density = 19.951333 Si / 1000 Ang^3
#
#
#
# Elastic Constant Matrix: (Units=GPa)
#
#
# Indices 1 2 3 4 5 6 
#
# 1 110.8741 31.4632 46.8130 0.0000 0.0000 0.0000
# 2 31.4632 36.5762 24.7621 0.0000 0.0000 0.0000
# 3 46.8130 24.7621 136.2780 0.0000 0.0000 0.0000
# 4 0.0000 0.0000 0.0000 34.1941 0.0000 0.0000
# 5 0.0000 0.0000 0.0000 0.0000 34.2480 0.0000
# 6 0.0000 0.0000 0.0000 0.0000 0.0000 21.9635
#
#
#
# Elastic Compliance Matrix: (Units=1/GPa)
#
#
# Indices 1 2 3 4 5 6 
#
# 1 0.012761 -0.009133 -0.002724 0.000000 0.000000 0.000000
# 2 -0.009133 0.037712 -0.003715 0.000000 0.000000 0.000000
# 3 -0.002724 -0.003715 0.008949 0.000000 0.000000 0.000000
# 4 0.000000 0.000000 0.000000 0.029245 0.000000 0.000000
# 5 0.000000 0.000000 0.000000 0.000000 0.029199 0.000000
# 6 0.000000 0.000000 0.000000 0.000000 0.000000 0.045530
#
#
# Mechanical properties :
#
#
# Convention : Reuss Voigt Hill
#
# Bulk Modulus (GPa) = 35.36424 54.42277 44.89351
# Shear Modulus (GPa) = 24.51400 30.12712 27.32056
#
# Velocity S-wave (km/s) = 3.50907 3.89013 3.70450
# Velocity P-wave (km/s) = 5.84652 6.89307 6.39125
#
# Compressibility (1/GPa) = 0.02827715
#
# Stress axis : x y z
#
# Youngs Moduli (GPa) = 78.36306 26.51707 111.74779
#
# Poissons Ratio (x) = 0.24218 0.30441
# Poissons Ratio (y) = 0.71569 0.41514
# Poissons Ratio (z) = 0.21347 0.09851
#
# Static dielectric constant tensor:
#      x y z
#    x 3.847130 0.000000 0.000000 
#    y 0.000000 3.355010 0.000000 
#    z 0.000000 0.000000 3.769190 
# 
# 
# High freq. dielectric constant tensor:
#      x y z
#    x 1.781110 0.000000 0.000000 
#    y 0.000000 1.756030 0.000000 
#    z 0.000000 0.000000 1.788970 
# 
# From -- ./inp_files/27164.got.cif
#   From: 2010.03.12/outbox.cif.g09.slc.cpg/sg62_14_cif.got.tgz:27164.got - 2010.04.10 19:12:36.
