data_PCOD8252739
_publ_section_title
;
Structure prediction by ZEFSAII (Michael W. Deem and Ramdas Pophale) SiO2 
 PCOD8252739
Probable space group: P N M A
;
_chemical_formula_sum "Si O2"
_cell_formula_units_Z 48
_cell_length_a 17.943813
_cell_length_b 12.441226
_cell_length_c 11.724958
_cell_angle_alpha 90.000000
_cell_angle_beta 90.000000
_cell_angle_gamma 90.000000
_cell_volume 2617.515184
_symmetry_space_group_name_H-M "P N M A"
_symmetry_group_IT_number 62
_symmetry_cell_setting 'orthorhombic'
loop_
_space_group_symop_operation_xyz
x,y,z
1/2-x,-y,1/2+z
1/2+x,1/2-y,1/2-z
-x,1/2+y,-z
-x,-y,-z
1/2+x,y,1/2-z
1/2-x,1/2+y,1/2+z
x,1/2-y,z
loop_
_atom_site_type_symbol
_atom_site_label
_atom_site_fract_x
_atom_site_fract_y
_atom_site_fract_z
Si Si1 0.038223 0.124915 0.882694
Si Si2 0.923823 0.558398 0.866790
Si Si3 0.635249 0.006019 0.801914
Si Si4 0.501227 0.129145 0.146585
Si Si5 0.221327 0.123493 0.250581
Si Si6 0.143669 0.374208 0.479784
O O1 0.024317 0.250000 0.853762
O O2 0.102279 0.077661 0.800229
O O3 0.068316 0.112813 0.010411
O O4 0.959521 0.061986 0.867187
O O5 0.969005 0.630417 0.776726
O O6 0.836720 0.558556 0.830267
O O7 0.571277 0.941612 0.866575
O O8 0.696027 0.921833 0.759927
O O9 0.671563 0.078128 0.900830
O O10 0.480743 0.250000 0.112010
O O11 0.564161 0.079534 0.063483
O O12 0.218406 0.250000 0.219402
O O13 0.204505 0.103065 0.383164
O O14 0.132112 0.250000 0.499929
#
# Coordination Sequence:
#
# PCOD8252739 Si02
#       6
#     8   8   8   8   8   8
#     4  10  20  35  56  83 110 143 181 230 281 324
#     4   9  19  36  58  78 106 146 185 226 266 328
#     4  11  21  31  55  82 113 138 181 227 275 327
#     4   9  17  33  56  79 101 139 185 224 262 315
#     4  10  21  37  56  77 109 149 186 225 271 327
#     4   9  19  36  53  72 105 145 179 219 273 325
#
# _framework density 18.338003
#
# number of rings (size 3 to 8) (size 9 to 14) (size 15 to 20)
#    0.000    2.333    0.000    4.000    2.333    0.000 
#    0.000    2.500    0.000    4.000    0.000    0.000 
#    0.000    0.000    0.000    0.000    0.000    0.000 
#
# Total GULP energy -595022.038318 kJ/mol
# GULP energy per Si atom -12396.292465 kJ/mol
# Density = 1.829626 g / cm^3
# Si number density = 18.338003 Si / 1000 Ang^3
#
#
#
# Elastic Constant Matrix: (Units=GPa)
#
#
# Indices 1 2 3 4 5 6 
#
# 1 87.8772 42.5771 27.8897 0.0000 0.0000 0.0000
# 2 42.5771 72.7443 29.7415 0.0000 0.0000 0.0000
# 3 27.8897 29.7415 98.1849 0.0000 0.0000 0.0000
# 4 0.0000 0.0000 0.0000 25.3581 0.0000 0.0000
# 5 0.0000 0.0000 0.0000 0.0000 17.8293 0.0000
# 6 0.0000 0.0000 0.0000 0.0000 0.0000 25.4847
#
#
#
# Elastic Compliance Matrix: (Units=1/GPa)
#
#
# Indices 1 2 3 4 5 6 
#
# 1 0.016213 -0.008682 -0.001976 0.000000 0.000000 0.000000
# 2 -0.008682 0.020339 -0.003695 0.000000 0.000000 0.000000
# 3 -0.001976 -0.003695 0.011865 0.000000 0.000000 0.000000
# 4 0.000000 0.000000 0.000000 0.039435 0.000000 0.000000
# 5 0.000000 0.000000 0.000000 0.000000 0.056088 0.000000
# 6 0.000000 0.000000 0.000000 0.000000 0.000000 0.039239
#
#
# Mechanical properties :
#
#
# Convention : Reuss Voigt Hill
#
# Bulk Modulus (GPa) = 50.72837 51.02476 50.87656
# Shear Modulus (GPa) = 22.88814 24.30760 23.59787
#
# Velocity S-wave (km/s) = 3.53672 3.64473 3.59113
# Velocity P-wave (km/s) = 6.66340 6.75256 6.70813
#
# Compressibility (1/GPa) = 0.01971284
#
# Stress axis : x y z
#
# Youngs Moduli (GPa) = 61.67972 49.16721 84.27986
#
# Poissons Ratio (x) = 0.42685 0.16650
# Poissons Ratio (y) = 0.53548 0.31140
# Poissons Ratio (z) = 0.12185 0.18166
#
# Static dielectric constant tensor:
#      x y z
#    x 3.270020 0.000000 0.000000 
#    y 0.000000 3.290910 0.000000 
#    z 0.000000 0.000000 3.458010 
# 
# 
# High freq. dielectric constant tensor:
#      x y z
#    x 1.700060 0.000000 0.000000 
#    y 0.000000 1.705400 0.000000 
#    z 0.000000 0.000000 1.718240 
# 
# From -- ./inp_files/14117.got.cif
#   From: 2010.03.12/outbox.cif.g09.slc.cpg/sg62_8_cif.got.tgz:14117.got - 2010.04.10 19:12:36.
