data_PCOD8252535
_publ_section_title
;
Structure prediction by ZEFSAII (Michael W. Deem and Ramdas Pophale) SiO2 
 PCOD8252535
Probable space group: P N M A
;
_chemical_formula_sum "Si O2"
_cell_formula_units_Z 40
_cell_length_a 29.335872
_cell_length_b 8.846255
_cell_length_c 7.623533
_cell_angle_alpha 90.000000
_cell_angle_beta 90.000000
_cell_angle_gamma 90.000000
_cell_volume 1978.402903
_symmetry_space_group_name_H-M "P N M A"
_symmetry_group_IT_number 62
_symmetry_cell_setting 'orthorhombic'
loop_
_space_group_symop_operation_xyz
x,y,z
1/2-x,-y,1/2+z
1/2+x,1/2-y,1/2-z
-x,1/2+y,-z
-x,-y,-z
1/2+x,y,1/2-z
1/2-x,1/2+y,1/2+z
x,1/2-y,z
loop_
_atom_site_type_symbol
_atom_site_label
_atom_site_fract_x
_atom_site_fract_y
_atom_site_fract_z
Si Si1 0.206394 0.578092 0.171628
Si Si2 0.548911 0.071920 0.976029
Si Si3 0.607341 0.579429 0.268600
Si Si4 0.393242 0.426396 0.319474
Si Si5 0.197347 0.077217 0.824993
O O1 0.210568 0.750000 0.094245
O O2 0.160742 0.571486 0.290498
O O3 0.252340 0.527713 0.266408
O O4 0.197976 0.449497 0.030504
O O5 0.544245 0.250000 0.964094
O O6 0.568850 0.012713 0.792175
O O7 0.500000 0.000000 0.000000
O O8 0.579673 0.032044 0.144294
O O9 0.589126 0.750000 0.240958
O O10 0.601267 0.533973 0.474068
O O11 0.398573 0.250000 0.284586
O O12 0.343494 0.476741 0.245326
O O13 0.186824 0.250000 0.779073
#
# Coordination Sequence:
#
# PCOD8252535 Si02
#       5
#     8   8   8   8   8
#     4   9  20  36  54  83 120 160 202 244 299 358
#     4  12  26  43  66  95 123 159 206 258 312 374
#     4   9  20  41  64  88 123 164 205 254 309 365
#     4  10  22  42  65  89 124 165 203 254 311 365
#     4  10  20  34  55  87 120 158 205 248 297 359
#
# _framework density 20.218328
#
# number of rings (size 3 to 8) (size 9 to 14) (size 15 to 20)
#    0.000    2.000    0.000    4.200    2.800    6.400 
#    0.000    0.000    0.000    0.000    0.000    0.000 
#    0.000    0.000    0.000    0.000    0.000    0.000 
#
# Total GULP energy -495737.803699 kJ/mol
# GULP energy per Si atom -12393.445092 kJ/mol
# Density = 2.017231 g / cm^3
# Si number density = 20.218328 Si / 1000 Ang^3
#
#
#
# Elastic Constant Matrix: (Units=GPa)
#
#
# Indices 1 2 3 4 5 6 
#
# 1 86.7651 20.7283 12.3438 0.0000 0.0000 0.0000
# 2 20.7283 88.5991 16.3994 0.0000 0.0000 0.0000
# 3 12.3438 16.3994 50.6488 0.0000 0.0000 0.0000
# 4 0.0000 0.0000 0.0000 35.0765 0.0000 0.0000
# 5 0.0000 0.0000 0.0000 0.0000 32.0191 0.0000
# 6 0.0000 0.0000 0.0000 0.0000 0.0000 38.7010
#
#
#
# Elastic Compliance Matrix: (Units=1/GPa)
#
#
# Indices 1 2 3 4 5 6 
#
# 1 0.012438 -0.002499 -0.002222 0.000000 0.000000 0.000000
# 2 -0.002499 0.012508 -0.003441 0.000000 0.000000 0.000000
# 3 -0.002222 -0.003441 0.021400 0.000000 0.000000 0.000000
# 4 0.000000 0.000000 0.000000 0.028509 0.000000 0.000000
# 5 0.000000 0.000000 0.000000 0.000000 0.031231 0.000000
# 6 0.000000 0.000000 0.000000 0.000000 0.000000 0.025839
#
#
# Mechanical properties :
#
#
# Convention : Reuss Voigt Hill
#
# Bulk Modulus (GPa) = 33.30877 36.10622 34.70750
# Shear Modulus (GPa) = 31.59404 32.92875 32.26139
#
# Velocity S-wave (km/s) = 3.95732 4.04004 3.99889
# Velocity P-wave (km/s) = 6.11480 6.29758 6.20686
#
# Compressibility (1/GPa) = 0.03002212
#
# Stress axis : x y z
#
# Youngs Moduli (GPa) = 80.39560 79.94682 46.72982
#
# Poissons Ratio (x) = 0.19976 0.10385
# Poissons Ratio (y) = 0.20089 0.16080
# Poissons Ratio (z) = 0.17867 0.27510
#
# Static dielectric constant tensor:
#      x y z
#    x 4.054330 0.000000 0.000000 
#    y 0.000000 3.677490 0.000000 
#    z 0.000000 0.000000 3.276650 
# 
# 
# High freq. dielectric constant tensor:
#      x y z
#    x 1.801940 0.000000 0.000000 
#    y 0.000000 1.791900 0.000000 
#    z 0.000000 0.000000 1.773880 
# 
# From -- ./inp_files/9727.got.cif
#   From: 2010.03.12/outbox.cif.g09.slc.cpg/sg62_5_cif.got.tgz:9727.got - 2010.04.10 19:12:36.
