data_PCOD8252087
_publ_section_title
;
Structure prediction by ZEFSAII (Michael W. Deem and Ramdas Pophale) SiO2 
 PCOD8252087
Probable space group: P N M A
;
_chemical_formula_sum "Si O2"
_cell_formula_units_Z 56
_cell_length_a 14.718963
_cell_length_b 13.263916
_cell_length_c 14.118268
_cell_angle_alpha 90.000000
_cell_angle_beta 90.000000
_cell_angle_gamma 90.000000
_cell_volume 2756.324834
_symmetry_space_group_name_H-M "P N M A"
_symmetry_group_IT_number 62
_symmetry_cell_setting 'orthorhombic'
loop_
_space_group_symop_operation_xyz
x,y,z
1/2-x,-y,1/2+z
1/2+x,1/2-y,1/2-z
-x,1/2+y,-z
-x,-y,-z
1/2+x,y,1/2-z
1/2-x,1/2+y,1/2+z
x,1/2-y,z
loop_
_atom_site_type_symbol
_atom_site_label
_atom_site_fract_x
_atom_site_fract_y
_atom_site_fract_z
Si Si1 0.683061 0.362348 0.026896
Si Si2 0.889232 0.863771 0.928664
Si Si3 0.494272 0.416865 0.078382
Si Si4 0.246413 0.508707 0.803271
Si Si5 0.199185 0.557569 0.596910
Si Si6 0.414701 0.864193 0.361600
Si Si7 0.940498 0.012608 0.763779
O O1 0.720768 0.250000 0.000142
O O2 0.577755 0.342119 0.058054
O O3 0.738502 0.406788 0.116123
O O4 0.691450 0.440422 0.939087
O O5 0.897344 0.750000 0.890631
O O6 0.932059 0.935008 0.850259
O O7 0.784328 0.889503 0.952075
O O8 0.941512 0.877387 0.027983
O O9 0.390550 0.375895 0.070657
O O10 0.499625 0.461910 0.183213
O O11 0.500000 0.500000 0.000000
O O12 0.210833 0.563107 0.709571
O O13 0.173680 0.428479 0.837084
O O14 0.342743 0.454410 0.778473
O O15 0.388972 0.750000 0.337735
O O16 0.503891 0.891572 0.301110
#
# Coordination Sequence:
#
# PCOD8252087 Si02
#       7
#     8   8   8   8   8   8   8
#     4  10  21  38  59  88 123 162 205 253 307 368
#     4  10  22  39  63  89 120 162 204 250 307 371
#     4   9  19  35  57  84 118 159 195 251 309 350
#     4  10  21  38  63  89 122 158 198 261 306 360
#     4  10  19  37  62  86 123 158 201 255 307 360
#     4  11  22  40  64  89 120 160 204 250 312 378
#     4  10  21  39  64  86 124 157 201 255 306 363
#
# _framework density 20.31691
#
# number of rings (size 3 to 8) (size 9 to 14) (size 15 to 20)
#    0.000    2.000    2.857    0.429    0.000    6.857 
#    0.000    2.857    0.000    0.000    0.000    0.000 
#    0.000    0.000    0.000    0.000    0.000    0.000 
#
# Total GULP energy -693920.546140 kJ/mol
# GULP energy per Si atom -12391.438324 kJ/mol
# Density = 2.027067 g / cm^3
# Si number density = 20.316910 Si / 1000 Ang^3
#
#
#
# Elastic Constant Matrix: (Units=GPa)
#
#
# Indices 1 2 3 4 5 6 
#
# 1 74.2119 17.4304 11.6875 0.0000 0.0000 0.0000
# 2 17.4304 73.0463 5.9556 0.0000 0.0000 0.0000
# 3 11.6875 5.9556 57.3749 0.0000 0.0000 0.0000
# 4 0.0000 0.0000 0.0000 15.2374 0.0000 0.0000
# 5 0.0000 0.0000 0.0000 0.0000 30.1239 0.0000
# 6 0.0000 0.0000 0.0000 0.0000 0.0000 12.6354
#
#
#
# Elastic Compliance Matrix: (Units=1/GPa)
#
#
# Indices 1 2 3 4 5 6 
#
# 1 0.014663 -0.003283 -0.002646 0.000000 0.000000 0.000000
# 2 -0.003283 0.014542 -0.000841 0.000000 0.000000 0.000000
# 3 -0.002646 -0.000841 0.018055 0.000000 0.000000 0.000000
# 4 0.000000 0.000000 0.000000 0.065628 0.000000 0.000000
# 5 0.000000 0.000000 0.000000 0.000000 0.033196 0.000000
# 6 0.000000 0.000000 0.000000 0.000000 0.000000 0.079143
#
#
# Mechanical properties :
#
#
# Convention : Reuss Voigt Hill
#
# Bulk Modulus (GPa) = 29.65562 30.53113 30.09337
# Shear Modulus (GPa) = 19.99943 22.90331 21.45137
#
# Velocity S-wave (km/s) = 3.14088 3.36118 3.25289
# Velocity P-wave (km/s) = 5.27083 5.48848 5.38076
#
# Compressibility (1/GPa) = 0.03372043
#
# Stress axis : x y z
#
# Youngs Moduli (GPa) = 68.19997 68.76675 55.38481
#
# Poissons Ratio (x) = 0.22577 0.14655
# Poissons Ratio (y) = 0.22391 0.04656
# Poissons Ratio (z) = 0.18046 0.05781
#
# Static dielectric constant tensor:
#      x y z
#    x 4.183360 0.000000 0.000000 
#    y 0.000000 3.384500 0.000000 
#    z 0.000000 0.000000 3.834000 
# 
# 
# High freq. dielectric constant tensor:
#      x y z
#    x 1.803110 0.000000 0.000000 
#    y 0.000000 1.760240 0.000000 
#    z 0.000000 0.000000 1.809800 
# 
# From -- ./inp_files/18989.got.cif
#   From: 2010.03.12/outbox.cif.g09.slc.cpg/sg62_10_cif.got.tgz:18989.got - 2010.04.10 19:12:36.
