data_PCOD8252415
_publ_section_title
;
Structure prediction by ZEFSAII (Michael W. Deem and Ramdas Pophale) SiO2 
 PCOD8252415
Probable space group: P N M A
;
_chemical_formula_sum "Si O2"
_cell_formula_units_Z 40
_cell_length_a 9.459222
_cell_length_b 8.950233
_cell_length_c 25.685110
_cell_angle_alpha 90.000000
_cell_angle_beta 90.000000
_cell_angle_gamma 90.000000
_cell_volume 2174.558970
_symmetry_space_group_name_H-M "P N M A"
_symmetry_group_IT_number 62
_symmetry_cell_setting 'orthorhombic'
loop_
_space_group_symop_operation_xyz
x,y,z
1/2-x,-y,1/2+z
1/2+x,1/2-y,1/2-z
-x,1/2+y,-z
-x,-y,-z
1/2+x,y,1/2-z
1/2-x,1/2+y,1/2+z
x,1/2-y,z
loop_
_atom_site_type_symbol
_atom_site_label
_atom_site_fract_x
_atom_site_fract_y
_atom_site_fract_z
Si Si1 0.513428 0.422967 0.718126
Si Si2 0.725281 0.920669 0.362803
Si Si3 0.488349 0.925305 0.444489
Si Si4 0.700995 0.578151 0.636290
Si Si5 0.491122 0.421074 0.172762
O O1 0.557659 0.250000 0.716651
O O2 0.363729 0.447842 0.689812
O O3 0.636095 0.514453 0.689528
O O4 0.498844 0.475670 0.776856
O O5 0.776830 0.750000 0.365980
O O6 0.630240 0.962288 0.412507
O O7 0.860085 0.028483 0.362910
O O8 0.465911 0.750000 0.450742
O O9 0.500000 0.000000 0.500000
O O10 0.353383 0.989487 0.414021
O O11 0.655678 0.750000 0.630968
O O12 0.869408 0.559260 0.638069
O O13 0.471293 0.250000 0.190329
#
# Coordination Sequence:
#
# PCOD8252415 Si02
#       5
#     8   8   8   8   8
#     4  10  20  34  53  77 107 146 185 217 257 311
#     4   9  20  36  54  78 106 138 177 217 259 312
#     4  10  21  39  62  83 102 132 174 218 267 319
#     4  10  21  36  54  79 109 140 178 220 260 309
#     4  11  22  33  50  79 112 144 177 216 262 309
#
# _framework density 18.394535000000001
#
# number of rings (size 3 to 8) (size 9 to 14) (size 15 to 20)
#    0.000    2.000    0.000    4.800    0.000   11.200 
#    0.000    1.000    0.000    0.000    0.000    0.000 
#    0.000    0.000    0.000    0.000    0.000    0.000 
#
# Total GULP energy -496187.658256 kJ/mol
# GULP energy per Si atom -12404.691456 kJ/mol
# Density = 1.835267 g / cm^3
# Si number density = 18.394535 Si / 1000 Ang^3
#
#
#
# Elastic Constant Matrix: (Units=GPa)
#
#
# Indices 1 2 3 4 5 6 
#
# 1 113.3643 67.5870 47.1388 0.0000 0.0000 0.0000
# 2 67.5870 117.9513 55.7057 0.0000 0.0000 0.0000
# 3 47.1388 55.7057 121.3681 0.0000 0.0000 0.0000
# 4 0.0000 0.0000 0.0000 34.7110 0.0000 0.0000
# 5 0.0000 0.0000 0.0000 0.0000 10.1419 0.0000
# 6 0.0000 0.0000 0.0000 0.0000 0.0000 34.0276
#
#
#
# Elastic Compliance Matrix: (Units=1/GPa)
#
#
# Indices 1 2 3 4 5 6 
#
# 1 0.013850 -0.006889 -0.002217 0.000000 0.000000 0.000000
# 2 -0.006889 0.014251 -0.003865 0.000000 0.000000 0.000000
# 3 -0.002217 -0.003865 0.010875 0.000000 0.000000 0.000000
# 4 0.000000 0.000000 0.000000 0.028809 0.000000 0.000000
# 5 0.000000 0.000000 0.000000 0.000000 0.098601 0.000000
# 6 0.000000 0.000000 0.000000 0.000000 0.000000 0.029388
#
#
# Mechanical properties :
#
#
# Convention : Reuss Voigt Hill
#
# Bulk Modulus (GPa) = 76.73119 77.06073 76.89596
# Shear Modulus (GPa) = 22.11781 27.92624 25.02202
#
# Velocity S-wave (km/s) = 3.47134 3.90061 3.69222
# Velocity P-wave (km/s) = 7.60734 7.89117 7.75056
#
# Compressibility (1/GPa) = 0.01303251
#
# Stress axis : x y z
#
# Youngs Moduli (GPa) = 72.19986 70.17005 91.95633
#
# Poissons Ratio (x) = 0.48341 0.20391
# Poissons Ratio (y) = 0.49740 0.35544
# Poissons Ratio (z) = 0.16010 0.27123
#
# Static dielectric constant tensor:
#      x y z
#    x 3.390960 0.000000 0.000000 
#    y 0.000000 3.524050 0.000000 
#    z 0.000000 0.000000 3.201700 
# 
# 
# High freq. dielectric constant tensor:
#      x y z
#    x 1.713880 0.000000 0.000000 
#    y 0.000000 1.729870 0.000000 
#    z 0.000000 0.000000 1.697260 
# 
# From -- ./inp_files/28563.got.cif
#   From: 2010.03.12/outbox.cif.g09.slc.cpg/sg62_15_cif.got.tgz:28563.got - 2010.04.10 19:12:36.
