data_PCOD8252476
_publ_section_title
;
Structure prediction by ZEFSAII (Michael W. Deem and Ramdas Pophale) SiO2 
 PCOD8252476
Probable space group: P N M A
;
_chemical_formula_sum "Si O2"
_cell_formula_units_Z 40
_cell_length_a 17.789335
_cell_length_b 9.000837
_cell_length_c 13.626135
_cell_angle_alpha 90.000000
_cell_angle_beta 90.000000
_cell_angle_gamma 90.000000
_cell_volume 2181.801811
_symmetry_space_group_name_H-M "P N M A"
_symmetry_group_IT_number 62
_symmetry_cell_setting 'orthorhombic'
loop_
_space_group_symop_operation_xyz
x,y,z
1/2-x,-y,1/2+z
1/2+x,1/2-y,1/2-z
-x,1/2+y,-z
-x,-y,-z
1/2+x,y,1/2-z
1/2-x,1/2+y,1/2+z
x,1/2-y,z
loop_
_atom_site_type_symbol
_atom_site_label
_atom_site_fract_x
_atom_site_fract_y
_atom_site_fract_z
Si Si1 0.024468 0.426574 0.206657
Si Si2 0.688510 0.081029 0.826635
Si Si3 0.618920 0.424624 0.624037
Si Si4 0.976495 0.923386 0.400355
Si Si5 0.830780 0.575286 0.912421
O O1 0.018892 0.250000 0.217366
O O2 0.023164 0.501036 0.313217
O O3 0.101643 0.479648 0.156424
O O4 0.957236 0.483750 0.138349
O O5 0.714474 0.250000 0.838680
O O6 0.676836 0.041266 0.712143
O O7 0.611813 0.050713 0.884971
O O8 0.752002 0.979462 0.871991
O O9 0.598060 0.250000 0.622832
O O10 0.656784 0.480855 0.523680
O O11 0.996693 0.750000 0.402740
O O12 0.000000 0.000000 0.500000
O O13 0.827774 0.750000 0.912971
#
# Coordination Sequence:
#
# PCOD8252476 Si02
#       5
#     8   8   8   8   8
#     4  10  20  34  54  82 109 137 177 222 265 318
#     4   9  20  36  53  76 106 137 175 219 266 318
#     4   9  19  37  55  74 104 141 178 220 266 315
#     4  10  21  38  58  80 107 142 181 221 263 315
#     4  10  21  35  54  80 109 139 177 222 268 318
#
# _framework density 18.333470999999999
#
# number of rings (size 3 to 8) (size 9 to 14) (size 15 to 20)
#    0.000    2.400    0.000    3.000    0.000    8.000 
#    0.000    4.000    0.000    0.000    0.000    0.000 
#    0.000    0.000    0.000    0.000    0.000    0.000 
#
# Total GULP energy -496077.279051 kJ/mol
# GULP energy per Si atom -12401.931976 kJ/mol
# Density = 1.829174 g / cm^3
# Si number density = 18.333471 Si / 1000 Ang^3
#
#
#
# Elastic Constant Matrix: (Units=GPa)
#
#
# Indices 1 2 3 4 5 6 
#
# 1 86.6447 34.9952 78.7341 0.0000 0.0000 0.0000
# 2 34.9952 57.0030 53.1437 0.0000 0.0000 0.0000
# 3 78.7341 53.1437 167.0687 0.0000 0.0000 0.0000
# 4 0.0000 0.0000 0.0000 31.8770 0.0000 0.0000
# 5 0.0000 0.0000 0.0000 0.0000 23.1906 0.0000
# 6 0.0000 0.0000 0.0000 0.0000 0.0000 36.5336
#
#
#
# Elastic Compliance Matrix: (Units=1/GPa)
#
#
# Indices 1 2 3 4 5 6 
#
# 1 0.021245 -0.005272 -0.008335 0.000000 0.000000 0.000000
# 2 -0.005272 0.026247 -0.005865 0.000000 0.000000 0.000000
# 3 -0.008335 -0.005865 0.011779 0.000000 0.000000 0.000000
# 4 0.000000 0.000000 0.000000 0.031371 0.000000 0.000000
# 5 0.000000 0.000000 0.000000 0.000000 0.043121 0.000000
# 6 0.000000 0.000000 0.000000 0.000000 0.000000 0.027372
#
#
# Mechanical properties :
#
#
# Convention : Reuss Voigt Hill
#
# Bulk Modulus (GPa) = 49.19348 71.60693 60.40021
# Shear Modulus (GPa) = 24.17178 27.90980 26.04079
#
# Velocity S-wave (km/s) = 3.63499 3.90595 3.77290
# Velocity P-wave (km/s) = 6.67146 7.71264 7.21086
#
# Compressibility (1/GPa) = 0.02032790
#
# Stress axis : x y z
#
# Youngs Moduli (GPa) = 47.07075 38.09975 84.89633
#
# Poissons Ratio (x) = 0.20085 0.70761
# Poissons Ratio (y) = 0.24815 0.49788
# Poissons Ratio (z) = 0.39233 0.22344
#
# Static dielectric constant tensor:
#      x y z
#    x 3.340950 0.000000 0.000000 
#    y 0.000000 3.351990 0.000000 
#    z 0.000000 0.000000 3.631810 
# 
# 
# High freq. dielectric constant tensor:
#      x y z
#    x 1.705370 0.000000 0.000000 
#    y 0.000000 1.712490 0.000000 
#    z 0.000000 0.000000 1.725280 
# 
# From -- ./inp_files/13870.got.cif
#   From: 2010.03.12/outbox.cif.g09.slc.cpg/sg62_7_cif.got.tgz:13870.got - 2010.04.10 19:12:36.
