data_PCOD8252760
_publ_section_title
;
Structure prediction by ZEFSAII (Michael W. Deem and Ramdas Pophale) SiO2 
 PCOD8252760
Probable space group: P N M A
;
_chemical_formula_sum "Si O2"
_cell_formula_units_Z 64
_cell_length_a 32.361324
_cell_length_b 8.690072
_cell_length_c 11.401106
_cell_angle_alpha 90.000000
_cell_angle_beta 90.000000
_cell_angle_gamma 90.000000
_cell_volume 3206.244517
_symmetry_space_group_name_H-M "P N M A"
_symmetry_group_IT_number 62
_symmetry_cell_setting 'orthorhombic'
loop_
_space_group_symop_operation_xyz
x,y,z
1/2-x,-y,1/2+z
1/2+x,1/2-y,1/2-z
-x,1/2+y,-z
-x,-y,-z
1/2+x,y,1/2-z
1/2-x,1/2+y,1/2+z
x,1/2-y,z
loop_
_atom_site_type_symbol
_atom_site_label
_atom_site_fract_x
_atom_site_fract_y
_atom_site_fract_z
Si Si1 0.881896 0.930703 0.099988
Si Si2 0.822171 0.924741 0.545502
Si Si3 0.404580 0.575562 0.813462
Si Si4 0.227758 0.929845 0.263724
Si Si5 0.987308 0.429243 0.627032
Si Si6 0.317217 0.931784 0.212385
Si Si7 0.522430 0.431917 0.617287
Si Si8 0.648925 0.930149 0.373214
O O1 0.877629 0.750000 0.071739
O O2 0.857605 0.981331 0.216256
O O3 0.929561 0.979155 0.109667
O O4 0.856648 0.032018 0.007842
O O5 0.805732 0.750000 0.549179
O O6 0.867420 0.937296 0.596910
O O7 0.825982 0.992070 0.416662
O O8 0.788615 0.030852 0.607971
O O9 0.421509 0.750000 0.803223
O O10 0.439084 0.461698 0.861571
O O11 0.388956 0.519454 0.687569
O O12 0.231539 0.750000 0.245670
O O13 0.273144 0.005785 0.251126
O O14 0.193707 0.993383 0.170217
O O15 0.997330 0.250000 0.617466
O O16 0.007227 0.491517 0.752236
O O17 0.000000 0.500000 0.500000
O O18 0.312941 0.750000 0.218435
O O19 0.500000 0.500000 0.500000
O O20 0.515690 0.250000 0.611573
O O21 0.644835 0.750000 0.346085
#
# Coordination Sequence:
#
# PCOD8252760 Si02
#       8
#     8   8   8   8   8   8   8   8
#     4  10  21  37  59  83 110 146 190 234 281 337
#     4   9  19  35  58  81 107 145 188 231 278 337
#     4  10  20  36  60  86 112 148 193 236 283 342
#     4   9  19  35  54  79 111 147 183 228 280 329
#     4  11  24  40  61  90 122 157 196 244 299 359
#     4   9  19  35  56  79 108 147 186 229 280 330
#     4  10  23  41  63  88 117 152 194 244 297 354
#     4  10  20  35  56  83 117 150 185 232 283 338
#
# _framework density 19.961048000000002
#
# number of rings (size 3 to 8) (size 9 to 14) (size 15 to 20)
#    0.000    2.250    0.000    1.875    3.500    4.500 
#    0.000    1.250    0.000    0.000    0.000    0.000 
#    0.000    0.000    0.000    0.000    0.000    0.000 
#
# Total GULP energy -793009.516816 kJ/mol
# GULP energy per Si atom -12390.773700 kJ/mol
# Density = 1.991562 g / cm^3
# Si number density = 19.961048 Si / 1000 Ang^3
#
#
#
# Elastic Constant Matrix: (Units=GPa)
#
#
# Indices 1 2 3 4 5 6 
#
# 1 100.8490 26.5639 54.2041 0.0000 0.0000 0.0000
# 2 26.5639 26.6875 25.0810 0.0000 0.0000 0.0000
# 3 54.2041 25.0810 158.8445 0.0000 0.0000 0.0000
# 4 0.0000 0.0000 0.0000 30.7381 0.0000 0.0000
# 5 0.0000 0.0000 0.0000 0.0000 13.0933 0.0000
# 6 0.0000 0.0000 0.0000 0.0000 0.0000 21.9021
#
#
#
# Elastic Compliance Matrix: (Units=1/GPa)
#
#
# Indices 1 2 3 4 5 6 
#
# 1 0.014687 -0.011635 -0.003175 0.000000 0.000000 0.000000
# 2 -0.011635 0.053218 -0.004432 0.000000 0.000000 0.000000
# 3 -0.003175 -0.004432 0.008079 0.000000 0.000000 0.000000
# 4 0.000000 0.000000 0.000000 0.032533 0.000000 0.000000
# 5 0.000000 0.000000 0.000000 0.000000 0.076375 0.000000
# 6 0.000000 0.000000 0.000000 0.000000 0.000000 0.045658
#
#
# Mechanical properties :
#
#
# Convention : Reuss Voigt Hill
#
# Bulk Modulus (GPa) = 26.66775 55.34212 41.00493
# Shear Modulus (GPa) = 17.75990 25.18216 21.47103
#
# Velocity S-wave (km/s) = 2.98607 3.55570 3.28326
# Velocity P-wave (km/s) = 5.02769 6.68151 5.91271
#
# Compressibility (1/GPa) = 0.03749848
#
# Stress axis : x y z
#
# Youngs Moduli (GPa) = 68.08810 18.79073 123.78342
#
# Poissons Ratio (x) = 0.21864 0.39296
# Poissons Ratio (y) = 0.79223 0.54866
# Poissons Ratio (z) = 0.21615 0.08329
#
# Static dielectric constant tensor:
#      x y z
#    x 3.812320 0.000000 0.000000 
#    y 0.000000 3.435490 0.000000 
#    z 0.000000 0.000000 3.927960 
# 
# 
# High freq. dielectric constant tensor:
#      x y z
#    x 1.788800 0.000000 0.000000 
#    y 0.000000 1.753890 0.000000 
#    z 0.000000 0.000000 1.790040 
# 
# From -- ./inp_files/15766.got.cif
#   From: 2010.03.12/outbox.cif.g09.slc.cpg/sg62_8_cif.got.tgz:15766.got - 2010.04.10 19:12:36.
