data_PCOD8252368
_publ_section_title
;
Structure prediction by ZEFSAII (Michael W. Deem and Ramdas Pophale) SiO2 
 PCOD8252368
Probable space group: P N M A
;
_chemical_formula_sum "Si O2"
_cell_formula_units_Z 64
_cell_length_a 22.960280
_cell_length_b 8.886658
_cell_length_c 18.940362
_cell_angle_alpha 90.000000
_cell_angle_beta 90.000000
_cell_angle_gamma 90.000000
_cell_volume 3864.594416
_symmetry_space_group_name_H-M "P N M A"
_symmetry_group_IT_number 62
_symmetry_cell_setting 'orthorhombic'
loop_
_space_group_symop_operation_xyz
x,y,z
1/2-x,-y,1/2+z
1/2+x,1/2-y,1/2-z
-x,1/2+y,-z
-x,-y,-z
1/2+x,y,1/2-z
1/2-x,1/2+y,1/2+z
x,1/2-y,z
loop_
_atom_site_type_symbol
_atom_site_label
_atom_site_fract_x
_atom_site_fract_y
_atom_site_fract_z
Si Si1 0.731063 0.924592 0.644899
Si Si2 0.375352 0.575287 0.999852
Si Si3 0.559322 0.074489 0.857267
Si Si4 0.842629 0.422942 0.276655
Si Si5 0.436042 0.925909 0.853908
Si Si6 0.664220 0.572474 0.226902
Si Si7 0.223659 0.075777 0.149571
Si Si8 0.248724 0.574648 0.494003
O O1 0.747189 0.750000 0.640297
O O2 0.675594 0.951489 0.695295
O O3 0.788189 0.006664 0.673575
O O4 0.716404 0.988035 0.567488
O O5 0.357503 0.750000 0.001210
O O6 0.413056 0.530412 0.067716
O O7 0.317613 0.477066 0.999087
O O8 0.413600 0.534035 0.931933
O O9 0.544525 0.250000 0.852658
O O10 0.603817 0.030858 0.794849
O O11 0.501853 0.978479 0.846336
O O12 0.860726 0.250000 0.289061
O O13 0.788768 0.467734 0.326667
O O14 0.431898 0.750000 0.838350
O O15 0.398827 0.012582 0.795071
O O16 0.665568 0.750000 0.221949
O O17 0.676998 0.522070 0.307313
O O18 0.212264 0.250000 0.167471
O O19 0.217358 0.040227 0.066788
O O20 0.248940 0.750000 0.476901
#
# Coordination Sequence:
#
# PCOD8252368 Si02
#       8
#     8   8   8   8   8   8   8   8
#     4  10  20  34  51  72 103 135 167 208 257 307
#     4  10  21  34  48  70 102 139 174 209 250 295
#     4  11  22  34  50  74 101 132 176 220 250 292
#     4   9  18  34  51  69  97 135 170 204 252 304
#     4  11  22  36  52  69  99 142 176 209 254 303
#     4  11  21  33  51  75  99 130 172 215 253 296
#     4   9  19  34  51  73 102 134 166 206 257 307
#     4  11  20  31  52  78 103 135 172 209 250 303
#
# _framework density 16.560600000000001
#
# number of rings (size 3 to 8) (size 9 to 14) (size 15 to 20)
#    0.000    1.750    2.500    3.750    0.000    4.500 
#    0.000    0.000    0.000    0.000    0.000    0.875 
#    0.000    0.000    0.000    0.000    0.000    0.000 
#
# Total GULP energy -793834.621110 kJ/mol
# GULP energy per Si atom -12403.665955 kJ/mol
# Density = 1.652291 g / cm^3
# Si number density = 16.560600 Si / 1000 Ang^3
#
#
#
# Elastic Constant Matrix: (Units=GPa)
#
#
# Indices 1 2 3 4 5 6 
#
# 1 71.9378 41.6368 51.3079 0.0000 0.0000 0.0000
# 2 41.6368 97.0488 56.7260 0.0000 0.0000 0.0000
# 3 51.3079 56.7260 112.5252 0.0000 0.0000 0.0000
# 4 0.0000 0.0000 0.0000 28.8656 0.0000 0.0000
# 5 0.0000 0.0000 0.0000 0.0000 20.4549 0.0000
# 6 0.0000 0.0000 0.0000 0.0000 0.0000 27.6788
#
#
#
# Elastic Compliance Matrix: (Units=1/GPa)
#
#
# Indices 1 2 3 4 5 6 
#
# 1 0.022267 -0.005130 -0.007567 0.000000 0.000000 0.000000
# 2 -0.005130 0.015791 -0.005621 0.000000 0.000000 0.000000
# 3 -0.007567 -0.005621 0.015171 0.000000 0.000000 0.000000
# 4 0.000000 0.000000 0.000000 0.034643 0.000000 0.000000
# 5 0.000000 0.000000 0.000000 0.000000 0.048888 0.000000
# 6 0.000000 0.000000 0.000000 0.000000 0.000000 0.036129
#
#
# Mechanical properties :
#
#
# Convention : Reuss Voigt Hill
#
# Bulk Modulus (GPa) = 60.26949 64.53925 62.40437
# Shear Modulus (GPa) = 23.24973 24.18926 23.71949
#
# Velocity S-wave (km/s) = 3.75095 3.82599 3.78866
# Velocity P-wave (km/s) = 7.43181 7.65335 7.54340
#
# Compressibility (1/GPa) = 0.01659214
#
# Stress axis : x y z
#
# Youngs Moduli (GPa) = 44.90918 63.32799 65.91595
#
# Poissons Ratio (x) = 0.32490 0.49877
# Poissons Ratio (y) = 0.23040 0.37052
# Poissons Ratio (z) = 0.33982 0.35598
#
# Static dielectric constant tensor:
#      x y z
#    x 2.864880 0.000000 0.000000 
#    y 0.000000 3.153890 0.000000 
#    z 0.000000 0.000000 3.355070 
# 
# 
# High freq. dielectric constant tensor:
#      x y z
#    x 1.606990 0.000000 0.000000 
#    y 0.000000 1.649600 0.000000 
#    z 0.000000 0.000000 1.637890 
# 
# From -- ./inp_files/24770.got.cif
#   From: 2010.03.12/outbox.cif.g09.slc.cpg/sg62_13_cif.got.tgz:24770.got - 2010.04.10 19:12:36.
