data_PCOD8252359
_publ_section_title
;
Structure prediction by ZEFSAII (Michael W. Deem and Ramdas Pophale) SiO2 
 PCOD8252359
Probable space group: P N M A
;
_chemical_formula_sum "Si O2"
_cell_formula_units_Z 40
_cell_length_a 23.492369
_cell_length_b 10.038773
_cell_length_c 8.919439
_cell_angle_alpha 90.000000
_cell_angle_beta 90.000000
_cell_angle_gamma 90.000000
_cell_volume 2103.511969
_symmetry_space_group_name_H-M "P N M A"
_symmetry_group_IT_number 62
_symmetry_cell_setting 'orthorhombic'
loop_
_space_group_symop_operation_xyz
x,y,z
1/2-x,-y,1/2+z
1/2+x,1/2-y,1/2-z
-x,1/2+y,-z
-x,-y,-z
1/2+x,y,1/2-z
1/2-x,1/2+y,1/2+z
x,1/2-y,z
loop_
_atom_site_type_symbol
_atom_site_label
_atom_site_fract_x
_atom_site_fract_y
_atom_site_fract_z
Si Si1 0.121134 0.998314 0.323144
Si Si2 0.184836 0.750000 0.827985
Si Si3 0.810833 0.750000 0.669408
Si Si4 0.684857 0.250000 0.814843
Si Si5 0.183473 0.750000 0.183692
Si Si6 0.499274 0.587983 0.851533
Si Si7 0.120595 0.987071 0.680861
O O1 0.146979 0.873361 0.239988
O O2 0.123277 0.973849 0.501406
O O3 0.159195 0.119803 0.268364
O O4 0.057534 0.038034 0.266614
O O5 0.248252 0.750000 0.765576
O O6 0.158103 0.879641 0.760610
O O7 0.182737 0.750000 0.006011
O O8 0.812156 0.750000 0.491564
O O9 0.750708 0.250000 0.754393
O O10 0.647175 0.374888 0.760331
O O11 0.498159 0.750000 0.880649
O O12 0.555902 0.541812 0.762408
O O13 0.500000 0.500000 0.000000
#
# Coordination Sequence:
#
# PCOD8252359 Si02
#       7
#     8   4   4   4   4   8   8
#     4  10  20  36  58  85 110 144 186 238 279 330
#     4  11  21  36  53  79 113 155 184 225 274 342
#     4   9  18  34  57  79 111 145 186 235 284 322
#     4   9  20  36  55  85 111 145 186 239 276 334
#     4  11  23  36  53  81 119 151 190 221 278 334
#     4  10  20  33  59  91 113 136 184 241 287 330
#     4  10  20  36  61  82 111 141 189 233 286 326
#
# _framework density 19.015817999999999
#
# number of rings (size 3 to 8) (size 9 to 14) (size 15 to 20)
#    0.000    2.000    2.000    1.800    8.400    0.000 
#    0.000    4.000    0.000    0.000    0.000    0.000 
#    0.000    0.000    0.000    0.000    0.000    0.000 
#
# Total GULP energy -495547.397402 kJ/mol
# GULP energy per Si atom -12388.684935 kJ/mol
# Density = 1.897254 g / cm^3
# Si number density = 19.015818 Si / 1000 Ang^3
#
#
#
# Elastic Constant Matrix: (Units=GPa)
#
#
# Indices 1 2 3 4 5 6 
#
# 1 226.8596 111.9257 33.2771 0.0000 0.0000 0.0000
# 2 111.9257 195.1597 30.4727 0.0000 0.0000 0.0000
# 3 33.2771 30.4727 31.3289 0.0000 0.0000 0.0000
# 4 0.0000 0.0000 0.0000 45.4004 0.0000 0.0000
# 5 0.0000 0.0000 0.0000 0.0000 23.9315 0.0000
# 6 0.0000 0.0000 0.0000 0.0000 0.0000 67.0227
#
#
#
# Elastic Compliance Matrix: (Units=1/GPa)
#
#
# Indices 1 2 3 4 5 6 
#
# 1 0.006524 -0.003136 -0.003880 0.000000 0.000000 0.000000
# 2 -0.003136 0.007549 -0.004012 0.000000 0.000000 0.000000
# 3 -0.003880 -0.004012 0.039942 0.000000 0.000000 0.000000
# 4 0.000000 0.000000 0.000000 0.022026 0.000000 0.000000
# 5 0.000000 0.000000 0.000000 0.000000 0.041786 0.000000
# 6 0.000000 0.000000 0.000000 0.000000 0.000000 0.014920
#
#
# Mechanical properties :
#
#
# Convention : Reuss Voigt Hill
#
# Bulk Modulus (GPa) = 31.28819 89.41099 60.34959
# Shear Modulus (GPa) = 30.21945 45.78244 38.00094
#
# Velocity S-wave (km/s) = 3.99077 4.91205 4.47518
# Velocity P-wave (km/s) = 6.14203 8.90462 7.64908
#
# Compressibility (1/GPa) = 0.03196094
#
# Stress axis : x y z
#
# Youngs Moduli (GPa) = 153.27319 132.46997 25.03604
#
# Poissons Ratio (x) = 0.41542 0.09713
# Poissons Ratio (y) = 0.48066 0.10043
# Poissons Ratio (z) = 0.59466 0.53142
#
# Static dielectric constant tensor:
#      x y z
#    x 4.487640 0.000000 0.000000 
#    y 0.000000 0.369800 0.000000 
#    z 0.000000 0.000000 2.999590 
# 
# 
# High freq. dielectric constant tensor:
#      x y z
#    x 1.770990 0.000000 0.000000 
#    y 0.000000 1.761110 0.000000 
#    z 0.000000 0.000000 1.681860 
# 
# From -- ./inp_files/9158.got.cif
#   From: 2010.03.12/outbox.cif.g09.slc.cpg/sg62_5_cif.got.tgz:9158.got - 2010.04.10 19:12:36.
