data_PCOD8252180
_publ_section_title
;
Structure prediction by ZEFSAII (Michael W. Deem and Ramdas Pophale) SiO2 
 PCOD8252180
Probable space group: P N M A
;
_chemical_formula_sum "Si O2"
_cell_formula_units_Z 56
_cell_length_a 18.468019
_cell_length_b 8.999390
_cell_length_c 20.517744
_cell_angle_alpha 90.000000
_cell_angle_beta 90.000000
_cell_angle_gamma 90.000000
_cell_volume 3410.067632
_symmetry_space_group_name_H-M "P N M A"
_symmetry_group_IT_number 62
_symmetry_cell_setting 'orthorhombic'
loop_
_space_group_symop_operation_xyz
x,y,z
1/2-x,-y,1/2+z
1/2+x,1/2-y,1/2-z
-x,1/2+y,-z
-x,-y,-z
1/2+x,y,1/2-z
1/2-x,1/2+y,1/2+z
x,1/2-y,z
loop_
_atom_site_type_symbol
_atom_site_label
_atom_site_fract_x
_atom_site_fract_y
_atom_site_fract_z
Si Si1 0.217610 0.914915 0.179579
Si Si2 0.922787 0.923904 0.494158
Si Si3 0.783338 0.586551 0.177089
Si Si4 0.581378 0.575872 0.250386
Si Si5 0.652681 0.421067 0.130525
Si Si6 0.348446 0.425960 0.127366
Si Si7 0.918093 0.924751 0.249499
O O1 0.219467 0.750000 0.147659
O O2 0.250637 0.907432 0.251135
O O3 0.134784 0.972533 0.190019
O O4 0.264084 0.027390 0.135560
O O5 0.933220 0.750000 0.479626
O O6 0.878429 0.952244 0.559687
O O7 0.877574 0.999528 0.437470
O O8 0.000000 0.000000 0.500000
O O9 0.781284 0.750000 0.144786
O O10 0.735974 0.477861 0.132265
O O11 0.866727 0.533113 0.187615
O O12 0.591119 0.750000 0.237927
O O13 0.600930 0.499749 0.182360
O O14 0.499813 0.534479 0.270633
O O15 0.653598 0.250000 0.148916
O O16 0.354179 0.250000 0.121807
O O17 0.396980 0.480994 0.187303
O O18 0.909148 0.750000 0.266488
#
# Coordination Sequence:
#
# PCOD8252180 Si02
#       7
#     8   8   8   8   8   8   8
#     4   8  15  29  46  64  87 117 149 181 219 264
#     4  11  23  36  48  65  90 121 155 189 222 261
#     4   8  15  28  46  65  87 117 149 179 219 268
#     4   9  17  29  47  68  91 119 148 179 220 265
#     4  10  20  31  44  64  90 118 150 185 221 260
#     4  11  21  31  45  66  91 122 155 186 222 263
#     4   9  17  30  47  68  93 120 149 183 222 267
#
# _framework density 16.421961
#
# number of rings (size 3 to 8) (size 9 to 14) (size 15 to 20)
#    0.000    2.571    0.000    4.714    0.000   10.286 
#    0.000    0.000    0.000    0.000    0.000    1.000 
#    0.000    0.000    0.000    0.000    0.000    0.000 
#
# Total GULP energy -694102.889759 kJ/mol
# GULP energy per Si atom -12394.694460 kJ/mol
# Density = 1.638458 g / cm^3
# Si number density = 16.421961 Si / 1000 Ang^3
#
#
#
# Elastic Constant Matrix: (Units=GPa)
#
#
# Indices 1 2 3 4 5 6 
#
# 1 164.5337 61.4114 54.4537 0.0000 0.0000 0.0000
# 2 61.4114 93.8294 49.3554 0.0000 0.0000 0.0000
# 3 54.4537 49.3554 55.3658 0.0000 0.0000 0.0000
# 4 0.0000 0.0000 0.0000 22.3657 0.0000 0.0000
# 5 0.0000 0.0000 0.0000 0.0000 21.8273 0.0000
# 6 0.0000 0.0000 0.0000 0.0000 0.0000 23.2648
#
#
#
# Elastic Compliance Matrix: (Units=1/GPa)
#
#
# Indices 1 2 3 4 5 6 
#
# 1 0.009289 -0.002399 -0.006998 0.000000 0.000000 0.000000
# 2 -0.002399 0.020687 -0.016082 0.000000 0.000000 0.000000
# 3 -0.006998 -0.016082 0.039280 0.000000 0.000000 0.000000
# 4 0.000000 0.000000 0.000000 0.044711 0.000000 0.000000
# 5 0.000000 0.000000 0.000000 0.000000 0.045814 0.000000
# 6 0.000000 0.000000 0.000000 0.000000 0.000000 0.042983
#
#
# Mechanical properties :
#
#
# Convention : Reuss Voigt Hill
#
# Bulk Modulus (GPa) = 54.64651 71.57444 63.11048
# Shear Modulus (GPa) = 19.24398 23.39211 21.31805
#
# Velocity S-wave (km/s) = 3.42693 3.77827 3.60688
# Velocity P-wave (km/s) = 7.00052 7.91915 7.47396
#
# Compressibility (1/GPa) = 0.01829943
#
# Stress axis : x y z
#
# Youngs Moduli (GPa) = 107.65366 48.33953 25.45821
#
# Poissons Ratio (x) = 0.11596 0.17814
# Poissons Ratio (y) = 0.25825 0.40942
# Poissons Ratio (z) = 0.75331 0.77739
#
# Static dielectric constant tensor:
#      x y z
#    x 3.965670 0.000000 0.000000 
#    y 0.000000 3.146480 0.000000 
#    z 0.000000 0.000000 2.900220 
# 
# 
# High freq. dielectric constant tensor:
#      x y z
#    x 1.645140 0.000000 0.000000 
#    y 0.000000 1.634930 0.000000 
#    z 0.000000 0.000000 1.585760 
# 
# From -- ./inp_files/27834.got.cif
#   From: 2010.03.12/outbox.cif.g09.slc.cpg/sg62_14_cif.got.tgz:27834.got - 2010.04.10 19:12:36.
