data_PCOD8252549
_publ_section_title
;
Structure prediction by ZEFSAII (Michael W. Deem and Ramdas Pophale) SiO2 
 PCOD8252549
Probable space group: P N M A
;
_chemical_formula_sum "Si O2"
_cell_formula_units_Z 64
_cell_length_a 20.750166
_cell_length_b 21.100008
_cell_length_c 8.099286
_cell_angle_alpha 90.000000
_cell_angle_beta 90.000000
_cell_angle_gamma 90.000000
_cell_volume 3546.099606
_symmetry_space_group_name_H-M "P N M A"
_symmetry_group_IT_number 62
_symmetry_cell_setting 'orthorhombic'
loop_
_space_group_symop_operation_xyz
x,y,z
1/2-x,-y,1/2+z
1/2+x,1/2-y,1/2-z
-x,1/2+y,-z
-x,-y,-z
1/2+x,y,1/2-z
1/2-x,1/2+y,1/2+z
x,1/2-y,z
loop_
_atom_site_type_symbol
_atom_site_label
_atom_site_fract_x
_atom_site_fract_y
_atom_site_fract_z
Si Si1 0.797909 0.421650 0.951253
Si Si2 0.049521 0.041895 0.809654
Si Si3 0.442804 0.411042 0.463034
Si Si4 0.094898 0.099286 0.485113
Si Si5 0.147760 0.373577 0.000444
Si Si6 0.035077 0.322396 0.208137
Si Si7 0.199090 0.176834 0.673777
Si Si8 0.797693 0.543465 0.729625
O O1 0.762230 0.360066 0.883276
O O2 0.795033 0.474343 0.809059
O O3 0.869655 0.399031 0.988288
O O4 0.766090 0.447274 0.120191
O O5 0.055585 0.058874 0.618169
O O6 0.050060 0.966328 0.827118
O O7 0.109371 0.068351 0.916446
O O8 0.982014 0.069840 0.872875
O O9 0.471854 0.346760 0.387525
O O10 0.043923 0.135022 0.370439
O O11 0.137719 0.152919 0.571919
O O12 0.138530 0.049739 0.383032
O O13 0.098126 0.327358 0.092901
O O14 0.199211 0.402880 0.128480
O O15 0.187066 0.332839 0.868191
O O16 0.023698 0.250000 0.258569
O O17 0.210212 0.250000 0.634289
#
# Coordination Sequence:
#
# PCOD8252549 Si02
#       8
#     8   8   8   8   8   8   8   8
#     4  11  22  35  54  82 113 148 176 225 276 338
#     4   9  18  36  57  82 108 134 182 231 279 320
#     4  10  21  35  55  78 114 146 176 223 275 338
#     4   9  20  35  58  86 104 137 185 237 273 309
#     4   9  17  35  58  82 104 138 189 233 269 304
#     4  10  20  35  55  81 112 147 184 223 270 328
#     4  10  20  35  56  80 110 146 181 222 267 323
#     4  10  20  34  56  83 109 136 182 231 280 313
#
# _framework density 18.047999000000001
#
# number of rings (size 3 to 8) (size 9 to 14) (size 15 to 20)
#    0.000    2.250    1.250    1.500    5.250    1.000 
#    0.000    1.250    0.000    1.500    0.000    0.000 
#    0.000    0.000    0.000    0.000    0.000    0.000 
#
# Total GULP energy -793812.019892 kJ/mol
# GULP energy per Si atom -12403.312811 kJ/mol
# Density = 1.800692 g / cm^3
# Si number density = 18.047999 Si / 1000 Ang^3
#
#
#
# Elastic Constant Matrix: (Units=GPa)
#
#
# Indices 1 2 3 4 5 6 
#
# 1 105.5911 37.9488 45.4522 0.0000 0.0000 0.0000
# 2 37.9488 92.3632 34.8948 0.0000 0.0000 0.0000
# 3 45.4522 34.8948 107.2040 0.0000 0.0000 0.0000
# 4 0.0000 0.0000 0.0000 20.1646 0.0000 0.0000
# 5 0.0000 0.0000 0.0000 0.0000 23.0870 0.0000
# 6 0.0000 0.0000 0.0000 0.0000 0.0000 17.2575
#
#
#
# Elastic Compliance Matrix: (Units=1/GPa)
#
#
# Indices 1 2 3 4 5 6 
#
# 1 0.012547 -0.003586 -0.004152 0.000000 0.000000 0.000000
# 2 -0.003586 0.013370 -0.002831 0.000000 0.000000 0.000000
# 3 -0.004152 -0.002831 0.012010 0.000000 0.000000 0.000000
# 4 0.000000 0.000000 0.000000 0.049592 0.000000 0.000000
# 5 0.000000 0.000000 0.000000 0.000000 0.043314 0.000000
# 6 0.000000 0.000000 0.000000 0.000000 0.000000 0.057946
#
#
# Mechanical properties :
#
#
# Convention : Reuss Voigt Hill
#
# Bulk Modulus (GPa) = 59.57000 60.19445 59.88223
# Shear Modulus (GPa) = 23.20027 24.55930 23.87979
#
# Velocity S-wave (km/s) = 3.58924 3.69287 3.64143
# Velocity P-wave (km/s) = 7.08907 7.18386 7.13663
#
# Compressibility (1/GPa) = 0.01678697
#
# Stress axis : x y z
#
# Youngs Moduli (GPa) = 79.70207 74.79423 83.26337
#
# Poissons Ratio (x) = 0.26824 0.34573
# Poissons Ratio (y) = 0.28584 0.23575
# Poissons Ratio (z) = 0.33094 0.21177
#
# Static dielectric constant tensor:
#      x y z
#    x 3.235080 0.000000 0.000000 
#    y 0.000000 3.137080 0.000000 
#    z 0.000000 0.000000 3.481490 
# 
# 
# High freq. dielectric constant tensor:
#      x y z
#    x 1.687890 0.000000 0.000000 
#    y 0.000000 1.687950 0.000000 
#    z 0.000000 0.000000 1.707740 
# 
# From -- ./inp_files/8851.got.cif
#   From: 2010.03.12/outbox.cif.g09.slc.cpg/sg62_5_cif.got.tgz:8851.got - 2010.04.10 19:12:36.
