data_PCOD8252095
_publ_section_title
;
Structure prediction by ZEFSAII (Michael W. Deem and Ramdas Pophale) SiO2 
 PCOD8252095
Probable space group: P N M A
;
_chemical_formula_sum "Si O2"
_cell_formula_units_Z 64
_cell_length_a 24.227120
_cell_length_b 8.996976
_cell_length_c 15.366736
_cell_angle_alpha 90.000000
_cell_angle_beta 90.000000
_cell_angle_gamma 90.000000
_cell_volume 3349.500003
_symmetry_space_group_name_H-M "P N M A"
_symmetry_group_IT_number 62
_symmetry_cell_setting 'orthorhombic'
loop_
_space_group_symop_operation_xyz
x,y,z
1/2-x,-y,1/2+z
1/2+x,1/2-y,1/2-z
-x,1/2+y,-z
-x,-y,-z
1/2+x,y,1/2-z
1/2-x,1/2+y,1/2+z
x,1/2-y,z
loop_
_atom_site_type_symbol
_atom_site_label
_atom_site_fract_x
_atom_site_fract_y
_atom_site_fract_z
Si Si1 0.737001 0.077374 0.588563
Si Si2 0.375194 0.575213 0.149543
Si Si3 0.877240 0.574344 0.158064
Si Si4 0.993356 0.573476 0.093060
Si Si5 0.573946 0.573891 0.249682
Si Si6 0.230341 0.920858 0.604997
Si Si7 0.693319 0.072772 0.235886
Si Si8 0.505522 0.425607 0.907387
O O1 0.744477 0.250000 0.614500
O O2 0.674756 0.020001 0.602658
O O3 0.741181 0.050791 0.486579
O O4 0.780949 0.985222 0.645343
O O5 0.370886 0.750000 0.139157
O O6 0.364151 0.517267 0.246087
O O7 0.327649 0.503041 0.092229
O O8 0.435311 0.518361 0.124500
O O9 0.883869 0.750000 0.157764
O O10 0.934837 0.507837 0.125254
O O11 0.992595 0.750000 0.082483
O O12 0.040294 0.527271 0.163112
O O13 0.000000 0.500000 0.000000
O O14 0.583534 0.750000 0.248254
O O15 0.632285 0.491615 0.249387
O O16 0.540148 0.523724 0.163326
O O17 0.218045 0.750000 0.623035
O O18 0.268874 0.982835 0.683106
O O19 0.689172 0.250000 0.232955
O O20 0.503128 0.250000 0.918471
O O21 0.500000 0.500000 0.000000
#
# Coordination Sequence:
#
# PCOD8252095 Si02
#       8
#     8   8   8   8   8   8   8   8
#     4  10  21  39  62  84 112 155 194 227 286 356
#     4  10  19  37  63  85 108 146 195 240 282 335
#     4   9  17  35  63  84 106 147 194 234 279 341
#     4  10  21  38  61  88 117 151 193 238 284 340
#     4  10  22  41  60  82 118 161 195 228 282 354
#     4  10  23  39  57  86 118 150 189 236 289 341
#     4  11  24  40  58  86 120 151 191 245 290 332
#     4  10  22  39  60  87 116 150 193 238 285 341
#
# _framework density 19.107329
#
# number of rings (size 3 to 8) (size 9 to 14) (size 15 to 20)
#    0.000    2.000    2.500    0.375    3.500    2.500 
#    0.000    1.250    0.000    0.000    0.000    0.000 
#    0.000    0.000    0.000    0.000    0.000    0.000 
#
# Total GULP energy -793375.932641 kJ/mol
# GULP energy per Si atom -12396.498948 kJ/mol
# Density = 1.906384 g / cm^3
# Si number density = 19.107329 Si / 1000 Ang^3
#
#
#
# Elastic Constant Matrix: (Units=GPa)
#
#
# Indices 1 2 3 4 5 6 
#
# 1 147.7128 39.0103 37.8885 0.0000 0.0000 0.0000
# 2 39.0103 34.0616 26.9192 0.0000 0.0000 0.0000
# 3 37.8885 26.9192 89.2935 0.0000 0.0000 0.0000
# 4 0.0000 0.0000 0.0000 32.7958 0.0000 0.0000
# 5 0.0000 0.0000 0.0000 0.0000 33.2467 0.0000
# 6 0.0000 0.0000 0.0000 0.0000 0.0000 26.5964
#
#
#
# Elastic Compliance Matrix: (Units=1/GPa)
#
#
# Indices 1 2 3 4 5 6 
#
# 1 0.009775 -0.010393 -0.001014 0.000000 0.000000 0.000000
# 2 -0.010393 0.049592 -0.010540 0.000000 0.000000 0.000000
# 3 -0.001014 -0.010540 0.014807 0.000000 0.000000 0.000000
# 4 0.000000 0.000000 0.000000 0.030492 0.000000 0.000000
# 5 0.000000 0.000000 0.000000 0.000000 0.030078 0.000000
# 6 0.000000 0.000000 0.000000 0.000000 0.000000 0.037599
#
#
# Mechanical properties :
#
#
# Convention : Reuss Voigt Hill
#
# Bulk Modulus (GPa) = 33.02753 53.18933 43.10843
# Shear Modulus (GPa) = 22.09141 29.67779 25.88460
#
# Velocity S-wave (km/s) = 3.40395 3.94536 3.68461
# Velocity P-wave (km/s) = 5.72468 6.97510 6.38059
#
# Compressibility (1/GPa) = 0.03027777
#
# Stress axis : x y z
#
# Youngs Moduli (GPa) = 102.30234 20.16440 67.53545
#
# Poissons Ratio (x) = 0.20958 0.06850
# Poissons Ratio (y) = 1.06328 0.71185
# Poissons Ratio (z) = 0.10377 0.21254
#
# Static dielectric constant tensor:
#      x y z
#    x 3.976310 0.000000 0.000000 
#    y 0.000000 3.240980 0.000000 
#    z 0.000000 0.000000 3.599990 
# 
# 
# High freq. dielectric constant tensor:
#      x y z
#    x 1.760960 0.000000 0.000000 
#    y 0.000000 1.718260 0.000000 
#    z 0.000000 0.000000 1.754840 
# 
# From -- ./inp_files/20955.got.cif
#   From: 2010.03.12/outbox.cif.g09.slc.cpg/sg62_11_cif.got.tgz:20955.got - 2010.04.10 19:12:36.
