data_PCOD8252873
_publ_section_title
;
Structure prediction by ZEFSAII (Michael W. Deem and Ramdas Pophale) SiO2 
 PCOD8252873
Probable space group: P N M A
;
_chemical_formula_sum "Si O2"
_cell_formula_units_Z 64
_cell_length_a 14.986683
_cell_length_b 9.055994
_cell_length_c 24.914922
_cell_angle_alpha 90.000000
_cell_angle_beta 90.000000
_cell_angle_gamma 90.000000
_cell_volume 3381.436056
_symmetry_space_group_name_H-M "P N M A"
_symmetry_group_IT_number 62
_symmetry_cell_setting 'orthorhombic'
loop_
_space_group_symop_operation_xyz
x,y,z
1/2-x,-y,1/2+z
1/2+x,1/2-y,1/2-z
-x,1/2+y,-z
-x,-y,-z
1/2+x,y,1/2-z
1/2-x,1/2+y,1/2+z
x,1/2-y,z
loop_
_atom_site_type_symbol
_atom_site_label
_atom_site_fract_x
_atom_site_fract_y
_atom_site_fract_z
Si Si1 0.683759 0.074489 0.055418
Si Si2 0.999843 0.424932 0.394600
Si Si3 0.472045 0.917989 0.776474
Si Si4 0.169255 0.922725 0.858745
Si Si5 0.200670 0.577221 0.146258
Si Si6 0.313749 0.074388 0.056479
Si Si7 0.732034 0.416907 0.247868
Si Si8 0.498284 0.577964 0.330158
O O1 0.682815 0.250000 0.046912
O O2 0.587643 0.014366 0.075344
O O3 0.758111 0.024743 0.098124
O O4 0.709031 0.994507 0.000614
O O5 0.007327 0.250000 0.391937
O O6 0.912455 0.478870 0.426079
O O7 0.994348 0.483000 0.333376
O O8 0.504759 0.750000 0.767597
O O9 0.365707 0.926742 0.777306
O O10 0.513949 0.015578 0.729709
O O11 0.152988 0.750000 0.864484
O O12 0.201316 0.965441 0.799044
O O13 0.075478 0.005067 0.869104
O O14 0.219037 0.750000 0.138565
O O15 0.241154 0.485819 0.097689
O O16 0.245380 0.525605 0.201993
O O17 0.095661 0.539632 0.146877
O O18 0.307354 0.250000 0.054103
O O19 0.751826 0.250000 0.267489
O O20 0.481341 0.750000 0.327960
#
# Coordination Sequence:
#
# PCOD8252873 Si02
#       8
#     8   8   8   8   8   8   8   8
#     4  10  20  39  61  83 114 150 190 232 281 338
#     4   9  18  34  57  84 114 149 187 226 271 334
#     4   9  16  32  56  81 111 148 186 223 268 331
#     4  10  20  35  59  86 111 147 191 230 278 339
#     4  10  22  40  57  78 113 153 190 233 285 336
#     4  11  23  37  57  85 114 149 194 238 281 331
#     4   9  17  32  56  83 110 144 184 228 276 331
#     4  10  22  37  54  81 117 150 185 235 288 335
#
# _framework density 18.926869
#
# number of rings (size 3 to 8) (size 9 to 14) (size 15 to 20)
#    0.000    2.250    1.250    1.500    1.750    2.500 
#    0.000    2.500    0.000    0.000    0.000    0.000 
#    0.000    0.000    0.000    0.000    0.000    0.000 
#
# Total GULP energy -793727.292397 kJ/mol
# GULP energy per Si atom -12401.988944 kJ/mol
# Density = 1.888379 g / cm^3
# Si number density = 18.926869 Si / 1000 Ang^3
#
#
#
# Elastic Constant Matrix: (Units=GPa)
#
#
# Indices 1 2 3 4 5 6 
#
# 1 101.5730 48.0093 69.7431 0.0000 0.0000 0.0000
# 2 48.0093 59.6095 50.0941 0.0000 0.0000 0.0000
# 3 69.7431 50.0941 113.3194 0.0000 0.0000 0.0000
# 4 0.0000 0.0000 0.0000 28.0078 0.0000 0.0000
# 5 0.0000 0.0000 0.0000 0.0000 25.0181 0.0000
# 6 0.0000 0.0000 0.0000 0.0000 0.0000 21.1995
#
#
#
# Elastic Compliance Matrix: (Units=1/GPa)
#
#
# Indices 1 2 3 4 5 6 
#
# 1 0.019696 -0.009031 -0.008130 0.000000 0.000000 0.000000
# 2 -0.009031 0.030833 -0.008072 0.000000 0.000000 0.000000
# 3 -0.008130 -0.008072 0.017396 0.000000 0.000000 0.000000
# 4 0.000000 0.000000 0.000000 0.035704 0.000000 0.000000
# 5 0.000000 0.000000 0.000000 0.000000 0.039971 0.000000
# 6 0.000000 0.000000 0.000000 0.000000 0.000000 0.047171
#
#
# Mechanical properties :
#
#
# Convention : Reuss Voigt Hill
#
# Bulk Modulus (GPa) = 57.27400 67.79943 62.53671
# Shear Modulus (GPa) = 20.23838 21.95546 21.09692
#
# Velocity S-wave (km/s) = 3.27355 3.40959 3.34227
# Velocity P-wave (km/s) = 6.67941 7.16938 6.92873
#
# Compressibility (1/GPa) = 0.01745993
#
# Stress axis : x y z
#
# Youngs Moduli (GPa) = 50.77236 32.43325 57.48376
#
# Poissons Ratio (x) = 0.29290 0.46732
# Poissons Ratio (y) = 0.45852 0.46399
# Poissons Ratio (z) = 0.41276 0.26179
#
# Static dielectric constant tensor:
#      x y z
#    x 3.567340 0.000000 0.000000 
#    y 0.000000 3.270530 0.000000 
#    z 0.000000 0.000000 3.411960 
# 
# 
# High freq. dielectric constant tensor:
#      x y z
#    x 1.742450 0.000000 0.000000 
#    y 0.000000 1.717860 0.000000 
#    z 0.000000 0.000000 1.730280 
# 
# From -- ./inp_files/29740.got.cif
#   From: 2010.03.12/outbox.cif.g09.slc.cpg/sg62_15_cif.got.tgz:29740.got - 2010.04.10 19:12:36.
