data_PCOD8252118
_publ_section_title
;
Structure prediction by ZEFSAII (Michael W. Deem and Ramdas Pophale) SiO2 
 PCOD8252118
Probable space group: P N M A
;
_chemical_formula_sum "Si O2"
_cell_formula_units_Z 56
_cell_length_a 18.403435
_cell_length_b 25.443213
_cell_length_c 5.498297
_cell_angle_alpha 90.000000
_cell_angle_beta 90.000000
_cell_angle_gamma 90.000000
_cell_volume 2574.536424
_symmetry_space_group_name_H-M "P N M A"
_symmetry_group_IT_number 62
_symmetry_cell_setting 'orthorhombic'
loop_
_space_group_symop_operation_xyz
x,y,z
1/2-x,-y,1/2+z
1/2+x,1/2-y,1/2-z
-x,1/2+y,-z
-x,-y,-z
1/2+x,y,1/2-z
1/2-x,1/2+y,1/2+z
x,1/2-y,z
loop_
_atom_site_type_symbol
_atom_site_label
_atom_site_fract_x
_atom_site_fract_y
_atom_site_fract_z
Si Si1 0.596879 0.367649 0.863015
Si Si2 0.212560 0.071730 0.884389
Si Si3 0.558812 0.598679 0.152446
Si Si4 0.408301 0.190064 0.494595
Si Si5 0.662924 0.973000 0.397775
Si Si6 0.178200 0.887983 0.720223
Si Si7 0.567949 0.190335 0.354752
O O1 0.669968 0.402379 0.841797
O O2 0.527262 0.405875 0.888671
O O3 0.592735 0.335916 0.608276
O O4 0.603470 0.334019 0.110251
O O5 0.278418 0.032536 0.817927
O O6 0.251407 0.117841 0.044205
O O7 0.155532 0.034378 0.030130
O O8 0.578656 0.655559 0.265664
O O9 0.584021 0.549887 0.322143
O O10 0.602241 0.595262 0.903041
O O11 0.392292 0.250000 0.573184
O O12 0.480551 0.186885 0.326727
O O13 0.337463 0.167410 0.354747
O O14 0.696853 0.935905 0.604004
O O15 0.594557 0.250000 0.367213
#
# Coordination Sequence:
#
# PCOD8252118 Si02
#       7
#     8   8   8   8   8   8   8
#     4  11  23  39  65  97 124 163 208 267 313 369
#     4  11  23  37  64  85 120 165 213 249 320 376
#     4   9  20  37  58  89 126 153 206 261 305 363
#     4   9  18  34  62  89 117 158 202 248 303 366
#     4  10  21  39  61  86 117 169 207 250 310 383
#     4  10  19  38  59  85 120 156 202 258 296 370
#     4  10  21  40  64  91 126 166 206 249 315 382
#
# _framework density 21.751488999999999
#
# number of rings (size 3 to 8) (size 9 to 14) (size 15 to 20)
#    0.000    2.000    2.857    0.429    2.000    1.714 
#    0.000    2.143    0.000    0.857    0.000    0.000 
#    0.000    0.000    0.000    0.000    0.000    0.000 
#
# Total GULP energy -694008.844448 kJ/mol
# GULP energy per Si atom -12393.015079 kJ/mol
# Density = 2.170198 g / cm^3
# Si number density = 21.751489 Si / 1000 Ang^3
#
#
#
# Elastic Constant Matrix: (Units=GPa)
#
#
# Indices 1 2 3 4 5 6 
#
# 1 49.1741 4.8565 -5.4100 0.0000 0.0000 0.0000
# 2 4.8565 60.9362 1.6957 0.0000 0.0000 0.0000
# 3 -5.4100 1.6957 71.1961 0.0000 0.0000 0.0000
# 4 0.0000 0.0000 0.0000 23.6966 0.0000 0.0000
# 5 0.0000 0.0000 0.0000 0.0000 25.0251 0.0000
# 6 0.0000 0.0000 0.0000 0.0000 0.0000 22.7797
#
#
#
# Elastic Compliance Matrix: (Units=1/GPa)
#
#
# Indices 1 2 3 4 5 6 
#
# 1 0.020680 -0.001693 0.001612 0.000000 0.000000 0.000000
# 2 -0.001693 0.016560 -0.000523 0.000000 0.000000 0.000000
# 3 0.001612 -0.000523 0.014181 0.000000 0.000000 0.000000
# 4 0.000000 0.000000 0.000000 0.042200 0.000000 0.000000
# 5 0.000000 0.000000 0.000000 0.000000 0.039960 0.000000
# 6 0.000000 0.000000 0.000000 0.000000 0.000000 0.043899
#
#
# Mechanical properties :
#
#
# Convention : Reuss Voigt Hill
#
# Bulk Modulus (GPa) = 19.91537 20.39899 20.15718
# Shear Modulus (GPa) = 25.58511 26.31122 25.94817
#
# Velocity S-wave (km/s) = 3.43337 3.48174 3.45764
# Velocity P-wave (km/s) = 4.98930 5.05588 5.02270
#
# Compressibility (1/GPa) = 0.05021247
#
# Stress axis : x y z
#
# Youngs Moduli (GPa) = 48.35492 60.38609 70.51870
#
# Poissons Ratio (x) = 0.10224 -0.11366
# Poissons Ratio (y) = 0.08187 0.03689
# Poissons Ratio (z) = -0.07794 0.03159
#
# Static dielectric constant tensor:
#      x y z
#    x 3.783640 0.000000 0.000000 
#    y 0.000000 3.740380 0.000000 
#    z 0.000000 0.000000 3.919340 
# 
# 
# High freq. dielectric constant tensor:
#      x y z
#    x 1.839950 0.000000 0.000000 
#    y 0.000000 1.835520 0.000000 
#    z 0.000000 0.000000 1.859470 
# 
# From -- ./inp_files/2306.got.cif
#   From: 2010.03.12/outbox.cif.g09.slc.cpg/sg62_2_cif.got.tgz:2306.got - 2010.04.10 19:12:36.
