data_PCOD8252881
_publ_section_title
;
Structure prediction by ZEFSAII (Michael W. Deem and Ramdas Pophale) SiO2 
 PCOD8252881
Probable space group: P N M A
;
_chemical_formula_sum "Si O2"
_cell_formula_units_Z 60
_cell_length_a 5.122824
_cell_length_b 21.452851
_cell_length_c 23.644304
_cell_angle_alpha 90.000000
_cell_angle_beta 90.000000
_cell_angle_gamma 90.000000
_cell_volume 2598.489621
_symmetry_space_group_name_H-M "P N M A"
_symmetry_group_IT_number 62
_symmetry_cell_setting 'orthorhombic'
loop_
_space_group_symop_operation_xyz
x,y,z
1/2-x,-y,1/2+z
1/2+x,1/2-y,1/2-z
-x,1/2+y,-z
-x,-y,-z
1/2+x,y,1/2-z
1/2-x,1/2+y,1/2+z
x,1/2-y,z
loop_
_atom_site_type_symbol
_atom_site_label
_atom_site_fract_x
_atom_site_fract_y
_atom_site_fract_z
Si Si1 0.167851 0.823401 0.781792
Si Si2 0.229365 0.930935 0.097963
Si Si3 0.525136 0.320349 0.403307
Si Si4 0.745202 0.750000 0.284524
Si Si5 0.250584 0.508240 0.447081
Si Si6 0.120242 0.904595 0.536559
Si Si7 0.852323 0.882399 0.286614
Si Si8 0.223417 0.320291 0.521638
O O1 0.928865 0.852525 0.745465
O O2 0.172786 0.750000 0.772708
O O3 0.147565 0.839288 0.848734
O O4 0.483110 0.955952 0.067119
O O5 0.296511 0.930468 0.164002
O O6 0.145093 0.864668 0.069541
O O7 0.986136 0.978948 0.095438
O O8 0.640101 0.250000 0.393583
O O9 0.370301 0.321406 0.461835
O O10 0.752581 0.372805 0.408199
O O11 0.436455 0.750000 0.270994
O O12 0.819291 0.813988 0.316230
O O13 0.165849 0.435533 0.448754
O O14 0.313457 0.541306 0.508994
O O15 0.065393 0.847900 0.492201
O O16 0.645341 0.891277 0.235952
O O17 0.202569 0.250000 0.545663
#
# Coordination Sequence:
#
# PCOD8252881 Si02
#       8
#     8   8   8   4   8   8   8   8
#     4   9  19  34  53  79 110 150 193 228 273 345
#     4  11  22  40  60  90 122 156 207 254 303 354
#     4  10  20  35  59  87 121 155 188 239 306 366
#     4   8  16  30  50  80 108 144 196 238 282 348
#     4  10  23  38  62  86 117 159 207 250 288 358
#     4  10  21  37  60  84 122 157 202 242 298 356
#     4  10  20  36  60  84 117 160 206 248 300 360
#     4  10  22  36  58  93 128 158 190 242 319 369
#
# _framework density 23.090335
#
# number of rings (size 3 to 8) (size 9 to 14) (size 15 to 20)
#    0.000    2.133    1.333    1.200    4.667    1.600 
#    0.000    0.000    0.000    4.800    0.000    0.000 
#    0.000    0.000    0.000    0.000    0.000    0.000 
#
# Total GULP energy -743375.111779 kJ/mol
# GULP energy per Si atom -12389.585196 kJ/mol
# Density = 2.303778 g / cm^3
# Si number density = 23.090335 Si / 1000 Ang^3
#
#
#
# Elastic Constant Matrix: (Units=GPa)
#
#
# Indices 1 2 3 4 5 6 
#
# 1 45.4028 -3.8382 -15.3396 0.0000 0.0000 0.0000
# 2 -3.8382 72.5618 4.6410 0.0000 0.0000 0.0000
# 3 -15.3396 4.6410 52.5798 0.0000 0.0000 0.0000
# 4 0.0000 0.0000 0.0000 20.6433 0.0000 0.0000
# 5 0.0000 0.0000 0.0000 0.0000 19.7883 0.0000
# 6 0.0000 0.0000 0.0000 0.0000 0.0000 24.7530
#
#
#
# Elastic Compliance Matrix: (Units=1/GPa)
#
#
# Indices 1 2 3 4 5 6 
#
# 1 0.024485 0.000843 0.007069 0.000000 0.000000 0.000000
# 2 0.000843 0.013889 -0.000980 0.000000 0.000000 0.000000
# 3 0.007069 -0.000980 0.021167 0.000000 0.000000 0.000000
# 4 0.000000 0.000000 0.000000 0.048442 0.000000 0.000000
# 5 0.000000 0.000000 0.000000 0.000000 0.050535 0.000000
# 6 0.000000 0.000000 0.000000 0.000000 0.000000 0.040399
#
#
# Mechanical properties :
#
#
# Convention : Reuss Voigt Hill
#
# Bulk Modulus (GPa) = 13.62321 15.71897 14.67109
# Shear Modulus (GPa) = 23.86396 25.37567 24.61981
#
# Velocity S-wave (km/s) = 3.21830 3.31867 3.26887
# Velocity P-wave (km/s) = 4.44103 4.63758 4.54037
#
# Compressibility (1/GPa) = 0.07340412
#
# Stress axis : x y z
#
# Youngs Moduli (GPa) = 40.84208 72.00135 47.24243
#
# Poissons Ratio (x) = -0.06070 -0.33394
# Poissons Ratio (y) = -0.03443 0.04630
# Poissons Ratio (z) = -0.28870 0.07056
#
# Static dielectric constant tensor:
#      x y z
#    x 4.210080 0.000000 0.000000 
#    y 0.000000 4.454760 0.000000 
#    z 0.000000 0.000000 3.840870 
# 
# 
# High freq. dielectric constant tensor:
#      x y z
#    x 1.916800 0.000000 0.000000 
#    y 0.000000 1.904130 0.000000 
#    z 0.000000 0.000000 1.881050 
# 
# From -- ./inp_files/28412.got.cif
#   From: 2010.03.12/outbox.cif.g09.slc.cpg/sg62_15_cif.got.tgz:28412.got - 2010.04.10 19:12:36.
