data_PCOD8252243
_publ_section_title
;
Structure prediction by ZEFSAII (Michael W. Deem and Ramdas Pophale) SiO2 
 PCOD8252243
Probable space group: P N M A
;
_chemical_formula_sum "Si O2"
_cell_formula_units_Z 44
_cell_length_a 15.874500
_cell_length_b 8.041661
_cell_length_c 18.691019
_cell_angle_alpha 90.000000
_cell_angle_beta 90.000000
_cell_angle_gamma 90.000000
_cell_volume 2386.045908
_symmetry_space_group_name_H-M "P N M A"
_symmetry_group_IT_number 62
_symmetry_cell_setting 'orthorhombic'
loop_
_space_group_symop_operation_xyz
x,y,z
1/2-x,-y,1/2+z
1/2+x,1/2-y,1/2-z
-x,1/2+y,-z
-x,-y,-z
1/2+x,y,1/2-z
1/2-x,1/2+y,1/2+z
x,1/2-y,z
loop_
_atom_site_type_symbol
_atom_site_label
_atom_site_fract_x
_atom_site_fract_y
_atom_site_fract_z
Si Si1 0.904720 0.942370 0.495225
Si Si2 0.703052 0.066757 0.859600
Si Si3 0.722984 0.250000 0.314443
Si Si4 0.827055 0.570984 0.196144
Si Si5 0.857910 0.062855 0.639099
Si Si6 0.108865 0.750000 0.783671
Si Si7 0.431357 0.750000 0.789277
O O1 0.898191 0.750000 0.514710
O O2 0.869474 0.979233 0.416337
O O3 0.849536 0.043943 0.553409
O O4 0.000000 0.000000 0.500000
O O5 0.742873 0.250000 0.877433
O O6 0.660930 0.076583 0.781608
O O7 0.772959 0.919439 0.862033
O O8 0.804914 0.250000 0.263122
O O9 0.633854 0.250000 0.275702
O O10 0.854663 0.750000 0.163231
O O11 0.730799 0.532342 0.177131
O O12 0.885950 0.418881 0.167927
O O13 0.890842 0.250000 0.657412
O O14 0.921576 0.920050 0.665704
O O15 0.026231 0.750000 0.737020
#
# Coordination Sequence:
#
# PCOD8252243 Si02
#       7
#     8   8   4   8   8   4   4
#     4  11  24  35  51  82 123 153 187 226 284 355
#     4   9  19  34  50  73 104 147 185 223 267 324
#     4  10  20  36  58  74 114 147 188 232 279 342
#     4   9  18  36  57  74 107 150 192 232 277 332
#     4  11  22  37  55  79 118 157 191 233 278 343
#     4  10  20  32  56  82 108 140 181 239 282 322
#     4  12  22  36  58  90 110 151 191 239 293 330
#
# _framework density 18.440550000000002
#
# number of rings (size 3 to 8) (size 9 to 14) (size 15 to 20)
#    0.000    1.818    4.545    0.545    7.636    0.727 
#    0.000    0.000    0.000    0.000    0.000    1.273 
#    0.000    0.000    0.000    0.000    0.000    0.000 
#
# Total GULP energy -545094.601197 kJ/mol
# GULP energy per Si atom -12388.513664 kJ/mol
# Density = 1.839858 g / cm^3
# Si number density = 18.440550 Si / 1000 Ang^3
#
#
#
# Elastic Constant Matrix: (Units=GPa)
#
#
# Indices 1 2 3 4 5 6 
#
# 1 52.8014 27.6584 36.5564 0.0000 0.0000 0.0000
# 2 27.6584 166.7385 18.6067 0.0000 0.0000 0.0000
# 3 36.5564 18.6067 55.3447 0.0000 0.0000 0.0000
# 4 0.0000 0.0000 0.0000 21.7609 0.0000 0.0000
# 5 0.0000 0.0000 0.0000 0.0000 14.6802 0.0000
# 6 0.0000 0.0000 0.0000 0.0000 0.0000 23.0629
#
#
#
# Elastic Compliance Matrix: (Units=1/GPa)
#
#
# Indices 1 2 3 4 5 6 
#
# 1 0.036787 -0.003523 -0.023114 0.000000 0.000000 0.000000
# 2 -0.003523 0.006569 0.000119 0.000000 0.000000 0.000000
# 3 -0.023114 0.000119 0.033296 0.000000 0.000000 0.000000
# 4 0.000000 0.000000 0.000000 0.045954 0.000000 0.000000
# 5 0.000000 0.000000 0.000000 0.000000 0.068119 0.000000
# 6 0.000000 0.000000 0.000000 0.000000 0.000000 0.043360
#
#
# Mechanical properties :
#
#
# Convention : Reuss Voigt Hill
#
# Bulk Modulus (GPa) = 42.34646 48.94753 45.64699
# Shear Modulus (GPa) = 16.94952 24.70500 20.82726
#
# Velocity S-wave (km/s) = 3.03503 3.66418 3.36434
# Velocity P-wave (km/s) = 5.94100 6.67103 6.31657
#
# Compressibility (1/GPa) = 0.02361472
#
# Stress axis : x y z
#
# Youngs Moduli (GPa) = 27.18341 152.24075 30.03339
#
# Poissons Ratio (x) = 0.53632 0.69420
# Poissons Ratio (y) = 0.09576 -0.00356
# Poissons Ratio (z) = 0.62833 -0.01805
#
# Static dielectric constant tensor:
#      x y z
#    x 2.980250 0.000000 0.000000 
#    y 0.000000 4.814050 0.000000 
#    z 0.000000 0.000000 3.181940 
# 
# 
# High freq. dielectric constant tensor:
#      x y z
#    x 1.669330 0.000000 0.000000 
#    y 0.000000 1.762710 0.000000 
#    z 0.000000 0.000000 1.678990 
# 
# From -- ./inp_files/23594.got.cif
#   From: 2010.03.12/outbox.cif.g09.slc.cpg/sg62_12_cif.got.tgz:23594.got - 2010.04.10 19:12:36.
