data_PCOD8252676
_publ_section_title
;
Structure prediction by ZEFSAII (Michael W. Deem and Ramdas Pophale) SiO2 
 PCOD8252676
Probable space group: P N M A
;
_chemical_formula_sum "Si O2"
_cell_formula_units_Z 64
_cell_length_a 29.344168
_cell_length_b 9.118883
_cell_length_c 12.638315
_cell_angle_alpha 90.000000
_cell_angle_beta 90.000000
_cell_angle_gamma 90.000000
_cell_volume 3381.836596
_symmetry_space_group_name_H-M "P N M A"
_symmetry_group_IT_number 62
_symmetry_cell_setting 'orthorhombic'
loop_
_space_group_symop_operation_xyz
x,y,z
1/2-x,-y,1/2+z
1/2+x,1/2-y,1/2-z
-x,1/2+y,-z
-x,-y,-z
1/2+x,y,1/2-z
1/2-x,1/2+y,1/2+z
x,1/2-y,z
loop_
_atom_site_type_symbol
_atom_site_label
_atom_site_fract_x
_atom_site_fract_y
_atom_site_fract_z
Si Si1 0.404463 0.077991 0.556564
Si Si2 0.671077 0.588856 0.157821
Si Si3 0.713610 0.582533 0.937841
Si Si4 0.031723 0.422864 0.226615
Si Si5 0.589503 0.079006 0.083464
Si Si6 0.125656 0.425261 0.637029
Si Si7 0.197195 0.916536 0.111784
Si Si8 0.070792 0.922375 0.818156
O O1 0.409760 0.250000 0.577127
O O2 0.352129 0.029447 0.571356
O O3 0.419729 0.033832 0.438946
O O4 0.436285 0.998787 0.640975
O O5 0.647645 0.750000 0.154945
O O6 0.631628 0.469159 0.155825
O O7 0.700609 0.570821 0.262278
O O8 0.705291 0.569260 0.061877
O O9 0.710435 0.750000 0.897186
O O10 0.677105 0.485326 0.873489
O O11 0.764566 0.524253 0.929976
O O12 0.037376 0.250000 0.210061
O O13 0.044863 0.467609 0.348612
O O14 0.980167 0.473669 0.209442
O O15 0.591729 0.250000 0.070280
O O16 0.594975 0.015736 0.963616
O O17 0.127264 0.250000 0.642999
O O18 0.104963 0.488574 0.744075
O O19 0.206356 0.750000 0.073349
O O20 0.077964 0.750000 0.798501
#
# Coordination Sequence:
#
# PCOD8252676 Si02
#       8
#     8   8   8   8   8   8   8   8
#     4  10  21  37  57  81 113 149 189 233 280 336
#     4   9  18  34  54  76 104 139 179 224 273 325
#     4  10  21  36  56  81 107 139 180 226 279 336
#     4  10  20  35  57  84 114 147 188 237 284 332
#     4   9  18  33  55  81 108 140 183 231 276 324
#     4  10  21  38  57  79 110 148 187 230 280 335
#     4  10  20  35  55  80 108 140 181 228 275 330
#     4  10  22  38  55  81 118 155 188 230 282 336
#
# _framework density 18.924628999999999
#
# number of rings (size 3 to 8) (size 9 to 14) (size 15 to 20)
#    0.000    2.250    1.250    1.125    0.000    4.500 
#    0.000    2.500    0.000    0.000    0.000    0.000 
#    0.000    0.000    0.000    0.000    0.000    0.000 
#
# Total GULP energy -793386.748008 kJ/mol
# GULP energy per Si atom -12396.667938 kJ/mol
# Density = 1.888156 g / cm^3
# Si number density = 18.924629 Si / 1000 Ang^3
#
#
#
# Elastic Constant Matrix: (Units=GPa)
#
#
# Indices 1 2 3 4 5 6 
#
# 1 89.2750 20.8657 14.0726 0.0000 0.0000 0.0000
# 2 20.8657 29.9423 16.2415 0.0000 0.0000 0.0000
# 3 14.0726 16.2415 43.9109 0.0000 0.0000 0.0000
# 4 0.0000 0.0000 0.0000 26.1147 0.0000 0.0000
# 5 0.0000 0.0000 0.0000 0.0000 23.1992 0.0000
# 6 0.0000 0.0000 0.0000 0.0000 0.0000 30.7910
#
#
#
# Elastic Compliance Matrix: (Units=1/GPa)
#
#
# Indices 1 2 3 4 5 6 
#
# 1 0.013420 -0.008780 -0.001053 0.000000 0.000000 0.000000
# 2 -0.008780 0.047525 -0.014764 0.000000 0.000000 0.000000
# 3 -0.001053 -0.014764 0.028572 0.000000 0.000000 0.000000
# 4 0.000000 0.000000 0.000000 0.038293 0.000000 0.000000
# 5 0.000000 0.000000 0.000000 0.000000 0.043105 0.000000
# 6 0.000000 0.000000 0.000000 0.000000 0.000000 0.032477
#
#
# Mechanical properties :
#
#
# Convention : Reuss Voigt Hill
#
# Bulk Modulus (GPa) = 24.80113 29.49865 27.14989
# Shear Modulus (GPa) = 18.79515 23.48421 21.13968
#
# Velocity S-wave (km/s) = 3.15486 3.52651 3.34585
# Velocity P-wave (km/s) = 5.13853 5.67477 5.41329
#
# Compressibility (1/GPa) = 0.04032074
#
# Stress axis : x y z
#
# Youngs Moduli (GPa) = 74.51827 21.04167 34.99955
#
# Poissons Ratio (x) = 0.18475 0.03686
# Poissons Ratio (y) = 0.65430 0.51674
# Poissons Ratio (z) = 0.07847 0.31066
#
# Static dielectric constant tensor:
#      x y z
#    x 3.464470 0.000000 0.000000 
#    y 0.000000 3.455100 0.000000 
#    z 0.000000 0.000000 3.704080 
# 
# 
# High freq. dielectric constant tensor:
#      x y z
#    x 1.730250 0.000000 0.000000 
#    y 0.000000 1.730840 0.000000 
#    z 0.000000 0.000000 1.743990 
# 
# From -- ./inp_files/15926.got.cif
#   From: 2010.03.12/outbox.cif.g09.slc.cpg/sg62_8_cif.got.tgz:15926.got - 2010.04.10 19:12:36.
