data_PCOD8252081
_publ_section_title
;
Structure prediction by ZEFSAII (Michael W. Deem and Ramdas Pophale) SiO2 
 PCOD8252081
Probable space group: P N M A
;
_chemical_formula_sum "Si O2"
_cell_formula_units_Z 56
_cell_length_a 21.088136
_cell_length_b 9.135930
_cell_length_c 14.909785
_cell_angle_alpha 90.000000
_cell_angle_beta 90.000000
_cell_angle_gamma 90.000000
_cell_volume 2872.515217
_symmetry_space_group_name_H-M "P N M A"
_symmetry_group_IT_number 62
_symmetry_cell_setting 'orthorhombic'
loop_
_space_group_symop_operation_xyz
x,y,z
1/2-x,-y,1/2+z
1/2+x,1/2-y,1/2-z
-x,1/2+y,-z
-x,-y,-z
1/2+x,y,1/2-z
1/2-x,1/2+y,1/2+z
x,1/2-y,z
loop_
_atom_site_type_symbol
_atom_site_label
_atom_site_fract_x
_atom_site_fract_y
_atom_site_fract_z
Si Si1 0.282879 0.421927 0.574509
Si Si2 0.895713 0.577218 0.291182
Si Si3 0.193084 0.919751 0.446508
Si Si4 0.563645 0.580160 0.970754
Si Si5 0.510493 0.085158 0.634723
Si Si6 0.741399 0.421641 0.732583
Si Si7 0.407474 0.584128 0.541661
O O1 0.282578 0.250000 0.558142
O O2 0.220884 0.489127 0.529049
O O3 0.281892 0.462343 0.679624
O O4 0.344571 0.490474 0.530016
O O5 0.890773 0.750000 0.313051
O O6 0.908109 0.488577 0.380908
O O7 0.953794 0.542113 0.225290
O O8 0.830709 0.520574 0.244300
O O9 0.212104 0.750000 0.457956
O O10 0.116663 0.937352 0.450729
O O11 0.221980 0.986762 0.354052
O O12 0.548126 0.750000 0.954071
O O13 0.500000 0.500000 0.000000
O O14 0.483790 0.250000 0.640185
O O15 0.558738 0.070488 0.553118
O O16 0.451176 0.977914 0.621596
O O17 0.738137 0.250000 0.719069
O O18 0.389956 0.750000 0.565601
#
# Coordination Sequence:
#
# PCOD8252081 Si02
#       7
#     8   8   8   8   8   8   8
#     4  11  21  35  58  86 116 149 190 239 290 354
#     4  10  19  37  62  84 112 153 200 245 297 364
#     4  10  21  40  62  85 116 155 199 249 302 356
#     4  11  24  40  61  87 119 157 201 250 303 361
#     4   9  19  35  57  82 111 153 198 239 290 352
#     4   9  19  36  60  85 112 151 195 238 296 362
#     4  10  20  35  55  82 119 154 191 241 294 347
#
# _framework density 19.49511
#
# number of rings (size 3 to 8) (size 9 to 14) (size 15 to 20)
#    0.000    2.000    1.429    2.143    0.000    5.143 
#    0.000    6.429    0.000    0.000    0.000    0.000 
#    0.000    0.000    0.000    0.000    0.000    0.000 
#
# Total GULP energy -694412.239740 kJ/mol
# GULP energy per Si atom -12400.218567 kJ/mol
# Density = 1.945074 g / cm^3
# Si number density = 19.495110 Si / 1000 Ang^3
#
#
#
# Elastic Constant Matrix: (Units=GPa)
#
#
# Indices 1 2 3 4 5 6 
#
# 1 109.5166 47.9446 43.2749 0.0000 0.0000 0.0000
# 2 47.9446 86.5891 42.9728 0.0000 0.0000 0.0000
# 3 43.2749 42.9728 100.4876 0.0000 0.0000 0.0000
# 4 0.0000 0.0000 0.0000 24.9817 0.0000 0.0000
# 5 0.0000 0.0000 0.0000 0.0000 24.2523 0.0000
# 6 0.0000 0.0000 0.0000 0.0000 0.0000 30.8699
#
#
#
# Elastic Compliance Matrix: (Units=1/GPa)
#
#
# Indices 1 2 3 4 5 6 
#
# 1 0.012792 -0.005521 -0.003148 0.000000 0.000000 0.000000
# 2 -0.005521 0.017043 -0.004911 0.000000 0.000000 0.000000
# 3 -0.003148 -0.004911 0.013407 0.000000 0.000000 0.000000
# 4 0.000000 0.000000 0.000000 0.040029 0.000000 0.000000
# 5 0.000000 0.000000 0.000000 0.000000 0.041233 0.000000
# 6 0.000000 0.000000 0.000000 0.000000 0.000000 0.032394
#
#
# Mechanical properties :
#
#
# Convention : Reuss Voigt Hill
#
# Bulk Modulus (GPa) = 62.17701 62.77534 62.47617
# Shear Modulus (GPa) = 26.39671 26.84752 26.62212
#
# Velocity S-wave (km/s) = 3.68369 3.71501 3.69938
# Velocity P-wave (km/s) = 7.07500 7.11844 7.09675
#
# Compressibility (1/GPa) = 0.01608312
#
# Stress axis : x y z
#
# Youngs Moduli (GPa) = 78.17556 58.67627 74.58692
#
# Poissons Ratio (x) = 0.32392 0.23479
# Poissons Ratio (y) = 0.43157 0.36628
# Poissons Ratio (z) = 0.24609 0.28815
#
# Static dielectric constant tensor:
#      x y z
#    x 3.694380 0.000000 0.000000 
#    y 0.000000 3.504470 0.000000 
#    z 0.000000 0.000000 3.633490 
# 
# 
# High freq. dielectric constant tensor:
#      x y z
#    x 1.768400 0.000000 0.000000 
#    y 0.000000 1.746240 0.000000 
#    z 0.000000 0.000000 1.757700 
# 
# From -- ./inp_files/20248.got.cif
#   From: 2010.03.12/outbox.cif.g09.slc.cpg/sg62_11_cif.got.tgz:20248.got - 2010.04.10 19:12:36.
