data_PCOD8252192
_publ_section_title
;
Structure prediction by ZEFSAII (Michael W. Deem and Ramdas Pophale) SiO2 
 PCOD8252192
Probable space group: P N M A
;
_chemical_formula_sum "Si O2"
_cell_formula_units_Z 64
_cell_length_a 21.430003
_cell_length_b 9.150862
_cell_length_c 21.345486
_cell_angle_alpha 90.000000
_cell_angle_beta 90.000000
_cell_angle_gamma 90.000000
_cell_volume 4185.913843
_symmetry_space_group_name_H-M "P N M A"
_symmetry_group_IT_number 62
_symmetry_cell_setting 'orthorhombic'
loop_
_space_group_symop_operation_xyz
x,y,z
1/2-x,-y,1/2+z
1/2+x,1/2-y,1/2-z
-x,1/2+y,-z
-x,-y,-z
1/2+x,y,1/2-z
1/2-x,1/2+y,1/2+z
x,1/2-y,z
loop_
_atom_site_type_symbol
_atom_site_label
_atom_site_fract_x
_atom_site_fract_y
_atom_site_fract_z
Si Si1 0.162440 0.575605 0.928159
Si Si2 0.668922 0.079821 0.442319
Si Si3 0.151084 0.409835 0.736767
Si Si4 0.065094 0.081364 0.160949
Si Si5 0.245633 0.912743 0.343238
Si Si6 0.063478 0.424475 0.842254
Si Si7 0.836957 0.588019 0.738660
Si Si8 0.732668 0.910599 0.844107
O O1 0.159978 0.750000 0.921915
O O2 0.225985 0.515728 0.897024
O O3 0.101643 0.505189 0.896568
O O4 0.161670 0.528356 0.000015
O O5 0.674816 0.250000 0.462653
O O6 0.608549 0.059549 0.399111
O O7 0.730954 0.027399 0.404740
O O8 0.135139 0.250000 0.711072
O O9 0.207195 0.403509 0.785826
O O10 0.091085 0.472870 0.774216
O O11 0.170842 0.500275 0.675342
O O12 0.043241 0.250000 0.165391
O O13 0.101491 0.034916 0.224354
O O14 0.007566 0.972843 0.153440
O O15 0.233157 0.750000 0.370100
O O16 0.180108 0.979808 0.318491
O O17 0.070206 0.250000 0.851559
O O18 0.848020 0.750000 0.710997
O O19 0.780159 0.594988 0.786808
O O20 0.708155 0.750000 0.860091
#
# Coordination Sequence:
#
# PCOD8252192 Si02
#       8
#     8   8   8   8   8   8   8   8
#     4  11  21  31  44  61  82 113 150 182 214 251
#     4   9  18  32  45  60  85 113 143 178 214 251
#     4   8  15  26  40  59  81 104 132 170 213 252
#     4   9  18  31  46  63  85 115 148 181 214 250
#     4   9  16  27  43  62  83 107 135 171 216 257
#     4  10  20  32  44  60  85 116 148 182 216 250
#     4   8  14  26  43  63  84 105 134 172 213 255
#     4   8  14  25  43  62  79 103 132 167 212 256
#
# _framework density 15.289372999999999
#
# number of rings (size 3 to 8) (size 9 to 14) (size 15 to 20)
#    0.000    3.000    0.000    4.125    0.000    5.500 
#    0.000    2.500    0.000    0.000    0.000    0.000 
#    0.000    1.000    0.000    3.250    0.000    5.000 
#
# Total GULP energy -793107.755065 kJ/mol
# GULP energy per Si atom -12392.308673 kJ/mol
# Density = 1.525457 g / cm^3
# Si number density = 15.289373 Si / 1000 Ang^3
#
#
#
# Elastic Constant Matrix: (Units=GPa)
#
#
# Indices 1 2 3 4 5 6 
#
# 1 49.5240 43.8602 55.0997 0.0000 0.0000 0.0000
# 2 43.8602 98.4117 47.8071 0.0000 0.0000 0.0000
# 3 55.0997 47.8071 57.3735 0.0000 0.0000 0.0000
# 4 0.0000 0.0000 0.0000 24.5609 0.0000 0.0000
# 5 0.0000 0.0000 0.0000 0.0000 14.8067 0.0000
# 6 0.0000 0.0000 0.0000 0.0000 0.0000 23.9181
#
#
#
# Elastic Compliance Matrix: (Units=1/GPa)
#
#
# Indices 1 2 3 4 5 6 
#
# 1 -0.288698 -0.010115 0.285685 0.000000 0.000000 0.000000
# 2 -0.010115 0.016718 -0.004216 0.000000 0.000000 0.000000
# 3 0.285685 -0.004216 -0.253420 0.000000 0.000000 0.000000
# 4 0.000000 0.000000 0.000000 0.040715 0.000000 0.000000
# 5 0.000000 0.000000 0.000000 0.000000 0.067537 0.000000
# 6 0.000000 0.000000 0.000000 0.000000 0.000000 0.041809
#
#
# Mechanical properties :
#
#
# Convention : Reuss Voigt Hill
#
# Bulk Modulus (GPa) = 57.77908 55.42702 56.60305
# Shear Modulus (GPa) = -5.48079 16.55996 5.53958
#
# Velocity S-wave (km/s) = -1.89539 3.29462 1.90553
# Velocity P-wave (km/s) = 5.75173 7.12765 6.47633
#
# Compressibility (1/GPa) = 0.01730730
#
# Stress axis : x y z
#
# Youngs Moduli (GPa) = -3.46383 59.81747 -3.94603
#
# Poissons Ratio (x) = 0.60503 1.12732
# Poissons Ratio (y) = -0.03504 -0.01664
# Poissons Ratio (z) = 0.98956 0.25221
#
# Static dielectric constant tensor:
#      x y z
#    x 2.828980 0.000000 0.000000 
#    y 0.000000 3.148570 0.000000 
#    z 0.000000 0.000000 2.800070 
# 
# 
# High freq. dielectric constant tensor:
#      x y z
#    x 1.557280 0.000000 0.000000 
#    y 0.000000 1.592880 0.000000 
#    z 0.000000 0.000000 1.558590 
# 
# From -- ./inp_files/24908.got.cif
#   From: 2010.03.12/outbox.cif.g09.slc.cpg/sg62_13_cif.got.tgz:24908.got - 2010.04.10 19:12:36.
