data_PCOD8252083
_publ_section_title
;
Structure prediction by ZEFSAII (Michael W. Deem and Ramdas Pophale) SiO2 
 PCOD8252083
Probable space group: P N M A
;
_chemical_formula_sum "Si O2"
_cell_formula_units_Z 64
_cell_length_a 18.182550
_cell_length_b 13.531048
_cell_length_c 12.068744
_cell_angle_alpha 90.000000
_cell_angle_beta 90.000000
_cell_angle_gamma 90.000000
_cell_volume 2969.260496
_symmetry_space_group_name_H-M "P N M A"
_symmetry_group_IT_number 62
_symmetry_cell_setting 'orthorhombic'
loop_
_space_group_symop_operation_xyz
x,y,z
1/2-x,-y,1/2+z
1/2+x,1/2-y,1/2-z
-x,1/2+y,-z
-x,-y,-z
1/2+x,y,1/2-z
1/2-x,1/2+y,1/2+z
x,1/2-y,z
loop_
_atom_site_type_symbol
_atom_site_label
_atom_site_fract_x
_atom_site_fract_y
_atom_site_fract_z
Si Si1 0.446169 0.636655 0.770887
Si Si2 0.242949 0.639508 0.359793
Si Si3 0.283986 0.042379 0.475177
Si Si4 0.924649 0.134469 0.118974
Si Si5 0.629306 0.364815 0.007348
Si Si6 0.387141 0.861235 0.233242
Si Si7 0.999245 0.362662 0.901274
Si Si8 0.635771 0.950188 0.300917
O O1 0.424062 0.750000 0.741175
O O2 0.531582 0.617742 0.735079
O O3 0.435233 0.617019 0.902274
O O4 0.392683 0.562989 0.704169
O O5 0.225032 0.750000 0.401977
O O6 0.274725 0.575731 0.461165
O O7 0.301398 0.641085 0.260427
O O8 0.170771 0.584778 0.314188
O O9 0.345215 0.081274 0.386586
O O10 0.206341 0.093062 0.447924
O O11 0.305953 0.061868 0.600736
O O12 0.909274 0.250000 0.097383
O O13 0.978954 0.091059 0.021758
O O14 0.643285 0.250000 0.986384
O O15 0.604180 0.411945 0.888538
O O16 0.419707 0.750000 0.227640
O O17 0.433358 0.915990 0.333269
O O18 0.021193 0.250000 0.923137
O O19 0.929350 0.372961 0.821630
#
# Coordination Sequence:
#
# PCOD8252083 Si02
#       8
#     8   8   8   8   8   8   8   8
#     4  10  22  38  56  83 120 158 197 243 299 365
#     4  11  23  38  58  88 124 158 196 253 308 357
#     4  11  22  36  62  90 118 153 200 253 305 358
#     4   9  20  37  60  89 122 153 193 251 309 362
#     4  10  19  37  62  85 114 158 208 246 289 358
#     4   9  19  35  58  86 116 152 199 248 295 348
#     4   9  19  35  59  90 117 150 194 249 304 357
#     4  11  22  37  61  86 118 156 202 245 302 364
#
# _framework density 21.554189000000001
#
# number of rings (size 3 to 8) (size 9 to 14) (size 15 to 20)
#    0.000    2.000    2.500    0.750    3.500    2.500 
#    0.000    0.625    2.750    0.000    0.000    0.000 
#    0.000    0.000    0.000    0.000    0.000    0.000 
#
# Total GULP energy -793123.213575 kJ/mol
# GULP energy per Si atom -12392.550212 kJ/mol
# Density = 2.150513 g / cm^3
# Si number density = 21.554189 Si / 1000 Ang^3
#
#
#
# Elastic Constant Matrix: (Units=GPa)
#
#
# Indices 1 2 3 4 5 6 
#
# 1 71.6046 8.3859 33.2793 0.0000 0.0000 0.0000
# 2 8.3859 60.6378 0.7473 0.0000 0.0000 0.0000
# 3 33.2793 0.7473 63.4051 0.0000 0.0000 0.0000
# 4 0.0000 0.0000 0.0000 18.2085 0.0000 0.0000
# 5 0.0000 0.0000 0.0000 0.0000 38.2243 0.0000
# 6 0.0000 0.0000 0.0000 0.0000 0.0000 27.7858
#
#
#
# Elastic Compliance Matrix: (Units=1/GPa)
#
#
# Indices 1 2 3 4 5 6 
#
# 1 0.018838 -0.002484 -0.009858 0.000000 0.000000 0.000000
# 2 -0.002484 0.016821 0.001105 0.000000 0.000000 0.000000
# 3 -0.009858 0.001105 0.020933 0.000000 0.000000 0.000000
# 4 0.000000 0.000000 0.000000 0.054919 0.000000 0.000000
# 5 0.000000 0.000000 0.000000 0.000000 0.026161 0.000000
# 6 0.000000 0.000000 0.000000 0.000000 0.000000 0.035990
#
#
# Mechanical properties :
#
#
# Convention : Reuss Voigt Hill
#
# Bulk Modulus (GPa) = 29.30918 31.16362 30.23640
# Shear Modulus (GPa) = 24.09532 27.05937 25.57734
#
# Velocity S-wave (km/s) = 3.34712 3.54702 3.44852
# Velocity P-wave (km/s) = 5.34463 5.59149 5.46945
#
# Compressibility (1/GPa) = 0.03411900
#
# Stress axis : x y z
#
# Youngs Moduli (GPa) = 53.08345 59.44867 47.77170
#
# Poissons Ratio (x) = 0.14766 0.47095
# Poissons Ratio (y) = 0.13185 -0.05281
# Poissons Ratio (z) = 0.52331 -0.06571
#
# Static dielectric constant tensor:
#      x y z
#    x 3.799390 0.000000 0.000000 
#    y 0.000000 3.891540 0.000000 
#    z 0.000000 0.000000 3.905070 
# 
# 
# High freq. dielectric constant tensor:
#      x y z
#    x 1.834850 0.000000 0.000000 
#    y 0.000000 1.846160 0.000000 
#    z 0.000000 0.000000 1.831410 
# 
# From -- ./inp_files/14311.got.cif
#   From: 2010.03.12/outbox.cif.g09.slc.cpg/sg62_8_cif.got.tgz:14311.got - 2010.04.10 19:12:36.
