data_PCOD8252601
_publ_section_title
;
Structure prediction by ZEFSAII (Michael W. Deem and Ramdas Pophale) SiO2 
 PCOD8252601
Probable space group: P N M A
;
_chemical_formula_sum "Si O2"
_cell_formula_units_Z 64
_cell_length_a 24.506551
_cell_length_b 8.851241
_cell_length_c 14.443991
_cell_angle_alpha 90.000000
_cell_angle_beta 90.000000
_cell_angle_gamma 90.000000
_cell_volume 3133.095038
_symmetry_space_group_name_H-M "P N M A"
_symmetry_group_IT_number 62
_symmetry_cell_setting 'orthorhombic'
loop_
_space_group_symop_operation_xyz
x,y,z
1/2-x,-y,1/2+z
1/2+x,1/2-y,1/2-z
-x,1/2+y,-z
-x,-y,-z
1/2+x,y,1/2-z
1/2-x,1/2+y,1/2+z
x,1/2-y,z
loop_
_atom_site_type_symbol
_atom_site_label
_atom_site_fract_x
_atom_site_fract_y
_atom_site_fract_z
Si Si1 0.142660 0.575412 0.086768
Si Si2 0.182761 0.076979 0.251080
Si Si3 0.233882 0.421652 0.988468
Si Si4 0.911001 0.430131 0.253996
Si Si5 0.047483 0.427670 0.561086
Si Si6 0.794934 0.575350 0.222856
Si Si7 0.659129 0.421933 0.040137
Si Si8 0.949198 0.071615 0.051568
O O1 0.134127 0.750000 0.106779
O O2 0.135578 0.486079 0.183046
O O3 0.203457 0.539146 0.053619
O O4 0.102066 0.515313 0.008321
O O5 0.195046 0.250000 0.230492
O O6 0.156221 0.051124 0.350558
O O7 0.239983 0.991546 0.232499
O O8 0.224436 0.250000 0.020743
O O9 0.211053 0.448126 0.886179
O O10 0.297202 0.461602 0.000463
O O11 0.908996 0.250000 0.260884
O O12 0.947416 0.496711 0.337518
O O13 0.849091 0.491469 0.259172
O O14 0.940086 0.482140 0.157655
O O15 0.036773 0.250000 0.573511
O O16 0.101938 0.462372 0.504445
O O17 0.000000 0.500000 0.500000
O O18 0.800070 0.750000 0.251039
O O19 0.676724 0.250000 0.018084
O O20 0.955686 0.250000 0.048820
O O21 0.000000 0.000000 0.000000
#
# Coordination Sequence:
#
# PCOD8252601 Si02
#       8
#     8   8   8   8   8   8   8   8
#     4  11  22  38  58  87 127 167 205 252 312 371
#     4  10  21  37  59  89 124 167 209 254 312 375
#     4  10  20  34  58  90 123 159 203 252 306 367
#     4  11  23  42  65  92 124 163 208 258 313 375
#     4  11  25  45  67  93 123 163 213 265 320 374
#     4  10  20  36  59  90 125 163 206 255 307 369
#     4   9  21  41  62  85 121 163 204 255 315 370
#     4  10  24  43  65  92 125 167 212 260 315 373
#
# _framework density 20.427085000000002
#
# number of rings (size 3 to 8) (size 9 to 14) (size 15 to 20)
#    0.000    1.750    1.250    2.250    1.750    5.500 
#    0.000    3.750    0.000    0.000    0.000    0.000 
#    0.000    0.000    0.000    0.000    0.000    0.000 
#
# Total GULP energy -793546.407889 kJ/mol
# GULP energy per Si atom -12399.162623 kJ/mol
# Density = 2.038059 g / cm^3
# Si number density = 20.427085 Si / 1000 Ang^3
#
#
#
# Elastic Constant Matrix: (Units=GPa)
#
#
# Indices 1 2 3 4 5 6 
#
# 1 93.1153 44.8837 66.1490 0.0000 0.0000 0.0000
# 2 44.8837 82.4796 46.5543 0.0000 0.0000 0.0000
# 3 66.1490 46.5543 130.6378 0.0000 0.0000 0.0000
# 4 0.0000 0.0000 0.0000 35.7321 0.0000 0.0000
# 5 0.0000 0.0000 0.0000 0.0000 33.6002 0.0000
# 6 0.0000 0.0000 0.0000 0.0000 0.0000 34.5173
#
#
#
# Elastic Compliance Matrix: (Units=1/GPa)
#
#
# Indices 1 2 3 4 5 6 
#
# 1 0.018965 -0.006134 -0.007417 0.000000 0.000000 0.000000
# 2 -0.006134 0.017161 -0.003010 0.000000 0.000000 0.000000
# 3 -0.007417 -0.003010 0.012483 0.000000 0.000000 0.000000
# 4 0.000000 0.000000 0.000000 0.027986 0.000000 0.000000
# 5 0.000000 0.000000 0.000000 0.000000 0.029762 0.000000
# 6 0.000000 0.000000 0.000000 0.000000 0.000000 0.028971
#
#
# Mechanical properties :
#
#
# Convention : Reuss Voigt Hill
#
# Bulk Modulus (GPa) = 64.56747 69.04520 66.80633
# Shear Modulus (GPa) = 28.79987 30.67962 29.73974
#
# Velocity S-wave (km/s) = 3.75892 3.87965 3.81976
# Velocity P-wave (km/s) = 7.10751 7.34460 7.22702
#
# Compressibility (1/GPa) = 0.01548768
#
# Stress axis : x y z
#
# Youngs Moduli (GPa) = 52.72793 58.27211 80.10915
#
# Poissons Ratio (x) = 0.35744 0.59419
# Poissons Ratio (y) = 0.32343 0.24109
# Poissons Ratio (z) = 0.39110 0.17537
#
# Static dielectric constant tensor:
#      x y z
#    x 3.436070 0.000000 0.000000 
#    y 0.000000 3.777110 0.000000 
#    z 0.000000 0.000000 3.899540 
# 
# 
# High freq. dielectric constant tensor:
#      x y z
#    x 1.786700 0.000000 0.000000 
#    y 0.000000 1.802780 0.000000 
#    z 0.000000 0.000000 1.815940 
# 
# From -- ./inp_files/20802.got.cif
#   From: 2010.03.12/outbox.cif.g09.slc.cpg/sg62_11_cif.got.tgz:20802.got - 2010.04.10 19:12:36.
