data_PCOD8252469
_publ_section_title
;
Structure prediction by ZEFSAII (Michael W. Deem and Ramdas Pophale) SiO2 
 PCOD8252469
Probable space group: P N M A
;
_chemical_formula_sum "Si O2"
_cell_formula_units_Z 48
_cell_length_a 11.987831
_cell_length_b 9.081575
_cell_length_c 23.651691
_cell_angle_alpha 90.000000
_cell_angle_beta 90.000000
_cell_angle_gamma 90.000000
_cell_volume 2574.921433
_symmetry_space_group_name_H-M "P N M A"
_symmetry_group_IT_number 62
_symmetry_cell_setting 'orthorhombic'
loop_
_space_group_symop_operation_xyz
x,y,z
1/2-x,-y,1/2+z
1/2+x,1/2-y,1/2-z
-x,1/2+y,-z
-x,-y,-z
1/2+x,y,1/2-z
1/2-x,1/2+y,1/2+z
x,1/2-y,z
loop_
_atom_site_type_symbol
_atom_site_label
_atom_site_fract_x
_atom_site_fract_y
_atom_site_fract_z
Si Si1 0.981458 0.578288 0.625031
Si Si2 0.651540 0.575649 0.217935
Si Si3 0.687485 0.577389 0.046334
Si Si4 0.647900 0.421880 0.643144
Si Si5 0.099167 0.575590 0.156019
Si Si6 0.723301 0.920538 0.918884
O O1 0.952778 0.750000 0.627950
O O2 0.948408 0.500843 0.683640
O O3 0.916795 0.509914 0.571773
O O4 0.112209 0.549867 0.616842
O O5 0.636692 0.750000 0.210037
O O6 0.769505 0.519499 0.192466
O O7 0.645529 0.527344 0.282895
O O8 0.658311 0.750000 0.049178
O O9 0.799067 0.541618 0.082160
O O10 0.706948 0.523008 0.982810
O O11 0.633619 0.250000 0.652302
O O12 0.525211 0.492533 0.648510
O O13 0.099589 0.750000 0.149324
O O14 0.175700 0.510195 0.107469
O O15 0.756078 0.750000 0.918891
#
# Coordination Sequence:
#
# PCOD8252469 Si02
#       6
#     8   8   8   8   8   8
#     4  10  20  34  54  81 109 137 177 226 267 315
#     4   9  19  35  56  77 104 140 176 219 272 322
#     4   9  18  36  58  76 106 147 179 218 268 318
#     4   8  16  33  53  76 102 132 176 221 261 311
#     4  10  21  34  54  80 104 138 181 222 260 315
#     4  10  22  36  51  78 113 145 176 217 273 318
#
# _framework density 18.641345000000001
#
# number of rings (size 3 to 8) (size 9 to 14) (size 15 to 20)
#    0.000    2.667    0.000    2.000    2.333    3.333 
#    0.000    3.333    0.000    0.000    0.000    0.000 
#    0.000    0.000    0.000    0.000    0.000    0.000 
#
# Total GULP energy -595207.251414 kJ/mol
# GULP energy per Si atom -12400.151071 kJ/mol
# Density = 1.859892 g / cm^3
# Si number density = 18.641345 Si / 1000 Ang^3
#
#
#
# Elastic Constant Matrix: (Units=GPa)
#
#
# Indices 1 2 3 4 5 6 
#
# 1 95.1312 25.7802 13.0687 0.0000 0.0000 0.0000
# 2 25.7802 36.6174 20.2899 0.0000 0.0000 0.0000
# 3 13.0687 20.2899 60.2439 0.0000 0.0000 0.0000
# 4 0.0000 0.0000 0.0000 27.6577 0.0000 0.0000
# 5 0.0000 0.0000 0.0000 0.0000 21.9819 0.0000
# 6 0.0000 0.0000 0.0000 0.0000 0.0000 26.1693
#
#
#
# Elastic Compliance Matrix: (Units=1/GPa)
#
#
# Indices 1 2 3 4 5 6 
#
# 1 0.012995 -0.009328 0.000323 0.000000 0.000000 0.000000
# 2 -0.009328 0.040271 -0.011540 0.000000 0.000000 0.000000
# 3 0.000323 -0.011540 0.020416 0.000000 0.000000 0.000000
# 4 0.000000 0.000000 0.000000 0.036156 0.000000 0.000000
# 5 0.000000 0.000000 0.000000 0.000000 0.045492 0.000000
# 6 0.000000 0.000000 0.000000 0.000000 0.000000 0.038213
#
#
# Mechanical properties :
#
#
# Convention : Reuss Voigt Hill
#
# Bulk Modulus (GPa) = 30.68245 34.47445 32.57845
# Shear Modulus (GPa) = 20.36688 24.01872 22.19280
#
# Velocity S-wave (km/s) = 3.30898 3.59341 3.45413
# Velocity P-wave (km/s) = 5.57622 5.97917 5.78121
#
# Compressibility (1/GPa) = 0.03259192
#
# Stress axis : x y z
#
# Youngs Moduli (GPa) = 76.95070 24.83189 48.98194
#
# Poissons Ratio (x) = 0.23163 -0.01580
# Poissons Ratio (y) = 0.71780 0.56523
# Poissons Ratio (z) = -0.02482 0.28655
#
# Static dielectric constant tensor:
#      x y z
#    x 3.566870 0.000000 0.000000 
#    y 0.000000 3.176540 0.000000 
#    z 0.000000 0.000000 3.522890 
# 
# 
# High freq. dielectric constant tensor:
#      x y z
#    x 1.727690 0.000000 0.000000 
#    y 0.000000 1.698610 0.000000 
#    z 0.000000 0.000000 1.730370 
# 
# From -- ./inp_files/29222.got.cif
#   From: 2010.03.12/outbox.cif.g09.slc.cpg/sg62_15_cif.got.tgz:29222.got - 2010.04.10 19:12:36.
