data_PCOD8252256
_publ_section_title
;
Structure prediction by ZEFSAII (Michael W. Deem and Ramdas Pophale) SiO2 
 PCOD8252256
Probable space group: P N M A
;
_chemical_formula_sum "Si O2"
_cell_formula_units_Z 56
_cell_length_a 17.750030
_cell_length_b 8.800382
_cell_length_c 19.629541
_cell_angle_alpha 90.000000
_cell_angle_beta 90.000000
_cell_angle_gamma 90.000000
_cell_volume 3066.272585
_symmetry_space_group_name_H-M "P N M A"
_symmetry_group_IT_number 62
_symmetry_cell_setting 'orthorhombic'
loop_
_space_group_symop_operation_xyz
x,y,z
1/2-x,-y,1/2+z
1/2+x,1/2-y,1/2-z
-x,1/2+y,-z
-x,-y,-z
1/2+x,y,1/2-z
1/2-x,1/2+y,1/2+z
x,1/2-y,z
loop_
_atom_site_type_symbol
_atom_site_label
_atom_site_fract_x
_atom_site_fract_y
_atom_site_fract_z
Si Si1 0.192338 0.928741 0.965947
Si Si2 0.286312 0.430586 0.615675
Si Si3 0.122515 0.429878 0.596362
Si Si4 0.567256 0.569464 0.311973
Si Si5 0.471185 0.069804 0.838025
Si Si6 0.469934 0.429752 0.430554
Si Si7 0.856524 0.928777 0.558770
O O1 0.197472 0.750000 0.975120
O O2 0.118556 0.974979 0.923225
O O3 0.269606 0.981363 0.929416
O O4 0.186908 0.996584 0.042530
O O5 0.284407 0.250000 0.613303
O O6 0.200956 0.489998 0.630283
O O7 0.346866 0.484669 0.672044
O O8 0.120051 0.250000 0.601598
O O9 0.118274 0.477313 0.517187
O O10 0.051108 0.499432 0.636560
O O11 0.560070 0.750000 0.317457
O O12 0.545636 0.507828 0.237541
O O13 0.510293 0.497564 0.365386
O O14 0.473825 0.250000 0.837658
O O15 0.405234 0.019466 0.887545
O O16 0.500000 0.500000 0.500000
O O17 0.481418 0.250000 0.433480
O O18 0.867528 0.750000 0.570373
#
# Coordination Sequence:
#
# PCOD8252256 Si02
#       7
#     8   8   8   8   8   8   8
#     4   8  15  29  51  75  95 123 169 209 242 301
#     4   8  13  27  50  69  91 130 172 199 239 305
#     4   8  15  29  52  75  95 130 175 210 246 305
#     4  10  20  34  50  72 105 142 173 206 252 309
#     4  10  20  33  48  76 109 132 166 217 263 298
#     4  11  20  33  55  78 102 133 171 216 258 300
#     4   9  17  32  55  75  94 133 177 209 251 309
#
# _framework density 18.263217000000001
#
# number of rings (size 3 to 8) (size 9 to 14) (size 15 to 20)
#    0.000    2.857    1.429    2.571    0.000    0.571 
#    2.571    1.429    0.000    0.857    0.000    0.000 
#    0.000    0.000    0.000    0.000    0.000    0.000 
#
# Total GULP energy -693961.047216 kJ/mol
# GULP energy per Si atom -12392.161557 kJ/mol
# Density = 1.822165 g / cm^3
# Si number density = 18.263217 Si / 1000 Ang^3
#
#
#
# Elastic Constant Matrix: (Units=GPa)
#
#
# Indices 1 2 3 4 5 6 
#
# 1 184.5666 20.2923 100.2097 0.0000 0.0000 0.0000
# 2 20.2923 14.2404 19.9613 0.0000 0.0000 0.0000
# 3 100.2097 19.9613 133.2481 0.0000 0.0000 0.0000
# 4 0.0000 0.0000 0.0000 19.2473 0.0000 0.0000
# 5 0.0000 0.0000 0.0000 0.0000 22.1177 0.0000
# 6 0.0000 0.0000 0.0000 0.0000 0.0000 22.7139
#
#
#
# Elastic Compliance Matrix: (Units=1/GPa)
#
#
# Indices 1 2 3 4 5 6 
#
# 1 0.009370 -0.004398 -0.006388 0.000000 0.000000 0.000000
# 2 -0.004398 0.090952 -0.010318 0.000000 0.000000 0.000000
# 3 -0.006388 -0.010318 0.013854 0.000000 0.000000 0.000000
# 4 0.000000 0.000000 0.000000 0.051955 0.000000 0.000000
# 5 0.000000 0.000000 0.000000 0.000000 0.045213 0.000000
# 6 0.000000 0.000000 0.000000 0.000000 0.000000 0.044026
#
#
# Mechanical properties :
#
#
# Convention : Reuss Voigt Hill
#
# Bulk Modulus (GPa) = 13.89472 68.10906 41.00189
# Shear Modulus (GPa) = 15.54886 25.58858 20.56872
#
# Velocity S-wave (km/s) = 2.92100 3.74719 3.35959
# Velocity P-wave (km/s) = 4.35900 7.48972 6.12767
#
# Compressibility (1/GPa) = 0.07196978
#
# Stress axis : x y z
#
# Youngs Moduli (GPa) = 106.72516 10.99478 72.17913
#
# Poissons Ratio (x) = 0.04835 0.46107
# Poissons Ratio (y) = 0.46936 0.74472
# Poissons Ratio (z) = 0.68174 0.11344
#
# Static dielectric constant tensor:
#      x y z
#    x 4.084150 0.000000 0.000000 
#    y 0.000000 2.926050 0.000000 
#    z 0.000000 0.000000 3.353720 
# 
# 
# High freq. dielectric constant tensor:
#      x y z
#    x 1.731660 0.000000 0.000000 
#    y 0.000000 1.661750 0.000000 
#    z 0.000000 0.000000 1.690470 
# 
# From -- ./inp_files/27571.got.cif
#   From: 2010.03.12/outbox.cif.g09.slc.cpg/sg62_14_cif.got.tgz:27571.got - 2010.04.10 19:12:36.
