data_PCOD8252426
_publ_section_title
;
Structure prediction by ZEFSAII (Michael W. Deem and Ramdas Pophale) SiO2 
 PCOD8252426
Probable space group: P N M A
;
_chemical_formula_sum "Si O2"
_cell_formula_units_Z 56
_cell_length_a 20.485802
_cell_length_b 15.561688
_cell_length_c 8.745899
_cell_angle_alpha 90.000000
_cell_angle_beta 90.000000
_cell_angle_gamma 90.000000
_cell_volume 2788.137145
_symmetry_space_group_name_H-M "P N M A"
_symmetry_group_IT_number 62
_symmetry_cell_setting 'orthorhombic'
loop_
_space_group_symop_operation_xyz
x,y,z
1/2-x,-y,1/2+z
1/2+x,1/2-y,1/2-z
-x,1/2+y,-z
-x,-y,-z
1/2+x,y,1/2-z
1/2-x,1/2+y,1/2+z
x,1/2-y,z
loop_
_atom_site_type_symbol
_atom_site_label
_atom_site_fract_x
_atom_site_fract_y
_atom_site_fract_z
Si Si1 0.099662 0.650857 0.594204
Si Si2 0.269812 0.928497 0.109079
Si Si3 0.647030 0.152974 0.138737
Si Si4 0.599280 0.015054 0.728434
Si Si5 0.969238 0.846804 0.414913
Si Si6 0.778992 0.153709 0.600757
Si Si7 0.829932 0.931157 0.952386
O O1 0.105459 0.750000 0.655262
O O2 0.083150 0.585100 0.734189
O O3 0.165526 0.615587 0.512983
O O4 0.043114 0.643845 0.468761
O O5 0.332373 0.963525 0.195040
O O6 0.220061 0.887511 0.230986
O O7 0.229431 0.002168 0.026358
O O8 0.292931 0.862641 0.977322
O O9 0.652576 0.250000 0.200020
O O10 0.649138 0.087012 0.279707
O O11 0.577984 0.136554 0.058513
O O12 0.543575 0.080656 0.787192
O O13 0.607482 0.033090 0.546517
O O14 0.956483 0.750000 0.349786
O O15 0.800995 0.250000 0.627252
O O16 0.705624 0.151610 0.528249
#
# Coordination Sequence:
#
# PCOD8252426 Si02
#       7
#     8   8   8   8   8   8   8
#     4  10  20  37  60  84 112 151 197 238 283 346
#     4  10  20  34  53  79 115 140 178 227 282 339
#     4  10  20  35  56  80 108 149 187 230 280 338
#     4  10  20  35  57  83 111 149 186 236 284 333
#     4   9  20  37  60  83 109 148 198 241 283 339
#     4  10  20  34  56  82 108 142 185 232 283 335
#     4  11  21  34  53  82 114 144 180 231 285 343
#
# _framework density 20.085096
#
# number of rings (size 3 to 8) (size 9 to 14) (size 15 to 20)
#    0.000    2.000    1.429    3.000    2.000    4.000 
#    0.000    1.429    0.000    0.000    0.000    0.000 
#    0.000    0.000    0.000    0.000    0.000    0.000 
#
# Total GULP energy -694142.571723 kJ/mol
# GULP energy per Si atom -12395.403066 kJ/mol
# Density = 2.003938 g / cm^3
# Si number density = 20.085096 Si / 1000 Ang^3
#
#
#
# Elastic Constant Matrix: (Units=GPa)
#
#
# Indices 1 2 3 4 5 6 
#
# 1 40.1190 14.1921 4.0483 0.0000 0.0000 0.0000
# 2 14.1921 80.1369 31.2865 0.0000 0.0000 0.0000
# 3 4.0483 31.2865 83.7557 0.0000 0.0000 0.0000
# 4 0.0000 0.0000 0.0000 22.8774 0.0000 0.0000
# 5 0.0000 0.0000 0.0000 0.0000 16.1739 0.0000
# 6 0.0000 0.0000 0.0000 0.0000 0.0000 27.8010
#
#
#
# Elastic Compliance Matrix: (Units=1/GPa)
#
#
# Indices 1 2 3 4 5 6 
#
# 1 0.026614 -0.004930 0.000555 0.000000 0.000000 0.000000
# 2 -0.004930 0.015522 -0.005560 0.000000 0.000000 0.000000
# 3 0.000555 -0.005560 0.013990 0.000000 0.000000 0.000000
# 4 0.000000 0.000000 0.000000 0.043711 0.000000 0.000000
# 5 0.000000 0.000000 0.000000 0.000000 0.061828 0.000000
# 6 0.000000 0.000000 0.000000 0.000000 0.000000 0.035970
#
#
# Mechanical properties :
#
#
# Convention : Reuss Voigt Hill
#
# Bulk Modulus (GPa) = 27.58152 33.67394 30.62773
# Shear Modulus (GPa) = 21.77794 23.66944 22.72369
#
# Velocity S-wave (km/s) = 3.29642 3.43659 3.36723
# Velocity P-wave (km/s) = 5.31513 5.70517 5.51360
#
# Compressibility (1/GPa) = 0.03625616
#
# Stress axis : x y z
#
# Youngs Moduli (GPa) = 37.57444 64.42285 71.48184
#
# Poissons Ratio (x) = 0.31761 -0.03969
# Poissons Ratio (y) = 0.18524 0.39744
# Poissons Ratio (z) = -0.02086 0.35819
#
# Static dielectric constant tensor:
#      x y z
#    x 3.552860 0.000000 0.000000 
#    y 0.000000 3.793260 0.000000 
#    z 0.000000 0.000000 3.661360 
# 
# 
# High freq. dielectric constant tensor:
#      x y z
#    x 1.768970 0.000000 0.000000 
#    y 0.000000 1.793500 0.000000 
#    z 0.000000 0.000000 1.763480 
# 
# From -- ./inp_files/8698.got.cif
#   From: 2010.03.12/outbox.cif.g09.slc.cpg/sg62_5_cif.got.tgz:8698.got - 2010.04.10 19:12:36.
