data_PCOD8252819
_publ_section_title
;
Structure prediction by ZEFSAII (Michael W. Deem and Ramdas Pophale) SiO2 
 PCOD8252819
Probable space group: P N M A
;
_chemical_formula_sum "Si O2"
_cell_formula_units_Z 64
_cell_length_a 29.255074
_cell_length_b 9.372189
_cell_length_c 12.370490
_cell_angle_alpha 90.000000
_cell_angle_beta 90.000000
_cell_angle_gamma 90.000000
_cell_volume 3391.791454
_symmetry_space_group_name_H-M "P N M A"
_symmetry_group_IT_number 62
_symmetry_cell_setting 'orthorhombic'
loop_
_space_group_symop_operation_xyz
x,y,z
1/2-x,-y,1/2+z
1/2+x,1/2-y,1/2-z
-x,1/2+y,-z
-x,-y,-z
1/2+x,y,1/2-z
1/2-x,1/2+y,1/2+z
x,1/2-y,z
loop_
_atom_site_type_symbol
_atom_site_label
_atom_site_fract_x
_atom_site_fract_y
_atom_site_fract_z
Si Si1 0.743200 0.095919 0.597223
Si Si2 0.173394 0.913781 0.267582
Si Si3 0.825922 0.908717 0.293550
Si Si4 0.046356 0.584573 0.996468
Si Si5 0.759630 0.082066 0.906948
Si Si6 0.926730 0.417504 0.760549
Si Si7 0.586216 0.915935 0.731742
Si Si8 0.499584 0.420584 0.116467
O O1 0.739574 0.250000 0.538400
O O2 0.796755 0.069723 0.624405
O O3 0.711371 0.098125 0.699955
O O4 0.725001 0.968586 0.524096
O O5 0.165475 0.750000 0.235209
O O6 0.203340 0.988736 0.173521
O O7 0.122528 0.977116 0.279378
O O8 0.845508 0.750000 0.316263
O O9 0.793527 0.967122 0.390394
O O10 0.867742 0.010542 0.270846
O O11 0.034488 0.750000 0.980890
O O12 0.072231 0.556891 0.109646
O O13 0.074124 0.530616 0.890178
O O14 0.000000 0.500000 0.000000
O O15 0.761874 0.250000 0.895006
O O16 0.935587 0.250000 0.733812
O O17 0.962077 0.514091 0.694769
O O18 0.596527 0.750000 0.728143
O O19 0.547591 0.951372 0.820490
O O20 0.507123 0.250000 0.100572
O O21 0.500000 0.500000 0.000000
#
# Coordination Sequence:
#
# PCOD8252819 Si02
#       8
#     8   8   8   8   8   8   8   8
#     4   9  18  34  53  76 108 143 178 220 268 316
#     4   8  17  34  54  76 106 142 177 214 262 323
#     4   9  20  36  53  79 112 145 182 224 273 326
#     4  10  20  35  57  85 115 144 182 229 281 336
#     4   9  18  34  55  77 106 144 183 222 266 319
#     4  10  20  36  60  86 110 145 188 226 277 337
#     4  10  22  38  57  84 113 145 187 231 276 332
#     4  11  24  42  60  81 113 147 186 233 278 331
#
# _framework density 18.869084999999998
#
# number of rings (size 3 to 8) (size 9 to 14) (size 15 to 20)
#    0.000    2.500    1.250    1.875    1.750    3.500 
#    0.000    6.875    0.000    0.000    0.000    0.000 
#    0.000    0.000    0.000    0.000    0.000    0.000 
#
# Total GULP energy -792846.312799 kJ/mol
# GULP energy per Si atom -12388.223637 kJ/mol
# Density = 1.882614 g / cm^3
# Si number density = 18.869085 Si / 1000 Ang^3
#
#
#
# Elastic Constant Matrix: (Units=GPa)
#
#
# Indices 1 2 3 4 5 6 
#
# 1 92.8623 41.7129 6.0101 0.0000 0.0000 0.0000
# 2 41.7129 49.8020 32.8017 0.0000 0.0000 0.0000
# 3 6.0101 32.8017 79.8013 0.0000 0.0000 0.0000
# 4 0.0000 0.0000 0.0000 32.1320 0.0000 0.0000
# 5 0.0000 0.0000 0.0000 0.0000 10.1449 0.0000
# 6 0.0000 0.0000 0.0000 0.0000 0.0000 21.2434
#
#
#
# Elastic Compliance Matrix: (Units=1/GPa)
#
#
# Indices 1 2 3 4 5 6 
#
# 1 0.019997 -0.021606 0.007375 0.000000 0.000000 0.000000
# 2 -0.021606 0.050879 -0.019286 0.000000 0.000000 0.000000
# 3 0.007375 -0.019286 0.019903 0.000000 0.000000 0.000000
# 4 0.000000 0.000000 0.000000 0.031122 0.000000 0.000000
# 5 0.000000 0.000000 0.000000 0.000000 0.098571 0.000000
# 6 0.000000 0.000000 0.000000 0.000000 0.000000 0.047073
#
#
# Mechanical properties :
#
#
# Convention : Reuss Voigt Hill
#
# Bulk Modulus (GPa) = 42.11574 42.61279 42.36426
# Shear Modulus (GPa) = 14.59876 22.16678 18.38277
#
# Velocity S-wave (km/s) = 2.78454 3.43121 3.12465
# Velocity P-wave (km/s) = 5.71897 6.19112 5.95972
#
# Compressibility (1/GPa) = 0.02374409
#
# Stress axis : x y z
#
# Youngs Moduli (GPa) = 50.00833 19.65441 50.24339
#
# Poissons Ratio (x) = 0.42466 -0.37055
# Poissons Ratio (y) = 1.08049 0.96900
# Poissons Ratio (z) = -0.36881 0.37906
#
# Static dielectric constant tensor:
#      x y z
#    x 3.749940 0.000000 0.000000 
#    y 0.000000 3.388960 0.000000 
#    z 0.000000 0.000000 3.810520 
# 
# 
# High freq. dielectric constant tensor:
#      x y z
#    x 1.740180 0.000000 0.000000 
#    y 0.000000 1.714740 0.000000 
#    z 0.000000 0.000000 1.734440 
# 
# From -- ./inp_files/15875.got.cif
#   From: 2010.03.12/outbox.cif.g09.slc.cpg/sg62_8_cif.got.tgz:15875.got - 2010.04.10 19:12:36.
