data_PCOD8252934
_publ_section_title
;
Structure prediction by ZEFSAII (Michael W. Deem and Ramdas Pophale) SiO2 
 PCOD8252934
Probable space group: P N M A
;
_chemical_formula_sum "Si O2"
_cell_formula_units_Z 56
_cell_length_a 14.264672
_cell_length_b 8.995834
_cell_length_c 22.698011
_cell_angle_alpha 90.000000
_cell_angle_beta 90.000000
_cell_angle_gamma 90.000000
_cell_volume 2912.668272
_symmetry_space_group_name_H-M "P N M A"
_symmetry_group_IT_number 62
_symmetry_cell_setting 'orthorhombic'
loop_
_space_group_symop_operation_xyz
x,y,z
1/2-x,-y,1/2+z
1/2+x,1/2-y,1/2-z
-x,1/2+y,-z
-x,-y,-z
1/2+x,y,1/2-z
1/2-x,1/2+y,1/2+z
x,1/2-y,z
loop_
_atom_site_type_symbol
_atom_site_label
_atom_site_fract_x
_atom_site_fract_y
_atom_site_fract_z
Si Si1 0.600190 0.920656 0.661025
Si Si2 0.700685 0.926220 0.887415
Si Si3 0.101568 0.073435 0.502961
Si Si4 0.398204 0.919743 0.658709
Si Si5 0.798799 0.575815 0.616879
Si Si6 0.353459 0.915407 0.226649
Si Si7 0.855669 0.414012 0.728740
O O1 0.617124 0.750000 0.678916
O O2 0.500049 0.938214 0.626229
O O3 0.688763 0.974288 0.621571
O O4 0.586871 0.012244 0.721201
O O5 0.688426 0.750000 0.895341
O O6 0.810653 0.975730 0.880810
O O7 0.641778 0.980217 0.830825
O O8 0.660659 0.011225 0.943075
O O9 0.090369 0.250000 0.508379
O O10 0.161004 0.026282 0.445747
O O11 0.000000 0.000000 0.500000
O O12 0.376342 0.750000 0.674523
O O13 0.411899 0.002658 0.720536
O O14 0.809112 0.750000 0.626196
O O15 0.862243 0.498955 0.666725
O O16 0.391594 0.750000 0.211489
O O17 0.249701 0.904527 0.250374
O O18 0.898774 0.250000 0.719944
#
# Coordination Sequence:
#
# PCOD8252934 Si02
#       7
#     8   8   8   8   8   8   8
#     4   9  17  32  54  80 109 141 174 210 255 314
#     4  10  20  36  56  78 106 141 178 217 259 308
#     4  11  24  41  59  78 100 133 177 224 269 315
#     4   9  18  32  53  80 110 142 174 207 252 311
#     4   9  19  36  56  76 103 138 176 216 261 312
#     4   9  17  30  49  76 107 138 172 212 256 301
#     4   9  17  29  49  76 106 137 170 210 255 299
#
# _framework density 19.226357
#
# number of rings (size 3 to 8) (size 9 to 14) (size 15 to 20)
#    0.000    2.571    0.000    1.714    0.000    6.857 
#    0.000    2.143    0.000    0.000    0.000    0.000 
#    0.000    0.000    0.000    0.000    0.000    0.000 
#
# Total GULP energy -693972.716396 kJ/mol
# GULP energy per Si atom -12392.369936 kJ/mol
# Density = 1.918260 g / cm^3
# Si number density = 19.226357 Si / 1000 Ang^3
#
#
#
# Elastic Constant Matrix: (Units=GPa)
#
#
# Indices 1 2 3 4 5 6 
#
# 1 129.0351 38.2285 61.6672 0.0000 0.0000 0.0000
# 2 38.2285 74.5640 48.1221 0.0000 0.0000 0.0000
# 3 61.6672 48.1221 129.1063 0.0000 0.0000 0.0000
# 4 0.0000 0.0000 0.0000 32.5450 0.0000 0.0000
# 5 0.0000 0.0000 0.0000 0.0000 19.7250 0.0000
# 6 0.0000 0.0000 0.0000 0.0000 0.0000 15.7089
#
#
#
# Elastic Compliance Matrix: (Units=1/GPa)
#
#
# Indices 1 2 3 4 5 6 
#
# 1 0.010474 -0.002819 -0.003952 0.000000 0.000000 0.000000
# 2 -0.002819 0.018418 -0.005518 0.000000 0.000000 0.000000
# 3 -0.003952 -0.005518 0.011690 0.000000 0.000000 0.000000
# 4 0.000000 0.000000 0.000000 0.030727 0.000000 0.000000
# 5 0.000000 0.000000 0.000000 0.000000 0.050697 0.000000
# 6 0.000000 0.000000 0.000000 0.000000 0.000000 0.063658
#
#
# Mechanical properties :
#
#
# Convention : Reuss Voigt Hill
#
# Bulk Modulus (GPa) = 62.48938 69.86012 66.17475
# Shear Modulus (GPa) = 23.19351 25.90829 24.55090
#
# Velocity S-wave (km/s) = 3.47701 3.67487 3.57731
# Velocity P-wave (km/s) = 6.97796 7.37704 7.18027
#
# Compressibility (1/GPa) = 0.01600272
#
# Stress axis : x y z
#
# Youngs Moduli (GPa) = 95.47682 54.29402 85.54281
#
# Poissons Ratio (x) = 0.15307 0.33806
# Poissons Ratio (y) = 0.26918 0.47206
# Poissons Ratio (z) = 0.37731 0.29962
#
# Static dielectric constant tensor:
#      x y z
#    x 3.722670 0.000000 0.000000 
#    y 0.000000 3.760930 0.000000 
#    z 0.000000 0.000000 3.394640 
# 
# 
# High freq. dielectric constant tensor:
#      x y z
#    x 1.759070 0.000000 0.000000 
#    y 0.000000 1.752840 0.000000 
#    z 0.000000 0.000000 1.718430 
# 
# From -- ./inp_files/27060.got.cif
#   From: 2010.03.12/outbox.cif.g09.slc.cpg/sg62_14_cif.got.tgz:27060.got - 2010.04.10 19:12:36.
