data_PCOD8252013
_publ_section_title
;
Structure prediction by ZEFSAII (Michael W. Deem and Ramdas Pophale) SiO2 
 PCOD8252013
Probable space group: P N M A
;
_chemical_formula_sum "Si O2"
_cell_formula_units_Z 36
_cell_length_a 5.606077
_cell_length_b 13.940658
_cell_length_c 18.803273
_cell_angle_alpha 90.000000
_cell_angle_beta 90.000000
_cell_angle_gamma 90.000000
_cell_volume 1469.520954
_symmetry_space_group_name_H-M "P N M A"
_symmetry_group_IT_number 62
_symmetry_cell_setting 'orthorhombic'
loop_
_space_group_symop_operation_xyz
x,y,z
1/2-x,-y,1/2+z
1/2+x,1/2-y,1/2-z
-x,1/2+y,-z
-x,-y,-z
1/2+x,y,1/2-z
1/2-x,1/2+y,1/2+z
x,1/2-y,z
loop_
_atom_site_type_symbol
_atom_site_label
_atom_site_fract_x
_atom_site_fract_y
_atom_site_fract_z
Si Si1 0.101068 0.074555 0.154677
Si Si2 0.756165 0.032896 0.575786
Si Si3 0.049538 0.641643 0.544983
Si Si4 0.373855 0.250000 0.292289
Si Si5 0.385263 0.075833 0.771157
O O1 0.327396 0.128542 0.121867
O O2 0.885563 0.152555 0.161367
O O3 0.164327 0.025847 0.230333
O O4 0.012486 0.988754 0.102277
O O5 0.763605 0.120516 0.519825
O O6 0.919338 0.058188 0.644797
O O7 0.839871 0.935289 0.536391
O O8 0.952778 0.750000 0.539159
O O9 0.627680 0.250000 0.249825
O O10 0.626911 0.130013 0.742947
#
# Coordination Sequence:
#
# PCOD8252013 Si02
#       5
#     8   8   8   4   8
#     4  11  22  36  61  91 129 168 215 268 330 392
#     4  10  23  40  59  91 129 172 216 270 328 397
#     4  11  23  40  62  90 128 173 222 265 336 393
#     4  12  26  36  60 100 142 172 212 268 340 408
#     4  10  19  36  61  90 123 166 205 262 320 384
#
# _framework density 24.497779999999999
#
# number of rings (size 3 to 8) (size 9 to 14) (size 15 to 20)
#    0.000    1.333    3.333    3.333    4.667    0.000 
#    0.000    0.000    0.000    5.333    0.000    0.000 
#    0.000    0.000    0.000    0.000    0.000    0.000 
#
# Total GULP energy -446010.251596 kJ/mol
# GULP energy per Si atom -12389.173655 kJ/mol
# Density = 2.444202 g / cm^3
# Si number density = 24.497780 Si / 1000 Ang^3
#
#
#
# Elastic Constant Matrix: (Units=GPa)
#
#
# Indices 1 2 3 4 5 6 
#
# 1 109.3730 4.3254 9.1961 0.0000 0.0000 0.0000
# 2 4.3254 41.3155 5.6569 0.0000 0.0000 0.0000
# 3 9.1961 5.6569 83.4975 0.0000 0.0000 0.0000
# 4 0.0000 0.0000 0.0000 24.6806 0.0000 0.0000
# 5 0.0000 0.0000 0.0000 0.0000 36.7265 0.0000
# 6 0.0000 0.0000 0.0000 0.0000 0.0000 13.2838
#
#
#
# Elastic Compliance Matrix: (Units=1/GPa)
#
#
# Indices 1 2 3 4 5 6 
#
# 1 0.009257 -0.000837 -0.000963 0.000000 0.000000 0.000000
# 2 -0.000837 0.024506 -0.001568 0.000000 0.000000 0.000000
# 3 -0.000963 -0.001568 0.012189 0.000000 0.000000 0.000000
# 4 0.000000 0.000000 0.000000 0.040518 0.000000 0.000000
# 5 0.000000 0.000000 0.000000 0.000000 0.027228 0.000000
# 6 0.000000 0.000000 0.000000 0.000000 0.000000 0.075280
#
#
# Mechanical properties :
#
#
# Convention : Reuss Voigt Hill
#
# Bulk Modulus (GPa) = 25.49995 30.28251 27.89123
# Shear Modulus (GPa) = 23.94798 29.27202 26.61000
#
# Velocity S-wave (km/s) = 3.12998 3.46046 3.29936
# Velocity P-wave (km/s) = 4.84707 5.32490 5.09159
#
# Compressibility (1/GPa) = 0.03921577
#
# Stress axis : x y z
#
# Youngs Moduli (GPa) = 108.02527 40.80576 82.04329
#
# Poissons Ratio (x) = 0.03417 0.07899
# Poissons Ratio (y) = 0.09045 0.12865
# Poissons Ratio (z) = 0.10401 0.06399
#
# Static dielectric constant tensor:
#      x y z
#    x 4.326930 0.000000 0.000000 
#    y 0.000000 3.976070 0.000000 
#    z 0.000000 0.000000 4.624760 
# 
# 
# High freq. dielectric constant tensor:
#      x y z
#    x 1.975650 0.000000 0.000000 
#    y 0.000000 1.918370 0.000000 
#    z 0.000000 0.000000 1.983620 
# 
# From -- ./inp_files/25190.got.cif
#   From: 2010.03.12/outbox.cif.g09.slc.cpg/sg62_13_cif.got.tgz:25190.got - 2010.04.10 19:12:36.
