data_PCOD8252625
_publ_section_title
;
Structure prediction by ZEFSAII (Michael W. Deem and Ramdas Pophale) SiO2 
 PCOD8252625
Probable space group: P N M A
;
_chemical_formula_sum "Si O2"
_cell_formula_units_Z 48
_cell_length_a 9.923613
_cell_length_b 8.854779
_cell_length_c 30.072420
_cell_angle_alpha 90.000000
_cell_angle_beta 90.000000
_cell_angle_gamma 90.000000
_cell_volume 2642.505647
_symmetry_space_group_name_H-M "P N M A"
_symmetry_group_IT_number 62
_symmetry_cell_setting 'orthorhombic'
loop_
_space_group_symop_operation_xyz
x,y,z
1/2-x,-y,1/2+z
1/2+x,1/2-y,1/2-z
-x,1/2+y,-z
-x,-y,-z
1/2+x,y,1/2-z
1/2-x,1/2+y,1/2+z
x,1/2-y,z
loop_
_atom_site_type_symbol
_atom_site_label
_atom_site_fract_x
_atom_site_fract_y
_atom_site_fract_z
Si Si1 0.645795 0.424931 0.551458
Si Si2 0.625559 0.072245 0.885037
Si Si3 0.162601 0.575091 0.039961
Si Si4 0.660617 0.572808 0.791975
Si Si5 0.655111 0.070802 0.118615
Si Si6 0.143246 0.425506 0.282300
O O1 0.680436 0.250000 0.557788
O O2 0.487763 0.459012 0.557172
O O3 0.696906 0.476127 0.503129
O O4 0.720375 0.520260 0.589010
O O5 0.605662 0.250000 0.881855
O O6 0.734723 0.026525 0.921833
O O7 0.680870 0.011764 0.838315
O O8 0.484383 0.998150 0.899404
O O9 0.177639 0.750000 0.026755
O O10 0.683126 0.750000 0.800959
O O11 0.512716 0.542306 0.771886
O O12 0.765747 0.501623 0.756562
O O13 0.639788 0.250000 0.117963
O O14 0.680229 0.010331 0.168888
O O15 0.177169 0.250000 0.282251
#
# Coordination Sequence:
#
# PCOD8252625 Si02
#       6
#     8   8   8   8   8   8
#     4  10  20  35  55  78 103 132 169 214 260 305
#     4  10  20  35  53  75 104 136 170 210 255 301
#     4   9  20  37  54  74 103 136 170 209 254 308
#     4   9  17  32  51  72  99 131 169 210 250 294
#     4  10  20  35  54  77 105 137 173 211 253 303
#     4   8  16  30  49  71  96 128 165 204 244 292
#
# _framework density 18.164577000000001
#
# number of rings (size 3 to 8) (size 9 to 14) (size 15 to 20)
#    0.000    2.667    0.000    2.500    0.000    4.000 
#    0.000    5.833    0.000    0.000    0.000    0.000 
#    0.000    0.000    0.000    0.000    0.000    0.000 
#
# Total GULP energy -595221.327631 kJ/mol
# GULP energy per Si atom -12400.444326 kJ/mol
# Density = 1.812323 g / cm^3
# Si number density = 18.164577 Si / 1000 Ang^3
#
#
#
# Elastic Constant Matrix: (Units=GPa)
#
#
# Indices 1 2 3 4 5 6 
#
# 1 55.4878 20.3258 31.4963 0.0000 0.0000 0.0000
# 2 20.3258 53.7191 23.2235 0.0000 0.0000 0.0000
# 3 31.4963 23.2235 61.9249 0.0000 0.0000 0.0000
# 4 0.0000 0.0000 0.0000 28.8247 0.0000 0.0000
# 5 0.0000 0.0000 0.0000 0.0000 40.7625 0.0000
# 6 0.0000 0.0000 0.0000 0.0000 0.0000 26.2045
#
#
#
# Elastic Compliance Matrix: (Units=1/GPa)
#
#
# Indices 1 2 3 4 5 6 
#
# 1 0.026415 -0.004996 -0.011561 0.000000 0.000000 0.000000
# 2 -0.004996 0.023163 -0.006145 0.000000 0.000000 0.000000
# 3 -0.011561 -0.006145 0.024334 0.000000 0.000000 0.000000
# 4 0.000000 0.000000 0.000000 0.034692 0.000000 0.000000
# 5 0.000000 0.000000 0.000000 0.000000 0.024532 0.000000
# 6 0.000000 0.000000 0.000000 0.000000 0.000000 0.038161
#
#
# Mechanical properties :
#
#
# Convention : Reuss Voigt Hill
#
# Bulk Modulus (GPa) = 35.08181 35.69143 35.38662
# Shear Modulus (GPa) = 22.10388 25.56410 23.83399
#
# Velocity S-wave (km/s) = 3.49215 3.75555 3.62624
# Velocity P-wave (km/s) = 5.96786 6.20460 6.08738
#
# Compressibility (1/GPa) = 0.02850480
#
# Stress axis : x y z
#
# Youngs Moduli (GPa) = 37.85771 43.17306 41.09558
#
# Poissons Ratio (x) = 0.21571 0.47512
# Poissons Ratio (y) = 0.18916 0.25254
# Poissons Ratio (z) = 0.43768 0.26531
#
# Static dielectric constant tensor:
#      x y z
#    x 3.408650 0.000000 0.000000 
#    y 0.000000 3.223310 0.000000 
#    z 0.000000 0.000000 3.474390 
# 
# 
# High freq. dielectric constant tensor:
#      x y z
#    x 1.706070 0.000000 0.000000 
#    y 0.000000 1.692630 0.000000 
#    z 0.000000 0.000000 1.707240 
# 
# From -- ./inp_files/32023.got.cif
#   From: 2010.03.12/outbox.cif.g09.slc.cpg/sg62_17_cif.got.tgz:32023.got - 2010.04.10 19:12:36.
