data_PCOD8252918
_publ_section_title
;
Structure prediction by ZEFSAII (Michael W. Deem and Ramdas Pophale) SiO2 
 PCOD8252918
Probable space group: P N M A
;
_chemical_formula_sum "Si O2"
_cell_formula_units_Z 56
_cell_length_a 8.830159
_cell_length_b 22.061804
_cell_length_c 15.178113
_cell_angle_alpha 90.000000
_cell_angle_beta 90.000000
_cell_angle_gamma 90.000000
_cell_volume 2956.836615
_symmetry_space_group_name_H-M "P N M A"
_symmetry_group_IT_number 62
_symmetry_cell_setting 'orthorhombic'
loop_
_space_group_symop_operation_xyz
x,y,z
1/2-x,-y,1/2+z
1/2+x,1/2-y,1/2-z
-x,1/2+y,-z
-x,-y,-z
1/2+x,y,1/2-z
1/2-x,1/2+y,1/2+z
x,1/2-y,z
loop_
_atom_site_type_symbol
_atom_site_label
_atom_site_fract_x
_atom_site_fract_y
_atom_site_fract_z
Si Si1 0.956867 0.508744 0.630535
Si Si2 0.719465 0.541391 0.756244
Si Si3 0.523757 0.056360 0.375356
Si Si4 0.593391 0.178533 0.678932
Si Si5 0.429531 0.420366 0.566367
Si Si6 0.935891 0.180240 0.639813
Si Si7 0.079888 0.409400 0.519078
O O1 0.824308 0.495878 0.700141
O O2 0.930138 0.575577 0.585532
O O3 0.114127 0.502196 0.681092
O O4 0.956806 0.456265 0.559385
O O5 0.617462 0.578454 0.685761
O O6 0.827573 0.580492 0.822162
O O7 0.513660 0.084835 0.471735
O O8 0.525661 0.982590 0.383960
O O9 0.567906 0.250000 0.657842
O O10 0.482022 0.138784 0.618847
O O11 0.766257 0.157381 0.662654
O O12 0.549300 0.165013 0.780096
O O13 0.249907 0.418454 0.552421
O O14 0.925751 0.250000 0.619832
O O15 0.009036 0.154084 0.549512
#
# Coordination Sequence:
#
# PCOD8252918 Si02
#       7
#     8   8   8   8   8   8   8
#     4  10  22  34  52  82 112 146 180 217 272 323
#     4  10  20  36  52  74 114 146 180 216 268 328
#     4  10  22  34  52  82 112 146 180 217 272 323
#     4  10  23  39  57  80 107 144 185 223 268 321
#     4  11  22  35  54  81 113 143 183 225 266 324
#     4  10  23  39  57  80 107 144 185 223 268 321
#     4  11  22  35  54  81 113 143 183 225 266 324
#
# _framework density 18.939159
#
# number of rings (size 3 to 8) (size 9 to 14) (size 15 to 20)
#    0.000    1.714    2.857    0.857    8.000    1.714 
#    0.000    0.000    0.000    0.000    0.000    6.000 
#    0.000    0.000    0.000    0.000    0.000    0.000 
#
# Total GULP energy -693755.854120 kJ/mol
# GULP energy per Si atom -12388.497395 kJ/mol
# Density = 1.889605 g / cm^3
# Si number density = 18.939159 Si / 1000 Ang^3
#
#
#
# Elastic Constant Matrix: (Units=GPa)
#
#
# Indices 1 2 3 4 5 6 
#
# 1 113.5376 21.5848 35.0450 0.0000 0.0000 0.0000
# 2 21.5848 48.6882 30.0342 0.0000 0.0000 0.0000
# 3 35.0450 30.0342 94.5618 0.0000 0.0000 0.0000
# 4 0.0000 0.0000 0.0000 19.4369 0.0000 0.0000
# 5 0.0000 0.0000 0.0000 0.0000 22.8647 0.0000
# 6 0.0000 0.0000 0.0000 0.0000 0.0000 20.2045
#
#
#
# Elastic Compliance Matrix: (Units=1/GPa)
#
#
# Indices 1 2 3 4 5 6 
#
# 1 0.010229 -0.002732 -0.002923 0.000000 0.000000 0.000000
# 2 -0.002732 0.026273 -0.007332 0.000000 0.000000 0.000000
# 3 -0.002923 -0.007332 0.013987 0.000000 0.000000 0.000000
# 4 0.000000 0.000000 0.000000 0.051448 0.000000 0.000000
# 5 0.000000 0.000000 0.000000 0.000000 0.043736 0.000000
# 6 0.000000 0.000000 0.000000 0.000000 0.000000 0.049494
#
#
# Mechanical properties :
#
#
# Convention : Reuss Voigt Hill
#
# Bulk Modulus (GPa) = 40.79141 47.79062 44.29101
# Shear Modulus (GPa) = 21.80417 23.84280 22.82348
#
# Velocity S-wave (km/s) = 3.39672 3.55197 3.47521
# Velocity P-wave (km/s) = 6.08018 6.48926 6.28805
#
# Compressibility (1/GPa) = 0.02451496
#
# Stress axis : x y z
#
# Youngs Moduli (GPa) = 97.75826 38.06200 71.49302
#
# Poissons Ratio (x) = 0.10397 0.20901
# Poissons Ratio (y) = 0.26703 0.52421
# Poissons Ratio (z) = 0.28579 0.27908
#
# Static dielectric constant tensor:
#      x y z
#    x 3.824360 0.000000 0.000000 
#    y 0.000000 3.073550 0.000000 
#    z 0.000000 0.000000 3.838260 
# 
# 
# High freq. dielectric constant tensor:
#      x y z
#    x 1.763250 0.000000 0.000000 
#    y 0.000000 1.671360 0.000000 
#    z 0.000000 0.000000 1.748350 
# 
# From -- ./inp_files/17182.got.cif
#   From: 2010.03.12/outbox.cif.g09.slc.cpg/sg62_9_cif.got.tgz:17182.got - 2010.04.10 19:12:36.
