data_PCOD8252452
_publ_section_title
;
Structure prediction by ZEFSAII (Michael W. Deem and Ramdas Pophale) SiO2 
 PCOD8252452
Probable space group: P N M A
;
_chemical_formula_sum "Si O2"
_cell_formula_units_Z 64
_cell_length_a 21.592205
_cell_length_b 9.351866
_cell_length_c 17.137528
_cell_angle_alpha 90.000000
_cell_angle_beta 90.000000
_cell_angle_gamma 90.000000
_cell_volume 3460.536605
_symmetry_space_group_name_H-M "P N M A"
_symmetry_group_IT_number 62
_symmetry_cell_setting 'orthorhombic'
loop_
_space_group_symop_operation_xyz
x,y,z
1/2-x,-y,1/2+z
1/2+x,1/2-y,1/2-z
-x,1/2+y,-z
-x,-y,-z
1/2+x,y,1/2-z
1/2-x,1/2+y,1/2+z
x,1/2-y,z
loop_
_atom_site_type_symbol
_atom_site_label
_atom_site_fract_x
_atom_site_fract_y
_atom_site_fract_z
Si Si1 0.360689 0.416439 0.536554
Si Si2 0.430753 0.916353 0.083184
Si Si3 0.852266 0.085361 0.297172
Si Si4 0.926013 0.085968 0.566032
Si Si5 0.100052 0.915927 0.869339
Si Si6 0.124225 0.585541 0.268707
Si Si7 0.712249 0.082375 0.339052
Si Si8 0.475147 0.412255 0.643689
O O1 0.342934 0.250000 0.545984
O O2 0.362959 0.466669 0.446521
O O3 0.308628 0.509058 0.580278
O O4 0.427815 0.447014 0.573756
O O5 0.414736 0.750000 0.081477
O O6 0.503465 0.947305 0.088688
O O7 0.400719 0.985515 0.159036
O O8 0.403071 0.987340 0.004801
O O9 0.869608 0.250000 0.313235
O O10 0.857055 0.050327 0.205130
O O11 0.784138 0.049807 0.327228
O O12 0.918802 0.250000 0.539869
O O13 0.883261 0.050922 0.640151
O O14 0.085100 0.750000 0.877819
O O15 0.033976 0.988633 0.862446
O O16 0.144236 0.750000 0.254623
O O17 0.176681 0.482809 0.234973
O O18 0.058942 0.557937 0.225767
O O19 0.697975 0.250000 0.343133
O O20 0.498585 0.250000 0.638943
#
# Coordination Sequence:
#
# PCOD8252452 Si02
#       8
#     8   8   8   8   8   8   8   8
#     4   9  19  36  55  76 106 141 176 213 262 318
#     4  10  20  34  55  81 107 140 179 217 263 321
#     4  10  22  39  54  73 107 143 175 221 274 312
#     4   9  18  34  55  81 113 141 171 218 270 317
#     4  10  20  34  54  79 105 138 173 212 264 319
#     4   9  18  34  55  78 107 143 176 213 263 313
#     4  10  21  37  55  74 103 139 180 225 264 306
#     4   9  17  30  51  81 114 140 166 210 260 312
#
# _framework density 18.494242
#
# number of rings (size 3 to 8) (size 9 to 14) (size 15 to 20)
#    0.000    2.500    0.000    2.625    0.000    6.000 
#    2.250    0.000    0.000    0.000    0.000    0.000 
#    0.000    0.000    0.000    0.000    0.000    0.000 
#
# Total GULP energy -793722.814243 kJ/mol
# GULP energy per Si atom -12401.918973 kJ/mol
# Density = 1.845215 g / cm^3
# Si number density = 18.494242 Si / 1000 Ang^3
#
#
#
# Elastic Constant Matrix: (Units=GPa)
#
#
# Indices 1 2 3 4 5 6 
#
# 1 58.0630 38.6755 30.0333 0.0000 0.0000 0.0000
# 2 38.6755 75.2965 44.7230 0.0000 0.0000 0.0000
# 3 30.0333 44.7230 111.5457 0.0000 0.0000 0.0000
# 4 0.0000 0.0000 0.0000 30.8772 0.0000 0.0000
# 5 0.0000 0.0000 0.0000 0.0000 13.5591 0.0000
# 6 0.0000 0.0000 0.0000 0.0000 0.0000 27.2008
#
#
#
# Elastic Compliance Matrix: (Units=1/GPa)
#
#
# Indices 1 2 3 4 5 6 
#
# 1 0.026588 -0.012344 -0.002209 0.000000 0.000000 0.000000
# 2 -0.012344 0.023164 -0.005963 0.000000 0.000000 0.000000
# 3 -0.002209 -0.005963 0.011951 0.000000 0.000000 0.000000
# 4 0.000000 0.000000 0.000000 0.032386 0.000000 0.000000
# 5 0.000000 0.000000 0.000000 0.000000 0.073751 0.000000
# 6 0.000000 0.000000 0.000000 0.000000 0.000000 0.036764
#
#
# Mechanical properties :
#
#
# Convention : Reuss Voigt Hill
#
# Bulk Modulus (GPa) = 48.38448 52.41874 50.40161
# Shear Modulus (GPa) = 19.79984 23.09232 21.44608
#
# Velocity S-wave (km/s) = 3.27554 3.53742 3.40900
# Velocity P-wave (km/s) = 6.36587 6.71485 6.54269
#
# Compressibility (1/GPa) = 0.02066778
#
# Stress axis : x y z
#
# Youngs Moduli (GPa) = 37.61084 43.17136 83.67665
#
# Poissons Ratio (x) = 0.53293 0.18487
# Poissons Ratio (y) = 0.46429 0.49900
# Poissons Ratio (z) = 0.08310 0.25745
#
# Static dielectric constant tensor:
#      x y z
#    x 3.126040 0.000000 0.000000 
#    y 0.000000 3.403440 0.000000 
#    z 0.000000 0.000000 3.738790 
# 
# 
# High freq. dielectric constant tensor:
#      x y z
#    x 1.696190 0.000000 0.000000 
#    y 0.000000 1.717450 0.000000 
#    z 0.000000 0.000000 1.730110 
# 
# From -- ./inp_files/20890.got.cif
#   From: 2010.03.12/outbox.cif.g09.slc.cpg/sg62_11_cif.got.tgz:20890.got - 2010.04.10 19:12:36.
