data_PCOD8252248
_publ_section_title
;
Structure prediction by ZEFSAII (Michael W. Deem and Ramdas Pophale) SiO2 
 PCOD8252248
Probable space group: P N M A
;
_chemical_formula_sum "Si O2"
_cell_formula_units_Z 64
_cell_length_a 20.796211
_cell_length_b 9.355765
_cell_length_c 18.695748
_cell_angle_alpha 90.000000
_cell_angle_beta 90.000000
_cell_angle_gamma 90.000000
_cell_volume 3637.528170
_symmetry_space_group_name_H-M "P N M A"
_symmetry_group_IT_number 62
_symmetry_cell_setting 'orthorhombic'
loop_
_space_group_symop_operation_xyz
x,y,z
1/2-x,-y,1/2+z
1/2+x,1/2-y,1/2-z
-x,1/2+y,-z
-x,-y,-z
1/2+x,y,1/2-z
1/2-x,1/2+y,1/2+z
x,1/2-y,z
loop_
_atom_site_type_symbol
_atom_site_label
_atom_site_fract_x
_atom_site_fract_y
_atom_site_fract_z
Si Si1 0.135484 0.414224 0.825470
Si Si2 0.995307 0.089202 0.813175
Si Si3 0.009300 0.415174 0.326422
Si Si4 0.143367 0.589228 0.171192
Si Si5 0.129813 0.916197 0.338906
Si Si6 0.752458 0.920108 0.074616
Si Si7 0.247412 0.081251 0.086084
Si Si8 0.132691 0.584185 0.679315
O O1 0.153220 0.250000 0.809867
O O2 0.062299 0.428222 0.856635
O O3 0.184177 0.477655 0.884338
O O4 0.143622 0.495064 0.750985
O O5 0.993709 0.250000 0.777942
O O6 0.929974 0.072994 0.859710
O O7 0.994349 0.965256 0.755119
O O8 0.028500 0.250000 0.329745
O O9 0.937362 0.442732 0.357365
O O10 0.065090 0.504183 0.366474
O O11 0.169004 0.750000 0.159212
O O12 0.142986 0.552392 0.255521
O O13 0.188163 0.480569 0.130092
O O14 0.119360 0.750000 0.353709
O O15 0.189495 0.977070 0.384231
O O16 0.751998 0.750000 0.073018
O O17 0.753217 0.981346 0.994231
O O18 0.238766 0.250000 0.085664
O O19 0.314551 0.035522 0.121788
O O20 0.140080 0.750000 0.700108
#
# Coordination Sequence:
#
# PCOD8252248 Si02
#       8
#     8   8   8   8   8   8   8   8
#     4   9  16  30  53  73  88 115 157 195 223 262
#     4   8  15  28  47  70  93 116 146 187 231 269
#     4   9  16  27  45  69  94 117 146 186 229 273
#     4   9  17  30  48  70  93 116 147 189 231 268
#     4   9  17  31  50  70  92 119 152 190 230 269
#     4   9  18  32  49  68  91 122 159 193 223 263
#     4  10  20  33  47  65  93 127 157 185 224 274
#     4   9  18  31  47  69  96 122 148 185 233 276
#
# _framework density 17.594365
#
# number of rings (size 3 to 8) (size 9 to 14) (size 15 to 20)
#    0.000    3.000    0.000    1.875    0.000    4.000 
#    0.000    3.125    0.000    0.000    0.000    0.000 
#    0.000    0.000    0.000    0.000    0.000    0.000 
#
# Total GULP energy -793062.429422 kJ/mol
# GULP energy per Si atom -12391.600460 kJ/mol
# Density = 1.755432 g / cm^3
# Si number density = 17.594365 Si / 1000 Ang^3
#
#
#
# Elastic Constant Matrix: (Units=GPa)
#
#
# Indices 1 2 3 4 5 6 
#
# 1 172.8639 47.4969 65.5286 0.0000 0.0000 0.0000
# 2 47.4969 42.4011 28.9925 0.0000 0.0000 0.0000
# 3 65.5286 28.9925 76.5769 0.0000 0.0000 0.0000
# 4 0.0000 0.0000 0.0000 14.4521 0.0000 0.0000
# 5 0.0000 0.0000 0.0000 0.0000 4.7409 0.0000
# 6 0.0000 0.0000 0.0000 0.0000 0.0000 23.9660
#
#
#
# Elastic Compliance Matrix: (Units=1/GPa)
#
#
# Indices 1 2 3 4 5 6 
#
# 1 0.009959 -0.007190 -0.005800 0.000000 0.000000 0.000000
# 2 -0.007190 0.037014 -0.007861 0.000000 0.000000 0.000000
# 3 -0.005800 -0.007861 0.020998 0.000000 0.000000 0.000000
# 4 0.000000 0.000000 0.000000 0.069194 0.000000 0.000000
# 5 0.000000 0.000000 0.000000 0.000000 0.210929 0.000000
# 6 0.000000 0.000000 0.000000 0.000000 0.000000 0.041726
#
#
# Mechanical properties :
#
#
# Convention : Reuss Voigt Hill
#
# Bulk Modulus (GPa) = 38.06790 63.98644 51.02717
# Shear Modulus (GPa) = 11.35646 18.62007 14.98826
#
# Velocity S-wave (km/s) = 2.54335 3.25668 2.92186
# Velocity P-wave (km/s) = 5.50529 7.11251 6.35987
#
# Compressibility (1/GPa) = 0.02626885
#
# Stress axis : x y z
#
# Youngs Moduli (GPa) = 100.41007 27.01715 47.62332
#
# Poissons Ratio (x) = 0.19426 0.27622
# Poissons Ratio (y) = 0.72197 0.37436
# Poissons Ratio (z) = 0.58238 0.21238
#
# Static dielectric constant tensor:
#      x y z
#    x 3.786760 0.000000 0.000000 
#    y 0.000000 3.130020 0.000000 
#    z 0.000000 0.000000 2.985860 
# 
# 
# High freq. dielectric constant tensor:
#      x y z
#    x 1.707050 0.000000 0.000000 
#    y 0.000000 1.665360 0.000000 
#    z 0.000000 0.000000 1.632380 
# 
# From -- ./inp_files/27976.got.cif
#   From: 2010.03.12/outbox.cif.g09.slc.cpg/sg62_14_cif.got.tgz:27976.got - 2010.04.10 19:12:36.
