data_PCOD8252348
_publ_section_title
;
Structure prediction by ZEFSAII (Michael W. Deem and Ramdas Pophale) SiO2 
 PCOD8252348
Probable space group: P N M A
;
_chemical_formula_sum "Si O2"
_cell_formula_units_Z 32
_cell_length_a 5.308570
_cell_length_b 10.737095
_cell_length_c 23.011369
_cell_angle_alpha 90.000000
_cell_angle_beta 90.000000
_cell_angle_gamma 90.000000
_cell_volume 1311.616287
_symmetry_space_group_name_H-M "P N M A"
_symmetry_group_IT_number 62
_symmetry_cell_setting 'orthorhombic'
loop_
_space_group_symop_operation_xyz
x,y,z
1/2-x,-y,1/2+z
1/2+x,1/2-y,1/2-z
-x,1/2+y,-z
-x,-y,-z
1/2+x,y,1/2-z
1/2-x,1/2+y,1/2+z
x,1/2-y,z
loop_
_atom_site_type_symbol
_atom_site_label
_atom_site_fract_x
_atom_site_fract_y
_atom_site_fract_z
Si Si1 0.585652 0.023595 0.908586
Si Si2 0.552287 0.483592 0.222664
Si Si3 0.852453 0.250000 0.700270
Si Si4 0.189776 0.111184 0.992874
Si Si5 0.148288 0.750000 0.126178
O O1 0.508592 0.971283 0.845382
O O2 0.834474 0.117357 0.908756
O O3 0.633991 0.904024 0.949594
O O4 0.351257 0.100830 0.934136
O O5 0.321135 0.421182 0.259165
O O6 0.607232 0.628528 0.240706
O O7 0.587194 0.250000 0.668058
O O8 0.077975 0.250000 0.655248
O O9 0.067155 0.250000 0.992005
O O10 0.000000 0.000000 0.000000
#
# Coordination Sequence:
#
# PCOD8252348 Si02
#       5
#     8   8   4   8   4
#     4  10  24  41  67  97 143 182 247 298 371 442
#     4  11  22  36  61  97 139 183 229 288 359 437
#     4  10  20  33  54  94 140 184 226 271 353 434
#     4  11  26  44  71 102 141 194 248 318 378 448
#     4  10  20  35  66  92 140 180 224 293 353 426
#
# _framework density 24.397378
#
# number of rings (size 3 to 8) (size 9 to 14) (size 15 to 20)
#    0.000    1.500    1.250    3.750   12.250    1.000 
#    0.000    0.000    0.000    1.500    0.000    0.000 
#    0.000    0.000    0.000    0.000    0.000    0.000 
#
# Total GULP energy -396428.070331 kJ/mol
# GULP energy per Si atom -12388.377198 kJ/mol
# Density = 2.434185 g / cm^3
# Si number density = 24.397378 Si / 1000 Ang^3
#
#
#
# Elastic Constant Matrix: (Units=GPa)
#
#
# Indices 1 2 3 4 5 6 
#
# 1 107.0182 29.5778 41.5920 0.0000 0.0000 0.0000
# 2 29.5778 90.4991 19.3705 0.0000 0.0000 0.0000
# 3 41.5920 19.3705 129.2070 0.0000 0.0000 0.0000
# 4 0.0000 0.0000 0.0000 24.1369 0.0000 0.0000
# 5 0.0000 0.0000 0.0000 0.0000 32.7538 0.0000
# 6 0.0000 0.0000 0.0000 0.0000 0.0000 19.7755
#
#
#
# Elastic Compliance Matrix: (Units=1/GPa)
#
#
# Indices 1 2 3 4 5 6 
#
# 1 0.011440 -0.003049 -0.003226 0.000000 0.000000 0.000000
# 2 -0.003049 0.012229 -0.000852 0.000000 0.000000 0.000000
# 3 -0.003226 -0.000852 0.008906 0.000000 0.000000 0.000000
# 4 0.000000 0.000000 0.000000 0.041430 0.000000 0.000000
# 5 0.000000 0.000000 0.000000 0.000000 0.030531 0.000000
# 6 0.000000 0.000000 0.000000 0.000000 0.000000 0.050568
#
#
# Mechanical properties :
#
#
# Convention : Reuss Voigt Hill
#
# Bulk Modulus (GPa) = 54.57879 56.42277 55.50078
# Shear Modulus (GPa) = 28.49601 31.07883 29.78742
#
# Velocity S-wave (km/s) = 3.42130 3.57299 3.49797
# Velocity P-wave (km/s) = 6.16655 6.34022 6.25399
#
# Compressibility (1/GPa) = 0.01832214
#
# Stress axis : x y z
#
# Youngs Moduli (GPa) = 87.40937 81.77570 112.28914
#
# Poissons Ratio (x) = 0.24931 0.36220
# Poissons Ratio (y) = 0.26648 0.09566
# Poissons Ratio (z) = 0.28195 0.06967
#
# Static dielectric constant tensor:
#      x y z
#    x 4.729360 0.000000 0.000000 
#    y 0.000000 5.971470 0.000000 
#    z 0.000000 0.000000 4.682800 
# 
# 
# High freq. dielectric constant tensor:
#      x y z
#    x 1.997810 0.000000 0.000000 
#    y 0.000000 1.912340 0.000000 
#    z 0.000000 0.000000 1.988400 
# 
# From -- ./inp_files/28140.got.cif
#   From: 2010.03.12/outbox.cif.g09.slc.cpg/sg62_15_cif.got.tgz:28140.got - 2010.04.10 19:12:36.
