data_PCOD8252813
_publ_section_title
;
Structure prediction by ZEFSAII (Michael W. Deem and Ramdas Pophale) SiO2 
 PCOD8252813
Probable space group: P N M A
;
_chemical_formula_sum "Si O2"
_cell_formula_units_Z 56
_cell_length_a 19.638068
_cell_length_b 9.240381
_cell_length_c 16.397131
_cell_angle_alpha 90.000000
_cell_angle_beta 90.000000
_cell_angle_gamma 90.000000
_cell_volume 2975.476361
_symmetry_space_group_name_H-M "P N M A"
_symmetry_group_IT_number 62
_symmetry_cell_setting 'orthorhombic'
loop_
_space_group_symop_operation_xyz
x,y,z
1/2-x,-y,1/2+z
1/2+x,1/2-y,1/2-z
-x,1/2+y,-z
-x,-y,-z
1/2+x,y,1/2-z
1/2-x,1/2+y,1/2+z
x,1/2-y,z
loop_
_atom_site_type_symbol
_atom_site_label
_atom_site_fract_x
_atom_site_fract_y
_atom_site_fract_z
Si Si1 0.698023 0.417382 0.417514
Si Si2 0.120765 0.583854 0.353793
Si Si3 0.984739 0.579391 0.757024
Si Si4 0.114018 0.420719 0.694114
Si Si5 0.763241 0.414117 0.764382
Si Si6 0.653985 0.918723 0.964708
Si Si7 0.949584 0.582670 0.941626
O O1 0.695293 0.250000 0.395481
O O2 0.697134 0.493831 0.330713
O O3 0.765290 0.456914 0.469151
O O4 0.628559 0.459116 0.465363
O O5 0.097380 0.750000 0.341033
O O6 0.198140 0.563176 0.321282
O O7 0.120727 0.542670 0.448877
O O8 0.069085 0.478817 0.308475
O O9 0.993313 0.750000 0.743615
O O10 0.056225 0.500374 0.744664
O O11 0.960722 0.540137 0.847625
O O12 0.099208 0.250000 0.689497
O O13 0.183929 0.457859 0.742236
O O14 0.116983 0.483307 0.602419
O O15 0.767532 0.250000 0.794821
O O16 0.643913 0.750000 0.942653
O O17 0.964309 0.750000 0.956014
O O18 0.000000 0.500000 0.000000
#
# Coordination Sequence:
#
# PCOD8252813 Si02
#       7
#     8   8   8   8   8   8   8
#     4   9  17  34  56  78 107 143 181 224 278 333
#     4  10  20  35  57  85 112 146 190 233 283 339
#     4  11  23  39  57  82 114 151 191 231 279 337
#     4  10  21  37  57  83 115 151 189 232 283 335
#     4   9  18  33  56  82 107 140 186 234 280 334
#     4   9  19  35  57  83 111 145 187 234 282 333
#     4  10  22  37  56  83 113 148 187 227 278 336
#
# _framework density 18.820516000000001
#
# number of rings (size 3 to 8) (size 9 to 14) (size 15 to 20)
#    0.000    2.286    1.429    0.857    0.000    4.571 
#    0.000    2.857    0.000    0.000    0.000    0.000 
#    0.000    0.000    0.000    0.000    0.000    0.000 
#
# Total GULP energy -694326.724989 kJ/mol
# GULP energy per Si atom -12398.691518 kJ/mol
# Density = 1.877768 g / cm^3
# Si number density = 18.820516 Si / 1000 Ang^3
#
#
#
# Elastic Constant Matrix: (Units=GPa)
#
#
# Indices 1 2 3 4 5 6 
#
# 1 96.5964 39.4412 23.9157 0.0000 0.0000 0.0000
# 2 39.4412 67.8604 30.4539 0.0000 0.0000 0.0000
# 3 23.9157 30.4539 48.1031 0.0000 0.0000 0.0000
# 4 0.0000 0.0000 0.0000 30.2278 0.0000 0.0000
# 5 0.0000 0.0000 0.0000 0.0000 28.7616 0.0000
# 6 0.0000 0.0000 0.0000 0.0000 0.0000 31.4300
#
#
#
# Elastic Compliance Matrix: (Units=1/GPa)
#
#
# Indices 1 2 3 4 5 6 
#
# 1 0.013783 -0.006895 -0.002488 0.000000 0.000000 0.000000
# 2 -0.006895 0.024033 -0.011788 0.000000 0.000000 0.000000
# 3 -0.002488 -0.011788 0.029488 0.000000 0.000000 0.000000
# 4 0.000000 0.000000 0.000000 0.033082 0.000000 0.000000
# 5 0.000000 0.000000 0.000000 0.000000 0.034769 0.000000
# 6 0.000000 0.000000 0.000000 0.000000 0.000000 0.031817
#
#
# Mechanical properties :
#
#
# Convention : Reuss Voigt Hill
#
# Bulk Modulus (GPa) = 40.05615 44.46460 42.26037
# Shear Modulus (GPa) = 22.97434 26.00049 24.48741
#
# Velocity S-wave (km/s) = 3.49765 3.72088 3.61099
# Velocity P-wave (km/s) = 6.13522 6.49129 6.31576
#
# Compressibility (1/GPa) = 0.02496496
#
# Stress axis : x y z
#
# Youngs Moduli (GPa) = 72.55087 41.60893 33.91178
#
# Poissons Ratio (x) = 0.28688 0.08437
# Poissons Ratio (y) = 0.50021 0.39974
# Poissons Ratio (z) = 0.18049 0.49047
#
# Static dielectric constant tensor:
#      x y z
#    x 3.704220 0.000000 0.000000 
#    y 0.000000 3.466870 0.000000 
#    z 0.000000 0.000000 3.320330 
# 
# 
# High freq. dielectric constant tensor:
#      x y z
#    x 1.743890 0.000000 0.000000 
#    y 0.000000 1.730900 0.000000 
#    z 0.000000 0.000000 1.716530 
# 
# From -- ./inp_files/20197.got.cif
#   From: 2010.03.12/outbox.cif.g09.slc.cpg/sg62_11_cif.got.tgz:20197.got - 2010.04.10 19:12:36.
