data_PCOD8252090
_publ_section_title
;
Structure prediction by ZEFSAII (Michael W. Deem and Ramdas Pophale) SiO2 
 PCOD8252090
Probable space group: P N M A
;
_chemical_formula_sum "Si O2"
_cell_formula_units_Z 64
_cell_length_a 25.206119
_cell_length_b 8.553484
_cell_length_c 14.509282
_cell_angle_alpha 90.000000
_cell_angle_beta 90.000000
_cell_angle_gamma 90.000000
_cell_volume 3128.203166
_symmetry_space_group_name_H-M "P N M A"
_symmetry_group_IT_number 62
_symmetry_cell_setting 'orthorhombic'
loop_
_space_group_symop_operation_xyz
x,y,z
1/2-x,-y,1/2+z
1/2+x,1/2-y,1/2-z
-x,1/2+y,-z
-x,-y,-z
1/2+x,y,1/2-z
1/2-x,1/2+y,1/2+z
x,1/2-y,z
loop_
_atom_site_type_symbol
_atom_site_label
_atom_site_fract_x
_atom_site_fract_y
_atom_site_fract_z
Si Si1 0.750174 0.432603 0.560630
Si Si2 0.388390 0.066550 0.203034
Si Si3 0.862192 0.432975 0.094060
Si Si4 0.948885 0.434572 0.950989
Si Si5 0.572431 0.566870 0.245779
Si Si6 0.224993 0.934882 0.644149
Si Si7 0.685961 0.067049 0.216573
Si Si8 0.492091 0.434405 0.101693
O O1 0.762327 0.250000 0.573019
O O2 0.691568 0.469380 0.596282
O O3 0.755586 0.487160 0.455676
O O4 0.794225 0.532986 0.613718
O O5 0.388062 0.250000 0.184906
O O6 0.394324 0.030455 0.311859
O O7 0.333154 0.993326 0.165598
O O8 0.438395 0.994257 0.147624
O O9 0.847762 0.250000 0.088211
O O10 0.897206 0.490615 0.007788
O O11 0.951520 0.250000 0.953988
O O12 0.946020 0.495619 0.846160
O O13 0.000000 0.500000 0.000000
O O14 0.561662 0.750000 0.235512
O O15 0.634212 0.533219 0.236313
O O16 0.541528 0.477359 0.165818
O O17 0.221832 0.750000 0.655249
O O18 0.268352 0.998335 0.715823
O O19 0.673895 0.250000 0.230350
O O20 0.488300 0.250000 0.094257
O O21 0.500000 0.500000 0.000000
#
# Coordination Sequence:
#
# PCOD8252090 Si02
#       8
#     8   8   8   8   8   8   8   8
#     4  11  22  35  57  89 121 155 195 244 307 367
#     4   9  18  36  62  86 114 156 200 247 298 361
#     4  10  19  37  62  87 118 157 202 245 297 363
#     4  10  22  38  62  93 124 160 202 256 313 368
#     4  11  24  42  61  88 129 165 202 257 313 367
#     4   9  19  36  59  87 119 158 196 240 302 367
#     4  11  22  40  64  89 120 159 205 250 299 368
#     4  11  24  42  66  92 120 162 213 259 312 369
#
# _framework density 20.459029000000001
#
# number of rings (size 3 to 8) (size 9 to 14) (size 15 to 20)
#    0.000    1.750    1.250    3.000    1.750    2.500 
#    0.000    3.125    0.000    0.000    0.000    0.000 
#    0.000    0.000    0.000    0.000    0.000    0.000 
#
# Total GULP energy -793758.598818 kJ/mol
# GULP energy per Si atom -12402.478107 kJ/mol
# Density = 2.041246 g / cm^3
# Si number density = 20.459029 Si / 1000 Ang^3
#
#
#
# Elastic Constant Matrix: (Units=GPa)
#
#
# Indices 1 2 3 4 5 6 
#
# 1 128.0896 16.4569 61.8925 0.0000 0.0000 0.0000
# 2 16.4569 30.9462 25.8387 0.0000 0.0000 0.0000
# 3 61.8925 25.8387 151.4090 0.0000 0.0000 0.0000
# 4 0.0000 0.0000 0.0000 25.6723 0.0000 0.0000
# 5 0.0000 0.0000 0.0000 0.0000 43.8559 0.0000
# 6 0.0000 0.0000 0.0000 0.0000 0.0000 29.5648
#
#
#
# Elastic Compliance Matrix: (Units=1/GPa)
#
#
# Indices 1 2 3 4 5 6 
#
# 1 0.009854 -0.002189 -0.003655 0.000000 0.000000 0.000000
# 2 -0.002189 0.038170 -0.005619 0.000000 0.000000 0.000000
# 3 -0.003655 -0.005619 0.009057 0.000000 0.000000 0.000000
# 4 0.000000 0.000000 0.000000 0.038952 0.000000 0.000000
# 5 0.000000 0.000000 0.000000 0.000000 0.022802 0.000000
# 6 0.000000 0.000000 0.000000 0.000000 0.000000 0.033824
#
#
# Mechanical properties :
#
#
# Convention : Reuss Voigt Hill
#
# Bulk Modulus (GPa) = 29.27718 57.64678 43.46198
# Shear Modulus (GPa) = 26.74217 33.56907 30.15562
#
# Velocity S-wave (km/s) = 3.61932 4.05507 3.84337
# Velocity P-wave (km/s) = 5.63978 7.08256 6.40194
#
# Compressibility (1/GPa) = 0.03415630
#
# Stress axis : x y z
#
# Youngs Moduli (GPa) = 101.47999 26.19863 110.40608
#
# Poissons Ratio (x) = 0.05735 0.40349
# Poissons Ratio (y) = 0.22213 0.62038
# Poissons Ratio (z) = 0.37087 0.14721
#
# Static dielectric constant tensor:
#      x y z
#    x 3.872210 0.000000 0.000000 
#    y 0.000000 3.388510 0.000000 
#    z 0.000000 0.000000 4.034220 
# 
# 
# High freq. dielectric constant tensor:
#      x y z
#    x 1.810890 0.000000 0.000000 
#    y 0.000000 1.772060 0.000000 
#    z 0.000000 0.000000 1.816350 
# 
# From -- ./inp_files/20952.got.cif
#   From: 2010.03.12/outbox.cif.g09.slc.cpg/sg62_11_cif.got.tgz:20952.got - 2010.04.10 19:12:36.
