data_PCOD8252698
_publ_section_title
;
Structure prediction by ZEFSAII (Michael W. Deem and Ramdas Pophale) SiO2 
 PCOD8252698
Probable space group: P N M A
;
_chemical_formula_sum "Si O2"
_cell_formula_units_Z 48
_cell_length_a 28.293142
_cell_length_b 12.485707
_cell_length_c 7.374345
_cell_angle_alpha 90.000000
_cell_angle_beta 90.000000
_cell_angle_gamma 90.000000
_cell_volume 2605.060238
_symmetry_space_group_name_H-M "P N M A"
_symmetry_group_IT_number 62
_symmetry_cell_setting 'orthorhombic'
loop_
_space_group_symop_operation_xyz
x,y,z
1/2-x,-y,1/2+z
1/2+x,1/2-y,1/2-z
-x,1/2+y,-z
-x,-y,-z
1/2+x,y,1/2-z
1/2-x,1/2+y,1/2+z
x,1/2-y,z
loop_
_atom_site_type_symbol
_atom_site_label
_atom_site_fract_x
_atom_site_fract_y
_atom_site_fract_z
Si Si1 0.943652 0.011972 0.691800
Si Si2 0.354008 0.873097 0.863424
Si Si3 0.104428 0.626186 0.977528
Si Si4 0.305198 0.989823 0.534666
Si Si5 0.718890 0.372522 0.825906
Si Si6 0.967692 0.372362 0.333710
O O1 0.955134 0.099020 0.539256
O O2 0.903822 0.931923 0.618636
O O3 0.927852 0.074714 0.868599
O O4 0.990110 0.944984 0.742882
O O5 0.363478 0.750000 0.814572
O O6 0.321899 0.923128 0.707091
O O7 0.328250 0.885771 0.055503
O O8 0.112434 0.750000 0.024156
O O9 0.155008 0.570493 0.963549
O O10 0.078811 0.609478 0.786286
O O11 0.292290 0.906886 0.377916
O O12 0.259496 0.056650 0.586782
O O13 0.736208 0.250000 0.823369
O O14 0.984606 0.250000 0.325237
#
# Coordination Sequence:
#
# PCOD8252698 Si02
#       6
#     8   8   8   8   8   8
#     4  10  20  35  57  80 110 147 183 227 275 329
#     4  10  21  37  57  81 111 146 185 230 278 331
#     4  10  21  36  55  80 111 145 182 228 278 332
#     4  11  21  38  57  80 111 145 185 230 283 334
#     4  11  22  37  57  81 109 144 186 231 280 337
#     4  10  20  35  55  82 112 144 184 227 275 329
#
# _framework density 18.425677
#
# number of rings (size 3 to 8) (size 9 to 14) (size 15 to 20)
#    0.000    1.667    1.667    3.500    0.000    0.000 
#    0.000    0.000    0.000   16.000    0.000    0.000 
#    0.000    0.000    0.000    0.000    0.000    0.000 
#
# Total GULP energy -595449.439557 kJ/mol
# GULP energy per Si atom -12405.196657 kJ/mol
# Density = 1.838374 g / cm^3
# Si number density = 18.425677 Si / 1000 Ang^3
#
#
#
# Elastic Constant Matrix: (Units=GPa)
#
#
# Indices 1 2 3 4 5 6 
#
# 1 51.2778 8.0669 5.1722 0.0000 0.0000 0.0000
# 2 8.0669 125.0657 -14.6744 0.0000 0.0000 0.0000
# 3 5.1722 -14.6744 80.2010 0.0000 0.0000 0.0000
# 4 0.0000 0.0000 0.0000 28.4903 0.0000 0.0000
# 5 0.0000 0.0000 0.0000 0.0000 26.7379 0.0000
# 6 0.0000 0.0000 0.0000 0.0000 0.0000 10.6138
#
#
#
# Elastic Compliance Matrix: (Units=1/GPa)
#
#
# Indices 1 2 3 4 5 6 
#
# 1 0.019888 -0.001465 -0.001551 0.000000 0.000000 0.000000
# 2 -0.001465 0.008279 0.001609 0.000000 0.000000 0.000000
# 3 -0.001551 0.001609 0.012863 0.000000 0.000000 0.000000
# 4 0.000000 0.000000 0.000000 0.035100 0.000000 0.000000
# 5 0.000000 0.000000 0.000000 0.000000 0.037400 0.000000
# 6 0.000000 0.000000 0.000000 0.000000 0.000000 0.094217
#
#
# Mechanical properties :
#
#
# Convention : Reuss Voigt Hill
#
# Bulk Modulus (GPa) = 26.16535 28.18599 27.17567
# Shear Modulus (GPa) = 22.39146 30.36705 26.37926
#
# Velocity S-wave (km/s) = 3.48980 4.06406 3.78783
# Velocity P-wave (km/s) = 5.51992 6.11167 5.82332
#
# Compressibility (1/GPa) = 0.03821848
#
# Stress axis : x y z
#
# Youngs Moduli (GPa) = 50.28041 120.78607 77.74162
#
# Poissons Ratio (x) = 0.17692 0.12055
# Poissons Ratio (y) = 0.07365 -0.12511
# Poissons Ratio (z) = 0.07797 -0.19438
#
# Static dielectric constant tensor:
#      x y z
#    x 3.408390 0.000000 0.000000 
#    y 0.000000 3.496200 0.000000 
#    z 0.000000 0.000000 3.362410 
# 
# 
# High freq. dielectric constant tensor:
#      x y z
#    x 1.723150 0.000000 0.000000 
#    y 0.000000 1.728550 0.000000 
#    z 0.000000 0.000000 1.721090 
# 
# From -- ./inp_files/9291.got.cif
#   From: 2010.03.12/outbox.cif.g09.slc.cpg/sg62_5_cif.got.tgz:9291.got - 2010.04.10 19:12:36.
