data_PCOD8252490
_publ_section_title
;
Structure prediction by ZEFSAII (Michael W. Deem and Ramdas Pophale) SiO2 
 PCOD8252490
Probable space group: P N M A
;
_chemical_formula_sum "Si O2"
_cell_formula_units_Z 48
_cell_length_a 15.923637
_cell_length_b 10.587437
_cell_length_c 14.664853
_cell_angle_alpha 90.000000
_cell_angle_beta 90.000000
_cell_angle_gamma 90.000000
_cell_volume 2472.354952
_symmetry_space_group_name_H-M "P N M A"
_symmetry_group_IT_number 62
_symmetry_cell_setting 'orthorhombic'
loop_
_space_group_symop_operation_xyz
x,y,z
1/2-x,-y,1/2+z
1/2+x,1/2-y,1/2-z
-x,1/2+y,-z
-x,-y,-z
1/2+x,y,1/2-z
1/2-x,1/2+y,1/2+z
x,1/2-y,z
loop_
_atom_site_type_symbol
_atom_site_label
_atom_site_fract_x
_atom_site_fract_y
_atom_site_fract_z
Si Si1 0.557369 0.611922 0.401118
Si Si2 0.393826 0.041847 0.404719
Si Si3 0.711517 0.896944 0.287461
Si Si4 0.773590 0.392032 0.580510
Si Si5 0.653566 0.888001 0.789744
Si Si6 0.435422 0.394438 0.032594
O O1 0.550787 0.750000 0.359044
O O2 0.575675 0.622768 0.509160
O O3 0.468253 0.552489 0.378951
O O4 0.634179 0.547336 0.346525
O O5 0.378309 0.122548 0.314203
O O6 0.308438 0.974993 0.435807
O O7 0.734596 0.750000 0.312890
O O8 0.688073 0.907750 0.181424
O O9 0.788211 0.991097 0.307404
O O10 0.743898 0.250000 0.562891
O O11 0.845575 0.431531 0.510211
O O12 0.696828 0.750000 0.809969
O O13 0.574381 0.902907 0.857977
O O14 0.461890 0.250000 0.003946
O O15 0.500000 0.500000 0.000000
#
# Coordination Sequence:
#
# PCOD8252490 Si02
#       6
#     8   8   8   8   8   8
#     4  10  20  34  54  83 112 144 187 233 274 330
#     4  10  20  34  56  80 113 148 183 226 283 334
#     4   9  19  35  57  84 111 144 186 229 272 326
#     4   9  18  35  56  79 109 145 186 229 275 329
#     4  10  21  38  56  80 114 148 185 230 282 335
#     4  10  22  38  57  81 111 146 188 233 278 328
#
# _framework density 19.414688000000002
#
# number of rings (size 3 to 8) (size 9 to 14) (size 15 to 20)
#    0.000    2.333    0.000    2.000    2.333    1.333 
#    0.000    8.333    0.000    0.000    0.000    0.000 
#    0.000    0.000    0.000    0.000    0.000    0.000 
#
# Total GULP energy -594816.414772 kJ/mol
# GULP energy per Si atom -12392.008641 kJ/mol
# Density = 1.937050 g / cm^3
# Si number density = 19.414688 Si / 1000 Ang^3
#
#
#
# Elastic Constant Matrix: (Units=GPa)
#
#
# Indices 1 2 3 4 5 6 
#
# 1 93.9110 52.3137 24.0983 0.0000 0.0000 0.0000
# 2 52.3137 101.3421 22.1526 0.0000 0.0000 0.0000
# 3 24.0983 22.1526 60.7087 0.0000 0.0000 0.0000
# 4 0.0000 0.0000 0.0000 16.4003 0.0000 0.0000
# 5 0.0000 0.0000 0.0000 0.0000 26.0139 0.0000
# 6 0.0000 0.0000 0.0000 0.0000 0.0000 22.7757
#
#
#
# Elastic Compliance Matrix: (Units=1/GPa)
#
#
# Indices 1 2 3 4 5 6 
#
# 1 0.015616 -0.007288 -0.003540 0.000000 0.000000 0.000000
# 2 -0.007288 0.014124 -0.002261 0.000000 0.000000 0.000000
# 3 -0.003540 -0.002261 0.018702 0.000000 0.000000 0.000000
# 4 0.000000 0.000000 0.000000 0.060974 0.000000 0.000000
# 5 0.000000 0.000000 0.000000 0.000000 0.038441 0.000000
# 6 0.000000 0.000000 0.000000 0.000000 0.000000 0.043906
#
#
# Mechanical properties :
#
#
# Convention : Reuss Voigt Hill
#
# Bulk Modulus (GPa) = 44.91179 50.34346 47.62762
# Shear Modulus (GPa) = 22.18652 23.53113 22.85883
#
# Velocity S-wave (km/s) = 3.38416 3.48520 3.43505
# Velocity P-wave (km/s) = 6.20106 6.49479 6.34962
#
# Compressibility (1/GPa) = 0.02226587
#
# Stress axis : x y z
#
# Youngs Moduli (GPa) = 64.03592 70.80312 53.46969
#
# Poissons Ratio (x) = 0.51598 0.18926
# Poissons Ratio (y) = 0.46666 0.12089
# Poissons Ratio (z) = 0.22667 0.16008
#
# Static dielectric constant tensor:
#      x y z
#    x 3.443910 0.000000 0.000000 
#    y 0.000000 3.532710 0.000000 
#    z 0.000000 0.000000 3.717100 
# 
# 
# High freq. dielectric constant tensor:
#      x y z
#    x 1.737970 0.000000 0.000000 
#    y 0.000000 1.754150 0.000000 
#    z 0.000000 0.000000 1.770320 
# 
# From -- ./inp_files/18912.got.cif
#   From: 2010.03.12/outbox.cif.g09.slc.cpg/sg62_10_cif.got.tgz:18912.got - 2010.04.10 19:12:36.
