data_PCOD8252844
_publ_section_title
;
Structure prediction by ZEFSAII (Michael W. Deem and Ramdas Pophale) SiO2 
 PCOD8252844
Probable space group: P N M A
;
_chemical_formula_sum "Si O2"
_cell_formula_units_Z 56
_cell_length_a 19.183344
_cell_length_b 9.100196
_cell_length_c 16.657560
_cell_angle_alpha 90.000000
_cell_angle_beta 90.000000
_cell_angle_gamma 90.000000
_cell_volume 2907.946735
_symmetry_space_group_name_H-M "P N M A"
_symmetry_group_IT_number 62
_symmetry_cell_setting 'orthorhombic'
loop_
_space_group_symop_operation_xyz
x,y,z
1/2-x,-y,1/2+z
1/2+x,1/2-y,1/2-z
-x,1/2+y,-z
-x,-y,-z
1/2+x,y,1/2-z
1/2-x,1/2+y,1/2+z
x,1/2-y,z
loop_
_atom_site_type_symbol
_atom_site_label
_atom_site_fract_x
_atom_site_fract_y
_atom_site_fract_z
Si Si1 0.701353 0.417787 0.411394
Si Si2 0.155384 0.418560 0.352366
Si Si3 0.979034 0.581401 0.754589
Si Si4 0.101978 0.421042 0.668578
Si Si5 0.748304 0.420192 0.759482
Si Si6 0.653720 0.919887 0.986448
Si Si7 0.953153 0.580320 0.936001
O O1 0.701226 0.250000 0.377920
O O2 0.710181 0.527229 0.337598
O O3 0.763206 0.440443 0.475163
O O4 0.628177 0.453224 0.454465
O O5 0.171038 0.250000 0.372962
O O6 0.226083 0.491566 0.318570
O O7 0.130601 0.499436 0.432787
O O8 0.095852 0.436433 0.286135
O O9 0.004733 0.750000 0.748349
O O10 0.032798 0.474231 0.711905
O O11 0.971919 0.528857 0.846236
O O12 0.095896 0.250000 0.646768
O O13 0.166332 0.450227 0.728707
O O14 0.111236 0.510539 0.586752
O O15 0.764735 0.250000 0.745699
O O16 0.632651 0.750000 0.992217
O O17 0.969566 0.750000 0.945694
O O18 0.000000 0.500000 0.000000
#
# Coordination Sequence:
#
# PCOD8252844 Si02
#       7
#     8   8   8   8   8   8   8
#     4   9  18  37  59  79 111 149 186 235 290 342
#     4  11  22  38  60  85 118 156 198 243 294 349
#     4  10  22  40  60  83 115 157 199 239 291 354
#     4  10  22  39  59  86 120 155 195 244 296 350
#     4  10  20  35  58  85 112 146 194 242 289 348
#     4  10  21  37  60  88 116 151 197 245 296 346
#     4  10  21  38  58  84 116 151 192 236 290 348
#
# _framework density 19.257574000000002
#
# number of rings (size 3 to 8) (size 9 to 14) (size 15 to 20)
#    0.000    2.000    1.429    1.714    0.000    6.286 
#    0.000    4.286    0.000    0.000    0.000    0.000 
#    0.000    0.000    0.000    0.000    0.000    0.000 
#
# Total GULP energy -694600.067666 kJ/mol
# GULP energy per Si atom -12403.572637 kJ/mol
# Density = 1.921374 g / cm^3
# Si number density = 19.257574 Si / 1000 Ang^3
#
#
#
# Elastic Constant Matrix: (Units=GPa)
#
#
# Indices 1 2 3 4 5 6 
#
# 1 42.8246 27.0982 18.3443 0.0000 0.0000 0.0000
# 2 27.0982 106.9607 49.6607 0.0000 0.0000 0.0000
# 3 18.3443 49.6607 103.8733 0.0000 0.0000 0.0000
# 4 0.0000 0.0000 0.0000 37.4190 0.0000 0.0000
# 5 0.0000 0.0000 0.0000 0.0000 25.0304 0.0000
# 6 0.0000 0.0000 0.0000 0.0000 0.0000 28.9424
#
#
#
# Elastic Compliance Matrix: (Units=1/GPa)
#
#
# Indices 1 2 3 4 5 6 
#
# 1 0.028131 -0.006195 -0.002006 0.000000 0.000000 0.000000
# 2 -0.006195 0.013381 -0.005303 0.000000 0.000000 0.000000
# 3 -0.002006 -0.005303 0.012517 0.000000 0.000000 0.000000
# 4 0.000000 0.000000 0.000000 0.026724 0.000000 0.000000
# 5 0.000000 0.000000 0.000000 0.000000 0.039951 0.000000
# 6 0.000000 0.000000 0.000000 0.000000 0.000000 0.034551
#
#
# Mechanical properties :
#
#
# Convention : Reuss Voigt Hill
#
# Bulk Modulus (GPa) = 37.01072 49.31834 43.16453
# Shear Modulus (GPa) = 26.14088 28.84873 27.49481
#
# Velocity S-wave (km/s) = 3.68833 3.87466 3.78264
# Velocity P-wave (km/s) = 6.11547 6.75890 6.44522
#
# Compressibility (1/GPa) = 0.02701920
#
# Stress axis : x y z
#
# Youngs Moduli (GPa) = 35.54842 74.73258 79.89282
#
# Poissons Ratio (x) = 0.46300 0.16026
# Poissons Ratio (y) = 0.22024 0.42369
# Poissons Ratio (z) = 0.07131 0.39632
#
# Static dielectric constant tensor:
#      x y z
#    x 3.527050 0.000000 0.000000 
#    y 0.000000 3.591080 0.000000 
#    z 0.000000 0.000000 3.431170 
# 
# 
# High freq. dielectric constant tensor:
#      x y z
#    x 1.749050 0.000000 0.000000 
#    y 0.000000 1.756180 0.000000 
#    z 0.000000 0.000000 1.744690 
# 
# From -- ./inp_files/20213.got.cif
#   From: 2010.03.12/outbox.cif.g09.slc.cpg/sg62_11_cif.got.tgz:20213.got - 2010.04.10 19:12:36.
