data_PCOD8252422
_publ_section_title
;
Structure prediction by ZEFSAII (Michael W. Deem and Ramdas Pophale) SiO2 
 PCOD8252422
Probable space group: P N M A
;
_chemical_formula_sum "Si O2"
_cell_formula_units_Z 56
_cell_length_a 23.059740
_cell_length_b 9.226845
_cell_length_c 13.523088
_cell_angle_alpha 90.000000
_cell_angle_beta 90.000000
_cell_angle_gamma 90.000000
_cell_volume 2877.289133
_symmetry_space_group_name_H-M "P N M A"
_symmetry_group_IT_number 62
_symmetry_cell_setting 'orthorhombic'
loop_
_space_group_symop_operation_xyz
x,y,z
1/2-x,-y,1/2+z
1/2+x,1/2-y,1/2-z
-x,1/2+y,-z
-x,-y,-z
1/2+x,y,1/2-z
1/2-x,1/2+y,1/2+z
x,1/2-y,z
loop_
_atom_site_type_symbol
_atom_site_label
_atom_site_fract_x
_atom_site_fract_y
_atom_site_fract_z
Si Si1 0.624891 0.411353 0.317455
Si Si2 0.531511 0.914422 0.414409
Si Si3 0.343258 0.079029 0.191942
Si Si4 0.229817 0.420179 0.301527
Si Si5 0.039327 0.085650 0.712781
Si Si6 0.332650 0.920847 0.994342
Si Si7 0.446312 0.909474 0.883292
O O1 0.630869 0.250000 0.363976
O O2 0.594908 0.515988 0.397410
O O3 0.687178 0.479333 0.285463
O O4 0.585811 0.402774 0.220624
O O5 0.540743 0.750000 0.448978
O O6 0.493569 0.922861 0.315971
O O7 0.500000 0.000000 0.500000
O O8 0.351703 0.250000 0.178963
O O9 0.296304 0.042885 0.277566
O O10 0.402873 0.007262 0.225133
O O11 0.318215 0.011680 0.091452
O O12 0.217212 0.250000 0.303825
O O13 0.211271 0.479730 0.409390
O O14 0.055510 0.250000 0.684230
O O15 0.999453 0.022953 0.623570
O O16 0.324335 0.750000 0.013906
O O17 0.399618 0.955745 0.966200
O O18 0.471656 0.750000 0.907540
#
# Coordination Sequence:
#
# PCOD8252422 Si02
#       7
#     8   8   8   8   8   8   8
#     4   8  14  30  55  76  98 133 175 220 267 315
#     4  10  20  34  53  79 109 141 180 224 272 325
#     4  11  22  36  55  81 113 147 183 224 270 325
#     4   8  17  36  58  77 104 143 182 223 272 323
#     4  10  21  36  53  77 110 144 177 223 274 320
#     4   9  18  36  59  80 105 140 182 225 273 326
#     4   8  15  30  55  80 101 133 173 214 266 323
#
# _framework density 19.462765999999998
#
# number of rings (size 3 to 8) (size 9 to 14) (size 15 to 20)
#    0.000    2.857    0.000    3.000    0.000    2.857 
#    2.571    5.000    0.000    0.000    0.000    0.000 
#    0.000    0.000    0.000    0.000    0.000    0.000 
#
# Total GULP energy -694199.659844 kJ/mol
# GULP energy per Si atom -12396.422497 kJ/mol
# Density = 1.941847 g / cm^3
# Si number density = 19.462766 Si / 1000 Ang^3
#
#
#
# Elastic Constant Matrix: (Units=GPa)
#
#
# Indices 1 2 3 4 5 6 
#
# 1 94.3140 41.1882 9.4953 0.0000 0.0000 0.0000
# 2 41.1882 101.9126 25.3441 0.0000 0.0000 0.0000
# 3 9.4953 25.3441 39.2398 0.0000 0.0000 0.0000
# 4 0.0000 0.0000 0.0000 26.7210 0.0000 0.0000
# 5 0.0000 0.0000 0.0000 0.0000 25.9567 0.0000
# 6 0.0000 0.0000 0.0000 0.0000 0.0000 23.9094
#
#
#
# Elastic Compliance Matrix: (Units=1/GPa)
#
#
# Indices 1 2 3 4 5 6 
#
# 1 0.012878 -0.005277 0.000292 0.000000 0.000000 0.000000
# 2 -0.005277 0.013853 -0.007670 0.000000 0.000000 0.000000
# 3 0.000292 -0.007670 0.030367 0.000000 0.000000 0.000000
# 4 0.000000 0.000000 0.000000 0.037424 0.000000 0.000000
# 5 0.000000 0.000000 0.000000 0.000000 0.038526 0.000000
# 6 0.000000 0.000000 0.000000 0.000000 0.000000 0.041824
#
#
# Mechanical properties :
#
#
# Convention : Reuss Voigt Hill
#
# Bulk Modulus (GPa) = 31.45847 43.05794 37.25820
# Shear Modulus (GPa) = 23.72158 25.94669 24.83414
#
# Velocity S-wave (km/s) = 3.49495 3.65519 3.57596
# Velocity P-wave (km/s) = 5.69953 6.32338 6.01954
#
# Compressibility (1/GPa) = 0.03178794
#
# Stress axis : x y z
#
# Youngs Moduli (GPa) = 77.65078 72.18847 32.92996
#
# Poissons Ratio (x) = 0.38097 -0.00963
# Poissons Ratio (y) = 0.40980 0.25257
# Poissons Ratio (z) = -0.02270 0.55369
#
# Static dielectric constant tensor:
#      x y z
#    x 3.635530 0.000000 0.000000 
#    y 0.000000 3.618730 0.000000 
#    z 0.000000 0.000000 3.425870 
# 
# 
# High freq. dielectric constant tensor:
#      x y z
#    x 1.755590 0.000000 0.000000 
#    y 0.000000 1.745980 0.000000 
#    z 0.000000 0.000000 1.744690 
# 
# From -- ./inp_files/20437.got.cif
#   From: 2010.03.12/outbox.cif.g09.slc.cpg/sg62_11_cif.got.tgz:20437.got - 2010.04.10 19:12:36.
