data_PCOD8252854
_publ_section_title
;
Structure prediction by ZEFSAII (Michael W. Deem and Ramdas Pophale) SiO2 
 PCOD8252854
Probable space group: P N M A
;
_chemical_formula_sum "Si O2"
_cell_formula_units_Z 48
_cell_length_a 10.241450
_cell_length_b 8.796446
_cell_length_c 28.549336
_cell_angle_alpha 90.000000
_cell_angle_beta 90.000000
_cell_angle_gamma 90.000000
_cell_volume 2571.962913
_symmetry_space_group_name_H-M "P N M A"
_symmetry_group_IT_number 62
_symmetry_cell_setting 'orthorhombic'
loop_
_space_group_symop_operation_xyz
x,y,z
1/2-x,-y,1/2+z
1/2+x,1/2-y,1/2-z
-x,1/2+y,-z
-x,-y,-z
1/2+x,y,1/2-z
1/2-x,1/2+y,1/2+z
x,1/2-y,z
loop_
_atom_site_type_symbol
_atom_site_label
_atom_site_fract_x
_atom_site_fract_y
_atom_site_fract_z
Si Si1 0.000352 0.928487 0.220807
Si Si2 0.275908 0.073950 0.218998
Si Si3 0.484268 0.927756 0.385605
Si Si4 0.618184 0.927858 0.528057
Si Si5 0.741847 0.573585 0.889217
Si Si6 0.379153 0.570935 0.026207
O O1 0.026997 0.750000 0.225695
O O2 0.956248 0.971402 0.168169
O O3 0.133281 0.015234 0.234079
O O4 0.885650 0.978299 0.254883
O O5 0.286785 0.250000 0.233021
O O6 0.301260 0.047769 0.164150
O O7 0.475679 0.750000 0.394512
O O8 0.378397 0.009629 0.418623
O O9 0.627364 0.981931 0.400857
O O10 0.596804 0.750000 0.529274
O O11 0.752852 0.973245 0.503879
O O12 0.500000 0.000000 0.500000
O O13 0.766392 0.750000 0.899801
O O14 0.629560 0.506183 0.922551
O O15 0.397257 0.750000 0.032144
O O16 0.500000 0.500000 0.000000
#
# Coordination Sequence:
#
# PCOD8252854 Si02
#       6
#     8   8   8   8   8   8
#     4  10  21  38  60  86 117 152 192 238 287 342
#     4  10  21  38  61  88 116 151 192 237 288 343
#     4  10  20  35  58  87 115 147 191 236 282 336
#     4  11  22  36  59  87 114 148 190 234 281 334
#     4  10  20  36  60  85 113 151 192 232 283 341
#     4  11  24  40  58  83 116 153 192 235 286 340
#
# _framework density 18.662787999999999
#
# number of rings (size 3 to 8) (size 9 to 14) (size 15 to 20)
#    0.000    1.667    1.667    3.000    0.000    6.000 
#    3.000    0.000    0.000    0.000    0.000    0.000 
#    0.000    0.000    0.000    0.000    0.000    0.000 
#
# Total GULP energy -595412.779253 kJ/mol
# GULP energy per Si atom -12404.432901 kJ/mol
# Density = 1.862031 g / cm^3
# Si number density = 18.662788 Si / 1000 Ang^3
#
#
#
# Elastic Constant Matrix: (Units=GPa)
#
#
# Indices 1 2 3 4 5 6 
#
# 1 98.7238 42.4792 56.1382 0.0000 0.0000 0.0000
# 2 42.4792 62.9425 36.3739 0.0000 0.0000 0.0000
# 3 56.1382 36.3739 96.9463 0.0000 0.0000 0.0000
# 4 0.0000 0.0000 0.0000 36.0910 0.0000 0.0000
# 5 0.0000 0.0000 0.0000 0.0000 35.1414 0.0000
# 6 0.0000 0.0000 0.0000 0.0000 0.0000 34.1671
#
#
#
# Elastic Compliance Matrix: (Units=1/GPa)
#
#
# Indices 1 2 3 4 5 6 
#
# 1 0.017571 -0.007634 -0.007311 0.000000 0.000000 0.000000
# 2 -0.007634 0.023602 -0.004435 0.000000 0.000000 0.000000
# 3 -0.007311 -0.004435 0.016212 0.000000 0.000000 0.000000
# 4 0.000000 0.000000 0.000000 0.027708 0.000000 0.000000
# 5 0.000000 0.000000 0.000000 0.000000 0.028456 0.000000
# 6 0.000000 0.000000 0.000000 0.000000 0.000000 0.029268
#
#
# Mechanical properties :
#
#
# Convention : Reuss Voigt Hill
#
# Bulk Modulus (GPa) = 53.68586 58.73280 56.20933
# Shear Modulus (GPa) = 26.62606 29.32133 27.97369
#
# Velocity S-wave (km/s) = 3.78126 3.96803 3.87577
# Velocity P-wave (km/s) = 6.92045 7.24793 7.08608
#
# Compressibility (1/GPa) = 0.01862688
#
# Stress axis : x y z
#
# Youngs Moduli (GPa) = 56.91180 42.36843 61.68135
#
# Poissons Ratio (x) = 0.32343 0.45093
# Poissons Ratio (y) = 0.43445 0.27356
# Poissons Ratio (z) = 0.41606 0.18791
#
# Static dielectric constant tensor:
#      x y z
#    x 3.368760 0.000000 0.000000 
#    y 0.000000 3.567180 0.000000 
#    z 0.000000 0.000000 3.695620 
# 
# 
# High freq. dielectric constant tensor:
#      x y z
#    x 1.707820 0.000000 0.000000 
#    y 0.000000 1.743690 0.000000 
#    z 0.000000 0.000000 1.734920 
# 
# From -- ./inp_files/31899.got.cif
#   From: 2010.03.12/outbox.cif.g09.slc.cpg/sg62_16_cif.got.tgz:31899.got - 2010.04.10 19:12:36.
