data_PCOD8252628
_publ_section_title
;
Structure prediction by ZEFSAII (Michael W. Deem and Ramdas Pophale) SiO2 
 PCOD8252628
Probable space group: P N M A
;
_chemical_formula_sum "Si O2"
_cell_formula_units_Z 40
_cell_length_a 12.442477
_cell_length_b 8.625936
_cell_length_c 20.897602
_cell_angle_alpha 90.000000
_cell_angle_beta 90.000000
_cell_angle_gamma 90.000000
_cell_volume 2242.898042
_symmetry_space_group_name_H-M "P N M A"
_symmetry_group_IT_number 62
_symmetry_cell_setting 'orthorhombic'
loop_
_space_group_symop_operation_xyz
x,y,z
1/2-x,-y,1/2+z
1/2+x,1/2-y,1/2-z
-x,1/2+y,-z
-x,-y,-z
1/2+x,y,1/2-z
1/2-x,1/2+y,1/2+z
x,1/2-y,z
loop_
_atom_site_type_symbol
_atom_site_label
_atom_site_fract_x
_atom_site_fract_y
_atom_site_fract_z
Si Si1 0.331790 0.429790 0.657828
Si Si2 0.506663 0.932318 0.570156
Si Si3 0.596745 0.572563 0.198901
Si Si4 0.669146 0.068699 0.666578
Si Si5 0.379863 0.070378 0.198810
O O1 0.343121 0.250000 0.640097
O O2 0.396265 0.530438 0.606618
O O3 0.378866 0.466805 0.727459
O O4 0.206674 0.477086 0.656591
O O5 0.525378 0.750000 0.567956
O O6 0.500000 0.000000 0.500000
O O7 0.608680 0.012439 0.603620
O O8 0.561529 0.750000 0.191563
O O9 0.703686 0.536739 0.157669
O O10 0.499466 0.467202 0.172912
O O11 0.647637 0.250000 0.679101
O O12 0.622975 0.977382 0.727083
O O13 0.354484 0.250000 0.191426
#
# Coordination Sequence:
#
# PCOD8252628 Si02
#       5
#     8   8   8   8   8
#     4  10  20  35  54  76 108 144 182 222 270 323
#     4  12  24  38  57  80 109 144 184 226 269 322
#     4   9  18  32  53  77 108 144 176 218 273 325
#     4  10  20  35  53  76 108 144 183 222 270 322
#     4  11  20  30  51  81 113 142 176 223 272 323
#
# _framework density 17.834070000000001
#
# number of rings (size 3 to 8) (size 9 to 14) (size 15 to 20)
#    0.000    1.600    2.000    6.000    0.000    4.000 
#    0.000    0.000    0.000    1.200    0.000    0.000 
#    0.000    0.000    0.000    0.000    0.000    0.000 
#
# Total GULP energy -496113.348822 kJ/mol
# GULP energy per Si atom -12402.833721 kJ/mol
# Density = 1.779348 g / cm^3
# Si number density = 17.834070 Si / 1000 Ang^3
#
#
#
# Elastic Constant Matrix: (Units=GPa)
#
#
# Indices 1 2 3 4 5 6 
#
# 1 134.1496 31.9745 36.4944 0.0000 0.0000 0.0000
# 2 31.9745 67.1325 8.4736 0.0000 0.0000 0.0000
# 3 36.4944 8.4736 65.2803 0.0000 0.0000 0.0000
# 4 0.0000 0.0000 0.0000 25.1052 0.0000 0.0000
# 5 0.0000 0.0000 0.0000 0.0000 21.4036 0.0000
# 6 0.0000 0.0000 0.0000 0.0000 0.0000 31.9779
#
#
#
# Elastic Compliance Matrix: (Units=1/GPa)
#
#
# Indices 1 2 3 4 5 6 
#
# 1 0.009755 -0.004024 -0.004931 0.000000 0.000000 0.000000
# 2 -0.004024 0.016804 0.000068 0.000000 0.000000 0.000000
# 3 -0.004931 0.000068 0.018066 0.000000 0.000000 0.000000
# 4 0.000000 0.000000 0.000000 0.039832 0.000000 0.000000
# 5 0.000000 0.000000 0.000000 0.000000 0.046721 0.000000
# 6 0.000000 0.000000 0.000000 0.000000 0.000000 0.031272
#
#
# Mechanical properties :
#
#
# Convention : Reuss Voigt Hill
#
# Bulk Modulus (GPa) = 37.24134 46.71637 41.97886
# Shear Modulus (GPa) = 26.43072 28.33868 27.38470
#
# Velocity S-wave (km/s) = 3.85390 3.99058 3.92283
# Velocity P-wave (km/s) = 6.38207 6.89092 6.64137
#
# Compressibility (1/GPa) = 0.02685188
#
# Stress axis : x y z
#
# Youngs Moduli (GPa) = 102.51277 59.51052 55.35149
#
# Poissons Ratio (x) = 0.23945 0.27294
# Poissons Ratio (y) = 0.41248 -0.00378
# Poissons Ratio (z) = 0.50550 -0.00406
#
# Static dielectric constant tensor:
#      x y z
#    x 3.559890 0.000000 0.000000 
#    y 0.000000 3.369070 0.000000 
#    z 0.000000 0.000000 2.939770 
# 
# 
# High freq. dielectric constant tensor:
#      x y z
#    x 1.708740 0.000000 0.000000 
#    y 0.000000 1.702230 0.000000 
#    z 0.000000 0.000000 1.639320 
# 
# From -- ./inp_files/22759.got.cif
#   From: 2010.03.12/outbox.cif.g09.slc.cpg/sg62_12_cif.got.tgz:22759.got - 2010.04.10 19:12:36.
