data_PCOD8252755
_publ_section_title
;
Structure prediction by ZEFSAII (Michael W. Deem and Ramdas Pophale) SiO2 
 PCOD8252755
Probable space group: P N M A
;
_chemical_formula_sum "Si O2"
_cell_formula_units_Z 64
_cell_length_a 22.222438
_cell_length_b 8.773906
_cell_length_c 16.900969
_cell_angle_alpha 90.000000
_cell_angle_beta 90.000000
_cell_angle_gamma 90.000000
_cell_volume 3295.310071
_symmetry_space_group_name_H-M "P N M A"
_symmetry_group_IT_number 62
_symmetry_cell_setting 'orthorhombic'
loop_
_space_group_symop_operation_xyz
x,y,z
1/2-x,-y,1/2+z
1/2+x,1/2-y,1/2-z
-x,1/2+y,-z
-x,-y,-z
1/2+x,y,1/2-z
1/2-x,1/2+y,1/2+z
x,1/2-y,z
loop_
_atom_site_type_symbol
_atom_site_label
_atom_site_fract_x
_atom_site_fract_y
_atom_site_fract_z
Si Si1 0.691073 0.568754 0.956039
Si Si2 0.379445 0.925120 0.178221
Si Si3 0.705859 0.080315 0.681406
Si Si4 0.620364 0.574142 0.571033
Si Si5 0.164954 0.923905 0.370908
Si Si6 0.595010 0.930422 0.274617
Si Si7 0.968280 0.430864 0.201105
Si Si8 0.819467 0.429929 0.916056
O O1 0.695315 0.750000 0.957822
O O2 0.635484 0.515657 0.901754
O O3 0.754726 0.507755 0.924781
O O4 0.675419 0.498979 0.043416
O O5 0.394067 0.750000 0.158334
O O6 0.319626 0.941904 0.231014
O O7 0.437086 0.996632 0.221707
O O8 0.688932 0.250000 0.649621
O O9 0.776900 0.059519 0.684935
O O10 0.680003 0.954441 0.622401
O O11 0.607284 0.750000 0.562005
O O12 0.563891 0.504356 0.620571
O O13 0.633734 0.507600 0.483672
O O14 0.149555 0.750000 0.388648
O O15 0.111579 0.988441 0.314673
O O16 0.582167 0.750000 0.276572
O O17 0.650337 0.971060 0.332638
O O18 0.537033 0.020805 0.303553
O O19 0.961718 0.250000 0.207232
O O20 0.809119 0.250000 0.926097
#
# Coordination Sequence:
#
# PCOD8252755 Si02
#       8
#     8   8   8   8   8   8   8   8
#     4  11  21  34  55  84 115 142 175 225 281 328
#     4  10  20  35  58  82 106 142 186 226 270 329
#     4   9  16  31  54  78 104 138 177 216 265 327
#     4   9  18  32  52  80 113 145 174 220 274 320
#     4   9  18  33  53  77 107 141 177 222 273 322
#     4  10  21  38  57  77 106 148 192 229 268 324
#     4  10  21  38  56  79 112 145 186 233 277 324
#     4  10  20  35  56  83 115 147 182 223 271 331
#
# _framework density 19.42154
#
# number of rings (size 3 to 8) (size 9 to 14) (size 15 to 20)
#    0.000    2.250    1.250    1.875    0.000    4.000 
#    0.000    2.500    0.000    0.000    0.000    0.000 
#    0.000    0.000    0.000    0.000    0.000    0.000 
#
# Total GULP energy -793125.096666 kJ/mol
# GULP energy per Si atom -12392.579635 kJ/mol
# Density = 1.937734 g / cm^3
# Si number density = 19.421540 Si / 1000 Ang^3
#
#
#
# Elastic Constant Matrix: (Units=GPa)
#
#
# Indices 1 2 3 4 5 6 
#
# 1 62.7108 21.4923 37.0232 0.0000 0.0000 0.0000
# 2 21.4923 43.7096 26.9838 0.0000 0.0000 0.0000
# 3 37.0232 26.9838 106.1247 0.0000 0.0000 0.0000
# 4 0.0000 0.0000 0.0000 21.0883 0.0000 0.0000
# 5 0.0000 0.0000 0.0000 0.0000 24.1526 0.0000
# 6 0.0000 0.0000 0.0000 0.0000 0.0000 30.3657
#
#
#
# Elastic Compliance Matrix: (Units=1/GPa)
#
#
# Indices 1 2 3 4 5 6 
#
# 1 0.021817 -0.007151 -0.005793 0.000000 0.000000 0.000000
# 2 -0.007151 0.029482 -0.005001 0.000000 0.000000 0.000000
# 3 -0.005793 -0.005001 0.012715 0.000000 0.000000 0.000000
# 4 0.000000 0.000000 0.000000 0.047420 0.000000 0.000000
# 5 0.000000 0.000000 0.000000 0.000000 0.041403 0.000000
# 6 0.000000 0.000000 0.000000 0.000000 0.000000 0.032932
#
#
# Mechanical properties :
#
#
# Convention : Reuss Voigt Hill
#
# Bulk Modulus (GPa) = 35.55751 42.61595 39.08673
# Shear Modulus (GPa) = 21.64167 23.59106 22.61636
#
# Velocity S-wave (km/s) = 3.34175 3.48901 3.41618
# Velocity P-wave (km/s) = 5.76522 6.18233 5.97742
#
# Compressibility (1/GPa) = 0.02812345
#
# Stress axis : x y z
#
# Youngs Moduli (GPa) = 45.83544 33.91870 78.64424
#
# Poissons Ratio (x) = 0.24257 0.45558
# Poissons Ratio (y) = 0.32779 0.39333
# Poissons Ratio (z) = 0.26552 0.16964
#
# Static dielectric constant tensor:
#      x y z
#    x 3.370530 0.000000 0.000000 
#    y 0.000000 3.378290 0.000000 
#    z 0.000000 0.000000 3.833630 
# 
# 
# High freq. dielectric constant tensor:
#      x y z
#    x 1.741540 0.000000 0.000000 
#    y 0.000000 1.734480 0.000000 
#    z 0.000000 0.000000 1.764210 
# 
# From -- ./inp_files/20980.got.cif
#   From: 2010.03.12/outbox.cif.g09.slc.cpg/sg62_11_cif.got.tgz:20980.got - 2010.04.10 19:12:36.
