data_PCOD8252007
_publ_section_title
;
Structure prediction by ZEFSAII (Michael W. Deem and Ramdas Pophale) SiO2 
 PCOD8252007
Probable space group: P N M A
;
_chemical_formula_sum "Si O2"
_cell_formula_units_Z 56
_cell_length_a 15.048353
_cell_length_b 8.702113
_cell_length_c 21.510682
_cell_angle_alpha 90.000000
_cell_angle_beta 90.000000
_cell_angle_gamma 90.000000
_cell_volume 2816.876902
_symmetry_space_group_name_H-M "P N M A"
_symmetry_group_IT_number 62
_symmetry_cell_setting 'orthorhombic'
loop_
_space_group_symop_operation_xyz
x,y,z
1/2-x,-y,1/2+z
1/2+x,1/2-y,1/2-z
-x,1/2+y,-z
-x,-y,-z
1/2+x,y,1/2-z
1/2-x,1/2+y,1/2+z
x,1/2-y,z
loop_
_atom_site_type_symbol
_atom_site_label
_atom_site_fract_x
_atom_site_fract_y
_atom_site_fract_z
Si Si1 0.634340 0.069616 0.516315
Si Si2 0.418584 0.432366 0.721680
Si Si3 0.463605 0.068273 0.588952
Si Si4 0.435333 0.567272 0.183427
Si Si5 0.730649 0.431961 0.736742
Si Si6 0.980797 0.931853 0.567710
Si Si7 0.207541 0.931338 0.397305
O O1 0.624448 0.250000 0.507863
O O2 0.555796 0.006530 0.560790
O O3 0.729791 0.026817 0.544456
O O4 0.622122 0.989301 0.449748
O O5 0.420324 0.250000 0.719104
O O6 0.457781 0.500927 0.658068
O O7 0.476673 0.486121 0.779945
O O8 0.318524 0.492110 0.728784
O O9 0.461213 0.250000 0.590723
O O10 0.428536 0.750000 0.174967
O O11 0.352871 0.501711 0.224465
O O12 0.442478 0.490543 0.115302
O O13 0.721764 0.250000 0.737164
O O14 0.739163 0.485458 0.664719
O O15 0.985582 0.750000 0.563012
O O16 0.884786 0.982047 0.593400
O O17 0.000000 0.000000 0.500000
O O18 0.186844 0.750000 0.393114
#
# Coordination Sequence:
#
# PCOD8252007 Si02
#       7
#     8   8   8   8   8   8   8
#     4   9  18  31  50  77 110 149 188 231 286 337
#     4   9  16  29  52  81 109 139 181 231 274 325
#     4   9  17  30  49  77 113 151 190 233 279 335
#     4  10  19  36  61  87 117 151 194 245 295 351
#     4   9  17  30  57  89 111 143 188 235 289 348
#     4  12  26  43  62  85 116 156 199 247 303 359
#     4  10  19  37  61  86 116 152 197 244 293 355
#
# _framework density 19.880172000000002
#
# number of rings (size 3 to 8) (size 9 to 14) (size 15 to 20)
#    0.000    2.286    1.429    2.143    0.000    5.143 
#    0.000    2.857    0.000    1.714    0.000    0.000 
#    0.000    0.000    0.000    0.000    0.000    0.000 
#
# Total GULP energy -694148.882130 kJ/mol
# GULP energy per Si atom -12395.515752 kJ/mol
# Density = 1.983492 g / cm^3
# Si number density = 19.880172 Si / 1000 Ang^3
#
#
#
# Elastic Constant Matrix: (Units=GPa)
#
#
# Indices 1 2 3 4 5 6 
#
# 1 108.2093 27.2108 46.5114 0.0000 0.0000 0.0000
# 2 27.2108 46.9912 33.8620 0.0000 0.0000 0.0000
# 3 46.5114 33.8620 143.3274 0.0000 0.0000 0.0000
# 4 0.0000 0.0000 0.0000 25.2633 0.0000 0.0000
# 5 0.0000 0.0000 0.0000 0.0000 33.4005 0.0000
# 6 0.0000 0.0000 0.0000 0.0000 0.0000 20.3489
#
#
#
# Elastic Compliance Matrix: (Units=1/GPa)
#
#
# Indices 1 2 3 4 5 6 
#
# 1 0.011579 -0.004817 -0.002619 0.000000 0.000000 0.000000
# 2 -0.004817 0.027651 -0.004970 0.000000 0.000000 0.000000
# 3 -0.002619 -0.004970 0.009001 0.000000 0.000000 0.000000
# 4 0.000000 0.000000 0.000000 0.039583 0.000000 0.000000
# 5 0.000000 0.000000 0.000000 0.000000 0.029940 0.000000
# 6 0.000000 0.000000 0.000000 0.000000 0.000000 0.049143
#
#
# Mechanical properties :
#
#
# Convention : Reuss Voigt Hill
#
# Bulk Modulus (GPa) = 42.70086 57.07737 49.88912
# Shear Modulus (GPa) = 25.06082 28.53211 26.79646
#
# Velocity S-wave (km/s) = 3.55434 3.79252 3.67536
# Velocity P-wave (km/s) = 6.19436 6.92464 6.56966
#
# Compressibility (1/GPa) = 0.02341873
#
# Stress axis : x y z
#
# Youngs Moduli (GPa) = 86.36655 36.16486 111.09764
#
# Poissons Ratio (x) = 0.17422 0.29099
# Poissons Ratio (y) = 0.41605 0.55210
# Poissons Ratio (z) = 0.22622 0.17972
#
# Static dielectric constant tensor:
#      x y z
#    x 3.787620 0.000000 0.000000 
#    y 0.000000 3.186120 0.000000 
#    z 0.000000 0.000000 3.947830 
# 
# 
# High freq. dielectric constant tensor:
#      x y z
#    x 1.777390 0.000000 0.000000 
#    y 0.000000 1.726870 0.000000 
#    z 0.000000 0.000000 1.790550 
# 
# From -- ./inp_files/27165.got.cif
#   From: 2010.03.12/outbox.cif.g09.slc.cpg/sg62_14_cif.got.tgz:27165.got - 2010.04.10 19:12:36.
