data_PCOD8252524
_publ_section_title
;
Structure prediction by ZEFSAII (Michael W. Deem and Ramdas Pophale) SiO2 
 PCOD8252524
Probable space group: P N M A
;
_chemical_formula_sum "Si O2"
_cell_formula_units_Z 48
_cell_length_a 30.683824
_cell_length_b 8.542309
_cell_length_c 9.413021
_cell_angle_alpha 90.000000
_cell_angle_beta 90.000000
_cell_angle_gamma 90.000000
_cell_volume 2467.253579
_symmetry_space_group_name_H-M "P N M A"
_symmetry_group_IT_number 62
_symmetry_cell_setting 'orthorhombic'
loop_
_space_group_symop_operation_xyz
x,y,z
1/2-x,-y,1/2+z
1/2+x,1/2-y,1/2-z
-x,1/2+y,-z
-x,-y,-z
1/2+x,y,1/2-z
1/2-x,1/2+y,1/2+z
x,1/2-y,z
loop_
_atom_site_type_symbol
_atom_site_label
_atom_site_fract_x
_atom_site_fract_y
_atom_site_fract_z
Si Si1 0.038677 0.066615 0.094292
Si Si2 0.382360 0.066451 0.097078
Si Si3 0.384359 0.433585 0.417872
Si Si4 0.039552 0.564142 0.409251
Si Si5 0.707257 0.431568 0.583693
Si Si6 0.785716 0.433366 0.383017
O O1 0.032407 0.250000 0.109025
O O2 0.036609 0.993510 0.249470
O O3 0.084633 0.028084 0.022719
O O4 0.000000 0.000000 0.000000
O O5 0.389083 0.250000 0.103777
O O6 0.391756 0.003647 0.256867
O O7 0.333059 0.024207 0.049957
O O8 0.416248 0.996733 0.982836
O O9 0.394056 0.250000 0.432849
O O10 0.334563 0.467245 0.462763
O O11 0.038616 0.750000 0.409754
O O12 0.000000 0.500000 0.500000
O O13 0.696120 0.250000 0.563429
O O14 0.748234 0.483783 0.490076
O O15 0.721592 0.465050 0.743491
O O16 0.784359 0.250000 0.343413
#
# Coordination Sequence:
#
# PCOD8252524 Si02
#       6
#     8   8   8   8   8   8
#     4  12  25  41  60  86 117 150 191 236 285 342
#     4   8  17  35  58  80 106 144 188 232 280 336
#     4  10  20  38  61  84 113 150 189 233 287 342
#     4  11  22  38  60  86 116 152 193 237 287 341
#     4  10  20  34  55  84 114 147 190 237 285 339
#     4   9  19  36  55  78 111 149 190 235 282 334
#
# _framework density 19.454830999999999
#
# number of rings (size 3 to 8) (size 9 to 14) (size 15 to 20)
#    0.000    2.000    0.000    5.000    0.000    4.000 
#    0.000    9.167    0.000    0.000    0.000    0.000 
#    0.000    0.000    0.000    0.000    0.000    0.000 
#
# Total GULP energy -595221.758118 kJ/mol
# GULP energy per Si atom -12400.453294 kJ/mol
# Density = 1.941055 g / cm^3
# Si number density = 19.454831 Si / 1000 Ang^3
#
#
#
# Elastic Constant Matrix: (Units=GPa)
#
#
# Indices 1 2 3 4 5 6 
#
# 1 151.7273 29.6656 93.2682 0.0000 0.0000 0.0000
# 2 29.6656 60.8793 28.2566 0.0000 0.0000 0.0000
# 3 93.2682 28.2566 132.8571 0.0000 0.0000 0.0000
# 4 0.0000 0.0000 0.0000 32.1141 0.0000 0.0000
# 5 0.0000 0.0000 0.0000 0.0000 44.2303 0.0000
# 6 0.0000 0.0000 0.0000 0.0000 0.0000 32.0906
#
#
#
# Elastic Compliance Matrix: (Units=1/GPa)
#
#
# Indices 1 2 3 4 5 6 
#
# 1 0.011836 -0.002120 -0.007858 0.000000 0.000000 0.000000
# 2 -0.002120 0.018605 -0.002469 0.000000 0.000000 0.000000
# 3 -0.007858 -0.002469 0.013568 0.000000 0.000000 0.000000
# 4 0.000000 0.000000 0.000000 0.031139 0.000000 0.000000
# 5 0.000000 0.000000 0.000000 0.000000 0.022609 0.000000
# 6 0.000000 0.000000 0.000000 0.000000 0.000000 0.031162
#
#
# Mechanical properties :
#
#
# Convention : Reuss Voigt Hill
#
# Bulk Modulus (GPa) = 52.31353 71.98272 62.14813
# Shear Modulus (GPa) = 31.21419 34.63856 32.92637
#
# Velocity S-wave (km/s) = 4.00990 4.22413 4.11841
# Velocity P-wave (km/s) = 6.95609 7.80200 7.39116
#
# Compressibility (1/GPa) = 0.01911551
#
# Stress axis : x y z
#
# Youngs Moduli (GPa) = 84.49060 53.74947 73.70108
#
# Poissons Ratio (x) = 0.11396 0.57914
# Poissons Ratio (y) = 0.17913 0.18194
# Poissons Ratio (z) = 0.66392 0.13268
#
# Static dielectric constant tensor:
#      x y z
#    x 3.873810 0.000000 0.000000 
#    y 0.000000 3.510010 0.000000 
#    z 0.000000 0.000000 4.154060 
# 
# 
# High freq. dielectric constant tensor:
#      x y z
#    x 1.774300 0.000000 0.000000 
#    y 0.000000 1.749990 0.000000 
#    z 0.000000 0.000000 1.756160 
# 
# From -- ./inp_files/10136.got.cif
#   From: 2010.03.12/outbox.cif.g09.slc.cpg/sg62_6_cif.got.tgz:10136.got - 2010.04.10 19:12:36.
