data_PCOD8252330
_publ_section_title
;
Structure prediction by ZEFSAII (Michael W. Deem and Ramdas Pophale) SiO2 
 PCOD8252330
Probable space group: P N M A
;
_chemical_formula_sum "Si O2"
_cell_formula_units_Z 64
_cell_length_a 12.508683
_cell_length_b 22.494362
_cell_length_c 11.759922
_cell_angle_alpha 90.000000
_cell_angle_beta 90.000000
_cell_angle_gamma 90.000000
_cell_volume 3308.946213
_symmetry_space_group_name_H-M "P N M A"
_symmetry_group_IT_number 62
_symmetry_cell_setting 'orthorhombic'
loop_
_space_group_symop_operation_xyz
x,y,z
1/2-x,-y,1/2+z
1/2+x,1/2-y,1/2-z
-x,1/2+y,-z
-x,-y,-z
1/2+x,y,1/2-z
1/2-x,1/2+y,1/2+z
x,1/2-y,z
loop_
_atom_site_type_symbol
_atom_site_label
_atom_site_fract_x
_atom_site_fract_y
_atom_site_fract_z
Si Si1 0.869637 0.568104 0.479736
Si Si2 0.173803 0.644284 0.525638
Si Si3 0.319078 0.095841 0.659867
Si Si4 0.087632 0.960010 0.379686
Si Si5 0.010097 0.817772 0.057458
Si Si6 0.204879 0.315004 0.814764
Si Si7 0.444236 0.818001 0.905027
Si Si8 0.870326 0.681220 0.846728
O O1 0.752579 0.556555 0.425756
O O2 0.881502 0.528126 0.593340
O O3 0.881949 0.637805 0.510711
O O4 0.960388 0.549276 0.389036
O O5 0.147092 0.579340 0.475784
O O6 0.214116 0.684418 0.421168
O O7 0.267579 0.640906 0.620313
O O8 0.071127 0.674072 0.583166
O O9 0.379497 0.054461 0.750603
O O10 0.398911 0.135541 0.586804
O O11 0.233323 0.137123 0.721637
O O12 0.053222 0.750000 0.065907
O O13 0.915269 0.827954 0.146640
O O14 0.969167 0.831820 0.930795
O O15 0.213293 0.250000 0.759142
O O16 0.412863 0.750000 0.934523
O O17 0.409944 0.834943 0.777950
O O18 0.835467 0.750000 0.858116
#
# Coordination Sequence:
#
# PCOD8252330 Si02
#       8
#     8   8   8   8   8   8   8   8
#     4  10  22  39  56  78 108 139 177 220 263 318
#     4   9  17  33  55  73  99 142 185 215 257 322
#     4  11  20  33  56  80 105 137 177 222 266 309
#     4   9  21  40  57  75 104 142 178 220 268 317
#     4   9  18  32  50  79 115 142 172 217 265 312
#     4   9  17  30  50  76 107 142 173 207 261 322
#     4  10  20  33  53  80 107 139 177 216 261 318
#     4   9  18  32  51  78 112 145 179 223 269 312
#
# _framework density 19.341505999999999
#
# number of rings (size 3 to 8) (size 9 to 14) (size 15 to 20)
#    0.000    2.500    0.000    3.000    0.000    3.000 
#    0.000    8.125    0.000    8.250    0.000    0.000 
#    0.000    0.000    0.000    0.000    0.000    0.000 
#
# Total GULP energy -793546.861411 kJ/mol
# GULP energy per Si atom -12399.169710 kJ/mol
# Density = 1.929748 g / cm^3
# Si number density = 19.341506 Si / 1000 Ang^3
#
#
#
# Elastic Constant Matrix: (Units=GPa)
#
#
# Indices 1 2 3 4 5 6 
#
# 1 100.9405 27.3175 32.5790 0.0000 0.0000 0.0000
# 2 27.3175 68.5384 12.4679 0.0000 0.0000 0.0000
# 3 32.5790 12.4679 57.8991 0.0000 0.0000 0.0000
# 4 0.0000 0.0000 0.0000 22.4198 0.0000 0.0000
# 5 0.0000 0.0000 0.0000 0.0000 27.5368 0.0000
# 6 0.0000 0.0000 0.0000 0.0000 0.0000 21.8773
#
#
#
# Elastic Compliance Matrix: (Units=1/GPa)
#
#
# Indices 1 2 3 4 5 6 
#
# 1 0.013098 -0.004038 -0.006500 0.000000 0.000000 0.000000
# 2 -0.004038 0.016430 -0.001266 0.000000 0.000000 0.000000
# 3 -0.006500 -0.001266 0.021202 0.000000 0.000000 0.000000
# 4 0.000000 0.000000 0.000000 0.044603 0.000000 0.000000
# 5 0.000000 0.000000 0.000000 0.000000 0.036315 0.000000
# 6 0.000000 0.000000 0.000000 0.000000 0.000000 0.045710
#
#
# Mechanical properties :
#
#
# Convention : Reuss Voigt Hill
#
# Bulk Modulus (GPa) = 36.87180 41.34522 39.10851
# Shear Modulus (GPa) = 23.80883 24.70099 24.25491
#
# Velocity S-wave (km/s) = 3.51233 3.57753 3.54508
# Velocity P-wave (km/s) = 5.96268 6.20385 6.08446
#
# Compressibility (1/GPa) = 0.02712100
#
# Stress axis : x y z
#
# Youngs Moduli (GPa) = 76.34975 60.86410 47.16603
#
# Poissons Ratio (x) = 0.24576 0.30660
# Poissons Ratio (y) = 0.30829 0.05971
# Poissons Ratio (z) = 0.49630 0.07705
#
# Static dielectric constant tensor:
#      x y z
#    x 3.505150 0.000000 0.000000 
#    y 0.000000 3.477900 0.000000 
#    z 0.000000 0.000000 3.416300 
# 
# 
# High freq. dielectric constant tensor:
#      x y z
#    x 1.753410 0.000000 0.000000 
#    y 0.000000 1.741080 0.000000 
#    z 0.000000 0.000000 1.743380 
# 
# From -- ./inp_files/12566.got.cif
#   From: 2010.03.12/outbox.cif.g09.slc.cpg/sg62_7_cif.got.tgz:12566.got - 2010.04.10 19:12:36.
