data_PCOD8252686
_publ_section_title
;
Structure prediction by ZEFSAII (Michael W. Deem and Ramdas Pophale) SiO2 
 PCOD8252686
Probable space group: P N M A
;
_chemical_formula_sum "Si O2"
_cell_formula_units_Z 48
_cell_length_a 14.616366
_cell_length_b 8.901759
_cell_length_c 20.245111
_cell_angle_alpha 90.000000
_cell_angle_beta 90.000000
_cell_angle_gamma 90.000000
_cell_volume 2634.119079
_symmetry_space_group_name_H-M "P N M A"
_symmetry_group_IT_number 62
_symmetry_cell_setting 'orthorhombic'
loop_
_space_group_symop_operation_xyz
x,y,z
1/2-x,-y,1/2+z
1/2+x,1/2-y,1/2-z
-x,1/2+y,-z
-x,-y,-z
1/2+x,y,1/2-z
1/2-x,1/2+y,1/2+z
x,1/2-y,z
loop_
_atom_site_type_symbol
_atom_site_label
_atom_site_fract_x
_atom_site_fract_y
_atom_site_fract_z
Si Si1 0.607461 0.575167 0.818057
Si Si2 0.308863 0.579228 0.650168
Si Si3 0.493416 0.076495 0.312574
Si Si4 0.925687 0.574352 0.454036
Si Si5 0.566042 0.072724 0.553940
Si Si6 0.279765 0.424631 0.517255
O O1 0.587378 0.750000 0.828967
O O2 0.716066 0.542409 0.809672
O O3 0.556284 0.515783 0.752955
O O4 0.566161 0.488661 0.880292
O O5 0.304704 0.750000 0.622887
O O6 0.396944 0.557649 0.697187
O O7 0.320592 0.468727 0.588428
O O8 0.467638 0.250000 0.325973
O O9 0.459539 0.977214 0.372962
O O10 0.943275 0.750000 0.450805
O O11 0.827239 0.535807 0.485292
O O12 0.000000 0.500000 0.500000
O O13 0.558502 0.250000 0.547874
O O14 0.500000 0.000000 0.500000
O O15 0.669674 0.018939 0.539619
O O16 0.298778 0.250000 0.505562
#
# Coordination Sequence:
#
# PCOD8252686 Si02
#       6
#     8   8   8   8   8   8
#     4   9  19  36  56  80 111 147 187 229 275 334
#     4   9  17  32  55  77 103 146 186 221 273 329
#     4  10  20  35  55  80 112 147 186 229 277 334
#     4  10  21  38  61  85 112 147 189 234 279 332
#     4  12  23  35  55  83 115 147 184 229 280 334
#     4  10  20  35  56  82 109 143 185 230 277 328
#
# _framework density 18.22241
#
# number of rings (size 3 to 8) (size 9 to 14) (size 15 to 20)
#    0.000    2.000    1.667    2.500    0.000    2.667 
#    3.000    0.000    0.000    0.000    0.000    0.000 
#    0.000    0.000    0.000    0.000    0.000    0.000 
#
# Total GULP energy -595279.399276 kJ/mol
# GULP energy per Si atom -12401.654152 kJ/mol
# Density = 1.818094 g / cm^3
# Si number density = 18.222410 Si / 1000 Ang^3
#
#
#
# Elastic Constant Matrix: (Units=GPa)
#
#
# Indices 1 2 3 4 5 6 
#
# 1 128.1284 55.8049 89.3049 0.0000 0.0000 0.0000
# 2 55.8049 96.6119 63.0097 0.0000 0.0000 0.0000
# 3 89.3049 63.0097 132.1637 0.0000 0.0000 0.0000
# 4 0.0000 0.0000 0.0000 31.2158 0.0000 0.0000
# 5 0.0000 0.0000 0.0000 0.0000 36.1637 0.0000
# 6 0.0000 0.0000 0.0000 0.0000 0.0000 25.4282
#
#
#
# Elastic Compliance Matrix: (Units=1/GPa)
#
#
# Indices 1 2 3 4 5 6 
#
# 1 0.015348 -0.003050 -0.008917 0.000000 0.000000 0.000000
# 2 -0.003050 0.015627 -0.005390 0.000000 0.000000 0.000000
# 3 -0.008917 -0.005390 0.016161 0.000000 0.000000 0.000000
# 4 0.000000 0.000000 0.000000 0.032035 0.000000 0.000000
# 5 0.000000 0.000000 0.000000 0.000000 0.027652 0.000000
# 6 0.000000 0.000000 0.000000 0.000000 0.000000 0.039326
#
#
# Mechanical properties :
#
#
# Convention : Reuss Voigt Hill
#
# Bulk Modulus (GPa) = 80.48962 85.90480 83.19721
# Shear Modulus (GPa) = 27.02646 28.48052 27.75349
#
# Velocity S-wave (km/s) = 3.85534 3.95769 3.90685
# Velocity P-wave (km/s) = 8.00530 8.25404 8.13062
#
# Compressibility (1/GPa) = 0.01242396
#
# Stress axis : x y z
#
# Youngs Moduli (GPa) = 65.15518 63.99019 61.87674
#
# Poissons Ratio (x) = 0.19516 0.55175
# Poissons Ratio (y) = 0.19871 0.33349
# Poissons Ratio (z) = 0.58098 0.34488
#
# Static dielectric constant tensor:
#      x y z
#    x 3.650840 0.000000 0.000000 
#    y 0.000000 3.414410 0.000000 
#    z 0.000000 0.000000 3.156260 
# 
# 
# High freq. dielectric constant tensor:
#      x y z
#    x 1.717700 0.000000 0.000000 
#    y 0.000000 1.709480 0.000000 
#    z 0.000000 0.000000 1.685460 
# 
# From -- ./inp_files/23730.got.cif
#   From: 2010.03.12/outbox.cif.g09.slc.cpg/sg62_12_cif.got.tgz:23730.got - 2010.04.10 19:12:36.
