data_PCOD8252703
_publ_section_title
;
Structure prediction by ZEFSAII (Michael W. Deem and Ramdas Pophale) SiO2 
 PCOD8252703
Probable space group: P N M A
;
_chemical_formula_sum "Si O2"
_cell_formula_units_Z 56
_cell_length_a 20.165542
_cell_length_b 8.920502
_cell_length_c 16.243481
_cell_angle_alpha 90.000000
_cell_angle_beta 90.000000
_cell_angle_gamma 90.000000
_cell_volume 2921.987132
_symmetry_space_group_name_H-M "P N M A"
_symmetry_group_IT_number 62
_symmetry_cell_setting 'orthorhombic'
loop_
_space_group_symop_operation_xyz
x,y,z
1/2-x,-y,1/2+z
1/2+x,1/2-y,1/2-z
-x,1/2+y,-z
-x,-y,-z
1/2+x,y,1/2-z
1/2-x,1/2+y,1/2+z
x,1/2-y,z
loop_
_atom_site_type_symbol
_atom_site_label
_atom_site_fract_x
_atom_site_fract_y
_atom_site_fract_z
Si Si1 0.718181 0.075709 0.689255
Si Si2 0.306819 0.924040 0.497847
Si Si3 0.117595 0.927849 0.687954
Si Si4 0.949266 0.572671 0.937671
Si Si5 0.021877 0.072257 0.245008
Si Si6 0.173302 0.423886 0.533105
Si Si7 0.351976 0.575260 0.845970
O O1 0.715280 0.250000 0.711609
O O2 0.688474 0.042407 0.599224
O O3 0.676517 0.984093 0.754886
O O4 0.793512 0.019990 0.694935
O O5 0.291676 0.750000 0.514264
O O6 0.375001 0.976545 0.539119
O O7 0.248662 0.018861 0.539788
O O8 0.118204 0.750000 0.686279
O O9 0.047939 0.991223 0.722364
O O10 0.126454 0.988210 0.595890
O O11 0.957106 0.750000 0.943494
O O12 0.964838 0.510832 0.846642
O O13 0.000000 0.500000 0.000000
O O14 0.020051 0.250000 0.243236
O O15 0.079909 0.017599 0.305814
O O16 0.172761 0.250000 0.555811
O O17 0.143643 0.455687 0.443093
O O18 0.338590 0.750000 0.827684
#
# Coordination Sequence:
#
# PCOD8252703 Si02
#       7
#     8   8   8   8   8   8   8
#     4  10  20  35  55  83 117 146 184 234 282 334
#     4   9  19  35  56  82 112 147 184 227 281 340
#     4  11  22  36  56  80 110 150 192 232 281 338
#     4  10  20  35  56  82 113 148 185 226 276 334
#     4   9  20  37  57  82 110 146 193 232 273 338
#     4  10  21  36  56  83 112 142 186 239 286 336
#     4   9  19  38  60  82 110 148 189 233 287 340
#
# _framework density 19.165039
#
# number of rings (size 3 to 8) (size 9 to 14) (size 15 to 20)
#    0.000    2.286    0.000    2.143    2.000    2.286 
#    0.000    2.857    0.000    0.000    0.000    0.000 
#    0.000    0.000    0.000    0.000    0.000    0.000 
#
# Total GULP energy -694622.442556 kJ/mol
# GULP energy per Si atom -12403.972189 kJ/mol
# Density = 1.912142 g / cm^3
# Si number density = 19.165039 Si / 1000 Ang^3
#
#
#
# Elastic Constant Matrix: (Units=GPa)
#
#
# Indices 1 2 3 4 5 6 
#
# 1 129.9024 40.5094 88.0814 0.0000 0.0000 0.0000
# 2 40.5094 58.4639 39.4260 0.0000 0.0000 0.0000
# 3 88.0814 39.4260 127.9017 0.0000 0.0000 0.0000
# 4 0.0000 0.0000 0.0000 31.1186 0.0000 0.0000
# 5 0.0000 0.0000 0.0000 0.0000 35.4075 0.0000
# 6 0.0000 0.0000 0.0000 0.0000 0.0000 25.4331
#
#
#
# Elastic Compliance Matrix: (Units=1/GPa)
#
#
# Indices 1 2 3 4 5 6 
#
# 1 0.015293 -0.004411 -0.009172 0.000000 0.000000 0.000000
# 2 -0.004411 0.022866 -0.004011 0.000000 0.000000 0.000000
# 3 -0.009172 -0.004011 0.015371 0.000000 0.000000 0.000000
# 4 0.000000 0.000000 0.000000 0.032135 0.000000 0.000000
# 5 0.000000 0.000000 0.000000 0.000000 0.028243 0.000000
# 6 0.000000 0.000000 0.000000 0.000000 0.000000 0.039319
#
#
# Mechanical properties :
#
#
# Convention : Reuss Voigt Hill
#
# Bulk Modulus (GPa) = 54.51858 72.47795 63.49827
# Shear Modulus (GPa) = 25.70336 28.27525 26.98930
#
# Velocity S-wave (km/s) = 3.66616 3.84520 3.75675
# Velocity P-wave (km/s) = 6.81393 7.59039 7.21261
#
# Compressibility (1/GPa) = 0.01834237
#
# Stress axis : x y z
#
# Youngs Moduli (GPa) = 65.39081 43.73375 65.05727
#
# Poissons Ratio (x) = 0.19291 0.59669
# Poissons Ratio (y) = 0.28845 0.26092
# Poissons Ratio (z) = 0.59975 0.17540
#
# Static dielectric constant tensor:
#      x y z
#    x 3.663010 0.000000 0.000000 
#    y 0.000000 3.369850 0.000000 
#    z 0.000000 0.000000 3.644310 
# 
# 
# High freq. dielectric constant tensor:
#      x y z
#    x 1.751200 0.000000 0.000000 
#    y 0.000000 1.732100 0.000000 
#    z 0.000000 0.000000 1.755210 
# 
# From -- ./inp_files/20377.got.cif
#   From: 2010.03.12/outbox.cif.g09.slc.cpg/sg62_11_cif.got.tgz:20377.got - 2010.04.10 19:12:36.
