data_PCOD8252962
_publ_section_title
;
Structure prediction by ZEFSAII (Michael W. Deem and Ramdas Pophale) SiO2 
 PCOD8252962
Probable space group: P N M A
;
_chemical_formula_sum "Si O2"
_cell_formula_units_Z 56
_cell_length_a 16.138390
_cell_length_b 8.832688
_cell_length_c 20.349252
_cell_angle_alpha 90.000000
_cell_angle_beta 90.000000
_cell_angle_gamma 90.000000
_cell_volume 2900.691527
_symmetry_space_group_name_H-M "P N M A"
_symmetry_group_IT_number 62
_symmetry_cell_setting 'orthorhombic'
loop_
_space_group_symop_operation_xyz
x,y,z
1/2-x,-y,1/2+z
1/2+x,1/2-y,1/2-z
-x,1/2+y,-z
-x,-y,-z
1/2+x,y,1/2-z
1/2-x,1/2+y,1/2+z
x,1/2-y,z
loop_
_atom_site_type_symbol
_atom_site_label
_atom_site_fract_x
_atom_site_fract_y
_atom_site_fract_z
Si Si1 0.004907 0.928422 0.315887
Si Si2 0.681586 0.073261 0.786703
Si Si3 0.680105 0.929465 0.389837
Si Si4 0.749445 0.429728 0.027744
Si Si5 0.031224 0.428321 0.181025
Si Si6 0.063487 0.070411 0.449007
Si Si7 0.155313 0.927809 0.846077
O O1 0.018578 0.750000 0.323597
O O2 0.908138 0.972934 0.314757
O O3 0.048744 0.985394 0.249327
O O4 0.046637 0.014244 0.375870
O O5 0.685379 0.250000 0.773467
O O6 0.749465 0.020017 0.838751
O O7 0.700866 0.992763 0.717955
O O8 0.665565 0.750000 0.388409
O O9 0.708384 0.988361 0.461066
O O10 0.595694 0.015254 0.373122
O O11 0.751558 0.250000 0.028999
O O12 0.654881 0.485738 0.030747
O O13 0.801134 0.496472 0.089199
O O14 0.039172 0.250000 0.192944
O O15 0.941083 0.473593 0.153438
O O16 0.055726 0.250000 0.451855
O O17 0.000000 0.000000 0.500000
O O18 0.167219 0.750000 0.844151
#
# Coordination Sequence:
#
# PCOD8252962 Si02
#       7
#     8   8   8   8   8   8   8
#     4  10  20  37  59  83 112 147 189 234 284 340
#     4   9  19  35  56  81 110 145 185 232 281 336
#     4  10  20  36  57  80 109 148 190 228 278 339
#     4   9  20  38  58  80 110 150 190 231 282 339
#     4  10  21  36  55  83 114 144 186 236 286 337
#     4  11  22  37  58  85 118 152 189 233 286 344
#     4   9  19  37  58  80 108 146 187 232 285 337
#
# _framework density 19.30574
#
# number of rings (size 3 to 8) (size 9 to 14) (size 15 to 20)
#    0.000    2.286    0.000    2.143    2.000    4.571 
#    0.000    4.286    0.000    0.000    0.000    0.000 
#    0.000    0.000    0.000    0.000    0.000    0.000 
#
# Total GULP energy -694584.311283 kJ/mol
# GULP energy per Si atom -12403.291273 kJ/mol
# Density = 1.926180 g / cm^3
# Si number density = 19.305740 Si / 1000 Ang^3
#
#
#
# Elastic Constant Matrix: (Units=GPa)
#
#
# Indices 1 2 3 4 5 6 
#
# 1 96.7247 33.3001 78.7115 0.0000 0.0000 0.0000
# 2 33.3001 44.5823 36.2113 0.0000 0.0000 0.0000
# 3 78.7115 36.2113 168.1034 0.0000 0.0000 0.0000
# 4 0.0000 0.0000 0.0000 33.1967 0.0000 0.0000
# 5 0.0000 0.0000 0.0000 0.0000 39.5444 0.0000
# 6 0.0000 0.0000 0.0000 0.0000 0.0000 21.9951
#
#
#
# Elastic Compliance Matrix: (Units=1/GPa)
#
#
# Indices 1 2 3 4 5 6 
#
# 1 0.019009 -0.008447 -0.007081 0.000000 0.000000 0.000000
# 2 -0.008447 0.030941 -0.002710 0.000000 0.000000 0.000000
# 3 -0.007081 -0.002710 0.009848 0.000000 0.000000 0.000000
# 4 0.000000 0.000000 0.000000 0.030123 0.000000 0.000000
# 5 0.000000 0.000000 0.000000 0.000000 0.025288 0.000000
# 6 0.000000 0.000000 0.000000 0.000000 0.000000 0.045465
#
#
# Mechanical properties :
#
#
# Convention : Reuss Voigt Hill
#
# Bulk Modulus (GPa) = 42.87784 67.31735 55.09760
# Shear Modulus (GPa) = 24.39925 29.69307 27.04616
#
# Velocity S-wave (km/s) = 3.55890 3.92604 3.74697
# Velocity P-wave (km/s) = 6.25666 7.44960 6.87904
#
# Compressibility (1/GPa) = 0.02332207
#
# Stress axis : x y z
#
# Youngs Moduli (GPa) = 52.60625 32.31968 101.54301
#
# Poissons Ratio (x) = 0.27301 0.71904
# Poissons Ratio (y) = 0.44437 0.27516
# Poissons Ratio (z) = 0.37251 0.08758
#
# Static dielectric constant tensor:
#      x y z
#    x 3.683110 0.000000 0.000000 
#    y 0.000000 3.335130 0.000000 
#    z 0.000000 0.000000 3.801580 
# 
# 
# High freq. dielectric constant tensor:
#      x y z
#    x 1.757490 0.000000 0.000000 
#    y 0.000000 1.735930 0.000000 
#    z 0.000000 0.000000 1.761820 
# 
# From -- ./inp_files/27181.got.cif
#   From: 2010.03.12/outbox.cif.g09.slc.cpg/sg62_14_cif.got.tgz:27181.got - 2010.04.10 19:12:36.
