data_PCOD8252439
_publ_section_title
;
Structure prediction by ZEFSAII (Michael W. Deem and Ramdas Pophale) SiO2 
 PCOD8252439
Probable space group: P N M A
;
_chemical_formula_sum "Si O2"
_cell_formula_units_Z 56
_cell_length_a 14.852209
_cell_length_b 8.955126
_cell_length_c 21.121739
_cell_angle_alpha 90.000000
_cell_angle_beta 90.000000
_cell_angle_gamma 90.000000
_cell_volume 2809.263164
_symmetry_space_group_name_H-M "P N M A"
_symmetry_group_IT_number 62
_symmetry_cell_setting 'orthorhombic'
loop_
_space_group_symop_operation_xyz
x,y,z
1/2-x,-y,1/2+z
1/2+x,1/2-y,1/2-z
-x,1/2+y,-z
-x,-y,-z
1/2+x,y,1/2-z
1/2-x,1/2+y,1/2+z
x,1/2-y,z
loop_
_atom_site_type_symbol
_atom_site_label
_atom_site_fract_x
_atom_site_fract_y
_atom_site_fract_z
Si Si1 0.785460 0.578499 0.110670
Si Si2 0.522531 0.074633 0.566286
Si Si3 0.595451 0.420902 0.783429
Si Si4 0.531565 0.580760 0.902837
Si Si5 0.120969 0.917449 0.471618
Si Si6 0.567616 0.921004 0.306924
Si Si7 0.768841 0.573970 0.737884
O O1 0.795640 0.750000 0.132621
O O2 0.724318 0.561401 0.048192
O O3 0.736601 0.493116 0.167729
O O4 0.882516 0.510971 0.092691
O O5 0.531966 0.250000 0.554442
O O6 0.444998 0.040065 0.618505
O O7 0.500000 0.000000 0.500000
O O8 0.626456 0.250000 0.788150
O O9 0.542746 0.466084 0.846165
O O10 0.530282 0.446244 0.723981
O O11 0.682960 0.523535 0.778182
O O12 0.525820 0.750000 0.877189
O O13 0.438430 0.541641 0.937106
O O14 0.613610 0.561704 0.952636
O O15 0.087300 0.750000 0.453288
O O16 0.598471 0.750000 0.297728
O O17 0.640994 0.025173 0.274230
O O18 0.770381 0.750000 0.732298
#
# Coordination Sequence:
#
# PCOD8252439 Si02
#       7
#     8   8   8   8   8   8   8
#     4  10  20  40  63  84 115 160 209 247 300 374
#     4  10  22  41  64  90 120 160 206 256 310 369
#     4  11  22  40  63  85 117 160 201 243 298 367
#     4  10  20  34  53  86 125 155 196 250 303 353
#     4   9  19  35  57  82 115 160 201 242 298 364
#     4  10  22  42  64  87 121 164 208 249 305 377
#     4  12  25  38  60  93 123 153 199 258 314 359
#
# _framework density 19.934052000000001
#
# number of rings (size 3 to 8) (size 9 to 14) (size 15 to 20)
#    0.000    1.714    1.429    3.000    0.000    8.000 
#    0.000    1.429    0.000    0.000    0.000    0.000 
#    0.000    0.000    0.000    0.000    0.000    0.000 
#
# Total GULP energy -694502.961867 kJ/mol
# GULP energy per Si atom -12401.838605 kJ/mol
# Density = 1.988868 g / cm^3
# Si number density = 19.934052 Si / 1000 Ang^3
#
#
#
# Elastic Constant Matrix: (Units=GPa)
#
#
# Indices 1 2 3 4 5 6 
#
# 1 81.8898 43.6410 33.1199 0.0000 0.0000 0.0000
# 2 43.6410 96.6252 48.7556 0.0000 0.0000 0.0000
# 3 33.1199 48.7556 119.3533 0.0000 0.0000 0.0000
# 4 0.0000 0.0000 0.0000 32.7756 0.0000 0.0000
# 5 0.0000 0.0000 0.0000 0.0000 30.8969 0.0000
# 6 0.0000 0.0000 0.0000 0.0000 0.0000 26.9976
#
#
#
# Elastic Compliance Matrix: (Units=1/GPa)
#
#
# Indices 1 2 3 4 5 6 
#
# 1 0.016426 -0.006448 -0.001924 0.000000 0.000000 0.000000
# 2 -0.006448 0.015567 -0.004570 0.000000 0.000000 0.000000
# 3 -0.001924 -0.004570 0.010779 0.000000 0.000000 0.000000
# 4 0.000000 0.000000 0.000000 0.030510 0.000000 0.000000
# 5 0.000000 0.000000 0.000000 0.000000 0.032366 0.000000
# 6 0.000000 0.000000 0.000000 0.000000 0.000000 0.037040
#
#
# Mechanical properties :
#
#
# Convention : Reuss Voigt Hill
#
# Bulk Modulus (GPa) = 59.21183 60.98903 60.10043
# Shear Modulus (GPa) = 28.70213 29.62413 29.16313
#
# Velocity S-wave (km/s) = 3.79866 3.85919 3.82904
# Velocity P-wave (km/s) = 7.00058 7.10771 7.05435
#
# Compressibility (1/GPa) = 0.01688852
#
# Stress axis : x y z
#
# Youngs Moduli (GPa) = 60.87901 64.23654 92.77074
#
# Poissons Ratio (x) = 0.41419 0.17850
# Poissons Ratio (y) = 0.39255 0.42396
# Poissons Ratio (z) = 0.11714 0.29356
#
# Static dielectric constant tensor:
#      x y z
#    x 3.571340 0.000000 0.000000 
#    y 0.000000 3.552960 0.000000 
#    z 0.000000 0.000000 3.684310 
# 
# 
# High freq. dielectric constant tensor:
#      x y z
#    x 1.773940 0.000000 0.000000 
#    y 0.000000 1.772360 0.000000 
#    z 0.000000 0.000000 1.784030 
# 
# From -- ./inp_files/27216.got.cif
#   From: 2010.03.12/outbox.cif.g09.slc.cpg/sg62_14_cif.got.tgz:27216.got - 2010.04.10 19:12:36.
