data_PCOD8252956
_publ_section_title
;
Structure prediction by ZEFSAII (Michael W. Deem and Ramdas Pophale) SiO2 
 PCOD8252956
Probable space group: P N M A
;
_chemical_formula_sum "Si O2"
_cell_formula_units_Z 64
_cell_length_a 28.855622
_cell_length_b 12.995821
_cell_length_c 8.809799
_cell_angle_alpha 90.000000
_cell_angle_beta 90.000000
_cell_angle_gamma 90.000000
_cell_volume 3303.696635
_symmetry_space_group_name_H-M "P N M A"
_symmetry_group_IT_number 62
_symmetry_cell_setting 'orthorhombic'
loop_
_space_group_symop_operation_xyz
x,y,z
1/2-x,-y,1/2+z
1/2+x,1/2-y,1/2-z
-x,1/2+y,-z
-x,-y,-z
1/2+x,y,1/2-z
1/2-x,1/2+y,1/2+z
x,1/2-y,z
loop_
_atom_site_type_symbol
_atom_site_label
_atom_site_fract_x
_atom_site_fract_y
_atom_site_fract_z
Si Si1 0.920773 0.869162 0.633106
Si Si2 0.234570 0.460969 0.978156
Si Si3 0.172302 0.631788 0.455067
Si Si4 0.424867 0.484222 0.437794
Si Si5 0.121185 0.468592 0.629621
Si Si6 0.283627 0.628198 0.150371
Si Si7 0.351029 0.507419 0.678464
Si Si8 0.488360 0.867517 0.611907
O O1 0.917805 0.750000 0.598827
O O2 0.921595 0.929678 0.473647
O O3 0.875061 0.901510 0.727661
O O4 0.967576 0.898377 0.723690
O O5 0.252346 0.578306 0.014712
O O6 0.188966 0.439352 0.077745
O O7 0.276011 0.382702 0.023158
O O8 0.224237 0.440967 0.801201
O O9 0.159243 0.750000 0.437431
O O10 0.136129 0.581415 0.571494
O O11 0.170205 0.578885 0.288929
O O12 0.393879 0.525632 0.301855
O O13 0.389840 0.453275 0.572330
O O14 0.456394 0.387064 0.389971
O O15 0.461193 0.572923 0.480546
O O16 0.162544 0.385734 0.608115
O O17 0.271741 0.750000 0.171203
O O18 0.478316 0.750000 0.576969
#
# Coordination Sequence:
#
# PCOD8252956 Si02
#       8
#     8   8   8   8   8   8   8   8
#     4   9  19  36  55  80 110 144 182 230 287 342
#     4  11  21  37  57  82 115 151 199 238 284 341
#     4  10  22  39  57  79 116 160 194 235 287 337
#     4  10  20  37  59  84 114 143 183 241 288 331
#     4  10  21  37  59  86 117 146 195 239 283 346
#     4  11  23  39  59  84 119 156 193 243 289 334
#     4  10  20  36  57  78 111 147 189 236 278 343
#     4   9  20  37  57  82 113 147 184 228 290 354
#
# _framework density 19.372237999999999
#
# number of rings (size 3 to 8) (size 9 to 14) (size 15 to 20)
#    0.000    2.000    2.500    0.750    0.000    3.500 
#    0.000    3.125    0.000    0.000    0.000    0.000 
#    0.000    0.000    0.000    0.000    0.000    0.000 
#
# Total GULP energy -793389.412777 kJ/mol
# GULP energy per Si atom -12396.709575 kJ/mol
# Density = 1.932815 g / cm^3
# Si number density = 19.372238 Si / 1000 Ang^3
#
#
#
# Elastic Constant Matrix: (Units=GPa)
#
#
# Indices 1 2 3 4 5 6 
#
# 1 73.3731 14.7670 21.3152 0.0000 0.0000 0.0000
# 2 14.7670 79.5713 31.3691 0.0000 0.0000 0.0000
# 3 21.3152 31.3691 84.6305 0.0000 0.0000 0.0000
# 4 0.0000 0.0000 0.0000 17.8554 0.0000 0.0000
# 5 0.0000 0.0000 0.0000 0.0000 22.1106 0.0000
# 6 0.0000 0.0000 0.0000 0.0000 0.0000 18.7354
#
#
#
# Elastic Compliance Matrix: (Units=1/GPa)
#
#
# Indices 1 2 3 4 5 6 
#
# 1 0.014856 -0.001501 -0.003185 0.000000 0.000000 0.000000
# 2 -0.001501 0.014870 -0.005133 0.000000 0.000000 0.000000
# 3 -0.003185 -0.005133 0.014521 0.000000 0.000000 0.000000
# 4 0.000000 0.000000 0.000000 0.056005 0.000000 0.000000
# 5 0.000000 0.000000 0.000000 0.000000 0.045227 0.000000
# 6 0.000000 0.000000 0.000000 0.000000 0.000000 0.053375
#
#
# Mechanical properties :
#
#
# Convention : Reuss Voigt Hill
#
# Bulk Modulus (GPa) = 40.63877 41.38639 41.01258
# Shear Modulus (GPa) = 22.05584 23.08185 22.56885
#
# Velocity S-wave (km/s) = 3.37787 3.45554 3.41693
# Velocity P-wave (km/s) = 6.01969 6.10992 6.06498
#
# Compressibility (1/GPa) = 0.02460704
#
# Stress axis : x y z
#
# Youngs Moduli (GPa) = 67.31068 67.25072 68.86529
#
# Poissons Ratio (x) = 0.10097 0.21936
# Poissons Ratio (y) = 0.10106 0.35352
# Poissons Ratio (z) = 0.21440 0.34523
#
# Static dielectric constant tensor:
#      x y z
#    x 3.755700 0.000000 0.000000 
#    y 0.000000 3.302960 0.000000 
#    z 0.000000 0.000000 3.609210 
# 
# 
# High freq. dielectric constant tensor:
#      x y z
#    x 1.759160 0.000000 0.000000 
#    y 0.000000 1.731100 0.000000 
#    z 0.000000 0.000000 1.757230 
# 
# From -- ./inp_files/10462.got.cif
#   From: 2010.03.12/outbox.cif.g09.slc.cpg/sg62_6_cif.got.tgz:10462.got - 2010.04.10 19:12:36.
