data_PCOD8252728
_publ_section_title
;
Structure prediction by ZEFSAII (Michael W. Deem and Ramdas Pophale) SiO2 
 PCOD8252728
Probable space group: P N M A
;
_chemical_formula_sum "Si O2"
_cell_formula_units_Z 64
_cell_length_a 24.335985
_cell_length_b 9.188204
_cell_length_c 14.573263
_cell_angle_alpha 90.000000
_cell_angle_beta 90.000000
_cell_angle_gamma 90.000000
_cell_volume 3258.639823
_symmetry_space_group_name_H-M "P N M A"
_symmetry_group_IT_number 62
_symmetry_cell_setting 'orthorhombic'
loop_
_space_group_symop_operation_xyz
x,y,z
1/2-x,-y,1/2+z
1/2+x,1/2-y,1/2-z
-x,1/2+y,-z
-x,-y,-z
1/2+x,y,1/2-z
1/2-x,1/2+y,1/2+z
x,1/2-y,z
loop_
_atom_site_type_symbol
_atom_site_label
_atom_site_fract_x
_atom_site_fract_y
_atom_site_fract_z
Si Si1 0.437094 0.081881 0.240325
Si Si2 0.354804 0.583636 0.898519
Si Si3 0.141619 0.078674 0.609071
Si Si4 0.141573 0.921329 0.109069
Si Si5 0.854844 0.416360 0.101476
Si Si6 0.749980 0.087033 0.607368
Si Si7 0.750022 0.584625 0.889092
Si Si8 0.062900 0.418125 0.240378
O O1 0.431309 0.250000 0.210162
O O2 0.408717 0.053867 0.338430
O O3 0.499999 0.034987 0.249934
O O4 0.410863 0.980755 0.162843
O O5 0.335661 0.750000 0.894430
O O6 0.304673 0.491335 0.856074
O O7 0.408680 0.553823 0.838442
O O8 0.368490 0.539222 0.002680
O O9 0.148340 0.250000 0.624889
O O10 0.196105 0.998581 0.647395
O O11 0.148290 0.750000 0.124883
O O12 0.196061 0.001413 0.147390
O O13 0.089095 0.980770 0.162849
O O14 0.131460 0.960790 0.002680
O O15 0.835691 0.250000 0.105539
O O16 0.804715 0.508669 0.143921
O O17 0.749980 0.250000 0.645652
O O18 0.749981 0.080747 0.498151
O O19 0.750024 0.750000 0.851728
O O20 0.068673 0.250000 0.210223
#
# Coordination Sequence:
#
# PCOD8252728 Si02
#       8
#     8   8   8   8   8   8   8   8
#     4  10  22  39  56  76 105 144 188 225 262 318
#     4   9  19  36  56  78 108 143 174 213 269 323
#     4  10  20  35  56  82 110 139 174 220 271 317
#     4  10  20  35  56  82 110 139 174 220 271 317
#     4   9  19  36  56  78 108 143 174 213 269 323
#     4   9  17  30  53  84 110 134 172 218 261 315
#     4   9  17  32  55  82 110 140 174 212 261 323
#     4  10  22  39  56  76 105 144 188 225 262 318
#
# _framework density 19.640097000000001
#
# number of rings (size 3 to 8) (size 9 to 14) (size 15 to 20)
#    0.000    2.500    0.000    1.500    0.000    7.500 
#    0.000    1.250    0.000    0.000    0.000    0.000 
#    0.000    0.000    0.000    0.000    0.000    0.000 
#
# Total GULP energy -793817.618274 kJ/mol
# GULP energy per Si atom -12403.400286 kJ/mol
# Density = 1.959540 g / cm^3
# Si number density = 19.640097 Si / 1000 Ang^3
#
#
#
# Elastic Constant Matrix: (Units=GPa)
#
#
# Indices 1 2 3 4 5 6 
#
# 1 179.1159 81.9509 57.9462 0.0000 0.0000 0.0000
# 2 81.9509 117.6634 48.7931 0.0000 0.0000 0.0000
# 3 57.9462 48.7931 73.0528 0.0000 0.0000 0.0000
# 4 0.0000 0.0000 0.0000 25.6112 0.0000 0.0000
# 5 0.0000 0.0000 0.0000 0.0000 27.3970 0.0000
# 6 0.0000 0.0000 0.0000 0.0000 0.0000 35.0181
#
#
#
# Elastic Compliance Matrix: (Units=1/GPa)
#
#
# Indices 1 2 3 4 5 6 
#
# 1 0.008995 -0.004573 -0.004081 0.000000 0.000000 0.000000
# 2 -0.004573 0.014079 -0.005776 0.000000 0.000000 0.000000
# 3 -0.004081 -0.005776 0.020784 0.000000 0.000000 0.000000
# 4 0.000000 0.000000 0.000000 0.039045 0.000000 0.000000
# 5 0.000000 0.000000 0.000000 0.000000 0.036500 0.000000
# 6 0.000000 0.000000 0.000000 0.000000 0.000000 0.028557
#
#
# Mechanical properties :
#
#
# Convention : Reuss Voigt Hill
#
# Bulk Modulus (GPa) = 66.67558 83.02361 74.84960
# Shear Modulus (GPa) = 27.49958 29.68139 28.59048
#
# Velocity S-wave (km/s) = 3.74595 3.89172 3.81953
# Velocity P-wave (km/s) = 7.26168 7.90938 7.59244
#
# Compressibility (1/GPa) = 0.01499799
#
# Stress axis : x y z
#
# Youngs Moduli (GPa) = 111.16709 71.02695 48.11397
#
# Poissons Ratio (x) = 0.32480 0.19635
# Poissons Ratio (y) = 0.50836 0.27793
# Poissons Ratio (z) = 0.45367 0.41028
#
# Static dielectric constant tensor:
#      x y z
#    x 3.557420 0.000000 0.000000 
#    y 0.000000 3.634620 0.000000 
#    z 0.000000 0.000000 3.459520 
# 
# 
# High freq. dielectric constant tensor:
#      x y z
#    x 1.760810 0.000000 0.000000 
#    y 0.000000 1.767540 0.000000 
#    z 0.000000 0.000000 1.761080 
# 
# From -- ./inp_files/21007.got.cif
#   From: 2010.03.12/outbox.cif.g09.slc.cpg/sg62_11_cif.got.tgz:21007.got - 2010.04.10 19:12:36.
