data_PCOD8252046
_publ_section_title
;
Structure prediction by ZEFSAII (Michael W. Deem and Ramdas Pophale) SiO2 
 PCOD8252046
Probable space group: P N M A
;
_chemical_formula_sum "Si O2"
_cell_formula_units_Z 60
_cell_length_a 5.263718
_cell_length_b 24.581720
_cell_length_c 25.275768
_cell_angle_alpha 90.000000
_cell_angle_beta 90.000000
_cell_angle_gamma 90.000000
_cell_volume 3270.463015
_symmetry_space_group_name_H-M "P N M A"
_symmetry_group_IT_number 62
_symmetry_cell_setting 'orthorhombic'
loop_
_space_group_symop_operation_xyz
x,y,z
1/2-x,-y,1/2+z
1/2+x,1/2-y,1/2-z
-x,1/2+y,-z
-x,-y,-z
1/2+x,y,1/2-z
1/2-x,1/2+y,1/2+z
x,1/2-y,z
loop_
_atom_site_type_symbol
_atom_site_label
_atom_site_fract_x
_atom_site_fract_y
_atom_site_fract_z
Si Si1 0.739421 0.153125 0.636334
Si Si2 0.737470 0.464685 0.686346
Si Si3 0.262568 0.490455 0.198769
Si Si4 0.766755 0.185622 0.044528
Si Si5 0.766687 0.314775 0.395729
Si Si6 0.785425 0.250000 0.715582
Si Si7 0.769390 0.685012 0.423855
Si Si8 0.734203 0.864302 0.780313
O O1 0.732875 0.096284 0.666206
O O2 0.788390 0.196824 0.680781
O O3 0.471554 0.163582 0.608307
O O4 0.971654 0.156382 0.595142
O O5 0.488656 0.496517 0.664365
O O6 0.739894 0.469300 0.750268
O O7 0.988540 0.495394 0.664036
O O8 0.266489 0.429201 0.218684
O O9 0.765918 0.250000 0.046499
O O10 0.515706 0.163441 0.073816
O O11 0.019275 0.163435 0.073194
O O12 0.768191 0.166223 0.984091
O O13 0.766201 0.250000 0.391220
O O14 0.764770 0.340164 0.338249
O O15 0.541450 0.250000 0.751792
O O16 0.793741 0.750000 0.417770
O O17 0.483894 0.843024 0.750115
#
# Coordination Sequence:
#
# PCOD8252046 Si02
#       8
#     8   8   8   8   8   4   8   8
#     4  12  23  36  53  82 108 151 193 234 288 337
#     4  10  20  33  54  71 105 136 185 240 263 310
#     4  10  19  37  51  76 101 141 194 231 260 316
#     4   9  19  36  59  80 113 151 186 235 276 324
#     4  10  21  36  55  90 120 150 187 214 276 350
#     4  12  26  36  46  72 120 154 180 210 286 356
#     4  11  20  38  57  81 112 145 191 244 280 340
#     4  12  21  36  58  84 121 151 186 227 268 327
#
# _framework density 18.346025000000001
#
# number of rings (size 3 to 8) (size 9 to 14) (size 15 to 20)
#    0.000    1.333    4.000    3.200    3.733    2.667 
#    0.000    0.000    0.000    0.000    0.000   18.667 
#    0.000    0.000    0.000    0.000    0.000    0.000 
#
# Total GULP energy -743855.491075 kJ/mol
# GULP energy per Si atom -12397.591518 kJ/mol
# Density = 1.830427 g / cm^3
# Si number density = 18.346025 Si / 1000 Ang^3
#
#
#
# Elastic Constant Matrix: (Units=GPa)
#
#
# Indices 1 2 3 4 5 6 
#
# 1 152.7055 15.2722 26.9839 0.0000 0.0000 0.0000
# 2 15.2722 33.1725 23.4400 0.0000 0.0000 0.0000
# 3 26.9839 23.4400 89.5859 0.0000 0.0000 0.0000
# 4 0.0000 0.0000 0.0000 14.9513 0.0000 0.0000
# 5 0.0000 0.0000 0.0000 0.0000 37.3387 0.0000
# 6 0.0000 0.0000 0.0000 0.0000 0.0000 14.3298
#
#
#
# Elastic Compliance Matrix: (Units=1/GPa)
#
#
# Indices 1 2 3 4 5 6 
#
# 1 0.007038 -0.002137 -0.001561 0.000000 0.000000 0.000000
# 2 -0.002137 0.037632 -0.009203 0.000000 0.000000 0.000000
# 3 -0.001561 -0.009203 0.014040 0.000000 0.000000 0.000000
# 4 0.000000 0.000000 0.000000 0.066884 0.000000 0.000000
# 5 0.000000 0.000000 0.000000 0.000000 0.026782 0.000000
# 6 0.000000 0.000000 0.000000 0.000000 0.000000 0.069785
#
#
# Mechanical properties :
#
#
# Convention : Reuss Voigt Hill
#
# Bulk Modulus (GPa) = 30.38659 45.20623 37.79641
# Shear Modulus (GPa) = 19.31006 27.30847 23.30927
#
# Velocity S-wave (km/s) = 3.24782 3.86232 3.56832
# Velocity P-wave (km/s) = 5.53746 6.67716 6.13383
#
# Compressibility (1/GPa) = 0.03290925
#
# Stress axis : x y z
#
# Youngs Moduli (GPa) = 142.08383 26.57300 71.22307
#
# Poissons Ratio (x) = 0.05680 0.11116
# Poissons Ratio (y) = 0.30370 0.65544
# Poissons Ratio (z) = 0.22174 0.24454
#
# Static dielectric constant tensor:
#      x y z
#    x 4.529420 0.000000 0.000000 
#    y 0.000000 3.123790 0.000000 
#    z 0.000000 0.000000 3.271080 
# 
# 
# High freq. dielectric constant tensor:
#      x y z
#    x 1.750850 0.000000 0.000000 
#    y 0.000000 1.682710 0.000000 
#    z 0.000000 0.000000 1.690800 
# 
# From -- ./inp_files/25419.got.cif
#   From: 2010.03.12/outbox.cif.g09.slc.cpg/sg62_13_cif.got.tgz:25419.got - 2010.04.10 19:12:36.
