data_PCOD8252379
_publ_section_title
;
Structure prediction by ZEFSAII (Michael W. Deem and Ramdas Pophale) SiO2 
 PCOD8252379
Probable space group: P N M A
;
_chemical_formula_sum "Si O2"
_cell_formula_units_Z 40
_cell_length_a 13.377823
_cell_length_b 9.096630
_cell_length_c 18.327698
_cell_angle_alpha 90.000000
_cell_angle_beta 90.000000
_cell_angle_gamma 90.000000
_cell_volume 2230.354496
_symmetry_space_group_name_H-M "P N M A"
_symmetry_group_IT_number 62
_symmetry_cell_setting 'orthorhombic'
loop_
_space_group_symop_operation_xyz
x,y,z
1/2-x,-y,1/2+z
1/2+x,1/2-y,1/2-z
-x,1/2+y,-z
-x,-y,-z
1/2+x,y,1/2-z
1/2-x,1/2+y,1/2+z
x,1/2-y,z
loop_
_atom_site_type_symbol
_atom_site_label
_atom_site_fract_x
_atom_site_fract_y
_atom_site_fract_z
Si Si1 0.905665 0.575923 0.167556
Si Si2 0.305456 0.578298 0.478637
Si Si3 0.831218 0.577151 0.322338
Si Si4 0.380907 0.078723 0.616259
Si Si5 0.908549 0.077263 0.461257
O O1 0.899673 0.750000 0.170507
O O2 0.837705 0.517822 0.100695
O O3 0.862284 0.514120 0.243374
O O4 0.020033 0.522880 0.157809
O O5 0.327178 0.750000 0.485576
O O6 0.373633 0.501355 0.539020
O O7 0.189177 0.542093 0.490503
O O8 0.853906 0.750000 0.331116
O O9 0.713907 0.542910 0.332739
O O10 0.896757 0.490024 0.381010
O O11 0.388546 0.250000 0.598708
O O12 0.928419 0.250000 0.454614
O O13 0.000000 0.000000 0.500000
#
# Coordination Sequence:
#
# PCOD8252379 Si02
#       5
#     8   8   8   8   8
#     4   9  17  30  50  74  97 126 164 200 238 288
#     4   9  18  32  50  72  97 126 162 202 243 289
#     4   9  18  32  49  71  99 127 159 200 241 283
#     4   9  17  30  49  71  96 127 161 198 240 286
#     4  10  20  34  52  72  97 130 165 200 241 288
#
# _framework density 17.934369
#
# number of rings (size 3 to 8) (size 9 to 14) (size 15 to 20)
#    0.000    2.800    0.000    1.200    0.000    2.400 
#    0.000    8.000    0.000    4.800    0.000    0.000 
#    0.000    0.000    0.000    0.000    0.000    0.000 
#
# Total GULP energy -495999.450138 kJ/mol
# GULP energy per Si atom -12399.986253 kJ/mol
# Density = 1.789355 g / cm^3
# Si number density = 17.934369 Si / 1000 Ang^3
#
#
#
# Elastic Constant Matrix: (Units=GPa)
#
#
# Indices 1 2 3 4 5 6 
#
# 1 123.7782 37.3586 102.4615 0.0000 0.0000 0.0000
# 2 37.3586 41.7425 47.4946 0.0000 0.0000 0.0000
# 3 102.4615 47.4946 189.0204 0.0000 0.0000 0.0000
# 4 0.0000 0.0000 0.0000 27.6407 0.0000 0.0000
# 5 0.0000 0.0000 0.0000 0.0000 31.4243 0.0000
# 6 0.0000 0.0000 0.0000 0.0000 0.0000 19.0734
#
#
#
# Elastic Compliance Matrix: (Units=1/GPa)
#
#
# Indices 1 2 3 4 5 6 
#
# 1 0.015695 -0.006115 -0.006971 0.000000 0.000000 0.000000
# 2 -0.006115 0.035930 -0.005713 0.000000 0.000000 0.000000
# 3 -0.006971 -0.005713 0.010505 0.000000 0.000000 0.000000
# 4 0.000000 0.000000 0.000000 0.036179 0.000000 0.000000
# 5 0.000000 0.000000 0.000000 0.000000 0.031823 0.000000
# 6 0.000000 0.000000 0.000000 0.000000 0.000000 0.052429
#
#
# Mechanical properties :
#
#
# Convention : Reuss Voigt Hill
#
# Bulk Modulus (GPa) = 40.76515 81.01897 60.89206
# Shear Modulus (GPa) = 21.89751 26.77609 24.33680
#
# Velocity S-wave (km/s) = 3.49804 3.86813 3.68773
# Velocity P-wave (km/s) = 6.25257 8.07609 7.22211
#
# Compressibility (1/GPa) = 0.02453076
#
# Stress axis : x y z
#
# Youngs Moduli (GPa) = 63.71275 27.83217 95.19281
#
# Poissons Ratio (x) = 0.17019 0.66364
# Poissons Ratio (y) = 0.38960 0.54386
# Poissons Ratio (z) = 0.44417 0.15901
#
# Static dielectric constant tensor:
#      x y z
#    x 3.478960 0.000000 0.000000 
#    y 0.000000 3.127120 0.000000 
#    z 0.000000 0.000000 3.613760 
# 
# 
# High freq. dielectric constant tensor:
#      x y z
#    x 1.702220 0.000000 0.000000 
#    y 0.000000 1.671130 0.000000 
#    z 0.000000 0.000000 1.696850 
# 
# From -- ./inp_files/18736.got.cif
#   From: 2010.03.12/outbox.cif.g09.slc.cpg/sg62_10_cif.got.tgz:18736.got - 2010.04.10 19:12:36.
