data_PCOD8252878
_publ_section_title
;
Structure prediction by ZEFSAII (Michael W. Deem and Ramdas Pophale) SiO2 
 PCOD8252878
Probable space group: P N M A
;
_chemical_formula_sum "Si O2"
_cell_formula_units_Z 56
_cell_length_a 21.845473
_cell_length_b 8.915869
_cell_length_c 14.536926
_cell_angle_alpha 90.000000
_cell_angle_beta 90.000000
_cell_angle_gamma 90.000000
_cell_volume 2831.377073
_symmetry_space_group_name_H-M "P N M A"
_symmetry_group_IT_number 62
_symmetry_cell_setting 'orthorhombic'
loop_
_space_group_symop_operation_xyz
x,y,z
1/2-x,-y,1/2+z
1/2+x,1/2-y,1/2-z
-x,1/2+y,-z
-x,-y,-z
1/2+x,y,1/2-z
1/2-x,1/2+y,1/2+z
x,1/2-y,z
loop_
_atom_site_type_symbol
_atom_site_label
_atom_site_fract_x
_atom_site_fract_y
_atom_site_fract_z
Si Si1 0.807130 0.423848 0.190896
Si Si2 0.937239 0.575874 0.888958
Si Si3 0.158546 0.928092 0.611821
Si Si4 0.979680 0.428426 0.405348
Si Si5 0.075721 0.921711 0.926701
Si Si6 0.083355 0.927235 0.293187
Si Si7 0.801956 0.072736 0.585041
O O1 0.789439 0.250000 0.186815
O O2 0.806148 0.483933 0.296398
O O3 0.875074 0.452113 0.152442
O O4 0.759498 0.512223 0.129364
O O5 0.923213 0.750000 0.872815
O O6 0.903176 0.479308 0.810753
O O7 0.009459 0.539099 0.885363
O O8 0.909180 0.526983 0.986614
O O9 0.157888 0.750000 0.610659
O O10 0.088820 0.984489 0.615163
O O11 0.191748 0.989183 0.519595
O O12 0.983888 0.250000 0.412019
O O13 0.000000 0.500000 0.500000
O O14 0.022302 0.487491 0.324011
O O15 0.077048 0.750000 0.960708
O O16 0.073490 0.750000 0.299121
O O17 0.139459 0.980537 0.356773
O O18 0.798261 0.250000 0.584911
#
# Coordination Sequence:
#
# PCOD8252878 Si02
#       7
#     8   8   8   8   8   8   8
#     4  10  21  38  61  83 108 149 198 239 282 341
#     4  10  20  35  59  87 114 150 191 233 284 348
#     4   9  19  39  61  81 113 153 187 230 293 351
#     4  11  20  35  60  88 117 151 190 236 296 359
#     4   9  19  37  57  83 117 149 184 236 293 340
#     4  11  22  37  56  84 120 154 188 238 298 346
#     4  10  22  40  57  78 113 152 189 233 288 341
#
# _framework density 19.778362000000001
#
# number of rings (size 3 to 8) (size 9 to 14) (size 15 to 20)
#    0.000    2.000    1.429    2.143    0.000    5.714 
#    0.000    6.429    0.000    0.000    0.000    0.000 
#    0.000    0.000    0.000    0.000    0.000    0.000 
#
# Total GULP energy -694501.878496 kJ/mol
# GULP energy per Si atom -12401.819259 kJ/mol
# Density = 1.973335 g / cm^3
# Si number density = 19.778362 Si / 1000 Ang^3
#
#
#
# Elastic Constant Matrix: (Units=GPa)
#
#
# Indices 1 2 3 4 5 6 
#
# 1 72.0309 15.3959 41.1004 0.0000 0.0000 0.0000
# 2 15.3959 43.2426 25.9269 0.0000 0.0000 0.0000
# 3 41.1004 25.9269 139.2821 0.0000 0.0000 0.0000
# 4 0.0000 0.0000 0.0000 34.4254 0.0000 0.0000
# 5 0.0000 0.0000 0.0000 0.0000 29.5662 0.0000
# 6 0.0000 0.0000 0.0000 0.0000 0.0000 31.1860
#
#
#
# Elastic Compliance Matrix: (Units=1/GPa)
#
#
# Indices 1 2 3 4 5 6 
#
# 1 0.017141 -0.003456 -0.004415 0.000000 0.000000 0.000000
# 2 -0.003456 0.026727 -0.003955 0.000000 0.000000 0.000000
# 3 -0.004415 -0.003955 0.009219 0.000000 0.000000 0.000000
# 4 0.000000 0.000000 0.000000 0.029048 0.000000 0.000000
# 5 0.000000 0.000000 0.000000 0.000000 0.033822 0.000000
# 6 0.000000 0.000000 0.000000 0.000000 0.000000 0.032066
#
#
# Mechanical properties :
#
#
# Convention : Reuss Voigt Hill
#
# Bulk Modulus (GPa) = 33.97345 46.60022 40.28683
# Shear Modulus (GPa) = 27.55029 30.51102 29.03066
#
# Velocity S-wave (km/s) = 3.73628 3.93191 3.83534
# Velocity P-wave (km/s) = 5.98560 6.65024 6.32665
#
# Compressibility (1/GPa) = 0.02943475
#
# Stress axis : x y z
#
# Youngs Moduli (GPa) = 58.34112 37.41496 108.47536
#
# Poissons Ratio (x) = 0.12930 0.47889
# Poissons Ratio (y) = 0.20161 0.42907
# Poissons Ratio (z) = 0.25756 0.14799
#
# Static dielectric constant tensor:
#      x y z
#    x -12.902410 0.000000 0.000000 
#    y 0.000000 3.428760 0.000000 
#    z 0.000000 0.000000 4.070600 
# 
# 
# High freq. dielectric constant tensor:
#      x y z
#    x 1.761530 0.000000 0.000000 
#    y 0.000000 1.753760 0.000000 
#    z 0.000000 0.000000 1.789610 
# 
# From -- ./inp_files/20278.got.cif
#   From: 2010.03.12/outbox.cif.g09.slc.cpg/sg62_11_cif.got.tgz:20278.got - 2010.04.10 19:12:36.
