data_PCOD8252653
_publ_section_title
;
Structure prediction by ZEFSAII (Michael W. Deem and Ramdas Pophale) SiO2 
 PCOD8252653
Probable space group: P N M A
;
_chemical_formula_sum "Si O2"
_cell_formula_units_Z 64
_cell_length_a 12.633832
_cell_length_b 9.488230
_cell_length_c 28.849160
_cell_angle_alpha 90.000000
_cell_angle_beta 90.000000
_cell_angle_gamma 90.000000
_cell_volume 3458.226811
_symmetry_space_group_name_H-M "P N M A"
_symmetry_group_IT_number 62
_symmetry_cell_setting 'orthorhombic'
loop_
_space_group_symop_operation_xyz
x,y,z
1/2-x,-y,1/2+z
1/2+x,1/2-y,1/2-z
-x,1/2+y,-z
-x,-y,-z
1/2+x,y,1/2-z
1/2-x,1/2+y,1/2+z
x,1/2-y,z
loop_
_atom_site_type_symbol
_atom_site_label
_atom_site_fract_x
_atom_site_fract_y
_atom_site_fract_z
Si Si1 0.710416 0.412937 0.535704
Si Si2 0.609047 0.582596 0.889377
Si Si3 0.472500 0.586056 0.394983
Si Si4 0.046595 0.590779 0.710762
Si Si5 0.668871 0.413702 0.430482
Si Si6 0.876684 0.586086 0.204031
Si Si7 0.388863 0.588338 0.924944
Si Si8 0.186876 0.404499 0.322102
O O1 0.737502 0.250000 0.544247
O O2 0.624097 0.467462 0.572801
O O3 0.661420 0.438640 0.485227
O O4 0.821076 0.496613 0.538950
O O5 0.598326 0.750000 0.888379
O O6 0.601289 0.530138 0.836136
O O7 0.718120 0.530185 0.911828
O O8 0.509222 0.528690 0.920301
O O9 0.494115 0.750000 0.404894
O O10 0.577643 0.500214 0.405718
O O11 0.445570 0.556679 0.341672
O O12 0.086853 0.750000 0.721050
O O13 0.921338 0.590015 0.705787
O O14 0.070355 0.488496 0.752751
O O15 0.654778 0.250000 0.417776
O O16 0.867182 0.750000 0.214777
O O17 0.759449 0.527136 0.197587
O O18 0.388452 0.750000 0.941846
O O19 0.331897 0.570623 0.875985
O O20 0.239500 0.250000 0.314810
#
# Coordination Sequence:
#
# PCOD8252653 Si02
#       8
#     8   8   8   8   8   8   8   8
#     4  10  20  35  54  80 111 143 179 224 276 322
#     4   8  17  36  56  79 110 140 175 227 277 314
#     4  10  22  38  52  73 111 146 177 226 276 316
#     4   9  19  36  57  79 106 139 179 225 272 322
#     4  10  21  36  57  80 107 146 186 222 268 329
#     4  11  22  35  54  80 110 142 176 223 277 328
#     4   9  17  32  57  81 104 137 178 221 265 319
#     4   9  18  34  55  77 101 136 179 222 264 315
#
# _framework density 18.506594
#
# number of rings (size 3 to 8) (size 9 to 14) (size 15 to 20)
#    0.000    2.500    1.250    2.250    0.000    4.000 
#    0.000    6.875    0.000    0.000    0.000    0.000 
#    0.000    0.000    0.000    0.000    0.000    0.000 
#
# Total GULP energy -793568.306609 kJ/mol
# GULP energy per Si atom -12399.504791 kJ/mol
# Density = 1.846447 g / cm^3
# Si number density = 18.506594 Si / 1000 Ang^3
#
#
#
# Elastic Constant Matrix: (Units=GPa)
#
#
# Indices 1 2 3 4 5 6 
#
# 1 106.5739 45.1121 37.3778 0.0000 0.0000 0.0000
# 2 45.1121 66.5951 31.9132 0.0000 0.0000 0.0000
# 3 37.3778 31.9132 56.0541 0.0000 0.0000 0.0000
# 4 0.0000 0.0000 0.0000 25.9715 0.0000 0.0000
# 5 0.0000 0.0000 0.0000 0.0000 20.1706 0.0000
# 6 0.0000 0.0000 0.0000 0.0000 0.0000 24.0986
#
#
#
# Elastic Compliance Matrix: (Units=1/GPa)
#
#
# Indices 1 2 3 4 5 6 
#
# 1 0.014302 -0.007038 -0.005530 0.000000 0.000000 0.000000
# 2 -0.007038 0.024114 -0.009035 0.000000 0.000000 0.000000
# 3 -0.005530 -0.009035 0.026671 0.000000 0.000000 0.000000
# 4 0.000000 0.000000 0.000000 0.038504 0.000000 0.000000
# 5 0.000000 0.000000 0.000000 0.000000 0.049577 0.000000
# 6 0.000000 0.000000 0.000000 0.000000 0.000000 0.041496
#
#
# Mechanical properties :
#
#
# Convention : Reuss Voigt Hill
#
# Bulk Modulus (GPa) = 45.70330 50.89213 48.29772
# Shear Modulus (GPa) = 20.39452 21.70281 21.04866
#
# Velocity S-wave (km/s) = 3.32326 3.42820 3.37614
# Velocity P-wave (km/s) = 6.28289 6.57489 6.43055
#
# Compressibility (1/GPa) = 0.02188026
#
# Stress axis : x y z
#
# Youngs Moduli (GPa) = 69.92152 41.47001 37.49355
#
# Poissons Ratio (x) = 0.29188 0.20732
# Poissons Ratio (y) = 0.49213 0.33877
# Poissons Ratio (z) = 0.38663 0.37470
#
# Static dielectric constant tensor:
#      x y z
#    x 3.481150 0.000000 0.000000 
#    y 0.000000 3.290890 0.000000 
#    z 0.000000 0.000000 3.402670 
# 
# 
# High freq. dielectric constant tensor:
#      x y z
#    x 1.720800 0.000000 0.000000 
#    y 0.000000 1.700980 0.000000 
#    z 0.000000 0.000000 1.718620 
# 
# From -- ./inp_files/32549.got.cif
#   From: 2010.03.12/outbox.cif.g09.slc.cpg/sg62_17_cif.got.tgz:32549.got - 2010.04.10 19:12:36.
