data_PCOD8252891
_publ_section_title
;
Structure prediction by ZEFSAII (Michael W. Deem and Ramdas Pophale) SiO2 
 PCOD8252891
Probable space group: P N M A
;
_chemical_formula_sum "Si O2"
_cell_formula_units_Z 56
_cell_length_a 14.268227
_cell_length_b 9.041742
_cell_length_c 21.524394
_cell_angle_alpha 90.000000
_cell_angle_beta 90.000000
_cell_angle_gamma 90.000000
_cell_volume 2776.854048
_symmetry_space_group_name_H-M "P N M A"
_symmetry_group_IT_number 62
_symmetry_cell_setting 'orthorhombic'
loop_
_space_group_symop_operation_xyz
x,y,z
1/2-x,-y,1/2+z
1/2+x,1/2-y,1/2-z
-x,1/2+y,-z
-x,-y,-z
1/2+x,y,1/2-z
1/2-x,1/2+y,1/2+z
x,1/2-y,z
loop_
_atom_site_type_symbol
_atom_site_label
_atom_site_fract_x
_atom_site_fract_y
_atom_site_fract_z
Si Si1 0.622101 0.078498 0.336917
Si Si2 0.695778 0.078097 0.805315
Si Si3 0.076707 0.419666 0.575967
Si Si4 0.089650 0.080813 0.025605
Si Si5 0.293955 0.920513 0.406882
Si Si6 0.411672 0.077719 0.303426
Si Si7 0.389629 0.577590 0.935200
O O1 0.651297 0.250000 0.335960
O O2 0.618827 0.016577 0.407469
O O3 0.523084 0.052470 0.303503
O O4 0.699709 0.986310 0.299461
O O5 0.698132 0.250000 0.788101
O O6 0.658151 0.049163 0.874689
O O7 0.627473 0.996095 0.758263
O O8 0.042672 0.250000 0.577799
O O9 0.117162 0.459482 0.508331
O O10 0.988289 0.522379 0.592068
O O11 0.059642 0.250000 0.034341
O O12 0.175650 0.061813 0.978438
O O13 0.000000 0.000000 0.000000
O O14 0.289244 0.750000 0.386489
O O15 0.368658 0.003398 0.364350
O O16 0.192192 0.992662 0.398861
O O17 0.386041 0.250000 0.304407
O O18 0.379056 0.750000 0.921262
#
# Coordination Sequence:
#
# PCOD8252891 Si02
#       7
#     8   8   8   8   8   8   8
#     4  10  22  41  63  89 121 158 200 246 301 361
#     4  11  24  41  63  88 118 158 202 249 299 355
#     4   9  20  39  59  85 119 156 199 246 297 353
#     4  10  20  35  59  90 122 157 195 243 301 359
#     4  11  22  36  58  89 123 157 195 244 301 359
#     4  11  24  42  62  84 117 157 199 246 292 351
#     4  10  20  35  60  89 119 156 197 244 298 354
#
# _framework density 20.166706999999999
#
# number of rings (size 3 to 8) (size 9 to 14) (size 15 to 20)
#    0.000    1.714    1.429    2.571    0.000    5.143 
#    0.000    2.857    0.000    0.000    0.000    0.000 
#    0.000    0.000    0.000    0.000    0.000    0.000 
#
# Total GULP energy -694696.234367 kJ/mol
# GULP energy per Si atom -12405.289899 kJ/mol
# Density = 2.012081 g / cm^3
# Si number density = 20.166707 Si / 1000 Ang^3
#
#
#
# Elastic Constant Matrix: (Units=GPa)
#
#
# Indices 1 2 3 4 5 6 
#
# 1 118.8036 67.2310 30.1124 0.0000 0.0000 0.0000
# 2 67.2310 115.8689 34.4095 0.0000 0.0000 0.0000
# 3 30.1124 34.4095 69.7276 0.0000 0.0000 0.0000
# 4 0.0000 0.0000 0.0000 32.3717 0.0000 0.0000
# 5 0.0000 0.0000 0.0000 0.0000 28.3332 0.0000
# 6 0.0000 0.0000 0.0000 0.0000 0.0000 38.9254
#
#
#
# Elastic Compliance Matrix: (Units=1/GPa)
#
#
# Indices 1 2 3 4 5 6 
#
# 1 0.012810 -0.006784 -0.002184 0.000000 0.000000 0.000000
# 2 -0.006784 0.013705 -0.003834 0.000000 0.000000 0.000000
# 3 -0.002184 -0.003834 0.017177 0.000000 0.000000 0.000000
# 4 0.000000 0.000000 0.000000 0.030891 0.000000 0.000000
# 5 0.000000 0.000000 0.000000 0.000000 0.035294 0.000000
# 6 0.000000 0.000000 0.000000 0.000000 0.000000 0.025690
#
#
# Mechanical properties :
#
#
# Convention : Reuss Voigt Hill
#
# Bulk Modulus (GPa) = 55.28518 63.10066 59.19292
# Shear Modulus (GPa) = 29.90415 31.43587 30.67001
#
# Velocity S-wave (km/s) = 3.85495 3.95245 3.90401
# Velocity P-wave (km/s) = 6.87661 7.22403 7.05246
#
# Compressibility (1/GPa) = 0.01808803
#
# Stress axis : x y z
#
# Youngs Moduli (GPa) = 78.06378 72.96452 58.21871
#
# Poissons Ratio (x) = 0.49500 0.12716
# Poissons Ratio (y) = 0.52960 0.22318
# Poissons Ratio (z) = 0.17051 0.27971
#
# Static dielectric constant tensor:
#      x y z
#    x 3.561150 0.000000 0.000000 
#    y 0.000000 4.654730 0.000000 
#    z 0.000000 0.000000 3.689180 
# 
# 
# High freq. dielectric constant tensor:
#      x y z
#    x 1.792900 0.000000 0.000000 
#    y 0.000000 1.792600 0.000000 
#    z 0.000000 0.000000 1.782280 
# 
# From -- ./inp_files/27275.got.cif
#   From: 2010.03.12/outbox.cif.g09.slc.cpg/sg62_14_cif.got.tgz:27275.got - 2010.04.10 19:12:36.
