data_PCOD8252411
_publ_section_title
;
Structure prediction by ZEFSAII (Michael W. Deem and Ramdas Pophale) SiO2 
 PCOD8252411
Probable space group: P N M A
;
_chemical_formula_sum "Si O2"
_cell_formula_units_Z 56
_cell_length_a 19.611201
_cell_length_b 9.301215
_cell_length_c 15.921720
_cell_angle_alpha 90.000000
_cell_angle_beta 90.000000
_cell_angle_gamma 90.000000
_cell_volume 2904.249053
_symmetry_space_group_name_H-M "P N M A"
_symmetry_group_IT_number 62
_symmetry_cell_setting 'orthorhombic'
loop_
_space_group_symop_operation_xyz
x,y,z
1/2-x,-y,1/2+z
1/2+x,1/2-y,1/2-z
-x,1/2+y,-z
-x,-y,-z
1/2+x,y,1/2-z
1/2-x,1/2+y,1/2+z
x,1/2-y,z
loop_
_atom_site_type_symbol
_atom_site_label
_atom_site_fract_x
_atom_site_fract_y
_atom_site_fract_z
Si Si1 0.281540 0.084909 0.880616
Si Si2 0.200981 0.082127 0.715649
Si Si3 0.765858 0.078619 0.958436
Si Si4 0.404267 0.087670 0.775030
Si Si5 0.483111 0.092850 0.420340
Si Si6 0.866384 0.906927 0.872084
Si Si7 0.445859 0.917208 0.269392
O O1 0.260593 0.250000 0.901419
O O2 0.237332 0.025630 0.801045
O O3 0.363476 0.076913 0.862828
O O4 0.271193 0.981695 0.959767
O O5 0.214683 0.250000 0.713069
O O6 0.229948 0.020219 0.627635
O O7 0.120239 0.044788 0.713992
O O8 0.770460 0.250000 0.965166
O O9 0.840350 0.003343 0.951380
O O10 0.401827 0.250000 0.739871
O O11 0.484201 0.040845 0.780925
O O12 0.356081 0.994840 0.713676
O O13 0.450465 0.250000 0.441934
O O14 0.553974 0.119000 0.375244
O O15 0.500000 0.000000 0.500000
O O16 0.436018 0.005181 0.355827
O O17 0.829868 0.750000 0.869482
O O18 0.446124 0.750000 0.293979
#
# Coordination Sequence:
#
# PCOD8252411 Si02
#       7
#     8   8   8   8   8   8   8
#     4  10  20  36  56  80 112 148 183 228 279 329
#     4   9  19  37  58  79 112 146 180 228 282 328
#     4  11  22  37  56  82 111 146 189 231 273 329
#     4   9  17  34  58  80 105 140 184 223 266 327
#     4  10  21  34  49  75 109 142 176 220 270 328
#     4  10  20  34  53  76 107 143 178 220 271 322
#     4   9  18  34  57  79 101 142 186 224 273 329
#
# _framework density 19.282093
#
# number of rings (size 3 to 8) (size 9 to 14) (size 15 to 20)
#    0.000    2.286    1.429    1.286    2.000    2.286 
#    0.000    2.143    0.000    0.000    0.000    0.000 
#    0.000    0.000    0.000    0.000    0.000    0.000 
#
# Total GULP energy -693764.791884 kJ/mol
# GULP energy per Si atom -12388.656998 kJ/mol
# Density = 1.923821 g / cm^3
# Si number density = 19.282093 Si / 1000 Ang^3
#
#
#
# Elastic Constant Matrix: (Units=GPa)
#
#
# Indices 1 2 3 4 5 6 
#
# 1 66.0598 15.5129 25.0810 0.0000 0.0000 0.0000
# 2 15.5129 91.2709 35.6137 0.0000 0.0000 0.0000
# 3 25.0810 35.6137 99.7031 0.0000 0.0000 0.0000
# 4 0.0000 0.0000 0.0000 33.3367 0.0000 0.0000
# 5 0.0000 0.0000 0.0000 0.0000 18.1785 0.0000
# 6 0.0000 0.0000 0.0000 0.0000 0.0000 17.9171
#
#
#
# Elastic Compliance Matrix: (Units=1/GPa)
#
#
# Indices 1 2 3 4 5 6 
#
# 1 0.016891 -0.001409 -0.003746 0.000000 0.000000 0.000000
# 2 -0.001409 0.012848 -0.004235 0.000000 0.000000 0.000000
# 3 -0.003746 -0.004235 0.012485 0.000000 0.000000 0.000000
# 4 0.000000 0.000000 0.000000 0.029997 0.000000 0.000000
# 5 0.000000 0.000000 0.000000 0.000000 0.055010 0.000000
# 6 0.000000 0.000000 0.000000 0.000000 0.000000 0.055812
#
#
# Mechanical properties :
#
#
# Convention : Reuss Voigt Hill
#
# Bulk Modulus (GPa) = 42.65433 45.49435 44.07434
# Shear Modulus (GPa) = 23.85067 25.94154 24.89610
#
# Velocity S-wave (km/s) = 3.52082 3.67191 3.59716
# Velocity P-wave (km/s) = 6.22073 6.45155 6.33719
#
# Compressibility (1/GPa) = 0.02344428
#
# Stress axis : x y z
#
# Youngs Moduli (GPa) = 59.20368 77.83079 80.09800
#
# Poissons Ratio (x) = 0.10969 0.30001
# Poissons Ratio (y) = 0.08344 0.33921
# Poissons Ratio (z) = 0.22175 0.32960
#
# Static dielectric constant tensor:
#      x y z
#    x 3.870710 0.000000 0.000000 
#    y 0.000000 3.598670 0.000000 
#    z 0.000000 0.000000 3.382590 
# 
# 
# High freq. dielectric constant tensor:
#      x y z
#    x 1.751350 0.000000 0.000000 
#    y 0.000000 1.744560 0.000000 
#    z 0.000000 0.000000 1.725380 
# 
# From -- ./inp_files/20209.got.cif
#   From: 2010.03.12/outbox.cif.g09.slc.cpg/sg62_11_cif.got.tgz:20209.got - 2010.04.10 19:12:36.
