data_PCOD8252595
_publ_section_title
;
Structure prediction by ZEFSAII (Michael W. Deem and Ramdas Pophale) SiO2 
 PCOD8252595
Probable space group: P N M A
;
_chemical_formula_sum "Si O2"
_cell_formula_units_Z 48
_cell_length_a 18.967255
_cell_length_b 13.586499
_cell_length_c 10.087714
_cell_angle_alpha 90.000000
_cell_angle_beta 90.000000
_cell_angle_gamma 90.000000
_cell_volume 2599.589685
_symmetry_space_group_name_H-M "P N M A"
_symmetry_group_IT_number 62
_symmetry_cell_setting 'orthorhombic'
loop_
_space_group_symop_operation_xyz
x,y,z
1/2-x,-y,1/2+z
1/2+x,1/2-y,1/2-z
-x,1/2+y,-z
-x,-y,-z
1/2+x,y,1/2-z
1/2-x,1/2+y,1/2+z
x,1/2-y,z
loop_
_atom_site_type_symbol
_atom_site_label
_atom_site_fract_x
_atom_site_fract_y
_atom_site_fract_z
Si Si1 0.612789 0.540955 0.054128
Si Si2 0.637700 0.863711 0.566928
Si Si3 0.022943 0.360374 0.467262
Si Si4 0.515862 0.139512 0.339542
Si Si5 0.287457 0.365971 0.160322
Si Si6 0.350742 0.987254 0.657674
O O1 0.543593 0.610104 0.057319
O O2 0.671996 0.580291 0.957205
O O3 0.589723 0.431186 0.007287
O O4 0.644673 0.540227 0.200752
O O5 0.652482 0.750000 0.533001
O O6 0.554614 0.884635 0.579769
O O7 0.676788 0.894235 0.701224
O O8 0.668895 0.929918 0.449386
O O9 0.046949 0.250000 0.503311
O O10 0.997660 0.369946 0.315718
O O11 0.541817 0.250000 0.371102
O O12 0.575933 0.063871 0.382916
O O13 0.289409 0.250000 0.134463
O O14 0.207545 0.402444 0.161841
#
# Coordination Sequence:
#
# PCOD8252595 Si02
#       6
#     8   8   8   8   8   8
#     4  10  20  34  58  85 108 145 186 230 272 322
#     4  10  21  37  57  79 109 148 182 222 276 333
#     4   9  17  33  58  85 110 141 187 232 271 320
#     4   9  17  34  58  82 108 145 187 222 265 326
#     4  11  22  39  59  78 109 151 188 220 273 340
#     4  11  22  35  55  86 113 140 180 236 275 317
#
# _framework density 18.464452999999999
#
# number of rings (size 3 to 8) (size 9 to 14) (size 15 to 20)
#    0.000    2.000    1.667    2.500    0.000    2.000 
#    0.000    0.833    0.000    1.000    0.000    0.000 
#    0.000    0.000    0.000    0.000    0.000    0.000 
#
# Total GULP energy -595337.837216 kJ/mol
# GULP energy per Si atom -12402.871609 kJ/mol
# Density = 1.842243 g / cm^3
# Si number density = 18.464453 Si / 1000 Ang^3
#
#
#
# Elastic Constant Matrix: (Units=GPa)
#
#
# Indices 1 2 3 4 5 6 
#
# 1 64.2352 31.3456 33.2844 0.0000 0.0000 0.0000
# 2 31.3456 106.7737 52.5781 0.0000 0.0000 0.0000
# 3 33.2844 52.5781 90.3465 0.0000 0.0000 0.0000
# 4 0.0000 0.0000 0.0000 28.2844 0.0000 0.0000
# 5 0.0000 0.0000 0.0000 0.0000 14.8467 0.0000
# 6 0.0000 0.0000 0.0000 0.0000 0.0000 31.8375
#
#
#
# Elastic Compliance Matrix: (Units=1/GPa)
#
#
# Indices 1 2 3 4 5 6 
#
# 1 0.019964 -0.003138 -0.005528 0.000000 0.000000 0.000000
# 2 -0.003138 0.013621 -0.006771 0.000000 0.000000 0.000000
# 3 -0.005528 -0.006771 0.017045 0.000000 0.000000 0.000000
# 4 0.000000 0.000000 0.000000 0.035355 0.000000 0.000000
# 5 0.000000 0.000000 0.000000 0.000000 0.067355 0.000000
# 6 0.000000 0.000000 0.000000 0.000000 0.000000 0.031410
#
#
# Mechanical properties :
#
#
# Convention : Reuss Voigt Hill
#
# Bulk Modulus (GPa) = 50.61927 55.08574 52.85250
# Shear Modulus (GPa) = 22.50121 24.60354 23.55238
#
# Velocity S-wave (km/s) = 3.49467 3.65428 3.57536
# Velocity P-wave (km/s) = 6.61495 6.90675 6.76242
#
# Compressibility (1/GPa) = 0.01975532
#
# Stress axis : x y z
#
# Youngs Moduli (GPa) = 50.09032 73.41606 58.66667
#
# Poissons Ratio (x) = 0.23042 0.32433
# Poissons Ratio (y) = 0.15721 0.39721
# Poissons Ratio (z) = 0.27692 0.49707
#
# Static dielectric constant tensor:
#      x y z
#    x 3.330980 0.000000 0.000000 
#    y 0.000000 3.498440 0.000000 
#    z 0.000000 0.000000 3.236890 
# 
# 
# High freq. dielectric constant tensor:
#      x y z
#    x 1.715230 0.000000 0.000000 
#    y 0.000000 1.723120 0.000000 
#    z 0.000000 0.000000 1.702540 
# 
# From -- ./inp_files/7640.got.cif
#   From: 2010.03.12/outbox.cif.g09.slc.cpg/sg62_4_cif.got.tgz:7640.got - 2010.04.10 19:12:36.
