data_PCOD8252352
_publ_section_title
;
Structure prediction by ZEFSAII (Michael W. Deem and Ramdas Pophale) SiO2 
 PCOD8252352
Probable space group: P N M A
;
_chemical_formula_sum "Si O2"
_cell_formula_units_Z 40
_cell_length_a 10.838576
_cell_length_b 10.521708
_cell_length_c 18.238901
_cell_angle_alpha 90.000000
_cell_angle_beta 90.000000
_cell_angle_gamma 90.000000
_cell_volume 2079.970322
_symmetry_space_group_name_H-M "P N M A"
_symmetry_group_IT_number 62
_symmetry_cell_setting 'orthorhombic'
loop_
_space_group_symop_operation_xyz
x,y,z
1/2-x,-y,1/2+z
1/2+x,1/2-y,1/2-z
-x,1/2+y,-z
-x,-y,-z
1/2+x,y,1/2-z
1/2-x,1/2+y,1/2+z
x,1/2-y,z
loop_
_atom_site_type_symbol
_atom_site_label
_atom_site_fract_x
_atom_site_fract_y
_atom_site_fract_z
Si Si1 0.636857 0.602872 0.685291
Si Si2 0.202879 0.014322 0.029895
Si Si3 0.369063 0.895067 0.912361
Si Si4 0.973472 0.889116 0.086026
Si Si5 0.620550 0.602536 0.850444
O O1 0.589719 0.750000 0.678016
O O2 0.775100 0.592185 0.655279
O O3 0.548388 0.507751 0.640310
O O4 0.639843 0.550848 0.768230
O O5 0.111355 0.900474 0.053286
O O6 0.256770 0.079368 0.102532
O O7 0.319066 0.964924 0.983975
O O8 0.124408 0.112197 0.980760
O O9 0.389697 0.750000 0.935167
O O10 0.498221 0.959323 0.887167
O O11 0.962945 0.750000 0.124475
O O12 0.594362 0.750000 0.843185
#
# Coordination Sequence:
#
# PCOD8252352 Si02
#       5
#     8   8   8   8   8
#     4   9  20  36  57  83 112 146 185 232 279 329
#     4  10  20  34  57  80 112 148 191 229 275 328
#     4   9  18  34  53  79 112 143 184 233 279 327
#     4  10  21  37  57  83 115 151 189 230 278 330
#     4  10  20  33  56  84 109 144 190 234 276 328
#
# _framework density 19.231044000000001
#
# number of rings (size 3 to 8) (size 9 to 14) (size 15 to 20)
#    0.000    2.400    0.000    1.800    2.800    5.600 
#    0.000    2.000    0.000    2.400    0.000    0.000 
#    0.000    0.000    0.000    0.000    0.000    0.000 
#
# Total GULP energy -495818.475254 kJ/mol
# GULP energy per Si atom -12395.461881 kJ/mol
# Density = 1.918727 g / cm^3
# Si number density = 19.231044 Si / 1000 Ang^3
#
#
#
# Elastic Constant Matrix: (Units=GPa)
#
#
# Indices 1 2 3 4 5 6 
#
# 1 81.7445 26.3805 39.9623 0.0000 0.0000 0.0000
# 2 26.3805 76.8506 37.3693 0.0000 0.0000 0.0000
# 3 39.9623 37.3693 125.4777 0.0000 0.0000 0.0000
# 4 0.0000 0.0000 0.0000 23.5604 0.0000 0.0000
# 5 0.0000 0.0000 0.0000 0.0000 25.6982 0.0000
# 6 0.0000 0.0000 0.0000 0.0000 0.0000 11.0727
#
#
#
# Elastic Compliance Matrix: (Units=1/GPa)
#
#
# Indices 1 2 3 4 5 6 
#
# 1 0.015191 -0.003347 -0.003841 0.000000 0.000000 0.000000
# 2 -0.003347 0.015953 -0.003685 0.000000 0.000000 0.000000
# 3 -0.003841 -0.003685 0.010290 0.000000 0.000000 0.000000
# 4 0.000000 0.000000 0.000000 0.042444 0.000000 0.000000
# 5 0.000000 0.000000 0.000000 0.000000 0.038913 0.000000
# 6 0.000000 0.000000 0.000000 0.000000 0.000000 0.090312
#
#
# Mechanical properties :
#
#
# Convention : Reuss Voigt Hill
#
# Bulk Modulus (GPa) = 50.79230 54.61077 52.70153
# Shear Modulus (GPa) = 20.71131 24.09031 22.40081
#
# Velocity S-wave (km/s) = 3.28529 3.54316 3.41666
# Velocity P-wave (km/s) = 6.39216 6.72291 6.55962
#
# Compressibility (1/GPa) = 0.01968803
#
# Stress axis : x y z
#
# Youngs Moduli (GPa) = 65.82739 62.68388 97.17736
#
# Poissons Ratio (x) = 0.20979 0.37330
# Poissons Ratio (y) = 0.22031 0.35812
# Poissons Ratio (z) = 0.25287 0.23100
#
# Static dielectric constant tensor:
#      x y z
#    x 3.555610 0.000000 0.000000 
#    y 0.000000 3.197920 0.000000 
#    z 0.000000 0.000000 3.554890 
# 
# 
# High freq. dielectric constant tensor:
#      x y z
#    x 1.755550 0.000000 0.000000 
#    y 0.000000 1.718560 0.000000 
#    z 0.000000 0.000000 1.747510 
# 
# From -- ./inp_files/17778.got.cif
#   From: 2010.03.12/outbox.cif.g09.slc.cpg/sg62_9_cif.got.tgz:17778.got - 2010.04.10 19:12:36.
