data_PCOD8252485
_publ_section_title
;
Structure prediction by ZEFSAII (Michael W. Deem and Ramdas Pophale) SiO2 
 PCOD8252485
Probable space group: P N M A
;
_chemical_formula_sum "Si O2"
_cell_formula_units_Z 64
_cell_length_a 24.713277
_cell_length_b 9.083392
_cell_length_c 14.132393
_cell_angle_alpha 90.000000
_cell_angle_beta 90.000000
_cell_angle_gamma 90.000000
_cell_volume 3172.444988
_symmetry_space_group_name_H-M "P N M A"
_symmetry_group_IT_number 62
_symmetry_cell_setting 'orthorhombic'
loop_
_space_group_symop_operation_xyz
x,y,z
1/2-x,-y,1/2+z
1/2+x,1/2-y,1/2-z
-x,1/2+y,-z
-x,-y,-z
1/2+x,y,1/2-z
1/2-x,1/2+y,1/2+z
x,1/2-y,z
loop_
_atom_site_type_symbol
_atom_site_label
_atom_site_fract_x
_atom_site_fract_y
_atom_site_fract_z
Si Si1 0.805893 0.577367 0.779676
Si Si2 0.834627 0.925710 0.990665
Si Si3 0.945635 0.078265 0.468297
Si Si4 0.587995 0.923425 0.763758
Si Si5 0.301432 0.424066 0.328601
Si Si6 0.393534 0.080595 0.844160
Si Si7 0.511844 0.587081 0.281884
Si Si8 0.444959 0.083065 0.522087
O O1 0.814080 0.750000 0.780742
O O2 0.746905 0.532249 0.742032
O O3 0.848545 0.516728 0.704906
O O4 0.814155 0.519718 0.887320
O O5 0.836768 0.750000 0.997316
O O6 0.794720 0.990624 0.071273
O O7 0.893543 0.992631 0.014563
O O8 0.959271 0.250000 0.459494
O O9 0.923153 0.014426 0.369116
O O10 0.896668 0.052315 0.543274
O O11 0.000000 0.000000 0.500000
O O12 0.588870 0.750000 0.763550
O O13 0.644582 0.982100 0.723621
O O14 0.538561 0.978589 0.697410
O O15 0.302618 0.250000 0.349001
O O16 0.380984 0.250000 0.819667
O O17 0.453963 0.036655 0.809156
O O18 0.487115 0.750000 0.268405
O O19 0.556578 0.586949 0.364483
O O20 0.443640 0.250000 0.480067
O O21 0.500000 0.000000 0.500000
#
# Coordination Sequence:
#
# PCOD8252485 Si02
#       8
#     8   8   8   8   8   8   8   8
#     4  10  23  42  64  88 117 154 200 250 294 349
#     4  11  23  40  63  91 119 154 199 246 297 357
#     4  10  20  34  55  84 117 156 195 237 290 349
#     4  10  21  36  57  84 116 156 197 241 295 352
#     4  10  23  43  62  85 119 157 198 246 298 349
#     4  10  20  36  58  85 116 153 195 241 294 348
#     4  10  20  34  54  82 116 151 189 238 292 348
#     4  11  22  36  56  85 121 159 198 245 300 358
#
# _framework density 20.173715000000001
#
# number of rings (size 3 to 8) (size 9 to 14) (size 15 to 20)
#    0.000    1.750    2.500    1.500    0.000    6.500 
#    0.000    2.500    0.000    0.000    0.000    0.000 
#    0.000    0.000    0.000    0.000    0.000    0.000 
#
# Total GULP energy -793513.962001 kJ/mol
# GULP energy per Si atom -12398.655656 kJ/mol
# Density = 2.012780 g / cm^3
# Si number density = 20.173715 Si / 1000 Ang^3
#
#
#
# Elastic Constant Matrix: (Units=GPa)
#
#
# Indices 1 2 3 4 5 6 
#
# 1 104.5728 30.8500 45.0396 0.0000 0.0000 0.0000
# 2 30.8500 45.7261 31.1401 0.0000 0.0000 0.0000
# 3 45.0396 31.1401 94.9698 0.0000 0.0000 0.0000
# 4 0.0000 0.0000 0.0000 29.1511 0.0000 0.0000
# 5 0.0000 0.0000 0.0000 0.0000 29.0515 0.0000
# 6 0.0000 0.0000 0.0000 0.0000 0.0000 29.5005
#
#
#
# Elastic Compliance Matrix: (Units=1/GPa)
#
#
# Indices 1 2 3 4 5 6 
#
# 1 0.013170 -0.005963 -0.004290 0.000000 0.000000 0.000000
# 2 -0.005963 0.030857 -0.007290 0.000000 0.000000 0.000000
# 3 -0.004290 -0.007290 0.014955 0.000000 0.000000 0.000000
# 4 0.000000 0.000000 0.000000 0.034304 0.000000 0.000000
# 5 0.000000 0.000000 0.000000 0.000000 0.034422 0.000000
# 6 0.000000 0.000000 0.000000 0.000000 0.000000 0.033898
#
#
# Mechanical properties :
#
#
# Convention : Reuss Voigt Hill
#
# Bulk Modulus (GPa) = 41.85072 51.03642 46.44357
# Shear Modulus (GPa) = 24.43110 26.75655 25.59382
#
# Velocity S-wave (km/s) = 3.48377 3.64580 3.56571
# Velocity P-wave (km/s) = 6.08049 6.56322 6.32646
#
# Compressibility (1/GPa) = 0.02389445
#
# Stress axis : x y z
#
# Youngs Moduli (GPa) = 75.93073 32.40744 66.86870
#
# Poissons Ratio (x) = 0.19326 0.28690
# Poissons Ratio (y) = 0.45281 0.48745
# Poissons Ratio (z) = 0.32578 0.23624
#
# Static dielectric constant tensor:
#      x y z
#    x 3.570740 0.000000 0.000000 
#    y 0.000000 3.526660 0.000000 
#    z 0.000000 0.000000 4.207090 
# 
# 
# High freq. dielectric constant tensor:
#      x y z
#    x 1.773910 0.000000 0.000000 
#    y 0.000000 1.776520 0.000000 
#    z 0.000000 0.000000 1.808730 
# 
# From -- ./inp_files/21002.got.cif
#   From: 2010.03.12/outbox.cif.g09.slc.cpg/sg62_11_cif.got.tgz:21002.got - 2010.04.10 19:12:36.
