data_PCOD8252034
_publ_section_title
;
Structure prediction by ZEFSAII (Michael W. Deem and Ramdas Pophale) SiO2 
 PCOD8252034
Probable space group: P N M A
;
_chemical_formula_sum "Si O2"
_cell_formula_units_Z 40
_cell_length_a 9.008594
_cell_length_b 20.264131
_cell_length_c 10.975233
_cell_angle_alpha 90.000000
_cell_angle_beta 90.000000
_cell_angle_gamma 90.000000
_cell_volume 2003.543370
_symmetry_space_group_name_H-M "P N M A"
_symmetry_group_IT_number 62
_symmetry_cell_setting 'orthorhombic'
loop_
_space_group_symop_operation_xyz
x,y,z
1/2-x,-y,1/2+z
1/2+x,1/2-y,1/2-z
-x,1/2+y,-z
-x,-y,-z
1/2+x,y,1/2-z
1/2-x,1/2+y,1/2+z
x,1/2-y,z
loop_
_atom_site_type_symbol
_atom_site_label
_atom_site_fract_x
_atom_site_fract_y
_atom_site_fract_z
Si Si1 0.995478 0.562856 0.915636
Si Si2 0.864879 0.672399 0.348444
Si Si3 0.242624 0.894831 0.743623
Si Si4 0.026864 0.671953 0.108507
Si Si5 0.515822 0.327298 0.100675
O O1 0.851798 0.556195 0.829160
O O2 0.146541 0.562301 0.837750
O O3 0.000000 0.500000 0.000000
O O4 0.979691 0.631812 0.988784
O O5 0.886793 0.750000 0.348838
O O6 0.693999 0.653072 0.357682
O O7 0.953372 0.643595 0.465133
O O8 0.928657 0.645536 0.221206
O O9 0.342156 0.841369 0.814519
O O10 0.134445 0.858778 0.649541
O O11 0.006504 0.750000 0.081570
O O12 0.491798 0.250000 0.095768
#
# Coordination Sequence:
#
# PCOD8252034 Si02
#       5
#     8   8   8   8   8
#     4  11  25  45  64  89 125 164 208 256 312 372
#     4   9  19  34  56  89 123 158 203 251 302 356
#     4  10  23  41  60  91 122 161 213 245 311 381
#     4  10  21  38  61  89 123 159 206 257 304 359
#     4  10  19  36  62  94 130 161 199 256 308 364
#
# _framework density 19.964628999999999
#
# number of rings (size 3 to 8) (size 9 to 14) (size 15 to 20)
#    0.000    2.000    2.000    0.600    2.800    5.600 
#    0.000    2.000    0.000    0.000    0.000    0.000 
#    0.000    0.000    0.000    0.000    0.000    0.000 
#
# Total GULP energy -496020.541090 kJ/mol
# GULP energy per Si atom -12400.513527 kJ/mol
# Density = 1.991919 g / cm^3
# Si number density = 19.964629 Si / 1000 Ang^3
#
#
#
# Elastic Constant Matrix: (Units=GPa)
#
#
# Indices 1 2 3 4 5 6 
#
# 1 107.9013 29.1041 51.3183 0.0000 0.0000 0.0000
# 2 29.1041 71.6622 38.8186 0.0000 0.0000 0.0000
# 3 51.3183 38.8186 123.8529 0.0000 0.0000 0.0000
# 4 0.0000 0.0000 0.0000 35.4189 0.0000 0.0000
# 5 0.0000 0.0000 0.0000 0.0000 38.9280 0.0000
# 6 0.0000 0.0000 0.0000 0.0000 0.0000 11.2508
#
#
#
# Elastic Compliance Matrix: (Units=1/GPa)
#
#
# Indices 1 2 3 4 5 6 
#
# 1 0.011935 -0.002612 -0.004127 0.000000 0.000000 0.000000
# 2 -0.002612 0.017380 -0.004365 0.000000 0.000000 0.000000
# 3 -0.004127 -0.004365 0.011152 0.000000 0.000000 0.000000
# 4 0.000000 0.000000 0.000000 0.028234 0.000000 0.000000
# 5 0.000000 0.000000 0.000000 0.000000 0.025688 0.000000
# 6 0.000000 0.000000 0.000000 0.000000 0.000000 0.088883
#
#
# Mechanical properties :
#
#
# Convention : Reuss Voigt Hill
#
# Bulk Modulus (GPa) = 54.76538 60.21093 57.48816
# Shear Modulus (GPa) = 23.63346 29.39788 26.51567
#
# Velocity S-wave (km/s) = 3.44432 3.84148 3.64831
# Velocity P-wave (km/s) = 6.58093 7.06401 6.82674
#
# Compressibility (1/GPa) = 0.01825971
#
# Stress axis : x y z
#
# Youngs Moduli (GPa) = 83.78844 57.53894 89.66973
#
# Poissons Ratio (x) = 0.15028 0.37003
# Poissons Ratio (y) = 0.21883 0.39141
# Poissons Ratio (z) = 0.34576 0.25116
#
# Static dielectric constant tensor:
#      x y z
#    x 3.877320 0.000000 0.000000 
#    y 0.000000 3.173050 0.000000 
#    z 0.000000 0.000000 4.085020 
# 
# 
# High freq. dielectric constant tensor:
#      x y z
#    x 1.792940 0.000000 0.000000 
#    y 0.000000 1.738670 0.000000 
#    z 0.000000 0.000000 1.799370 
# 
# From -- ./inp_files/4273.got.cif
#   From: 2010.03.12/outbox.cif.g09.slc.cpg/sg62_3_cif.got.tgz:4273.got - 2010.04.10 19:12:36.
