data_PCOD8252344
_publ_section_title
;
Structure prediction by ZEFSAII (Michael W. Deem and Ramdas Pophale) SiO2 
 PCOD8252344
Probable space group: P N M A
;
_chemical_formula_sum "Si O2"
_cell_formula_units_Z 56
_cell_length_a 21.157939
_cell_length_b 8.914396
_cell_length_c 14.911882
_cell_angle_alpha 90.000000
_cell_angle_beta 90.000000
_cell_angle_gamma 90.000000
_cell_volume 2812.533744
_symmetry_space_group_name_H-M "P N M A"
_symmetry_group_IT_number 62
_symmetry_cell_setting 'orthorhombic'
loop_
_space_group_symop_operation_xyz
x,y,z
1/2-x,-y,1/2+z
1/2+x,1/2-y,1/2-z
-x,1/2+y,-z
-x,-y,-z
1/2+x,y,1/2-z
1/2-x,1/2+y,1/2+z
x,1/2-y,z
loop_
_atom_site_type_symbol
_atom_site_label
_atom_site_fract_x
_atom_site_fract_y
_atom_site_fract_z
Si Si1 0.973036 0.919480 0.124550
Si Si2 0.315359 0.427509 0.934944
Si Si3 0.764013 0.428540 0.224585
Si Si4 0.931826 0.571259 0.483746
Si Si5 0.110410 0.077671 0.713701
Si Si6 0.595836 0.579639 0.470189
Si Si7 0.779957 0.924624 0.914518
O O1 0.957529 0.750000 0.091566
O O2 0.953694 0.940633 0.227943
O O3 0.047992 0.949267 0.112995
O O4 0.935867 0.036398 0.063655
O O5 0.324028 0.250000 0.921172
O O6 0.272025 0.491814 0.856051
O O7 0.383875 0.506893 0.940640
O O8 0.281063 0.469650 0.027831
O O9 0.762783 0.250000 0.210933
O O10 0.836413 0.480383 0.235774
O O11 0.728158 0.484042 0.313918
O O12 0.936571 0.750000 0.492018
O O13 0.906438 0.520676 0.385783
O O14 0.000000 0.500000 0.500000
O O15 0.133205 0.250000 0.711261
O O16 0.617259 0.750000 0.475957
O O17 0.658109 0.485917 0.459657
O O18 0.788051 0.750000 0.913533
#
# Coordination Sequence:
#
# PCOD8252344 Si02
#       7
#     8   8   8   8   8   8   8
#     4   9  19  36  55  79 115 154 192 239 298 356
#     4  11  23  42  64  89 123 164 207 257 318 376
#     4  11  23  39  61  91 122 156 203 255 310 370
#     4  11  24  42  65  92 124 163 211 262 318 378
#     4  10  21  39  62  87 117 159 208 254 306 373
#     4  10  20  33  54  85 117 152 196 242 292 354
#     4  10  22  39  58  82 119 157 191 241 304 362
#
# _framework density 19.910872999999999
#
# number of rings (size 3 to 8) (size 9 to 14) (size 15 to 20)
#    0.000    1.714    1.429    2.571    0.000    8.571 
#    0.000    1.429    0.000    0.000    0.000    0.000 
#    0.000    0.000    0.000    0.000    0.000    0.000 
#
# Total GULP energy -694391.486398 kJ/mol
# GULP energy per Si atom -12399.847971 kJ/mol
# Density = 1.986556 g / cm^3
# Si number density = 19.910873 Si / 1000 Ang^3
#
#
#
# Elastic Constant Matrix: (Units=GPa)
#
#
# Indices 1 2 3 4 5 6 
#
# 1 117.6470 16.2915 50.6663 0.0000 0.0000 0.0000
# 2 16.2915 119.5611 14.9693 0.0000 0.0000 0.0000
# 3 50.6663 14.9693 110.0577 0.0000 0.0000 0.0000
# 4 0.0000 0.0000 0.0000 29.1421 0.0000 0.0000
# 5 0.0000 0.0000 0.0000 0.0000 31.3066 0.0000
# 6 0.0000 0.0000 0.0000 0.0000 0.0000 35.0301
#
#
#
# Elastic Compliance Matrix: (Units=1/GPa)
#
#
# Indices 1 2 3 4 5 6 
#
# 1 0.010687 -0.000855 -0.004804 0.000000 0.000000 0.000000
# 2 -0.000855 0.008577 -0.000773 0.000000 0.000000 0.000000
# 3 -0.004804 -0.000773 0.011403 0.000000 0.000000 0.000000
# 4 0.000000 0.000000 0.000000 0.034315 0.000000 0.000000
# 5 0.000000 0.000000 0.000000 0.000000 0.031942 0.000000
# 6 0.000000 0.000000 0.000000 0.000000 0.000000 0.028547
#
#
# Mechanical properties :
#
#
# Convention : Reuss Voigt Hill
#
# Bulk Modulus (GPa) = 56.16747 56.79111 56.47929
# Shear Modulus (GPa) = 34.65759 36.78500 35.72130
#
# Velocity S-wave (km/s) = 4.17662 4.30290 4.24023
# Velocity P-wave (km/s) = 7.17841 7.29871 7.23881
#
# Compressibility (1/GPa) = 0.01780390
#
# Stress axis : x y z
#
# Youngs Moduli (GPa) = 93.57031 116.58826 87.69839
#
# Poissons Ratio (x) = 0.09966 0.42128
# Poissons Ratio (y) = 0.07998 0.06780
# Poissons Ratio (z) = 0.44948 0.09013
#
# Static dielectric constant tensor:
#      x y z
#    x 3.664870 0.000000 0.000000 
#    y 0.000000 3.912320 0.000000 
#    z 0.000000 0.000000 3.823900 
# 
# 
# High freq. dielectric constant tensor:
#      x y z
#    x 1.781960 0.000000 0.000000 
#    y 0.000000 1.781070 0.000000 
#    z 0.000000 0.000000 1.776180 
# 
# From -- ./inp_files/20290.got.cif
#   From: 2010.03.12/outbox.cif.g09.slc.cpg/sg62_11_cif.got.tgz:20290.got - 2010.04.10 19:12:36.
