data_PCOD8252624
_publ_section_title
;
Structure prediction by ZEFSAII (Michael W. Deem and Ramdas Pophale) SiO2 
 PCOD8252624
Probable space group: P N M A
;
_chemical_formula_sum "Si O2"
_cell_formula_units_Z 64
_cell_length_a 14.638517
_cell_length_b 8.878450
_cell_length_c 27.991206
_cell_angle_alpha 90.000000
_cell_angle_beta 90.000000
_cell_angle_gamma 90.000000
_cell_volume 3637.942622
_symmetry_space_group_name_H-M "P N M A"
_symmetry_group_IT_number 62
_symmetry_cell_setting 'orthorhombic'
loop_
_space_group_symop_operation_xyz
x,y,z
1/2-x,-y,1/2+z
1/2+x,1/2-y,1/2-z
-x,1/2+y,-z
-x,-y,-z
1/2+x,y,1/2-z
1/2-x,1/2+y,1/2+z
x,1/2-y,z
loop_
_atom_site_type_symbol
_atom_site_label
_atom_site_fract_x
_atom_site_fract_y
_atom_site_fract_z
Si Si1 0.223539 0.070781 0.866069
Si Si2 0.392712 0.924933 0.279446
Si Si3 0.212570 0.072729 0.138576
Si Si4 0.387901 0.929427 0.172050
Si Si5 0.589596 0.571921 0.172470
Si Si6 0.390642 0.926082 0.455383
Si Si7 0.600864 0.924999 0.445671
Si Si8 0.899053 0.074874 0.779587
O O1 0.213417 0.250000 0.864953
O O2 0.171826 0.000785 0.819834
O O3 0.330198 0.020514 0.863866
O O4 0.177754 0.011512 0.914677
O O5 0.370741 0.750000 0.276419
O O6 0.373028 0.989299 0.226477
O O7 0.496757 0.951258 0.295591
O O8 0.217735 0.250000 0.135320
O O9 0.315181 0.006645 0.137117
O O10 0.156325 0.013450 0.093897
O O11 0.165974 0.023663 0.187678
O O12 0.378166 0.750000 0.168806
O O13 0.489613 0.983612 0.155416
O O14 0.584527 0.750000 0.176699
O O15 0.613930 0.514855 0.225668
O O16 0.376291 0.750000 0.466140
O O17 0.493687 0.957617 0.438110
O O18 0.366930 0.018948 0.502595
O O19 0.623320 0.750000 0.440598
O O20 0.871373 0.250000 0.785086
#
# Coordination Sequence:
#
# PCOD8252624 Si02
#       8
#     8   8   8   8   8   8   8   8
#     4   9  14  23  44  74 101 122 150 190 237 285
#     4   8  14  25  46  74 100 127 160 195 228 272
#     4  12  23  32  46  70  98 129 165 203 244 285
#     4   9  17  31  49  69  95 129 168 203 232 268
#     4   8  15  27  48  75  98 125 163 201 232 274
#     4   9  18  32  52  77 102 124 148 188 243 295
#     4  10  20  35  53  71  95 127 160 195 237 289
#     4   9  16  29  48  71  99 130 164 197 231 277
#
# _framework density 17.592361
#
# number of rings (size 3 to 8) (size 9 to 14) (size 15 to 20)
#    0.000    2.750    0.000    4.500    0.000    4.500 
#    0.000    2.500    0.000    4.500    0.000    0.000 
#    0.000    0.000    0.000    0.000    0.000    0.000 
#
# Total GULP energy -793320.199337 kJ/mol
# GULP energy per Si atom -12395.628115 kJ/mol
# Density = 1.755232 g / cm^3
# Si number density = 17.592361 Si / 1000 Ang^3
#
#
#
# Elastic Constant Matrix: (Units=GPa)
#
#
# Indices 1 2 3 4 5 6 
#
# 1 121.0172 40.1961 67.4486 0.0000 0.0000 0.0000
# 2 40.1961 56.4997 34.6701 0.0000 0.0000 0.0000
# 3 67.4486 34.6701 81.3074 0.0000 0.0000 0.0000
# 4 0.0000 0.0000 0.0000 20.7796 0.0000 0.0000
# 5 0.0000 0.0000 0.0000 0.0000 29.5307 0.0000
# 6 0.0000 0.0000 0.0000 0.0000 0.0000 11.0697
#
#
#
# Elastic Compliance Matrix: (Units=1/GPa)
#
#
# Indices 1 2 3 4 5 6 
#
# 1 0.016147 -0.004426 -0.011507 0.000000 0.000000 0.000000
# 2 -0.004426 0.025185 -0.007067 0.000000 0.000000 0.000000
# 3 -0.011507 -0.007067 0.024859 0.000000 0.000000 0.000000
# 4 0.000000 0.000000 0.000000 0.048124 0.000000 0.000000
# 5 0.000000 0.000000 0.000000 0.000000 0.033863 0.000000
# 6 0.000000 0.000000 0.000000 0.000000 0.000000 0.090337
#
#
# Mechanical properties :
#
#
# Convention : Reuss Voigt Hill
#
# Bulk Modulus (GPa) = 49.53274 60.38377 54.95825
# Shear Modulus (GPa) = 17.16763 20.04331 18.60547
#
# Velocity S-wave (km/s) = 3.12726 3.37904 3.25559
# Velocity P-wave (km/s) = 6.42313 7.04431 6.74088
#
# Compressibility (1/GPa) = 0.02018867
#
# Stress axis : x y z
#
# Youngs Moduli (GPa) = 61.93037 39.70626 40.22767
#
# Poissons Ratio (x) = 0.17575 0.46292
# Poissons Ratio (y) = 0.27413 0.28429
# Poissons Ratio (z) = 0.71266 0.28061
#
# Static dielectric constant tensor:
#      x y z
#    x 3.522020 0.000000 0.000000 
#    y 0.000000 2.859920 0.000000 
#    z 0.000000 0.000000 3.289310 
# 
# 
# High freq. dielectric constant tensor:
#      x y z
#    x 1.687890 0.000000 0.000000 
#    y 0.000000 1.636220 0.000000 
#    z 0.000000 0.000000 1.663200 
# 
# From -- ./inp_files/32730.got.cif
#   From: 2010.03.12/outbox.cif.g09.slc.cpg/sg62_17_cif.got.tgz:32730.got - 2010.04.10 19:12:36.
