data_PCOD8252188
_publ_section_title
;
Structure prediction by ZEFSAII (Michael W. Deem and Ramdas Pophale) SiO2 
 PCOD8252188
Probable space group: P N M A
;
_chemical_formula_sum "Si O2"
_cell_formula_units_Z 64
_cell_length_a 17.653498
_cell_length_b 9.049856
_cell_length_c 21.461817
_cell_angle_alpha 90.000000
_cell_angle_beta 90.000000
_cell_angle_gamma 90.000000
_cell_volume 3428.774540
_symmetry_space_group_name_H-M "P N M A"
_symmetry_group_IT_number 62
_symmetry_cell_setting 'orthorhombic'
loop_
_space_group_symop_operation_xyz
x,y,z
1/2-x,-y,1/2+z
1/2+x,1/2-y,1/2-z
-x,1/2+y,-z
-x,-y,-z
1/2+x,y,1/2-z
1/2-x,1/2+y,1/2+z
x,1/2-y,z
loop_
_atom_site_type_symbol
_atom_site_label
_atom_site_fract_x
_atom_site_fract_y
_atom_site_fract_z
Si Si1 0.606363 0.424796 0.618349
Si Si2 0.163833 0.583212 0.446361
Si Si3 0.067308 0.919010 0.138883
Si Si4 0.420262 0.421963 0.501147
Si Si5 0.432225 0.924351 0.036216
Si Si6 0.975281 0.087342 0.647498
Si Si7 0.253930 0.425211 0.344705
Si Si8 0.617058 0.422817 0.242517
O O1 0.616936 0.250000 0.615801
O O2 0.520738 0.470010 0.636298
O O3 0.629699 0.494665 0.550821
O O4 0.664528 0.497606 0.668342
O O5 0.193174 0.750000 0.458779
O O6 0.145118 0.502285 0.512374
O O7 0.089306 0.586467 0.404437
O O8 0.226761 0.487471 0.411222
O O9 0.070017 0.750000 0.160136
O O10 0.114534 0.012729 0.188363
O O11 0.109575 0.939787 0.072191
O O12 0.500000 0.500000 0.500000
O O13 0.428200 0.250000 0.483586
O O14 0.429946 0.750000 0.020991
O O15 0.446378 0.951372 0.110645
O O16 0.500000 0.000000 0.000000
O O17 0.981588 0.250000 0.677921
O O18 0.956197 0.974776 0.702822
O O19 0.262467 0.250000 0.348455
O O20 0.195304 0.472905 0.290432
O O21 0.612129 0.250000 0.247269
#
# Coordination Sequence:
#
# PCOD8252188 Si02
#       8
#     8   8   8   8   8   8   8   8
#     4  10  20  34  54  80 105 134 170 210 258 310
#     4   9  16  26  41  62  88 121 159 201 247 295
#     4   9  19  34  53  77 105 135 168 205 253 309
#     4   9  17  31  52  79 106 131 160 201 251 303
#     4   9  15  23  37  58  83 115 154 199 248 294
#     4   8  15  26  40  59  87 122 158 197 243 291
#     4  10  20  33  49  73 104 137 172 213 258 308
#     4  10  20  31  48  74 102 135 176 216 255 300
#
# _framework density 18.665561
#
# number of rings (size 3 to 8) (size 9 to 14) (size 15 to 20)
#    0.000    2.750    0.000    3.750    0.000    8.000 
#    0.000    0.000    0.000    1.500    0.000    5.250 
#    0.000    0.000    0.000    0.000    0.000    0.000 
#
# Total GULP energy -793019.965250 kJ/mol
# GULP energy per Si atom -12390.936957 kJ/mol
# Density = 1.862308 g / cm^3
# Si number density = 18.665561 Si / 1000 Ang^3
#
#
#
# Elastic Constant Matrix: (Units=GPa)
#
#
# Indices 1 2 3 4 5 6 
#
# 1 53.7615 30.3553 28.3585 0.0000 0.0000 0.0000
# 2 30.3553 99.3691 44.9225 0.0000 0.0000 0.0000
# 3 28.3585 44.9225 83.4680 0.0000 0.0000 0.0000
# 4 0.0000 0.0000 0.0000 33.0837 0.0000 0.0000
# 5 0.0000 0.0000 0.0000 0.0000 17.7279 0.0000
# 6 0.0000 0.0000 0.0000 0.0000 0.0000 26.8358
#
#
#
# Elastic Compliance Matrix: (Units=1/GPa)
#
#
# Indices 1 2 3 4 5 6 
#
# 1 0.024333 -0.004884 -0.005638 0.000000 0.000000 0.000000
# 2 -0.004884 0.014280 -0.006026 0.000000 0.000000 0.000000
# 3 -0.005638 -0.006026 0.017139 0.000000 0.000000 0.000000
# 4 0.000000 0.000000 0.000000 0.030226 0.000000 0.000000
# 5 0.000000 0.000000 0.000000 0.000000 0.056408 0.000000
# 6 0.000000 0.000000 0.000000 0.000000 0.000000 0.037264
#
#
# Mechanical properties :
#
#
# Convention : Reuss Voigt Hill
#
# Bulk Modulus (GPa) = 44.14081 49.31902 46.72992
# Shear Modulus (GPa) = 22.69647 24.39363 23.54505
#
# Velocity S-wave (km/s) = 3.49084 3.61900 3.55550
# Velocity P-wave (km/s) = 6.32041 6.62893 6.47650
#
# Compressibility (1/GPa) = 0.02265477
#
# Stress axis : x y z
#
# Youngs Moduli (GPa) = 41.09714 70.02960 58.34495
#
# Poissons Ratio (x) = 0.34203 0.32897
# Poissons Ratio (y) = 0.20072 0.35158
# Poissons Ratio (z) = 0.23172 0.42199
#
# Static dielectric constant tensor:
#      x y z
#    x 3.414850 0.000000 0.000000 
#    y 0.000000 3.568390 0.000000 
#    z 0.000000 0.000000 3.647480 
# 
# 
# High freq. dielectric constant tensor:
#      x y z
#    x 1.690460 0.000000 0.000000 
#    y 0.000000 1.736690 0.000000 
#    z 0.000000 0.000000 1.706260 
# 
# From -- ./inp_files/30022.got.cif
#   From: 2010.03.12/outbox.cif.g09.slc.cpg/sg62_16_cif.got.tgz:30022.got - 2010.04.10 19:12:36.
