data_PCOD8252614
_publ_section_title
;
Structure prediction by ZEFSAII (Michael W. Deem and Ramdas Pophale) SiO2 
 PCOD8252614
Probable space group: P N M A
;
_chemical_formula_sum "Si O2"
_cell_formula_units_Z 48
_cell_length_a 9.193887
_cell_length_b 18.856092
_cell_length_c 14.470081
_cell_angle_alpha 90.000000
_cell_angle_beta 90.000000
_cell_angle_gamma 90.000000
_cell_volume 2508.544516
_symmetry_space_group_name_H-M "P N M A"
_symmetry_group_IT_number 62
_symmetry_cell_setting 'orthorhombic'
loop_
_space_group_symop_operation_xyz
x,y,z
1/2-x,-y,1/2+z
1/2+x,1/2-y,1/2-z
-x,1/2+y,-z
-x,-y,-z
1/2+x,y,1/2-z
1/2-x,1/2+y,1/2+z
x,1/2-y,z
loop_
_atom_site_type_symbol
_atom_site_label
_atom_site_fract_x
_atom_site_fract_y
_atom_site_fract_z
Si Si1 0.395657 0.470210 0.789821
Si Si2 0.164582 0.938931 0.088496
Si Si3 0.563085 0.094482 0.444243
Si Si4 0.863646 0.430421 0.225659
Si Si5 0.483446 0.579320 0.034209
Si Si6 0.836403 0.168043 0.396151
O O1 0.351839 0.427108 0.698117
O O2 0.551801 0.507540 0.778902
O O3 0.282033 0.533026 0.813980
O O4 0.414963 0.414581 0.873816
O O5 0.314613 0.904130 0.055083
O O6 0.158670 0.022681 0.064743
O O7 0.027732 0.901546 0.038790
O O8 0.453367 0.101635 0.358877
O O9 0.679126 0.158104 0.444660
O O10 0.826530 0.367191 0.295221
O O11 0.500000 0.500000 0.000000
O O12 0.535511 0.635164 0.958157
O O13 0.871786 0.250000 0.383304
#
# Coordination Sequence:
#
# PCOD8252614 Si02
#       6
#     8   8   8   8   8   8
#     4  11  19  34  62  96 119 147 202 260 311 343
#     4  10  20  34  60  93 114 151 198 262 308 340
#     4  10  21  36  58  87 124 155 201 252 301 366
#     4  11  20  36  56  91 123 159 200 242 306 369
#     4  12  20  37  62  90 121 156 210 267 295 359
#     4  12  26  41  57  87 130 172 201 244 320 383
#
# _framework density 19.134602000000001
#
# number of rings (size 3 to 8) (size 9 to 14) (size 15 to 20)
#    0.000    1.000    8.333    1.000    4.667    0.667 
#    0.000    0.833    0.000    4.000    0.000    0.000 
#    0.000    0.000    0.000    0.000    0.000    0.000 
#
# Total GULP energy -595318.759110 kJ/mol
# GULP energy per Si atom -12402.474148 kJ/mol
# Density = 1.909105 g / cm^3
# Si number density = 19.134602 Si / 1000 Ang^3
#
#
#
# Elastic Constant Matrix: (Units=GPa)
#
#
# Indices 1 2 3 4 5 6 
#
# 1 103.1916 25.2906 36.8135 0.0000 0.0000 0.0000
# 2 25.2906 57.8780 14.5289 0.0000 0.0000 0.0000
# 3 36.8135 14.5289 77.4035 0.0000 0.0000 0.0000
# 4 0.0000 0.0000 0.0000 15.9813 0.0000 0.0000
# 5 0.0000 0.0000 0.0000 0.0000 33.5644 0.0000
# 6 0.0000 0.0000 0.0000 0.0000 0.0000 20.4706
#
#
#
# Elastic Compliance Matrix: (Units=1/GPa)
#
#
# Indices 1 2 3 4 5 6 
#
# 1 0.012570 -0.004189 -0.005192 0.000000 0.000000 0.000000
# 2 -0.004189 0.019528 -0.001673 0.000000 0.000000 0.000000
# 3 -0.005192 -0.001673 0.015703 0.000000 0.000000 0.000000
# 4 0.000000 0.000000 0.000000 0.062573 0.000000 0.000000
# 5 0.000000 0.000000 0.000000 0.000000 0.029793 0.000000
# 6 0.000000 0.000000 0.000000 0.000000 0.000000 0.048851
#
#
# Mechanical properties :
#
#
# Convention : Reuss Voigt Hill
#
# Bulk Modulus (GPa) = 38.92236 43.52657 41.22447
# Shear Modulus (GPa) = 22.75936 24.79261 23.77598
#
# Velocity S-wave (km/s) = 3.45256 3.60348 3.52883
# Velocity P-wave (km/s) = 6.02321 6.33328 6.18019
#
# Compressibility (1/GPa) = 0.02569217
#
# Stress axis : x y z
#
# Youngs Moduli (GPa) = 79.55714 51.20792 63.68365
#
# Poissons Ratio (x) = 0.21452 0.33063
# Poissons Ratio (y) = 0.33328 0.10655
# Poissons Ratio (z) = 0.41305 0.08568
#
# Static dielectric constant tensor:
#      x y z
#    x 3.808140 0.000000 0.000000 
#    y 0.000000 2.920840 0.000000 
#    z 0.000000 0.000000 3.853450 
# 
# 
# High freq. dielectric constant tensor:
#      x y z
#    x 1.768450 0.000000 0.000000 
#    y 0.000000 1.665590 0.000000 
#    z 0.000000 0.000000 1.760740 
# 
# From -- ./inp_files/16914.got.cif
#   From: 2010.03.12/outbox.cif.g09.slc.cpg/sg62_9_cif.got.tgz:16914.got - 2010.04.10 19:12:36.
