data_PCOD8252927
_publ_section_title
;
Structure prediction by ZEFSAII (Michael W. Deem and Ramdas Pophale) SiO2 
 PCOD8252927
Probable space group: P N M A
;
_chemical_formula_sum "Si O2"
_cell_formula_units_Z 64
_cell_length_a 8.965431
_cell_length_b 20.587183
_cell_length_c 18.950172
_cell_angle_alpha 90.000000
_cell_angle_beta 90.000000
_cell_angle_gamma 90.000000
_cell_volume 3497.689503
_symmetry_space_group_name_H-M "P N M A"
_symmetry_group_IT_number 62
_symmetry_cell_setting 'orthorhombic'
loop_
_space_group_symop_operation_xyz
x,y,z
1/2-x,-y,1/2+z
1/2+x,1/2-y,1/2-z
-x,1/2+y,-z
-x,-y,-z
1/2+x,y,1/2-z
1/2-x,1/2+y,1/2+z
x,1/2-y,z
loop_
_atom_site_type_symbol
_atom_site_label
_atom_site_fract_x
_atom_site_fract_y
_atom_site_fract_z
Si Si1 0.572862 0.055866 0.956002
Si Si2 0.044319 0.368360 0.175378
Si Si3 0.108605 0.822540 0.950751
Si Si4 0.059041 0.489816 0.818967
Si Si5 0.905037 0.010471 0.669134
Si Si6 0.584312 0.372747 0.090366
Si Si7 0.916241 0.445482 0.953560
Si Si8 0.859370 0.177151 0.307559
O O1 0.481533 0.063476 0.883072
O O2 0.743954 0.035439 0.943438
O O3 0.558731 0.119143 0.005859
O O4 0.500000 0.000000 0.000000
O O5 0.977088 0.437934 0.154138
O O6 0.220919 0.372825 0.191609
O O7 0.023842 0.323084 0.106848
O O8 0.966038 0.339568 0.243448
O O9 0.120787 0.750000 0.983472
O O10 0.254282 0.839681 0.903508
O O11 0.073851 0.874027 0.012185
O O12 0.991949 0.481650 0.741828
O O13 0.987885 0.440669 0.875868
O O14 0.233452 0.473850 0.817451
O O15 0.921668 0.939037 0.635906
O O16 0.455223 0.326938 0.120541
O O17 0.000000 0.500000 0.000000
O O18 0.796863 0.250000 0.299675
#
# Coordination Sequence:
#
# PCOD8252927 Si02
#       8
#     8   8   8   8   8   8   8   8
#     4   9  20  33  54  80 108 142 184 232 283 335
#     4  12  23  37  51  74 112 153 195 234 277 328
#     4  11  22  39  58  82 114 151 195 236 284 343
#     4  12  22  36  57  80 115 147 188 239 284 344
#     4  11  21  36  54  85 110 148 188 236 295 335
#     4  10  20  36  55  77 110 149 186 230 279 337
#     4  11  21  37  58  84 112 153 190 239 293 337
#     4  12  24  35  50  74 107 153 194 230 273 332
#
# _framework density 18.297792999999999
#
# number of rings (size 3 to 8) (size 9 to 14) (size 15 to 20)
#    0.000    1.000    3.750    5.250    3.500    1.000 
#    0.000    0.000    0.000    0.000    0.000    8.750 
#    0.000    0.000    0.000    0.000    0.000    0.000 
#
# Total GULP energy -793490.547299 kJ/mol
# GULP energy per Si atom -12398.289802 kJ/mol
# Density = 1.825615 g / cm^3
# Si number density = 18.297793 Si / 1000 Ang^3
#
#
#
# Elastic Constant Matrix: (Units=GPa)
#
#
# Indices 1 2 3 4 5 6 
#
# 1 138.1021 32.6751 65.2462 0.0000 0.0000 0.0000
# 2 32.6751 68.5210 45.9402 0.0000 0.0000 0.0000
# 3 65.2462 45.9402 128.7927 0.0000 0.0000 0.0000
# 4 0.0000 0.0000 0.0000 23.7293 0.0000 0.0000
# 5 0.0000 0.0000 0.0000 0.0000 37.0830 0.0000
# 6 0.0000 0.0000 0.0000 0.0000 0.0000 16.4576
#
#
#
# Elastic Compliance Matrix: (Units=1/GPa)
#
#
# Indices 1 2 3 4 5 6 
#
# 1 0.009676 -0.001745 -0.004279 0.000000 0.000000 0.000000
# 2 -0.001745 0.019496 -0.006070 0.000000 0.000000 0.000000
# 3 -0.004279 -0.006070 0.012098 0.000000 0.000000 0.000000
# 4 0.000000 0.000000 0.000000 0.042142 0.000000 0.000000
# 5 0.000000 0.000000 0.000000 0.000000 0.026967 0.000000
# 6 0.000000 0.000000 0.000000 0.000000 0.000000 0.060762
#
#
# Mechanical properties :
#
#
# Convention : Reuss Voigt Hill
#
# Bulk Modulus (GPa) = 58.54684 69.23764 63.89224
# Shear Modulus (GPa) = 24.87294 28.22429 26.54862
#
# Velocity S-wave (km/s) = 3.69092 3.93172 3.81323
# Velocity P-wave (km/s) = 7.08731 7.65067 7.37437
#
# Compressibility (1/GPa) = 0.01708034
#
# Stress axis : x y z
#
# Youngs Moduli (GPa) = 103.35294 51.29279 82.66166
#
# Poissons Ratio (x) = 0.08950 0.35373
# Poissons Ratio (y) = 0.18034 0.50177
# Poissons Ratio (z) = 0.44227 0.31136
#
# Static dielectric constant tensor:
#      x y z
#    x 3.580270 0.000000 0.000000 
#    y 0.000000 3.330400 0.000000 
#    z 0.000000 0.000000 4.037900 
# 
# 
# High freq. dielectric constant tensor:
#      x y z
#    x 1.728180 0.000000 0.000000 
#    y 0.000000 1.665660 0.000000 
#    z 0.000000 0.000000 1.712280 
# 
# From -- ./inp_files/22575.got.cif
#   From: 2010.03.12/outbox.cif.g09.slc.cpg/sg62_12_cif.got.tgz:22575.got - 2010.04.10 19:12:36.
