data_PCOD8252699
_publ_section_title
;
Structure prediction by ZEFSAII (Michael W. Deem and Ramdas Pophale) SiO2 
 PCOD8252699
Probable space group: P N M A
;
_chemical_formula_sum "Si O2"
_cell_formula_units_Z 40
_cell_length_a 9.910658
_cell_length_b 23.539125
_cell_length_c 8.275878
_cell_angle_alpha 90.000000
_cell_angle_beta 90.000000
_cell_angle_gamma 90.000000
_cell_volume 1930.664827
_symmetry_space_group_name_H-M "P N M A"
_symmetry_group_IT_number 62
_symmetry_cell_setting 'orthorhombic'
loop_
_space_group_symop_operation_xyz
x,y,z
1/2-x,-y,1/2+z
1/2+x,1/2-y,1/2-z
-x,1/2+y,-z
-x,-y,-z
1/2+x,y,1/2-z
1/2-x,1/2+y,1/2+z
x,1/2-y,z
loop_
_atom_site_type_symbol
_atom_site_label
_atom_site_fract_x
_atom_site_fract_y
_atom_site_fract_z
Si Si1 0.203178 0.815195 0.787916
Si Si2 0.372490 0.376398 0.575676
Si Si3 0.576464 0.972042 0.645471
Si Si4 0.469903 0.618844 0.863904
Si Si5 0.883558 0.911018 0.282458
O O1 0.214059 0.750000 0.736537
O O2 0.111653 0.847707 0.656122
O O3 0.352839 0.841070 0.795078
O O4 0.136234 0.819232 0.969186
O O5 0.326284 0.425545 0.442193
O O6 0.523228 0.384594 0.641491
O O7 0.261552 0.379268 0.718580
O O8 0.471914 0.939162 0.760769
O O9 0.500000 0.000000 0.500000
O O10 0.646933 0.022048 0.749695
O O11 0.457768 0.601158 0.049744
#
# Coordination Sequence:
#
# PCOD8252699 Si02
#       5
#     8   8   8   8   8
#     4  10  21  40  58  77 106 142 184 235 277 318
#     4   9  21  36  54  80 111 146 184 219 270 330
#     4   9  19  34  53  80 116 148 173 213 270 326
#     4  10  21  35  58  85 107 141 186 223 270 330
#     4  10  20  35  55  82 114 145 179 224 268 328
#
# _framework density 20.718250999999999
#
# number of rings (size 3 to 8) (size 9 to 14) (size 15 to 20)
#    0.000    2.400    0.000    1.200    0.000   16.000 
#    0.000    5.000    0.000    0.000    0.000    0.000 
#    0.000    0.000    0.000    0.000    0.000    0.000 
#
# Total GULP energy -495611.052956 kJ/mol
# GULP energy per Si atom -12390.276324 kJ/mol
# Density = 2.067110 g / cm^3
# Si number density = 20.718251 Si / 1000 Ang^3
#
#
#
# Elastic Constant Matrix: (Units=GPa)
#
#
# Indices 1 2 3 4 5 6 
#
# 1 47.3582 -11.4052 4.3606 0.0000 0.0000 0.0000
# 2 -11.4052 56.5184 9.0111 0.0000 0.0000 0.0000
# 3 4.3606 9.0111 52.3432 0.0000 0.0000 0.0000
# 4 0.0000 0.0000 0.0000 24.3423 0.0000 0.0000
# 5 0.0000 0.0000 0.0000 0.0000 35.6127 0.0000
# 6 0.0000 0.0000 0.0000 0.0000 0.0000 20.0208
#
#
#
# Elastic Compliance Matrix: (Units=1/GPa)
#
#
# Indices 1 2 3 4 5 6 
#
# 1 0.022570 0.004991 -0.002740 0.000000 0.000000 0.000000
# 2 0.004991 0.019297 -0.003738 0.000000 0.000000 0.000000
# 3 -0.002740 -0.003738 0.019976 0.000000 0.000000 0.000000
# 4 0.000000 0.000000 0.000000 0.041081 0.000000 0.000000
# 5 0.000000 0.000000 0.000000 0.000000 0.028080 0.000000
# 6 0.000000 0.000000 0.000000 0.000000 0.000000 0.049948
#
#
# Mechanical properties :
#
#
# Convention : Reuss Voigt Hill
#
# Bulk Modulus (GPa) = 16.98633 17.79475 17.39054
# Shear Modulus (GPa) = 24.56433 26.27872 25.42152
#
# Velocity S-wave (km/s) = 3.44704 3.56530 3.50667
# Velocity P-wave (km/s) = 4.90503 5.05530 4.98073
#
# Compressibility (1/GPa) = 0.05887087
#
# Stress axis : x y z
#
# Youngs Moduli (GPa) = 44.30663 51.82280 50.05907
#
# Poissons Ratio (x) = -0.25866 0.13714
# Poissons Ratio (y) = -0.22115 0.18711
# Poissons Ratio (z) = 0.12138 0.19370
#
# Static dielectric constant tensor:
#      x y z
#    x 3.802420 0.000000 0.000000 
#    y 0.000000 4.416080 0.000000 
#    z 0.000000 0.000000 3.850800 
# 
# 
# High freq. dielectric constant tensor:
#      x y z
#    x 1.806110 0.000000 0.000000 
#    y 0.000000 1.794960 0.000000 
#    z 0.000000 0.000000 1.811550 
# 
# From -- ./inp_files/4278.got.cif
#   From: 2010.03.12/outbox.cif.g09.slc.cpg/sg62_3_cif.got.tgz:4278.got - 2010.04.10 19:12:36.
