data_PCOD8252937
_publ_section_title
;
Structure prediction by ZEFSAII (Michael W. Deem and Ramdas Pophale) SiO2 
 PCOD8252937
Probable space group: P N M A
;
_chemical_formula_sum "Si O2"
_cell_formula_units_Z 48
_cell_length_a 14.719763
_cell_length_b 8.883978
_cell_length_c 20.070720
_cell_angle_alpha 90.000000
_cell_angle_beta 90.000000
_cell_angle_gamma 90.000000
_cell_volume 2624.649071
_symmetry_space_group_name_H-M "P N M A"
_symmetry_group_IT_number 62
_symmetry_cell_setting 'orthorhombic'
loop_
_space_group_symop_operation_xyz
x,y,z
1/2-x,-y,1/2+z
1/2+x,1/2-y,1/2-z
-x,1/2+y,-z
-x,-y,-z
1/2+x,y,1/2-z
1/2-x,1/2+y,1/2+z
x,1/2-y,z
loop_
_atom_site_type_symbol
_atom_site_label
_atom_site_fract_x
_atom_site_fract_y
_atom_site_fract_z
Si Si1 0.621731 0.427907 0.188382
Si Si2 0.986226 0.425776 0.194449
Si Si3 0.719823 0.574800 0.520085
Si Si4 0.567597 0.426799 0.447682
Si Si5 0.923491 0.922489 0.542455
Si Si6 0.305356 0.928324 0.338342
O O1 0.641731 0.250000 0.186108
O O2 0.552269 0.473715 0.245785
O O3 0.580154 0.484330 0.118047
O O4 0.717059 0.511788 0.200939
O O5 0.961870 0.250000 0.197719
O O6 0.894309 0.521146 0.202531
O O7 0.037308 0.467765 0.126481
O O8 0.694308 0.750000 0.524669
O O9 0.667468 0.496996 0.458930
O O10 0.826472 0.550318 0.507376
O O11 0.687581 0.500304 0.588690
O O12 0.500000 0.500000 0.500000
O O13 0.571037 0.250000 0.459891
O O14 0.950080 0.750000 0.544594
O O15 0.000000 0.000000 0.500000
O O16 0.301398 0.750000 0.344343
#
# Coordination Sequence:
#
# PCOD8252937 Si02
#       6
#     8   8   8   8   8   8
#     4   9  20  40  60  79 108 149 191 226 271 336
#     4  10  21  38  59  80 110 150 189 229 275 336
#     4  10  20  36  56  79 111 149 186 226 274 335
#     4  11  21  33  55  86 114 145 185 230 279 328
#     4   9  19  36  59  82 106 142 185 229 276 324
#     4  11  21  34  57  84 110 144 183 230 282 329
#
# _framework density 18.288159
#
# number of rings (size 3 to 8) (size 9 to 14) (size 15 to 20)
#    0.000    2.000    1.667    3.500    0.000    4.667 
#    3.000    0.000    0.000    0.000    0.000    0.000 
#    0.000    0.000    0.000    0.000    0.000    0.000 
#
# Total GULP energy -595314.355281 kJ/mol
# GULP energy per Si atom -12402.382402 kJ/mol
# Density = 1.824653 g / cm^3
# Si number density = 18.288159 Si / 1000 Ang^3
#
#
#
# Elastic Constant Matrix: (Units=GPa)
#
#
# Indices 1 2 3 4 5 6 
#
# 1 146.7284 70.5987 78.8212 0.0000 0.0000 0.0000
# 2 70.5987 93.9469 47.7786 0.0000 0.0000 0.0000
# 3 78.8212 47.7786 100.7637 0.0000 0.0000 0.0000
# 4 0.0000 0.0000 0.0000 25.8285 0.0000 0.0000
# 5 0.0000 0.0000 0.0000 0.0000 34.0483 0.0000
# 6 0.0000 0.0000 0.0000 0.0000 0.0000 38.7151
#
#
#
# Elastic Compliance Matrix: (Units=1/GPa)
#
#
# Indices 1 2 3 4 5 6 
#
# 1 0.014370 -0.006697 -0.008066 0.000000 0.000000 0.000000
# 2 -0.006697 0.017148 -0.002892 0.000000 0.000000 0.000000
# 3 -0.008066 -0.002892 0.017605 0.000000 0.000000 0.000000
# 4 0.000000 0.000000 0.000000 0.038717 0.000000 0.000000
# 5 0.000000 0.000000 0.000000 0.000000 0.029370 0.000000
# 6 0.000000 0.000000 0.000000 0.000000 0.000000 0.025830
#
#
# Mechanical properties :
#
#
# Convention : Reuss Voigt Hill
#
# Bulk Modulus (GPa) = 72.39362 81.75954 77.07658
# Shear Modulus (GPa) = 27.32932 29.33442 28.33187
#
# Velocity S-wave (km/s) = 3.86991 4.00936 3.94025
# Velocity P-wave (km/s) = 7.72264 8.13859 7.93334
#
# Compressibility (1/GPa) = 0.01381337
#
# Stress axis : x y z
#
# Youngs Moduli (GPa) = 69.58777 58.31626 56.80282
#
# Poissons Ratio (x) = 0.39055 0.45814
# Poissons Ratio (y) = 0.46603 0.16429
# Poissons Ratio (z) = 0.56126 0.16866
#
# Static dielectric constant tensor:
#      x y z
#    x 3.537850 0.000000 0.000000 
#    y 0.000000 3.406750 0.000000 
#    z 0.000000 0.000000 3.426980 
# 
# 
# High freq. dielectric constant tensor:
#      x y z
#    x 1.719650 0.000000 0.000000 
#    y 0.000000 1.710730 0.000000 
#    z 0.000000 0.000000 1.692250 
# 
# From -- ./inp_files/26864.got.cif
#   From: 2010.03.12/outbox.cif.g09.slc.cpg/sg62_14_cif.got.tgz:26864.got - 2010.04.10 19:12:36.
