data_PCOD8252609
_publ_section_title
;
Structure prediction by ZEFSAII (Michael W. Deem and Ramdas Pophale) SiO2 
 PCOD8252609
Probable space group: P N M A
;
_chemical_formula_sum "Si O2"
_cell_formula_units_Z 48
_cell_length_a 16.135575
_cell_length_b 17.382383
_cell_length_c 9.072701
_cell_angle_alpha 90.000000
_cell_angle_beta 90.000000
_cell_angle_gamma 90.000000
_cell_volume 2544.663496
_symmetry_space_group_name_H-M "P N M A"
_symmetry_group_IT_number 62
_symmetry_cell_setting 'orthorhombic'
loop_
_space_group_symop_operation_xyz
x,y,z
1/2-x,-y,1/2+z
1/2+x,1/2-y,1/2-z
-x,1/2+y,-z
-x,-y,-z
1/2+x,y,1/2-z
1/2-x,1/2+y,1/2+z
x,1/2-y,z
loop_
_atom_site_type_symbol
_atom_site_label
_atom_site_fract_x
_atom_site_fract_y
_atom_site_fract_z
Si Si1 0.471077 0.527686 0.655916
Si Si2 0.219603 0.063513 0.431077
Si Si3 0.685235 0.564378 0.284858
Si Si4 0.811279 0.162139 0.522240
Si Si5 0.656567 0.338922 0.315870
Si Si6 0.919076 0.473079 0.417764
O O1 0.500000 0.500000 0.500000
O O2 0.409333 0.465244 0.729767
O O3 0.424059 0.609884 0.648432
O O4 0.556429 0.532914 0.746742
O O5 0.296706 0.076105 0.541579
O O6 0.193284 0.141491 0.346872
O O7 0.239677 0.000235 0.303815
O O8 0.149381 0.037004 0.546511
O O9 0.698703 0.644068 0.197003
O O10 0.836632 0.250000 0.499851
O O11 0.725973 0.142559 0.438403
O O12 0.886413 0.111086 0.461807
O O13 0.630106 0.250000 0.318559
O O14 0.000000 0.500000 0.500000
#
# Coordination Sequence:
#
# PCOD8252609 Si02
#       6
#     8   8   8   8   8   8
#     4  11  23  35  59  87 114 149 192 245 285 337
#     4  10  20  34  60  83 114 150 193 238 275 347
#     4  10  20  36  57  85 115 148 195 236 278 341
#     4  10  22  39  59  82 118 155 189 236 291 348
#     4  10  22  41  58  83 117 155 193 234 291 350
#     4  11  19  37  57  87 108 147 194 232 286 336
#
# _framework density 18.863004
#
# number of rings (size 3 to 8) (size 9 to 14) (size 15 to 20)
#    0.000    1.667    5.000    4.000    7.000    1.333 
#    0.000    0.833    0.000    0.000    0.000    0.000 
#    0.000    0.000    0.000    0.000    0.000    0.000 
#
# Total GULP energy -594884.282908 kJ/mol
# GULP energy per Si atom -12393.422561 kJ/mol
# Density = 1.882007 g / cm^3
# Si number density = 18.863004 Si / 1000 Ang^3
#
#
#
# Elastic Constant Matrix: (Units=GPa)
#
#
# Indices 1 2 3 4 5 6 
#
# 1 37.5066 34.7295 18.0644 0.0000 0.0000 0.0000
# 2 34.7295 97.6732 42.5540 0.0000 0.0000 0.0000
# 3 18.0644 42.5540 121.7520 0.0000 0.0000 0.0000
# 4 0.0000 0.0000 0.0000 20.4401 0.0000 0.0000
# 5 0.0000 0.0000 0.0000 0.0000 45.3297 0.0000
# 6 0.0000 0.0000 0.0000 0.0000 0.0000 27.0124
#
#
#
# Elastic Compliance Matrix: (Units=1/GPa)
#
#
# Indices 1 2 3 4 5 6 
#
# 1 0.039881 -0.013687 -0.001134 0.000000 0.000000 0.000000
# 2 -0.013687 0.016774 -0.003832 0.000000 0.000000 0.000000
# 3 -0.001134 -0.003832 0.009721 0.000000 0.000000 0.000000
# 4 0.000000 0.000000 0.000000 0.048924 0.000000 0.000000
# 5 0.000000 0.000000 0.000000 0.000000 0.022061 0.000000
# 6 0.000000 0.000000 0.000000 0.000000 0.000000 0.037020
#
#
# Mechanical properties :
#
#
# Convention : Reuss Voigt Hill
#
# Bulk Modulus (GPa) = 34.39754 49.73640 42.06697
# Shear Modulus (GPa) = 22.58602 29.32869 25.95735
#
# Velocity S-wave (km/s) = 3.46406 3.94741 3.71360
# Velocity P-wave (km/s) = 5.85446 6.87026 6.38260
#
# Compressibility (1/GPa) = 0.02907185
#
# Stress axis : x y z
#
# Youngs Moduli (GPa) = 25.07450 59.61481 102.87017
#
# Poissons Ratio (x) = 0.81593 0.11660
# Poissons Ratio (y) = 0.34319 0.39422
# Poissons Ratio (z) = 0.02842 0.22845
#
# Static dielectric constant tensor:
#      x y z
#    x 2.900620 0.000000 0.000000 
#    y 0.000000 2.309200 0.000000 
#    z 0.000000 0.000000 4.061660 
# 
# 
# High freq. dielectric constant tensor:
#      x y z
#    x 1.726020 0.000000 0.000000 
#    y 0.000000 1.709550 0.000000 
#    z 0.000000 0.000000 1.748970 
# 
# From -- ./inp_files/7779.got.cif
#   From: 2010.03.12/outbox.cif.g09.slc.cpg/sg62_4_cif.got.tgz:7779.got - 2010.04.10 19:12:36.
