data_PCOD8252036
_publ_section_title
;
Structure prediction by ZEFSAII (Michael W. Deem and Ramdas Pophale) SiO2 
 PCOD8252036
Probable space group: P N M A
;
_chemical_formula_sum "Si O2"
_cell_formula_units_Z 64
_cell_length_a 30.447828
_cell_length_b 8.550196
_cell_length_c 11.900651
_cell_angle_alpha 90.000000
_cell_angle_beta 90.000000
_cell_angle_gamma 90.000000
_cell_volume 3098.154754
_symmetry_space_group_name_H-M "P N M A"
_symmetry_group_IT_number 62
_symmetry_cell_setting 'orthorhombic'
loop_
_space_group_symop_operation_xyz
x,y,z
1/2-x,-y,1/2+z
1/2+x,1/2-y,1/2-z
-x,1/2+y,-z
-x,-y,-z
1/2+x,y,1/2-z
1/2-x,1/2+y,1/2+z
x,1/2-y,z
loop_
_atom_site_type_symbol
_atom_site_label
_atom_site_fract_x
_atom_site_fract_y
_atom_site_fract_z
Si Si1 0.795647 0.568612 0.210492
Si Si2 0.457723 0.065218 0.274747
Si Si3 0.555008 0.431430 0.253516
Si Si4 0.572154 0.928412 0.488769
Si Si5 0.326827 0.073734 0.512074
Si Si6 0.294889 0.569849 0.734115
Si Si7 0.632270 0.931616 0.114544
Si Si8 0.626613 0.934787 0.855724
O O1 0.801492 0.750000 0.184971
O O2 0.748311 0.535928 0.263558
O O3 0.832228 0.515819 0.298241
O O4 0.797669 0.476734 0.093350
O O5 0.452665 0.250000 0.280012
O O6 0.504986 0.018298 0.223671
O O7 0.454341 0.004891 0.403551
O O8 0.418727 0.998049 0.196941
O O9 0.563649 0.250000 0.226905
O O10 0.562791 0.458863 0.385102
O O11 0.586998 0.536129 0.179206
O O12 0.559163 0.750000 0.457444
O O13 0.622836 0.936732 0.525084
O O14 0.314005 0.250000 0.546899
O O15 0.319402 0.960669 0.617160
O O16 0.281238 0.750000 0.742482
O O17 0.327692 0.530199 0.835528
O O18 0.643778 0.750000 0.128314
O O19 0.626323 0.980879 0.985998
O O20 0.630880 0.750000 0.837970
#
# Coordination Sequence:
#
# PCOD8252036 Si02
#       8
#     8   8   8   8   8   8   8   8
#     4  12  26  43  66  97 131 164 207 256 313 378
#     4   9  19  38  62  90 121 163 206 256 314 370
#     4  11  22  36  60  91 127 162 206 258 313 374
#     4  10  19  36  63  89 124 163 204 254 312 368
#     4  11  22  41  69  96 127 165 209 258 312 370
#     4  12  26  44  67  93 127 166 209 260 316 372
#     4  11  24  42  64  89 123 165 211 261 315 374
#     4  10  22  44  67  87 121 167 215 261 312 368
#
# _framework density 20.657457999999998
#
# number of rings (size 3 to 8) (size 9 to 14) (size 15 to 20)
#    0.000    1.250    2.500    3.750    1.750    2.000 
#    0.000    1.875    0.000    0.000    0.000    0.000 
#    0.000    0.000    0.000    0.000    0.000    0.000 
#
# Total GULP energy -793931.759642 kJ/mol
# GULP energy per Si atom -12405.183744 kJ/mol
# Density = 2.061044 g / cm^3
# Si number density = 20.657458 Si / 1000 Ang^3
#
#
#
# Elastic Constant Matrix: (Units=GPa)
#
#
# Indices 1 2 3 4 5 6 
#
# 1 117.8575 21.4495 37.0758 0.0000 0.0000 0.0000
# 2 21.4495 50.2436 26.9010 0.0000 0.0000 0.0000
# 3 37.0758 26.9010 108.5661 0.0000 0.0000 0.0000
# 4 0.0000 0.0000 0.0000 16.3713 0.0000 0.0000
# 5 0.0000 0.0000 0.0000 0.0000 23.5402 0.0000
# 6 0.0000 0.0000 0.0000 0.0000 0.0000 16.8528
#
#
#
# Elastic Compliance Matrix: (Units=1/GPa)
#
#
# Indices 1 2 3 4 5 6 
#
# 1 0.009828 -0.002766 -0.002671 0.000000 0.000000 0.000000
# 2 -0.002766 0.023726 -0.004934 0.000000 0.000000 0.000000
# 3 -0.002671 -0.004934 0.011346 0.000000 0.000000 0.000000
# 4 0.000000 0.000000 0.000000 0.061083 0.000000 0.000000
# 5 0.000000 0.000000 0.000000 0.000000 0.042480 0.000000
# 6 0.000000 0.000000 0.000000 0.000000 0.000000 0.059337
#
#
# Mechanical properties :
#
#
# Convention : Reuss Voigt Hill
#
# Bulk Modulus (GPa) = 41.39495 49.72442 45.55969
# Shear Modulus (GPa) = 21.13313 24.10225 22.61769
#
# Velocity S-wave (km/s) = 3.20195 3.41949 3.31251
# Velocity P-wave (km/s) = 5.80967 6.30188 6.06077
#
# Compressibility (1/GPa) = 0.02415753
#
# Stress axis : x y z
#
# Youngs Moduli (GPa) = 101.74522 42.14851 88.13801
#
# Poissons Ratio (x) = 0.11657 0.23543
# Poissons Ratio (y) = 0.28140 0.43490
# Poissons Ratio (z) = 0.27178 0.20798
#
# Static dielectric constant tensor:
#      x y z
#    x 3.897290 0.000000 0.000000 
#    y 0.000000 3.598550 0.000000 
#    z 0.000000 0.000000 3.736940 
# 
# 
# High freq. dielectric constant tensor:
#      x y z
#    x 1.820510 0.000000 0.000000 
#    y 0.000000 1.797240 0.000000 
#    z 0.000000 0.000000 1.810570 
# 
# From -- ./inp_files/15758.got.cif
#   From: 2010.03.12/outbox.cif.g09.slc.cpg/sg62_8_cif.got.tgz:15758.got - 2010.04.10 19:12:36.
