data_PCOD8252794
_publ_section_title
;
Structure prediction by ZEFSAII (Michael W. Deem and Ramdas Pophale) SiO2 
 PCOD8252794
Probable space group: P N M A
;
_chemical_formula_sum "Si O2"
_cell_formula_units_Z 48
_cell_length_a 9.069883
_cell_length_b 9.098935
_cell_length_c 30.142454
_cell_angle_alpha 90.000000
_cell_angle_beta 90.000000
_cell_angle_gamma 90.000000
_cell_volume 2487.544474
_symmetry_space_group_name_H-M "P N M A"
_symmetry_group_IT_number 62
_symmetry_cell_setting 'orthorhombic'
loop_
_space_group_symop_operation_xyz
x,y,z
1/2-x,-y,1/2+z
1/2+x,1/2-y,1/2-z
-x,1/2+y,-z
-x,-y,-z
1/2+x,y,1/2-z
1/2-x,1/2+y,1/2+z
x,1/2-y,z
loop_
_atom_site_type_symbol
_atom_site_label
_atom_site_fract_x
_atom_site_fract_y
_atom_site_fract_z
Si Si1 0.170018 0.921666 0.365076
Si Si2 0.678553 0.077897 0.301355
Si Si3 0.159091 0.578693 0.787188
Si Si4 0.670627 0.079189 0.452858
Si Si5 0.371928 0.919571 0.446366
Si Si6 0.837832 0.924215 0.379861
O O1 0.178671 0.750000 0.355962
O O2 0.246666 0.963172 0.411448
O O3 0.001808 0.975776 0.367199
O O4 0.250075 0.999512 0.324973
O O5 0.695518 0.250000 0.312034
O O6 0.781589 0.028792 0.260676
O O7 0.511599 0.035774 0.289473
O O8 0.723153 0.985027 0.344050
O O9 0.185775 0.750000 0.793996
O O10 0.679681 0.250000 0.440732
O O11 0.693772 0.049671 0.504971
O O12 0.512384 0.020558 0.436761
O O13 0.799222 0.992272 0.427640
O O14 0.421127 0.750000 0.441774
O O15 0.824639 0.750000 0.382780
#
# Coordination Sequence:
#
# PCOD8252794 Si02
#       6
#     8   8   8   8   8   8
#     4  10  22  38  55  78 110 146 183 222 267 321
#     4  10  21  38  59  83 110 141 179 222 270 323
#     4  10  21  37  59  84 109 139 177 222 270 321
#     4  10  20  35  57  83 109 141 182 226 274 325
#     4   9  19  37  58  80 109 144 182 226 273 323
#     4  11  23  37  54  79 111 146 183 223 268 319
#
# _framework density 19.296137000000002
#
# number of rings (size 3 to 8) (size 9 to 14) (size 15 to 20)
#    0.000    2.000    0.000    3.000    0.000    8.667 
#    0.000    0.000    0.000    0.000    0.000    0.000 
#    0.000    0.000    0.000    0.000    0.000    0.000 
#
# Total GULP energy -595454.659942 kJ/mol
# GULP energy per Si atom -12405.305415 kJ/mol
# Density = 1.925222 g / cm^3
# Si number density = 19.296137 Si / 1000 Ang^3
#
#
#
# Elastic Constant Matrix: (Units=GPa)
#
#
# Indices 1 2 3 4 5 6 
#
# 1 69.5643 22.8304 12.2472 0.0000 0.0000 0.0000
# 2 22.8304 53.1801 23.3188 0.0000 0.0000 0.0000
# 3 12.2472 23.3188 69.4693 0.0000 0.0000 0.0000
# 4 0.0000 0.0000 0.0000 35.2999 0.0000 0.0000
# 5 0.0000 0.0000 0.0000 0.0000 41.2848 0.0000
# 6 0.0000 0.0000 0.0000 0.0000 0.0000 31.5974
#
#
#
# Elastic Compliance Matrix: (Units=1/GPa)
#
#
# Indices 1 2 3 4 5 6 
#
# 1 0.016756 -0.006916 -0.000633 0.000000 0.000000 0.000000
# 2 -0.006916 0.024904 -0.007140 0.000000 0.000000 0.000000
# 3 -0.000633 -0.007140 0.016903 0.000000 0.000000 0.000000
# 4 0.000000 0.000000 0.000000 0.028329 0.000000 0.000000
# 5 0.000000 0.000000 0.000000 0.000000 0.024222 0.000000
# 6 0.000000 0.000000 0.000000 0.000000 0.000000 0.031648
#
#
# Mechanical properties :
#
#
# Convention : Reuss Voigt Hill
#
# Bulk Modulus (GPa) = 34.26346 34.33405 34.29876
# Shear Modulus (GPa) = 27.49230 30.55757 29.02494
#
# Velocity S-wave (km/s) = 3.77869 3.98378 3.88259
# Velocity P-wave (km/s) = 6.06904 6.24440 6.15734
#
# Compressibility (1/GPa) = 0.02918561
#
# Stress axis : x y z
#
# Youngs Moduli (GPa) = 59.67872 40.15402 59.16065
#
# Poissons Ratio (x) = 0.27771 0.03742
# Poissons Ratio (y) = 0.41275 0.42242
# Poissons Ratio (z) = 0.03775 0.28671
#
# Static dielectric constant tensor:
#      x y z
#    x 3.646510 0.000000 0.000000 
#    y 0.000000 3.483940 0.000000 
#    z 0.000000 0.000000 3.655060 
# 
# 
# High freq. dielectric constant tensor:
#      x y z
#    x 1.755590 0.000000 0.000000 
#    y 0.000000 1.748340 0.000000 
#    z 0.000000 0.000000 1.764340 
# 
# From -- ./inp_files/31911.got.cif
#   From: 2010.03.12/outbox.cif.g09.slc.cpg/sg62_16_cif.got.tgz:31911.got - 2010.04.10 19:12:36.
