data_PCOD8252658
_publ_section_title
;
Structure prediction by ZEFSAII (Michael W. Deem and Ramdas Pophale) SiO2 
 PCOD8252658
Probable space group: P N M A
;
_chemical_formula_sum "Si O2"
_cell_formula_units_Z 64
_cell_length_a 15.852648
_cell_length_b 17.354839
_cell_length_c 11.451344
_cell_angle_alpha 90.000000
_cell_angle_beta 90.000000
_cell_angle_gamma 90.000000
_cell_volume 3150.495522
_symmetry_space_group_name_H-M "P N M A"
_symmetry_group_IT_number 62
_symmetry_cell_setting 'orthorhombic'
loop_
_space_group_symop_operation_xyz
x,y,z
1/2-x,-y,1/2+z
1/2+x,1/2-y,1/2-z
-x,1/2+y,-z
-x,-y,-z
1/2+x,y,1/2-z
1/2-x,1/2+y,1/2+z
x,1/2-y,z
loop_
_atom_site_type_symbol
_atom_site_label
_atom_site_fract_x
_atom_site_fract_y
_atom_site_fract_z
Si Si1 0.821978 0.912664 0.991196
Si Si2 0.167460 0.566250 0.368921
Si Si3 0.829133 0.893941 0.533688
Si Si4 0.758712 0.836121 0.762688
Si Si5 0.511095 0.909267 0.996077
Si Si6 0.504610 0.908740 0.515231
Si Si7 0.830699 0.079351 0.904733
Si Si8 0.934190 0.341145 0.250301
O O1 0.751368 0.888887 0.086389
O O2 0.792406 0.890978 0.862378
O O3 0.912892 0.875312 0.025315
O O4 0.833018 0.004453 0.986476
O O5 0.167882 0.482889 0.427999
O O6 0.083674 0.613254 0.410013
O O7 0.169910 0.560129 0.230856
O O8 0.816443 0.842386 0.648260
O O9 0.754779 0.875377 0.440436
O O10 0.919426 0.871687 0.475188
O O11 0.762312 0.750000 0.812214
O O12 0.663887 0.858958 0.727536
O O13 0.539706 0.880587 0.870118
O O14 0.500000 0.000000 0.000000
O O15 0.582686 0.874526 0.438357
O O16 0.513785 0.883850 0.649681
O O17 0.500000 0.000000 0.500000
O O18 0.953734 0.250000 0.251385
#
# Coordination Sequence:
#
# PCOD8252658 Si02
#       8
#     8   8   8   8   8   8   8   8
#     4  10  20  35  54  84 114 152 198 245 297 352
#     4  10  20  35  55  82 121 154 192 249 304 354
#     4  10  20  35  54  84 114 152 198 245 297 352
#     4  11  21  37  63  88 121 159 203 249 308 373
#     4  10  22  35  58  90 121 158 206 255 304 369
#     4  10  22  35  58  90 121 158 206 255 304 369
#     4  10  20  35  55  82 121 154 192 249 304 354
#     4  11  23  41  63  92 130 165 203 261 319 369
#
# _framework density 20.314264999999999
#
# number of rings (size 3 to 8) (size 9 to 14) (size 15 to 20)
#    0.000    1.750    3.750    0.750    5.250    3.000 
#    0.000    0.000    0.000    3.000    0.000    3.500 
#    0.000    0.000    0.000    0.000    0.000    0.000 
#
# Total GULP energy -793158.792009 kJ/mol
# GULP energy per Si atom -12393.106125 kJ/mol
# Density = 2.026803 g / cm^3
# Si number density = 20.314265 Si / 1000 Ang^3
#
#
#
# Elastic Constant Matrix: (Units=GPa)
#
#
# Indices 1 2 3 4 5 6 
#
# 1 160.1492 9.0939 41.1609 0.0000 0.0000 0.0000
# 2 9.0939 46.0997 9.9955 0.0000 0.0000 0.0000
# 3 41.1609 9.9955 86.6517 0.0000 0.0000 0.0000
# 4 0.0000 0.0000 0.0000 14.2100 0.0000 0.0000
# 5 0.0000 0.0000 0.0000 0.0000 29.3753 0.0000
# 6 0.0000 0.0000 0.0000 0.0000 0.0000 15.4203
#
#
#
# Elastic Compliance Matrix: (Units=1/GPa)
#
#
# Indices 1 2 3 4 5 6 
#
# 1 0.007134 -0.000690 -0.003309 0.000000 0.000000 0.000000
# 2 -0.000690 0.022315 -0.002246 0.000000 0.000000 0.000000
# 3 -0.003309 -0.002246 0.013371 0.000000 0.000000 0.000000
# 4 0.000000 0.000000 0.000000 0.070373 0.000000 0.000000
# 5 0.000000 0.000000 0.000000 0.000000 0.034042 0.000000
# 6 0.000000 0.000000 0.000000 0.000000 0.000000 0.064850
#
#
# Mechanical properties :
#
#
# Convention : Reuss Voigt Hill
#
# Bulk Modulus (GPa) = 32.97081 45.93347 39.45214
# Shear Modulus (GPa) = 21.30505 27.31114 24.30809
#
# Velocity S-wave (km/s) = 3.24199 3.67063 3.46295
# Velocity P-wave (km/s) = 5.50269 6.37379 5.95419
#
# Compressibility (1/GPa) = 0.03032986
#
# Stress axis : x y z
#
# Youngs Moduli (GPa) = 140.17695 44.81239 74.78614
#
# Poissons Ratio (x) = 0.03091 0.24748
# Poissons Ratio (y) = 0.09669 0.16800
# Poissons Ratio (z) = 0.46386 0.10067
#
# Static dielectric constant tensor:
#      x y z
#    x 4.891040 0.000000 0.000000 
#    y 0.000000 3.246530 0.000000 
#    z 0.000000 0.000000 3.413350 
# 
# 
# High freq. dielectric constant tensor:
#      x y z
#    x 1.832910 0.000000 0.000000 
#    y 0.000000 1.741190 0.000000 
#    z 0.000000 0.000000 1.775550 
# 
# From -- ./inp_files/13577.got.cif
#   From: 2010.03.12/outbox.cif.g09.slc.cpg/sg62_7_cif.got.tgz:13577.got - 2010.04.10 19:12:36.
