data_PCOD8252946
_publ_section_title
;
Structure prediction by ZEFSAII (Michael W. Deem and Ramdas Pophale) SiO2 
 PCOD8252946
Probable space group: P N M A
;
_chemical_formula_sum "Si O2"
_cell_formula_units_Z 64
_cell_length_a 15.337173
_cell_length_b 8.867498
_cell_length_c 23.951656
_cell_angle_alpha 90.000000
_cell_angle_beta 90.000000
_cell_angle_gamma 90.000000
_cell_volume 3257.481524
_symmetry_space_group_name_H-M "P N M A"
_symmetry_group_IT_number 62
_symmetry_cell_setting 'orthorhombic'
loop_
_space_group_symop_operation_xyz
x,y,z
1/2-x,-y,1/2+z
1/2+x,1/2-y,1/2-z
-x,1/2+y,-z
-x,-y,-z
1/2+x,y,1/2-z
1/2-x,1/2+y,1/2+z
x,1/2-y,z
loop_
_atom_site_type_symbol
_atom_site_label
_atom_site_fract_x
_atom_site_fract_y
_atom_site_fract_z
Si Si1 0.395634 0.575733 0.123363
Si Si2 0.845921 0.928741 0.499837
Si Si3 0.088254 0.573285 0.894180
Si Si4 0.395617 0.927182 0.618590
Si Si5 0.745528 0.928999 0.802423
Si Si6 0.408286 0.075202 0.894185
Si Si7 0.755734 0.927838 0.676081
Si Si8 0.337836 0.928633 0.497865
O O1 0.369527 0.750000 0.127886
O O2 0.370696 0.514163 0.061868
O O3 0.343941 0.484599 0.170168
O O4 0.497935 0.550571 0.134526
O O5 0.849325 0.750000 0.504192
O O6 0.912306 0.996851 0.545157
O O7 0.751396 0.988057 0.517269
O O8 0.092026 0.750000 0.909111
O O9 0.164360 0.525717 0.851938
O O10 0.093313 0.478208 0.951061
O O11 0.995275 0.531274 0.865980
O O12 0.382226 0.750000 0.618223
O O13 0.328849 0.996192 0.663959
O O14 0.371838 0.989029 0.557306
O O15 0.744017 0.750000 0.803291
O O16 0.752187 0.988136 0.739299
O O17 0.387889 0.250000 0.903407
O O18 0.335709 0.005701 0.854451
O O19 0.770897 0.750000 0.673043
O O20 0.324091 0.750000 0.496995
#
# Coordination Sequence:
#
# PCOD8252946 Si02
#       8
#     8   8   8   8   8   8   8   8
#     4  10  23  40  59  87 119 153 191 237 294 347
#     4  11  21  36  59  86 117 151 189 236 291 351
#     4  10  20  36  56  81 115 151 186 233 287 339
#     4   9  19  35  56  82 114 148 188 235 283 336
#     4  10  21  39  61  85 114 153 198 241 283 337
#     4  11  23  39  60  86 119 154 191 238 291 348
#     4  10  22  38  59  86 115 151 197 240 287 337
#     4  11  20  33  56  85 113 147 188 230 286 349
#
# _framework density 19.647081
#
# number of rings (size 3 to 8) (size 9 to 14) (size 15 to 20)
#    0.000    1.750    2.500    1.875    0.000    3.000 
#    0.000    3.750    0.000    0.000    0.000    0.000 
#    0.000    0.000    0.000    0.000    0.000    0.000 
#
# Total GULP energy -793762.684914 kJ/mol
# GULP energy per Si atom -12402.541952 kJ/mol
# Density = 1.960236 g / cm^3
# Si number density = 19.647081 Si / 1000 Ang^3
#
#
#
# Elastic Constant Matrix: (Units=GPa)
#
#
# Indices 1 2 3 4 5 6 
#
# 1 119.8221 27.0205 56.2606 0.0000 0.0000 0.0000
# 2 27.0205 42.5966 38.6811 0.0000 0.0000 0.0000
# 3 56.2606 38.6811 144.6043 0.0000 0.0000 0.0000
# 4 0.0000 0.0000 0.0000 25.6310 0.0000 0.0000
# 5 0.0000 0.0000 0.0000 0.0000 17.0911 0.0000
# 6 0.0000 0.0000 0.0000 0.0000 0.0000 28.2880
#
#
#
# Elastic Compliance Matrix: (Units=1/GPa)
#
#
# Indices 1 2 3 4 5 6 
#
# 1 0.010696 -0.003970 -0.003100 0.000000 0.000000 0.000000
# 2 -0.003970 0.032482 -0.007144 0.000000 0.000000 0.000000
# 3 -0.003100 -0.007144 0.010032 0.000000 0.000000 0.000000
# 4 0.000000 0.000000 0.000000 0.039015 0.000000 0.000000
# 5 0.000000 0.000000 0.000000 0.000000 0.058510 0.000000
# 6 0.000000 0.000000 0.000000 0.000000 0.000000 0.035351
#
#
# Mechanical properties :
#
#
# Convention : Reuss Voigt Hill
#
# Bulk Modulus (GPa) = 40.35076 61.21638 50.78357
# Shear Modulus (GPa) = 22.44413 26.53943 24.49178
#
# Velocity S-wave (km/s) = 3.38356 3.67932 3.53453
# Velocity P-wave (km/s) = 5.98723 7.01965 6.52390
#
# Compressibility (1/GPa) = 0.02478268
#
# Stress axis : x y z
#
# Youngs Moduli (GPa) = 93.48938 30.78630 99.67768
#
# Poissons Ratio (x) = 0.12224 0.30895
# Poissons Ratio (y) = 0.37120 0.71210
# Poissons Ratio (z) = 0.28977 0.21994
#
# Static dielectric constant tensor:
#      x y z
#    x 3.688540 0.000000 0.000000 
#    y 0.000000 3.366020 0.000000 
#    z 0.000000 0.000000 3.726350 
# 
# 
# High freq. dielectric constant tensor:
#      x y z
#    x 1.778130 0.000000 0.000000 
#    y 0.000000 1.747640 0.000000 
#    z 0.000000 0.000000 1.764630 
# 
# From -- ./inp_files/29723.got.cif
#   From: 2010.03.12/outbox.cif.g09.slc.cpg/sg62_15_cif.got.tgz:29723.got - 2010.04.10 19:12:36.
