data_PCOD8252823
_publ_section_title
;
Structure prediction by ZEFSAII (Michael W. Deem and Ramdas Pophale) SiO2 
 PCOD8252823
Probable space group: P N M A
;
_chemical_formula_sum "Si O2"
_cell_formula_units_Z 64
_cell_length_a 15.509574
_cell_length_b 9.265786
_cell_length_c 22.985869
_cell_angle_alpha 90.000000
_cell_angle_beta 90.000000
_cell_angle_gamma 90.000000
_cell_volume 3303.262310
_symmetry_space_group_name_H-M "P N M A"
_symmetry_group_IT_number 62
_symmetry_cell_setting 'orthorhombic'
loop_
_space_group_symop_operation_xyz
x,y,z
1/2-x,-y,1/2+z
1/2+x,1/2-y,1/2-z
-x,1/2+y,-z
-x,-y,-z
1/2+x,y,1/2-z
1/2-x,1/2+y,1/2+z
x,1/2-y,z
loop_
_atom_site_type_symbol
_atom_site_label
_atom_site_fract_x
_atom_site_fract_y
_atom_site_fract_z
Si Si1 0.911460 0.916241 0.492812
Si Si2 0.006981 0.081112 0.294174
Si Si3 0.809773 0.089831 0.810134
Si Si4 0.824084 0.079229 0.679488
Si Si5 0.874317 0.910052 0.361143
Si Si6 0.968027 0.917423 0.837205
Si Si7 0.439720 0.419314 0.453586
Si Si8 0.252727 0.579470 0.926800
O O1 0.930664 0.750000 0.506092
O O2 0.879790 0.944829 0.428408
O O3 0.834130 0.971168 0.534378
O O4 0.000000 0.000000 0.500000
O O5 0.025011 0.250000 0.303328
O O6 0.995603 0.040132 0.226352
O O7 0.919047 0.035191 0.324517
O O8 0.081330 0.990873 0.326637
O O9 0.849513 0.250000 0.807079
O O10 0.790477 0.039129 0.744051
O O11 0.725252 0.084698 0.847616
O O12 0.876224 0.992144 0.845274
O O13 0.828566 0.250000 0.667587
O O14 0.758724 0.005978 0.634025
O O15 0.912029 0.750000 0.346626
O O16 0.949838 0.750000 0.841140
O O17 0.032465 0.966089 0.888257
O O18 0.500000 0.500000 0.500000
O O19 0.453556 0.250000 0.464024
O O20 0.338052 0.460056 0.458717
O O21 0.254750 0.750000 0.913968
#
# Coordination Sequence:
#
# PCOD8252823 Si02
#       8
#     8   8   8   8   8   8   8   8
#     4  10  22  39  58  82 112 150 191 233 284 338
#     4  10  20  35  57  85 116 151 186 228 286 348
#     4   9  20  36  57  84 113 148 187 231 286 344
#     4  10  20  36  57  85 117 148 187 235 287 342
#     4  10  21  36  56  82 113 145 186 236 281 337
#     4   9  20  38  57  82 115 148 187 233 285 341
#     4  10  23  41  61  85 115 153 198 248 295 347
#     4  10  22  39  61  86 116 155 197 240 290 349
#
# _framework density 19.374784999999999
#
# number of rings (size 3 to 8) (size 9 to 14) (size 15 to 20)
#    0.000    2.250    0.000    1.500    3.500    5.500 
#    0.000    0.000    0.000    0.000    0.000    0.000 
#    0.000    0.000    0.000    0.000    0.000    0.000 
#
# Total GULP energy -793530.705916 kJ/mol
# GULP energy per Si atom -12398.917280 kJ/mol
# Density = 1.933069 g / cm^3
# Si number density = 19.374785 Si / 1000 Ang^3
#
#
#
# Elastic Constant Matrix: (Units=GPa)
#
#
# Indices 1 2 3 4 5 6 
#
# 1 121.0150 45.6685 67.7869 0.0000 0.0000 0.0000
# 2 45.6685 57.7170 45.9865 0.0000 0.0000 0.0000
# 3 67.7869 45.9865 95.5698 0.0000 0.0000 0.0000
# 4 0.0000 0.0000 0.0000 26.7926 0.0000 0.0000
# 5 0.0000 0.0000 0.0000 0.0000 37.5791 0.0000
# 6 0.0000 0.0000 0.0000 0.0000 0.0000 33.6879
#
#
#
# Elastic Compliance Matrix: (Units=1/GPa)
#
#
# Indices 1 2 3 4 5 6 
#
# 1 0.014674 -0.005381 -0.007819 0.000000 0.000000 0.000000
# 2 -0.005381 0.030072 -0.010653 0.000000 0.000000 0.000000
# 3 -0.007819 -0.010653 0.021136 0.000000 0.000000 0.000000
# 4 0.000000 0.000000 0.000000 0.037324 0.000000 0.000000
# 5 0.000000 0.000000 0.000000 0.000000 0.026611 0.000000
# 6 0.000000 0.000000 0.000000 0.000000 0.000000 0.029684
#
#
# Mechanical properties :
#
#
# Convention : Reuss Voigt Hill
#
# Bulk Modulus (GPa) = 55.02075 65.90951 60.46513
# Shear Modulus (GPa) = 23.44512 27.26925 25.35719
#
# Velocity S-wave (km/s) = 3.48240 3.75568 3.62162
# Velocity P-wave (km/s) = 6.68051 7.27316 6.98313
#
# Compressibility (1/GPa) = 0.01817496
#
# Stress axis : x y z
#
# Youngs Moduli (GPa) = 68.14866 33.25382 47.31366
#
# Poissons Ratio (x) = 0.17894 0.36994
# Poissons Ratio (y) = 0.36670 0.50405
# Poissons Ratio (z) = 0.53284 0.35426
#
# Static dielectric constant tensor:
#      x y z
#    x 3.494670 0.000000 0.000000 
#    y 0.000000 3.607190 0.000000 
#    z 0.000000 0.000000 3.659030 
# 
# 
# High freq. dielectric constant tensor:
#      x y z
#    x 1.753030 0.000000 0.000000 
#    y 0.000000 1.749850 0.000000 
#    z 0.000000 0.000000 1.761580 
# 
# From -- ./inp_files/29827.got.cif
#   From: 2010.03.12/outbox.cif.g09.slc.cpg/sg62_15_cif.got.tgz:29827.got - 2010.04.10 19:12:36.
