data_PCOD8252714
_publ_section_title
;
Structure prediction by ZEFSAII (Michael W. Deem and Ramdas Pophale) SiO2 
 PCOD8252714
Probable space group: P N M A
;
_chemical_formula_sum "Si O2"
_cell_formula_units_Z 40
_cell_length_a 18.322279
_cell_length_b 8.874102
_cell_length_c 13.418520
_cell_angle_alpha 90.000000
_cell_angle_beta 90.000000
_cell_angle_gamma 90.000000
_cell_volume 2181.767791
_symmetry_space_group_name_H-M "P N M A"
_symmetry_group_IT_number 62
_symmetry_cell_setting 'orthorhombic'
loop_
_space_group_symop_operation_xyz
x,y,z
1/2-x,-y,1/2+z
1/2+x,1/2-y,1/2-z
-x,1/2+y,-z
-x,-y,-z
1/2+x,y,1/2-z
1/2-x,1/2+y,1/2+z
x,1/2-y,z
loop_
_atom_site_type_symbol
_atom_site_label
_atom_site_fract_x
_atom_site_fract_y
_atom_site_fract_z
Si Si1 0.792009 0.926027 0.402739
Si Si2 0.354071 0.072174 0.287704
Si Si3 0.502245 0.074285 0.393020
Si Si4 0.639194 0.578786 0.304260
Si Si5 0.222156 0.925271 0.393577
O O1 0.807717 0.750000 0.416697
O O2 0.708221 0.956701 0.374098
O O3 0.844730 0.988410 0.317160
O O4 0.810820 0.014537 0.503455
O O5 0.346332 0.250000 0.271814
O O6 0.432659 0.023945 0.328859
O O7 0.294414 0.018911 0.367695
O O8 0.501323 0.250000 0.411513
O O9 0.500000 0.000000 0.500000
O O10 0.574363 0.031701 0.332476
O O11 0.613283 0.750000 0.320639
O O12 0.660422 0.549559 0.189729
O O13 0.243503 0.750000 0.400816
#
# Coordination Sequence:
#
# PCOD8252714 Si02
#       5
#     8   8   8   8   8
#     4  10  20  35  56  81 106 138 178 219 263 312
#     4  10  21  36  53  78 109 139 176 220 260 310
#     4  11  23  36  54  79 107 139 174 213 262 313
#     4   9  20  36  53  77 108 137 173 217 259 308
#     4  10  20  35  56  81 107 139 176 217 264 313
#
# _framework density 18.333756999999999
#
# number of rings (size 3 to 8) (size 9 to 14) (size 15 to 20)
#    0.000    2.000    0.000    4.800    0.000   12.800 
#    0.000    1.000    0.000    0.000    0.000    0.000 
#    0.000    0.000    0.000    0.000    0.000    0.000 
#
# Total GULP energy -496185.406278 kJ/mol
# GULP energy per Si atom -12404.635157 kJ/mol
# Density = 1.829203 g / cm^3
# Si number density = 18.333757 Si / 1000 Ang^3
#
#
#
# Elastic Constant Matrix: (Units=GPa)
#
#
# Indices 1 2 3 4 5 6 
#
# 1 100.0073 40.5274 47.3412 0.0000 0.0000 0.0000
# 2 40.5274 50.3385 38.5575 0.0000 0.0000 0.0000
# 3 47.3412 38.5575 132.1431 0.0000 0.0000 0.0000
# 4 0.0000 0.0000 0.0000 38.3210 0.0000 0.0000
# 5 0.0000 0.0000 0.0000 0.0000 16.5381 0.0000
# 6 0.0000 0.0000 0.0000 0.0000 0.0000 31.9166
#
#
#
# Elastic Compliance Matrix: (Units=1/GPa)
#
#
# Indices 1 2 3 4 5 6 
#
# 1 0.015435 -0.010548 -0.002452 0.000000 0.000000 0.000000
# 2 -0.010548 0.032792 -0.005789 0.000000 0.000000 0.000000
# 3 -0.002452 -0.005789 0.010135 0.000000 0.000000 0.000000
# 4 0.000000 0.000000 0.000000 0.026095 0.000000 0.000000
# 5 0.000000 0.000000 0.000000 0.000000 0.060467 0.000000
# 6 0.000000 0.000000 0.000000 0.000000 0.000000 0.031332
#
#
# Mechanical properties :
#
#
# Convention : Reuss Voigt Hill
#
# Bulk Modulus (GPa) = 48.11559 59.48233 53.79896
# Shear Modulus (GPa) = 22.64882 27.75933 25.20407
#
# Velocity S-wave (km/s) = 3.51858 3.89538 3.71177
# Velocity P-wave (km/s) = 6.54282 7.26268 6.91213
#
# Compressibility (1/GPa) = 0.02078329
#
# Stress axis : x y z
#
# Youngs Moduli (GPa) = 64.78990 30.49487 98.66688
#
# Poissons Ratio (x) = 0.32167 0.24190
# Poissons Ratio (y) = 0.68343 0.57121
# Poissons Ratio (z) = 0.15884 0.17654
#
# Static dielectric constant tensor:
#      x y z
#    x 3.391720 0.000000 0.000000 
#    y 0.000000 3.504150 0.000000 
#    z 0.000000 0.000000 3.476940 
# 
# 
# High freq. dielectric constant tensor:
#      x y z
#    x 1.694950 0.000000 0.000000 
#    y 0.000000 1.725160 0.000000 
#    z 0.000000 0.000000 1.722280 
# 
# From -- ./inp_files/13822.got.cif
#   From: 2010.03.12/outbox.cif.g09.slc.cpg/sg62_7_cif.got.tgz:13822.got - 2010.04.10 19:12:36.
