data_PCOD8252191
_publ_section_title
;
Structure prediction by ZEFSAII (Michael W. Deem and Ramdas Pophale) SiO2 
 PCOD8252191
Probable space group: P N M A
;
_chemical_formula_sum "Si O2"
_cell_formula_units_Z 64
_cell_length_a 13.766503
_cell_length_b 19.451229
_cell_length_c 12.704533
_cell_angle_alpha 90.000000
_cell_angle_beta 90.000000
_cell_angle_gamma 90.000000
_cell_volume 3401.961436
_symmetry_space_group_name_H-M "P N M A"
_symmetry_group_IT_number 62
_symmetry_cell_setting 'orthorhombic'
loop_
_space_group_symop_operation_xyz
x,y,z
1/2-x,-y,1/2+z
1/2+x,1/2-y,1/2-z
-x,1/2+y,-z
-x,-y,-z
1/2+x,y,1/2-z
1/2-x,1/2+y,1/2+z
x,1/2-y,z
loop_
_atom_site_type_symbol
_atom_site_label
_atom_site_fract_x
_atom_site_fract_y
_atom_site_fract_z
Si Si1 0.010796 0.076425 0.347065
Si Si2 0.496143 0.671424 0.036383
Si Si3 0.987619 0.906496 0.094793
Si Si4 0.384776 0.173807 0.759616
Si Si5 0.791755 0.900832 0.181512
Si Si6 0.217518 0.469732 0.408939
Si Si7 0.878548 0.549551 0.383972
Si Si8 0.435343 0.436173 0.377826
O O1 0.975485 0.137763 0.424137
O O2 0.127851 0.068401 0.351232
O O3 0.976013 0.096606 0.230093
O O4 0.966360 0.004923 0.390061
O O5 0.461386 0.750000 0.018336
O O6 0.584557 0.669072 0.118495
O O7 0.410943 0.627055 0.089265
O O8 0.880933 0.871469 0.110894
O O9 0.060819 0.879075 0.183559
O O10 0.978107 0.987662 0.112115
O O11 0.026138 0.891153 0.977196
O O12 0.402135 0.250000 0.714159
O O13 0.269104 0.159034 0.761947
O O14 0.837879 0.952819 0.267010
O O15 0.718340 0.949230 0.117236
O O16 0.206538 0.468982 0.534920
O O17 0.318404 0.433181 0.377807
#
# Coordination Sequence:
#
# PCOD8252191 Si02
#       8
#     8   8   8   8   8   8   8   8
#     4  11  20  37  58  86 118 152 195 244 298 356
#     4  10  21  37  58  80 112 152 197 249 289 338
#     4  10  20  37  56  82 120 150 186 242 300 355
#     4  11  22  37  56  81 115 153 199 244 290 356
#     4  11  20  33  54  87 112 148 190 241 299 352
#     4  10  20  31  56  85 113 144 188 239 288 351
#     4  11  19  35  58  84 116 148 195 245 296 353
#     4  10  20  37  56  88 118 149 186 243 301 355
#
# _framework density 18.812677999999998
#
# number of rings (size 3 to 8) (size 9 to 14) (size 15 to 20)
#    0.000    1.500    3.750    4.500    0.000    3.000 
#    2.250    0.625    0.000    3.000    0.000    0.000 
#    0.000    0.000    0.000    0.000    0.000    0.000 
#
# Total GULP energy -793356.073319 kJ/mol
# GULP energy per Si atom -12396.188646 kJ/mol
# Density = 1.876986 g / cm^3
# Si number density = 18.812678 Si / 1000 Ang^3
#
#
#
# Elastic Constant Matrix: (Units=GPa)
#
#
# Indices 1 2 3 4 5 6 
#
# 1 117.9993 37.7418 55.4228 0.0000 0.0000 0.0000
# 2 37.7418 87.6995 36.2407 0.0000 0.0000 0.0000
# 3 55.4228 36.2407 130.5039 0.0000 0.0000 0.0000
# 4 0.0000 0.0000 0.0000 20.1285 0.0000 0.0000
# 5 0.0000 0.0000 0.0000 0.0000 31.8925 0.0000
# 6 0.0000 0.0000 0.0000 0.0000 0.0000 15.4952
#
#
#
# Elastic Compliance Matrix: (Units=1/GPa)
#
#
# Indices 1 2 3 4 5 6 
#
# 1 0.011360 -0.003271 -0.003916 0.000000 0.000000 0.000000
# 2 -0.003271 0.013822 -0.002449 0.000000 0.000000 0.000000
# 3 -0.003916 -0.002449 0.010006 0.000000 0.000000 0.000000
# 4 0.000000 0.000000 0.000000 0.049681 0.000000 0.000000
# 5 0.000000 0.000000 0.000000 0.000000 0.031355 0.000000
# 6 0.000000 0.000000 0.000000 0.000000 0.000000 0.064536
#
#
# Mechanical properties :
#
#
# Convention : Reuss Voigt Hill
#
# Bulk Modulus (GPa) = 62.83031 66.11257 64.47144
# Shear Modulus (GPa) = 24.35006 27.28974 25.81990
#
# Velocity S-wave (km/s) = 3.60160 3.81281 3.70871
# Velocity P-wave (km/s) = 7.12501 7.38933 7.25837
#
# Compressibility (1/GPa) = 0.01591589
#
# Stress axis : x y z
#
# Youngs Moduli (GPa) = 88.02744 72.34700 99.94028
#
# Poissons Ratio (x) = 0.23661 0.39139
# Poissons Ratio (y) = 0.28790 0.24480
# Poissons Ratio (z) = 0.34473 0.17721
#
# Static dielectric constant tensor:
#      x y z
#    x 3.448260 0.000000 0.000000 
#    y 0.000000 3.194780 0.000000 
#    z 0.000000 0.000000 3.714410 
# 
# 
# High freq. dielectric constant tensor:
#      x y z
#    x 1.733780 0.000000 0.000000 
#    y 0.000000 1.692670 0.000000 
#    z 0.000000 0.000000 1.740870 
# 
# From -- ./inp_files/13567.got.cif
#   From: 2010.03.12/outbox.cif.g09.slc.cpg/sg62_7_cif.got.tgz:13567.got - 2010.04.10 19:12:36.
