data_PCOD8252234
_publ_section_title
;
Structure prediction by ZEFSAII (Michael W. Deem and Ramdas Pophale) SiO2 
 PCOD8252234
Probable space group: P N M A
;
_chemical_formula_sum "Si O2"
_cell_formula_units_Z 64
_cell_length_a 9.001433
_cell_length_b 14.670811
_cell_length_c 25.590969
_cell_angle_alpha 90.000000
_cell_angle_beta 90.000000
_cell_angle_gamma 90.000000
_cell_volume 3379.500431
_symmetry_space_group_name_H-M "P N M A"
_symmetry_group_IT_number 62
_symmetry_cell_setting 'orthorhombic'
loop_
_space_group_symop_operation_xyz
x,y,z
1/2-x,-y,1/2+z
1/2+x,1/2-y,1/2-z
-x,1/2+y,-z
-x,-y,-z
1/2+x,y,1/2-z
1/2-x,1/2+y,1/2+z
x,1/2-y,z
loop_
_atom_site_type_symbol
_atom_site_label
_atom_site_fract_x
_atom_site_fract_y
_atom_site_fract_z
Si Si1 0.467749 0.650769 0.414225
Si Si2 0.701943 0.145387 0.897962
Si Si3 0.872960 0.649761 0.202492
Si Si4 0.834983 0.530047 0.006493
Si Si5 0.883744 0.032692 0.745209
Si Si6 0.160710 0.646498 0.577091
Si Si7 0.915046 0.906168 0.504882
Si Si8 0.144638 0.980432 0.675339
O O1 0.485946 0.750000 0.440366
O O2 0.634057 0.606766 0.413903
O O3 0.401912 0.659531 0.357730
O O4 0.338854 0.598535 0.445092
O O5 0.711155 0.250000 0.877111
O O6 0.638504 0.079928 0.852675
O O7 0.594669 0.143587 0.948696
O O8 0.838878 0.750000 0.226372
O O9 0.021755 0.611541 0.228008
O O10 0.736480 0.581582 0.208997
O O11 0.748658 0.437582 0.022770
O O12 0.771309 0.582202 0.955733
O O13 0.000000 0.500000 0.000000
O O14 0.994755 0.970284 0.710375
O O15 0.793292 0.973521 0.788686
O O16 0.221480 0.750000 0.582943
O O17 0.144368 0.602104 0.634220
O O18 0.000092 0.654014 0.547962
O O19 0.000000 0.000000 0.500000
#
# Coordination Sequence:
#
# PCOD8252234 Si02
#       8
#     8   8   8   8   8   8   8   8
#     4  10  20  32  51  84 121 154 190 232 285 348
#     4  11  20  35  58  86 126 164 190 229 291 356
#     4  10  20  34  53  81 115 152 193 235 287 353
#     4  11  20  36  61  88 122 157 192 236 288 351
#     4  10  23  36  58  79 113 148 197 251 295 344
#     4  11  24  42  64  88 120 156 200 247 295 350
#     4  10  20  36  58  88 120 159 197 237 285 350
#     4  11  22  43  59  86 110 154 196 247 304 346
#
# _framework density 18.937711
#
# number of rings (size 3 to 8) (size 9 to 14) (size 15 to 20)
#    0.000    1.500    5.000    1.125    1.750    2.500 
#    0.000    3.125    0.000    0.000    0.000    0.000 
#    0.000    0.000    0.000    0.000    0.000    0.000 
#
# Total GULP energy -793145.952746 kJ/mol
# GULP energy per Si atom -12392.905512 kJ/mol
# Density = 1.889461 g / cm^3
# Si number density = 18.937711 Si / 1000 Ang^3
#
#
#
# Elastic Constant Matrix: (Units=GPa)
#
#
# Indices 1 2 3 4 5 6 
#
# 1 107.3189 25.7553 42.0501 0.0000 0.0000 0.0000
# 2 25.7553 74.9787 32.9622 0.0000 0.0000 0.0000
# 3 42.0501 32.9622 102.4681 0.0000 0.0000 0.0000
# 4 0.0000 0.0000 0.0000 2.3980 0.0000 0.0000
# 5 0.0000 0.0000 0.0000 0.0000 32.6769 0.0000
# 6 0.0000 0.0000 0.0000 0.0000 0.0000 -28.9094
#
#
#
# Elastic Compliance Matrix: (Units=1/GPa)
#
#
# Indices 1 2 3 4 5 6 
#
# 1 0.011397 -0.002165 -0.003981 0.000000 0.000000 0.000000
# 2 -0.002165 0.015945 -0.004241 0.000000 0.000000 0.000000
# 3 -0.003981 -0.004241 0.012757 0.000000 0.000000 0.000000
# 4 0.000000 0.000000 0.000000 0.417017 0.000000 0.000000
# 5 0.000000 0.000000 0.000000 0.000000 0.030603 0.000000
# 6 0.000000 0.000000 0.000000 0.000000 0.000000 -0.034591
#
#
# Mechanical properties :
#
#
# Convention : Reuss Voigt Hill
#
# Bulk Modulus (GPa) = 51.74287 54.03344 52.88816
# Shear Modulus (GPa) = 10.40922 13.49963 11.95443
#
# Velocity S-wave (km/s) = 2.34702 2.67281 2.51519
# Velocity P-wave (km/s) = 5.89293 6.17409 6.03515
#
# Compressibility (1/GPa) = 0.01932633
#
# Stress axis : x y z
#
# Youngs Moduli (GPa) = 87.73983 62.71493 78.38890
#
# Poissons Ratio (x) = 0.13578 0.31204
# Poissons Ratio (y) = 0.18996 0.33243
# Poissons Ratio (z) = 0.34927 0.26596
#
# Static dielectric constant tensor:
#      x y z
#    x 3.689290 0.000000 0.000000 
#    y 0.000000 2.761320 0.000000 
#    z 0.000000 0.000000 3.740330 
# 
# 
# High freq. dielectric constant tensor:
#      x y z
#    x 1.743760 0.000000 0.000000 
#    y 0.000000 1.714830 0.000000 
#    z 0.000000 0.000000 1.732730 
# 
# From -- ./inp_files/28994.got.cif
#   From: 2010.03.12/outbox.cif.g09.slc.cpg/sg62_15_cif.got.tgz:28994.got - 2010.04.10 19:12:36.
