data_PCOD8252282
_publ_section_title
;
Structure prediction by ZEFSAII (Michael W. Deem and Ramdas Pophale) SiO2 
 PCOD8252282
Probable space group: P N M A
;
_chemical_formula_sum "Si O2"
_cell_formula_units_Z 48
_cell_length_a 16.963101
_cell_length_b 9.515457
_cell_length_c 16.378405
_cell_angle_alpha 90.000000
_cell_angle_beta 90.000000
_cell_angle_gamma 90.000000
_cell_volume 2643.665509
_symmetry_space_group_name_H-M "P N M A"
_symmetry_group_IT_number 62
_symmetry_cell_setting 'orthorhombic'
loop_
_space_group_symop_operation_xyz
x,y,z
1/2-x,-y,1/2+z
1/2+x,1/2-y,1/2-z
-x,1/2+y,-z
-x,-y,-z
1/2+x,y,1/2-z
1/2-x,1/2+y,1/2+z
x,1/2-y,z
loop_
_atom_site_type_symbol
_atom_site_label
_atom_site_fract_x
_atom_site_fract_y
_atom_site_fract_z
Si Si1 0.385481 0.916139 0.254632
Si Si2 0.592381 0.911780 0.074933
Si Si3 0.515018 0.596136 0.381233
Si Si4 0.385696 0.905142 0.520387
Si Si5 0.943534 0.412651 0.388566
Si Si6 0.767231 0.583592 0.108867
O O1 0.382290 0.750000 0.235017
O O2 0.465516 0.956280 0.303141
O O3 0.309735 0.965015 0.307729
O O4 0.384148 0.007659 0.172395
O O5 0.574561 0.750000 0.099125
O O6 0.676537 0.963155 0.109482
O O7 0.528282 0.012034 0.115901
O O8 0.593887 0.928363 0.977654
O O9 0.550149 0.750000 0.362542
O O10 0.589284 0.495993 0.400642
O O11 0.458104 0.605531 0.458466
O O12 0.363755 0.750000 0.552990
O O13 0.312215 0.976386 0.471720
O O14 0.953284 0.250000 0.363726
O O15 0.776534 0.750000 0.101749
#
# Coordination Sequence:
#
# PCOD8252282 Si02
#       6
#     8   8   8   8   8   8
#     4   9  17  31  51  72  97 129 163 199 241 293
#     4   9  18  35  56  72  92 127 167 203 240 286
#     4   8  14  24  39  62  91 123 157 188 224 277
#     4   8  13  23  41  64  90 121 156 191 228 275
#     4  10  20  33  51  75  99 125 162 204 244 286
#     4   8  15  30  52  74  95 126 165 200 241 293
#
# _framework density 18.156609
#
# number of rings (size 3 to 8) (size 9 to 14) (size 15 to 20)
#    0.000    3.333    0.000    2.500    0.000    1.333 
#    0.000    5.833    0.000    4.000    0.000    0.000 
#    0.000    0.000    0.000    0.000    0.000    0.000 
#
# Total GULP energy -594908.666234 kJ/mol
# GULP energy per Si atom -12393.930547 kJ/mol
# Density = 1.811528 g / cm^3
# Si number density = 18.156609 Si / 1000 Ang^3
#
#
#
# Elastic Constant Matrix: (Units=GPa)
#
#
# Indices 1 2 3 4 5 6 
#
# 1 98.4767 41.4706 37.5852 0.0000 0.0000 0.0000
# 2 41.4706 74.5497 35.5520 0.0000 0.0000 0.0000
# 3 37.5852 35.5520 60.1928 0.0000 0.0000 0.0000
# 4 0.0000 0.0000 0.0000 29.6515 0.0000 0.0000
# 5 0.0000 0.0000 0.0000 0.0000 17.3809 0.0000
# 6 0.0000 0.0000 0.0000 0.0000 0.0000 20.0871
#
#
#
# Elastic Compliance Matrix: (Units=1/GPa)
#
#
# Indices 1 2 3 4 5 6 
#
# 1 0.014690 -0.005287 -0.006050 0.000000 0.000000 0.000000
# 2 -0.005287 0.020576 -0.008852 0.000000 0.000000 0.000000
# 3 -0.006050 -0.008852 0.025620 0.000000 0.000000 0.000000
# 4 0.000000 0.000000 0.000000 0.033725 0.000000 0.000000
# 5 0.000000 0.000000 0.000000 0.000000 0.057534 0.000000
# 6 0.000000 0.000000 0.000000 0.000000 0.000000 0.049783
#
#
# Mechanical properties :
#
#
# Convention : Reuss Voigt Hill
#
# Bulk Modulus (GPa) = 48.76132 51.38164 50.07148
# Shear Modulus (GPa) = 20.06888 21.33135 20.70011
#
# Velocity S-wave (km/s) = 3.32824 3.43133 3.38018
# Velocity P-wave (km/s) = 6.45630 6.63772 6.54764
#
# Compressibility (1/GPa) = 0.02050806
#
# Stress axis : x y z
#
# Youngs Moduli (GPa) = 68.07284 48.60009 39.03275
#
# Poissons Ratio (x) = 0.25692 0.23616
# Poissons Ratio (y) = 0.35987 0.34552
# Poissons Ratio (z) = 0.41186 0.43021
#
# Static dielectric constant tensor:
#      x y z
#    x 3.310620 0.000000 0.000000 
#    y 0.000000 3.402440 0.000000 
#    z 0.000000 0.000000 3.215450 
# 
# 
# High freq. dielectric constant tensor:
#      x y z
#    x 1.686090 0.000000 0.000000 
#    y 0.000000 1.683150 0.000000 
#    z 0.000000 0.000000 1.688520 
# 
# From -- ./inp_files/24200.got.cif
#   From: 2010.03.12/outbox.cif.g09.slc.cpg/sg62_13_cif.got.tgz:24200.got - 2010.04.10 19:12:36.
