data_PCOD8252798
_publ_section_title
;
Structure prediction by ZEFSAII (Michael W. Deem and Ramdas Pophale) SiO2 
 PCOD8252798
Probable space group: P N M A
;
_chemical_formula_sum "Si O2"
_cell_formula_units_Z 48
_cell_length_a 9.422210
_cell_length_b 8.788843
_cell_length_c 30.086951
_cell_angle_alpha 90.000000
_cell_angle_beta 90.000000
_cell_angle_gamma 90.000000
_cell_volume 2491.510173
_symmetry_space_group_name_H-M "P N M A"
_symmetry_group_IT_number 62
_symmetry_cell_setting 'orthorhombic'
loop_
_space_group_symop_operation_xyz
x,y,z
1/2-x,-y,1/2+z
1/2+x,1/2-y,1/2-z
-x,1/2+y,-z
-x,-y,-z
1/2+x,y,1/2-z
1/2-x,1/2+y,1/2+z
x,1/2-y,z
loop_
_atom_site_type_symbol
_atom_site_label
_atom_site_fract_x
_atom_site_fract_y
_atom_site_fract_z
Si Si1 0.908516 0.924617 0.885670
Si Si2 0.611058 0.426053 0.882225
Si Si3 0.602871 0.424858 0.781186
Si Si4 0.412260 0.929760 0.459962
Si Si5 0.090258 0.928654 0.460924
Si Si6 0.605867 0.424097 0.284196
O O1 0.921784 0.750000 0.900453
O O2 0.949141 0.948986 0.834280
O O3 0.747613 0.975378 0.895386
O O4 0.019308 0.023721 0.913297
O O5 0.654083 0.250000 0.887649
O O6 0.560092 0.459712 0.832081
O O7 0.481168 0.472468 0.913945
O O8 0.573788 0.250000 0.768373
O O9 0.767659 0.460266 0.774007
O O10 0.518741 0.537995 0.749566
O O11 0.415328 0.750000 0.464444
O O12 0.250827 0.991968 0.461522
O O13 0.500000 0.000000 0.500000
O O14 0.090618 0.750000 0.468128
O O15 0.000000 0.000000 0.500000
O O16 0.655725 0.250000 0.277667
#
# Coordination Sequence:
#
# PCOD8252798 Si02
#       6
#     8   8   8   8   8   8
#     4  10  21  37  57  82 111 145 184 224 272 330
#     4   9  19  37  58  80 108 142 180 226 277 325
#     4  10  20  35  57  83 110 145 189 232 276 332
#     4  11  23  38  57  82 112 145 182 226 274 327
#     4  10  22  38  56  80 108 139 177 221 270 322
#     4  10  21  37  56  81 115 150 184 229 284 336
#
# _framework density 19.265422999999998
#
# number of rings (size 3 to 8) (size 9 to 14) (size 15 to 20)
#    0.000    2.000    0.000    3.000    0.000    8.667 
#    0.000    1.667    0.000    0.000    0.000    0.000 
#    0.000    0.000    0.000    0.000    0.000    0.000 
#
# Total GULP energy -595394.438530 kJ/mol
# GULP energy per Si atom -12404.050803 kJ/mol
# Density = 1.922157 g / cm^3
# Si number density = 19.265423 Si / 1000 Ang^3
#
#
#
# Elastic Constant Matrix: (Units=GPa)
#
#
# Indices 1 2 3 4 5 6 
#
# 1 126.9499 40.6855 78.2685 0.0000 0.0000 0.0000
# 2 40.6855 60.4658 43.0995 0.0000 0.0000 0.0000
# 3 78.2685 43.0995 117.8298 0.0000 0.0000 0.0000
# 4 0.0000 0.0000 0.0000 31.4655 0.0000 0.0000
# 5 0.0000 0.0000 0.0000 0.0000 37.9493 0.0000
# 6 0.0000 0.0000 0.0000 0.0000 0.0000 32.7124
#
#
#
# Elastic Compliance Matrix: (Units=1/GPa)
#
#
# Indices 1 2 3 4 5 6 
#
# 1 0.013945 -0.003761 -0.007887 0.000000 0.000000 0.000000
# 2 -0.003761 0.023385 -0.006055 0.000000 0.000000 0.000000
# 3 -0.007887 -0.006055 0.015941 0.000000 0.000000 0.000000
# 4 0.000000 0.000000 0.000000 0.031781 0.000000 0.000000
# 5 0.000000 0.000000 0.000000 0.000000 0.026351 0.000000
# 6 0.000000 0.000000 0.000000 0.000000 0.000000 0.030569
#
#
# Mechanical properties :
#
#
# Convention : Reuss Voigt Hill
#
# Bulk Modulus (GPa) = 55.98018 69.92808 62.95413
# Shear Modulus (GPa) = 27.27234 29.97155 28.62195
#
# Velocity S-wave (km/s) = 3.76654 3.94854 3.85861
# Velocity P-wave (km/s) = 6.93082 7.56068 7.25259
#
# Compressibility (1/GPa) = 0.01786346
#
# Stress axis : x y z
#
# Youngs Moduli (GPa) = 71.70813 42.76176 62.73140
#
# Poissons Ratio (x) = 0.16084 0.49479
# Poissons Ratio (y) = 0.26972 0.37986
# Poissons Ratio (z) = 0.56559 0.25894
#
# Static dielectric constant tensor:
#      x y z
#    x 3.459950 0.000000 0.000000 
#    y 0.000000 3.549960 0.000000 
#    z 0.000000 0.000000 3.731150 
# 
# 
# High freq. dielectric constant tensor:
#      x y z
#    x 1.746520 0.000000 0.000000 
#    y 0.000000 1.754960 0.000000 
#    z 0.000000 0.000000 1.759690 
# 
# From -- ./inp_files/31956.got.cif
#   From: 2010.03.12/outbox.cif.g09.slc.cpg/sg62_16_cif.got.tgz:31956.got - 2010.04.10 19:12:36.
