data_PCOD8252212
_publ_section_title
;
Structure prediction by ZEFSAII (Michael W. Deem and Ramdas Pophale) SiO2 
 PCOD8252212
Probable space group: P N M A
;
_chemical_formula_sum "Si O2"
_cell_formula_units_Z 64
_cell_length_a 29.990556
_cell_length_b 8.928080
_cell_length_c 14.232908
_cell_angle_alpha 90.000000
_cell_angle_beta 90.000000
_cell_angle_gamma 90.000000
_cell_volume 3810.976165
_symmetry_space_group_name_H-M "P N M A"
_symmetry_group_IT_number 62
_symmetry_cell_setting 'orthorhombic'
loop_
_space_group_symop_operation_xyz
x,y,z
1/2-x,-y,1/2+z
1/2+x,1/2-y,1/2-z
-x,1/2+y,-z
-x,-y,-z
1/2+x,y,1/2-z
1/2-x,1/2+y,1/2+z
x,1/2-y,z
loop_
_atom_site_type_symbol
_atom_site_label
_atom_site_fract_x
_atom_site_fract_y
_atom_site_fract_z
Si Si1 0.447990 0.422689 0.406249
Si Si2 0.823061 0.582384 0.967333
Si Si3 0.628493 0.573645 0.302587
Si Si4 0.265258 0.919967 0.017235
Si Si5 0.803521 0.576527 0.678237
Si Si6 0.281997 0.924723 0.229023
Si Si7 0.631864 0.418473 0.663153
Si Si8 0.548742 0.076739 0.394415
O O1 0.438393 0.250000 0.428291
O O2 0.413055 0.482571 0.328005
O O3 0.442500 0.511431 0.502872
O O4 0.497436 0.446104 0.364223
O O5 0.820774 0.750000 0.924958
O O6 0.774688 0.533659 0.002513
O O7 0.856168 0.578398 0.054008
O O8 0.839526 0.466848 0.889313
O O9 0.624192 0.750000 0.292862
O O10 0.651406 0.507766 0.209199
O O11 0.579385 0.504612 0.317177
O O12 0.246935 0.750000 0.013179
O O13 0.300623 0.947161 0.933996
O O14 0.287610 0.951799 0.117823
O O15 0.807312 0.750000 0.705006
O O16 0.760353 0.513040 0.732004
O O17 0.275570 0.750000 0.254377
O O18 0.327576 0.986635 0.275769
O O19 0.621525 0.250000 0.697502
O O20 0.562420 0.250000 0.397901
#
# Coordination Sequence:
#
# PCOD8252212 Si02
#       8
#     8   8   8   8   8   8   8   8
#     4  10  20  32  50  74 102 133 165 204 251 301
#     4  11  20  30  48  74 102 135 170 208 249 290
#     4  12  23  34  50  72  99 137 173 207 250 299
#     4  10  21  35  51  71 100 135 172 211 250 293
#     4  11  22  34  50  74 100 132 170 210 251 296
#     4  10  20  35  51  71  99 135 172 208 246 293
#     4  10  20  32  49  72 103 139 172 206 246 294
#     4  10  20  34  50  72 101 132 166 206 250 300
#
# _framework density 16.793597999999999
#
# number of rings (size 3 to 8) (size 9 to 14) (size 15 to 20)
#    0.000    1.500    3.750    2.625    0.000    3.000 
#    0.000    0.000    0.000    0.000    0.000    0.875 
#    0.000    0.000    0.000    0.000    0.000    0.000 
#
# Total GULP energy -793653.168405 kJ/mol
# GULP energy per Si atom -12400.830756 kJ/mol
# Density = 1.675538 g / cm^3
# Si number density = 16.793598 Si / 1000 Ang^3
#
#
#
# Elastic Constant Matrix: (Units=GPa)
#
#
# Indices 1 2 3 4 5 6 
#
# 1 104.8222 52.6099 21.8234 0.0000 0.0000 0.0000
# 2 52.6099 103.7945 26.1606 0.0000 0.0000 0.0000
# 3 21.8234 26.1606 59.4179 0.0000 0.0000 0.0000
# 4 0.0000 0.0000 0.0000 18.3660 0.0000 0.0000
# 5 0.0000 0.0000 0.0000 0.0000 27.3555 0.0000
# 6 0.0000 0.0000 0.0000 0.0000 0.0000 30.5009
#
#
#
# Elastic Compliance Matrix: (Units=1/GPa)
#
#
# Indices 1 2 3 4 5 6 
#
# 1 0.013026 -0.006070 -0.002112 0.000000 0.000000 0.000000
# 2 -0.006070 0.013666 -0.003787 0.000000 0.000000 0.000000
# 3 -0.002112 -0.003787 0.019273 0.000000 0.000000 0.000000
# 4 0.000000 0.000000 0.000000 0.054448 0.000000 0.000000
# 5 0.000000 0.000000 0.000000 0.000000 0.036556 0.000000
# 6 0.000000 0.000000 0.000000 0.000000 0.000000 0.032786
#
#
# Mechanical properties :
#
#
# Convention : Reuss Voigt Hill
#
# Bulk Modulus (GPa) = 45.39988 52.13582 48.76785
# Shear Modulus (GPa) = 24.87117 26.40719 25.63918
#
# Velocity S-wave (km/s) = 3.85254 3.96972 3.91157
# Velocity P-wave (km/s) = 6.84705 7.21970 7.03584
#
# Compressibility (1/GPa) = 0.02202649
#
# Stress axis : x y z
#
# Youngs Moduli (GPa) = 76.76775 73.17523 51.88601
#
# Poissons Ratio (x) = 0.44420 0.10957
# Poissons Ratio (y) = 0.46601 0.19651
# Poissons Ratio (z) = 0.16211 0.27713
#
# Static dielectric constant tensor:
#      x y z
#    x 3.258480 0.000000 0.000000 
#    y 0.000000 3.271230 0.000000 
#    z 0.000000 0.000000 3.035330 
# 
# 
# High freq. dielectric constant tensor:
#      x y z
#    x 1.641650 0.000000 0.000000 
#    y 0.000000 1.659230 0.000000 
#    z 0.000000 0.000000 1.616050 
# 
# From -- ./inp_files/21259.got.cif
#   From: 2010.03.12/outbox.cif.g09.slc.cpg/sg62_11_cif.got.tgz:21259.got - 2010.04.10 19:12:36.
