data_PCOD8252506
_publ_section_title
;
Structure prediction by ZEFSAII (Michael W. Deem and Ramdas Pophale) SiO2 
 PCOD8252506
Probable space group: P N M A
;
_chemical_formula_sum "Si O2"
_cell_formula_units_Z 64
_cell_length_a 9.799276
_cell_length_b 13.808331
_cell_length_c 26.609559
_cell_angle_alpha 90.000000
_cell_angle_beta 90.000000
_cell_angle_gamma 90.000000
_cell_volume 3600.583243
_symmetry_space_group_name_H-M "P N M A"
_symmetry_group_IT_number 62
_symmetry_cell_setting 'orthorhombic'
loop_
_space_group_symop_operation_xyz
x,y,z
1/2-x,-y,1/2+z
1/2+x,1/2-y,1/2-z
-x,1/2+y,-z
-x,-y,-z
1/2+x,y,1/2-z
1/2-x,1/2+y,1/2+z
x,1/2-y,z
loop_
_atom_site_type_symbol
_atom_site_label
_atom_site_fract_x
_atom_site_fract_y
_atom_site_fract_z
Si Si1 0.112492 0.952424 0.910893
Si Si2 0.541200 0.141277 0.930761
Si Si3 0.274837 0.641979 0.450375
Si Si4 0.863434 0.861850 0.541642
Si Si5 0.170392 0.138461 0.065279
Si Si6 0.077651 0.950148 0.616206
Si Si7 0.663313 0.861272 0.694302
Si Si8 0.970825 0.638698 0.714981
O O1 0.207122 0.890431 0.948476
O O2 0.148682 0.930022 0.853451
O O3 0.957980 0.928318 0.923551
O O4 0.132008 0.066970 0.919878
O O5 0.586746 0.250000 0.915642
O O6 0.378795 0.133570 0.931541
O O7 0.602477 0.065622 0.890435
O O8 0.602214 0.112781 0.984678
O O9 0.332678 0.750000 0.440517
O O10 0.275466 0.618449 0.509494
O O11 0.889695 0.750000 0.553825
O O12 0.956206 0.923648 0.578576
O O13 0.130427 0.250000 0.073791
O O14 0.287763 0.110881 0.104495
O O15 0.033714 0.930326 0.672872
O O16 0.651046 0.750000 0.676362
O O17 0.542671 0.887803 0.732668
O O18 0.809240 0.879588 0.720743
O O19 0.000648 0.750000 0.700103
#
# Coordination Sequence:
#
# PCOD8252506 Si02
#       8
#     8   8   8   8   8   8   8   8
#     4  12  22  36  54  79 110 149 182 219 269 321
#     4  10  20  34  55  82 109 140 185 230 261 306
#     4  10  20  36  54  79 111 145 185 225 262 311
#     4  11  19  31  54  80 108 140 178 217 260 321
#     4  11  23  34  51  82 117 146 177 219 267 322
#     4  12  20  35  56  78 106 146 182 216 269 321
#     4  10  21  36  54  78 107 136 175 223 273 328
#     4  10  21  35  54  79 105 136 174 221 275 329
#
# _framework density 17.774898
#
# number of rings (size 3 to 8) (size 9 to 14) (size 15 to 20)
#    0.000    1.250    3.750    3.750    1.750    0.000 
#    0.000    1.875    0.000    0.750    0.000    0.000 
#    0.000    0.000    0.000    0.000    0.000    0.000 
#
# Total GULP energy -793883.012453 kJ/mol
# GULP energy per Si atom -12404.422070 kJ/mol
# Density = 1.773444 g / cm^3
# Si number density = 17.774898 Si / 1000 Ang^3
#
#
#
# Elastic Constant Matrix: (Units=GPa)
#
#
# Indices 1 2 3 4 5 6 
#
# 1 55.2689 11.4984 7.7818 0.0000 0.0000 0.0000
# 2 11.4984 92.6182 44.0146 0.0000 0.0000 0.0000
# 3 7.7818 44.0146 45.7915 0.0000 0.0000 0.0000
# 4 0.0000 0.0000 0.0000 20.5367 0.0000 0.0000
# 5 0.0000 0.0000 0.0000 0.0000 15.4333 0.0000
# 6 0.0000 0.0000 0.0000 0.0000 0.0000 25.0219
#
#
#
# Elastic Compliance Matrix: (Units=1/GPa)
#
#
# Indices 1 2 3 4 5 6 
#
# 1 0.018648 -0.001489 -0.001737 0.000000 0.000000 0.000000
# 2 -0.001489 0.019995 -0.018966 0.000000 0.000000 0.000000
# 3 -0.001737 -0.018966 0.040363 0.000000 0.000000 0.000000
# 4 0.000000 0.000000 0.000000 0.048693 0.000000 0.000000
# 5 0.000000 0.000000 0.000000 0.000000 0.064795 0.000000
# 6 0.000000 0.000000 0.000000 0.000000 0.000000 0.039965
#
#
# Mechanical properties :
#
#
# Convention : Reuss Voigt Hill
#
# Bulk Modulus (GPa) = 28.88454 35.58536 32.23495
# Shear Modulus (GPa) = 17.33788 20.89062 19.11425
#
# Velocity S-wave (km/s) = 3.12655 3.43197 3.28281
# Velocity P-wave (km/s) = 5.41472 5.98063 5.70470
#
# Compressibility (1/GPa) = 0.03462060
#
# Stress axis : x y z
#
# Youngs Moduli (GPa) = 53.62548 50.01226 24.77491
#
# Poissons Ratio (x) = 0.07449 0.04304
# Poissons Ratio (y) = 0.07987 0.46988
# Poissons Ratio (z) = 0.09317 0.94854
#
# Static dielectric constant tensor:
#      x y z
#    x 3.360070 0.000000 0.000000 
#    y 0.000000 3.464550 0.000000 
#    z 0.000000 0.000000 3.097530 
# 
# 
# High freq. dielectric constant tensor:
#      x y z
#    x 1.692660 0.000000 0.000000 
#    y 0.000000 1.684290 0.000000 
#    z 0.000000 0.000000 1.663400 
# 
# From -- ./inp_files/28974.got.cif
#   From: 2010.03.12/outbox.cif.g09.slc.cpg/sg62_15_cif.got.tgz:28974.got - 2010.04.10 19:12:36.
