data_PCOD8252901
_publ_section_title
;
Structure prediction by ZEFSAII (Michael W. Deem and Ramdas Pophale) SiO2 
 PCOD8252901
Probable space group: P N M A
;
_chemical_formula_sum "Si O2"
_cell_formula_units_Z 48
_cell_length_a 26.080900
_cell_length_b 16.439209
_cell_length_c 5.255095
_cell_angle_alpha 90.000000
_cell_angle_beta 90.000000
_cell_angle_gamma 90.000000
_cell_volume 2253.118650
_symmetry_space_group_name_H-M "P N M A"
_symmetry_group_IT_number 62
_symmetry_cell_setting 'orthorhombic'
loop_
_space_group_symop_operation_xyz
x,y,z
1/2-x,-y,1/2+z
1/2+x,1/2-y,1/2-z
-x,1/2+y,-z
-x,-y,-z
1/2+x,y,1/2-z
1/2-x,1/2+y,1/2+z
x,1/2-y,z
loop_
_atom_site_type_symbol
_atom_site_label
_atom_site_fract_x
_atom_site_fract_y
_atom_site_fract_z
Si Si1 0.689862 0.339939 0.316438
Si Si2 0.457275 0.063299 0.581600
Si Si3 0.769234 0.459514 0.193210
Si Si4 0.593445 0.339273 0.958242
Si Si5 0.369045 0.970024 0.385352
Si Si6 0.982183 0.342132 0.403374
O O1 0.696309 0.250000 0.431589
O O2 0.745625 0.368654 0.214985
O O3 0.670713 0.400771 0.530550
O O4 0.647069 0.341262 0.100196
O O5 0.466588 0.103341 0.854425
O O6 0.500000 0.000000 0.500000
O O7 0.402476 0.016401 0.598346
O O8 0.454337 0.129206 0.353941
O O9 0.740671 0.514812 0.401400
O O10 0.830924 0.463545 0.247318
O O11 0.589279 0.250000 0.816230
O O12 0.590454 0.420136 0.786071
O O13 0.543811 0.347154 0.141221
O O14 0.964705 0.250000 0.458508
#
# Coordination Sequence:
#
# PCOD8252901 Si02
#       6
#     8   8   8   8   8   8
#     4  10  21  38  60  90 122 157 199 257 318 371
#     4  12  24  39  66  93 128 165 217 259 310 370
#     4  10  21  38  60  86 120 156 194 245 306 369
#     4  10  20  35  60  89 121 157 202 256 315 366
#     4  11  22  36  62  89 124 157 211 252 314 358
#     4  11  25  43  61  90 129 172 209 259 313 370
#
# _framework density 21.303805000000001
#
# number of rings (size 3 to 8) (size 9 to 14) (size 15 to 20)
#    0.000    1.333    3.333    2.500    2.333    0.000 
#    0.000    1.667    0.000    0.000    0.000    0.000 
#    0.000    0.000    0.000    0.000    0.000    0.000 
#
# Total GULP energy -594640.518309 kJ/mol
# GULP energy per Si atom -12388.344131 kJ/mol
# Density = 2.125532 g / cm^3
# Si number density = 21.303805 Si / 1000 Ang^3
#
#
#
# Elastic Constant Matrix: (Units=GPa)
#
#
# Indices 1 2 3 4 5 6 
#
# 1 86.1947 46.7948 2.4376 0.0000 0.0000 0.0000
# 2 46.7948 93.8427 12.6982 0.0000 0.0000 0.0000
# 3 2.4376 12.6982 66.3416 0.0000 0.0000 0.0000
# 4 0.0000 0.0000 0.0000 24.1404 0.0000 0.0000
# 5 0.0000 0.0000 0.0000 0.0000 27.1164 0.0000
# 6 0.0000 0.0000 0.0000 0.0000 0.0000 35.4641
#
#
#
# Elastic Compliance Matrix: (Units=1/GPa)
#
#
# Indices 1 2 3 4 5 6 
#
# 1 0.015968 -0.008093 0.000962 0.000000 0.000000 0.000000
# 2 -0.008093 0.015041 -0.002582 0.000000 0.000000 0.000000
# 3 0.000962 -0.002582 0.015532 0.000000 0.000000 0.000000
# 4 0.000000 0.000000 0.000000 0.041424 0.000000 0.000000
# 5 0.000000 0.000000 0.000000 0.000000 0.036878 0.000000
# 6 0.000000 0.000000 0.000000 0.000000 0.000000 0.028198
#
#
# Mechanical properties :
#
#
# Convention : Reuss Voigt Hill
#
# Bulk Modulus (GPa) = 36.87698 41.13778 39.00738
# Shear Modulus (GPa) = 27.54765 29.64075 28.59420
#
# Velocity S-wave (km/s) = 3.59985 3.73411 3.66759
# Velocity P-wave (km/s) = 5.88440 6.15982 6.02369
#
# Compressibility (1/GPa) = 0.02711719
#
# Stress axis : x y z
#
# Youngs Moduli (GPa) = 62.62575 66.48570 64.38206
#
# Poissons Ratio (x) = 0.53804 -0.06195
# Poissons Ratio (y) = 0.50681 0.16621
# Poissons Ratio (z) = -0.06026 0.17164
#
# Static dielectric constant tensor:
#      x y z
#    x 4.109000 0.000000 0.000000 
#    y 0.000000 4.306690 0.000000 
#    z 0.000000 0.000000 3.630600 
# 
# 
# High freq. dielectric constant tensor:
#      x y z
#    x 1.831960 0.000000 0.000000 
#    y 0.000000 1.839230 0.000000 
#    z 0.000000 0.000000 1.816320 
# 
# From -- ./inp_files/2750.got.cif
#   From: 2010.03.12/outbox.cif.g09.slc.cpg/sg62_2_cif.got.tgz:2750.got - 2010.04.10 19:12:36.
