data_PCOD8252437
_publ_section_title
;
Structure prediction by ZEFSAII (Michael W. Deem and Ramdas Pophale) SiO2 
 PCOD8252437
Probable space group: P N M A
;
_chemical_formula_sum "Si O2"
_cell_formula_units_Z 48
_cell_length_a 12.555959
_cell_length_b 21.997339
_cell_length_c 7.627529
_cell_angle_alpha 90.000000
_cell_angle_beta 90.000000
_cell_angle_gamma 90.000000
_cell_volume 2106.705864
_symmetry_space_group_name_H-M "P N M A"
_symmetry_group_IT_number 62
_symmetry_cell_setting 'orthorhombic'
loop_
_space_group_symop_operation_xyz
x,y,z
1/2-x,-y,1/2+z
1/2+x,1/2-y,1/2-z
-x,1/2+y,-z
-x,-y,-z
1/2+x,y,1/2-z
1/2-x,1/2+y,1/2+z
x,1/2-y,z
loop_
_atom_site_type_symbol
_atom_site_label
_atom_site_fract_x
_atom_site_fract_y
_atom_site_fract_z
Si Si1 0.477758 0.316906 0.127109
Si Si2 0.573020 0.984791 0.192946
Si Si3 0.880130 0.437197 0.348389
Si Si4 0.007023 0.819376 0.017960
Si Si5 0.186473 0.580165 0.022545
Si Si6 0.406625 0.623302 0.166021
O O1 0.426957 0.250000 0.103860
O O2 0.382217 0.365680 0.102733
O O3 0.533386 0.322694 0.317960
O O4 0.568243 0.326610 0.981728
O O5 0.636184 0.976793 0.372528
O O6 0.490891 0.930608 0.156829
O O7 0.503603 0.046289 0.207587
O O8 0.650547 0.980058 0.017036
O O9 0.800954 0.443700 0.180022
O O10 0.035924 0.750000 0.070937
O O11 0.913125 0.844892 0.143166
O O12 0.112995 0.860212 0.035426
O O13 0.292653 0.595892 0.125120
#
# Coordination Sequence:
#
# PCOD8252437 Si02
#       6
#     8   8   8   8   8   8
#     4   9  18  34  56  77 103 141 182 227 280 328
#     4   9  19  37  54  79 115 146 182 229 282 332
#     4   9  18  36  57  76 108 144 182 230 278 331
#     4   9  19  35  54  77 110 147 181 230 281 327
#     4  10  20  34  56  82 107 146 192 225 276 332
#     4  10  20  34  53  83 112 145 187 230 277 330
#
# _framework density 22.784388
#
# number of rings (size 3 to 8) (size 9 to 14) (size 15 to 20)
#    0.000    2.667    0.000    1.000    0.000    2.667 
#    9.000    0.000    0.000    8.000    0.000    0.000 
#    0.000    0.000    0.000    0.000    0.000    0.000 
#
# Total GULP energy -594747.993948 kJ/mol
# GULP energy per Si atom -12390.583207 kJ/mol
# Density = 2.273253 g / cm^3
# Si number density = 22.784388 Si / 1000 Ang^3
#
#
#
# Elastic Constant Matrix: (Units=GPa)
#
#
# Indices 1 2 3 4 5 6 
#
# 1 23.1383 -25.2165 11.3828 0.0000 0.0000 0.0000
# 2 -25.2165 53.9986 9.2963 0.0000 0.0000 0.0000
# 3 11.3828 9.2963 87.3802 0.0000 0.0000 0.0000
# 4 0.0000 0.0000 0.0000 35.7475 0.0000 0.0000
# 5 0.0000 0.0000 0.0000 0.0000 32.4406 0.0000
# 6 0.0000 0.0000 0.0000 0.0000 0.0000 8.7512
#
#
#
# Elastic Compliance Matrix: (Units=1/GPa)
#
#
# Indices 1 2 3 4 5 6 
#
# 1 0.117921 0.058789 -0.021616 0.000000 0.000000 0.000000
# 2 0.058789 0.048173 -0.012783 0.000000 0.000000 0.000000
# 3 -0.021616 -0.012783 0.015620 0.000000 0.000000 0.000000
# 4 0.000000 0.000000 0.000000 0.027974 0.000000 0.000000
# 5 0.000000 0.000000 0.000000 0.000000 0.030826 0.000000
# 6 0.000000 0.000000 0.000000 0.000000 0.000000 0.114269
#
#
# Mechanical properties :
#
#
# Convention : Reuss Voigt Hill
#
# Bulk Modulus (GPa) = 4.33853 17.27136 10.80494
# Shear Modulus (GPa) = 13.06046 26.65818 19.85932
#
# Velocity S-wave (km/s) = 2.39680 3.42427 2.95552
# Velocity P-wave (km/s) = 3.09319 4.81985 4.04961
#
# Compressibility (1/GPa) = 0.23049286
#
# Stress axis : x y z
#
# Youngs Moduli (GPa) = 8.48027 20.75849 64.02017
#
# Poissons Ratio (x) = -1.22036 1.38384
# Poissons Ratio (y) = -0.49854 0.81839
# Poissons Ratio (z) = 0.18331 0.26536
#
# Static dielectric constant tensor:
#      x y z
#    x 3.590190 0.000000 0.000000 
#    y 0.000000 4.358510 0.000000 
#    z 0.000000 0.000000 4.631970 
# 
# 
# High freq. dielectric constant tensor:
#      x y z
#    x 1.839790 0.000000 0.000000 
#    y 0.000000 1.911160 0.000000 
#    z 0.000000 0.000000 1.923600 
# 
# From -- ./inp_files/5318.got.cif
#   From: 2010.03.12/outbox.cif.g09.slc.cpg/sg62_3_cif.got.tgz:5318.got - 2010.04.10 19:12:36.
