data_PCOD8252925
_publ_section_title
;
Structure prediction by ZEFSAII (Michael W. Deem and Ramdas Pophale) SiO2 
 PCOD8252925
Probable space group: P N M A
;
_chemical_formula_sum "Si O2"
_cell_formula_units_Z 64
_cell_length_a 23.042856
_cell_length_b 8.530209
_cell_length_c 18.883344
_cell_angle_alpha 90.000000
_cell_angle_beta 90.000000
_cell_angle_gamma 90.000000
_cell_volume 3711.717228
_symmetry_space_group_name_H-M "P N M A"
_symmetry_group_IT_number 62
_symmetry_cell_setting 'orthorhombic'
loop_
_space_group_symop_operation_xyz
x,y,z
1/2-x,-y,1/2+z
1/2+x,1/2-y,1/2-z
-x,1/2+y,-z
-x,-y,-z
1/2+x,y,1/2-z
1/2-x,1/2+y,1/2+z
x,1/2-y,z
loop_
_atom_site_type_symbol
_atom_site_label
_atom_site_fract_x
_atom_site_fract_y
_atom_site_fract_z
Si Si1 0.564017 0.430586 0.139830
Si Si2 0.241441 0.431177 0.495899
Si Si3 0.221621 0.433018 0.135806
Si Si4 0.154274 0.568051 0.262091
Si Si5 0.884781 0.431058 0.500404
Si Si6 0.941908 0.930416 0.365075
Si Si7 0.232685 0.429347 0.853885
Si Si8 0.172485 0.431455 0.714731
O O1 0.574633 0.250000 0.120815
O O2 0.597956 0.474674 0.211454
O O3 0.496202 0.460471 0.152714
O O4 0.586733 0.537812 0.076209
O O5 0.225309 0.250000 0.504051
O O6 0.283344 0.485793 0.559160
O O7 0.183041 0.532265 0.497045
O O8 0.274772 0.460157 0.421940
O O9 0.210717 0.250000 0.128053
O O10 0.171798 0.505980 0.184943
O O11 0.285767 0.462854 0.166824
O O12 0.139083 0.750000 0.256627
O O13 0.206038 0.535645 0.316876
O O14 0.893413 0.250000 0.480677
O O15 0.917021 0.536579 0.442791
O O16 0.961182 0.750000 0.361962
O O17 0.893486 0.967986 0.305829
O O18 0.229261 0.250000 0.879065
O O19 0.181611 0.469084 0.797843
O O20 0.189300 0.250000 0.699784
#
# Coordination Sequence:
#
# PCOD8252925 Si02
#       8
#     8   8   8   8   8   8   8   8
#     4  12  24  37  53  75 104 141 182 221 260 308
#     4  12  22  33  51  77 107 141 176 212 260 315
#     4  11  21  33  53  77 105 136 172 215 263 313
#     4  10  20  36  55  75 103 136 174 218 263 310
#     4  12  23  36  51  73 104 141 182 222 259 305
#     4  11  22  37  55  75 103 142 181 219 261 309
#     4   9  18  33  53  76 102 133 170 213 261 309
#     4   9  19  35  54  74 102 136 174 215 261 311
#
# _framework density 17.242692000000002
#
# number of rings (size 3 to 8) (size 9 to 14) (size 15 to 20)
#    0.000    1.250    2.500    6.375    0.000    2.500 
#    0.000    0.000    0.000    0.000    0.000    0.875 
#    0.000    0.000    0.000    0.000    0.000    0.000 
#
# Total GULP energy -793952.163113 kJ/mol
# GULP energy per Si atom -12405.502549 kJ/mol
# Density = 1.720345 g / cm^3
# Si number density = 17.242692 Si / 1000 Ang^3
#
#
#
# Elastic Constant Matrix: (Units=GPa)
#
#
# Indices 1 2 3 4 5 6 
#
# 1 68.3819 16.1448 40.0519 0.0000 0.0000 0.0000
# 2 16.1448 77.8613 29.0861 0.0000 0.0000 0.0000
# 3 40.0519 29.0861 100.5941 0.0000 0.0000 0.0000
# 4 0.0000 0.0000 0.0000 28.9898 0.0000 0.0000
# 5 0.0000 0.0000 0.0000 0.0000 21.6236 0.0000
# 6 0.0000 0.0000 0.0000 0.0000 0.0000 24.8845
#
#
#
# Elastic Compliance Matrix: (Units=1/GPa)
#
#
# Indices 1 2 3 4 5 6 
#
# 1 0.019181 -0.001261 -0.007272 0.000000 0.000000 0.000000
# 2 -0.001261 0.014481 -0.003685 0.000000 0.000000 0.000000
# 3 -0.007272 -0.003685 0.013902 0.000000 0.000000 0.000000
# 4 0.000000 0.000000 0.000000 0.034495 0.000000 0.000000
# 5 0.000000 0.000000 0.000000 0.000000 0.046246 0.000000
# 6 0.000000 0.000000 0.000000 0.000000 0.000000 0.040186
#
#
# Mechanical properties :
#
#
# Convention : Reuss Voigt Hill
#
# Bulk Modulus (GPa) = 43.23802 46.37810 44.80806
# Shear Modulus (GPa) = 24.92067 25.86987 25.39527
#
# Velocity S-wave (km/s) = 3.80582 3.87762 3.84189
# Velocity P-wave (km/s) = 6.66655 6.85592 6.76190
#
# Compressibility (1/GPa) = 0.02312779
#
# Stress axis : x y z
#
# Youngs Moduli (GPa) = 52.13522 69.05400 71.93162
#
# Poissons Ratio (x) = 0.08704 0.52312
# Poissons Ratio (y) = 0.06572 0.26509
# Poissons Ratio (z) = 0.37915 0.25449
#
# Static dielectric constant tensor:
#      x y z
#    x 3.053980 0.000000 0.000000 
#    y 0.000000 3.237430 0.000000 
#    z 0.000000 0.000000 3.344550 
# 
# 
# High freq. dielectric constant tensor:
#      x y z
#    x 1.633670 0.000000 0.000000 
#    y 0.000000 1.678800 0.000000 
#    z 0.000000 0.000000 1.661770 
# 
# From -- ./inp_files/24947.got.cif
#   From: 2010.03.12/outbox.cif.g09.slc.cpg/sg62_13_cif.got.tgz:24947.got - 2010.04.10 19:12:36.
