data_PCOD8252818
_publ_section_title
;
Structure prediction by ZEFSAII (Michael W. Deem and Ramdas Pophale) SiO2 
 PCOD8252818
Probable space group: P N M A
;
_chemical_formula_sum "Si O2"
_cell_formula_units_Z 56
_cell_length_a 20.043844
_cell_length_b 8.695408
_cell_length_c 16.497942
_cell_angle_alpha 90.000000
_cell_angle_beta 90.000000
_cell_angle_gamma 90.000000
_cell_volume 2875.416437
_symmetry_space_group_name_H-M "P N M A"
_symmetry_group_IT_number 62
_symmetry_cell_setting 'orthorhombic'
loop_
_space_group_symop_operation_xyz
x,y,z
1/2-x,-y,1/2+z
1/2+x,1/2-y,1/2-z
-x,1/2+y,-z
-x,-y,-z
1/2+x,y,1/2-z
1/2-x,1/2+y,1/2+z
x,1/2-y,z
loop_
_atom_site_type_symbol
_atom_site_label
_atom_site_fract_x
_atom_site_fract_y
_atom_site_fract_z
Si Si1 0.709718 0.570136 0.819152
Si Si2 0.524117 0.067991 0.244539
Si Si3 0.110867 0.428331 0.804032
Si Si4 0.188396 0.429597 0.510370
Si Si5 0.858339 0.930517 0.853842
Si Si6 0.048879 0.429932 0.434607
Si Si7 0.822980 0.569536 0.029088
O O1 0.696504 0.750000 0.804803
O O2 0.673577 0.471762 0.750869
O O3 0.681672 0.525758 0.907097
O O4 0.787782 0.527633 0.812750
O O5 0.532137 0.250000 0.241528
O O6 0.581548 0.994309 0.302245
O O7 0.532392 0.000213 0.153994
O O8 0.452537 0.027436 0.279850
O O9 0.094112 0.250000 0.792507
O O10 0.128425 0.467901 0.896738
O O11 0.191647 0.250000 0.531888
O O12 0.125140 0.469965 0.455039
O O13 0.253572 0.479096 0.459807
O O14 0.868676 0.750000 0.854783
O O15 0.859193 0.989609 0.946900
O O16 0.036191 0.250000 0.434867
O O17 0.000000 0.500000 0.500000
O O18 0.805895 0.750000 0.023069
#
# Coordination Sequence:
#
# PCOD8252818 Si02
#       7
#     8   8   8   8   8   8   8
#     4  10  20  36  60  84 112 150 189 231 286 343
#     4  10  21  38  58  81 108 146 193 234 281 343
#     4  11  23  37  54  82 118 149 188 237 285 337
#     4  10  20  35  57  85 115 143 185 238 284 336
#     4   8  17  36  60  81 106 142 188 235 280 336
#     4  10  22  36  54  80 112 147 184 230 279 336
#     4   9  20  38  57  81 113 150 187 231 286 339
#
# _framework density 19.475439999999999
#
# number of rings (size 3 to 8) (size 9 to 14) (size 15 to 20)
#    0.000    2.286    0.000    3.000    2.000    5.714 
#    0.000    3.571    0.000    0.000    0.000    0.000 
#    0.000    0.000    0.000    0.000    0.000    0.000 
#
# Total GULP energy -694472.797855 kJ/mol
# GULP energy per Si atom -12401.299962 kJ/mol
# Density = 1.943111 g / cm^3
# Si number density = 19.475440 Si / 1000 Ang^3
#
#
#
# Elastic Constant Matrix: (Units=GPa)
#
#
# Indices 1 2 3 4 5 6 
#
# 1 113.1375 18.3147 86.3702 0.0000 0.0000 0.0000
# 2 18.3147 20.2500 20.7824 0.0000 0.0000 0.0000
# 3 86.3702 20.7824 133.1956 0.0000 0.0000 0.0000
# 4 0.0000 0.0000 0.0000 26.1721 0.0000 0.0000
# 5 0.0000 0.0000 0.0000 0.0000 35.8699 0.0000
# 6 0.0000 0.0000 0.0000 0.0000 0.0000 26.3477
#
#
#
# Elastic Compliance Matrix: (Units=1/GPa)
#
#
# Indices 1 2 3 4 5 6 
#
# 1 0.017936 -0.005103 -0.010834 0.000000 0.000000 0.000000
# 2 -0.005103 0.060250 -0.006092 0.000000 0.000000 0.000000
# 3 -0.010834 -0.006092 0.015484 0.000000 0.000000 0.000000
# 4 0.000000 0.000000 0.000000 0.038209 0.000000 0.000000
# 5 0.000000 0.000000 0.000000 0.000000 0.027879 0.000000
# 6 0.000000 0.000000 0.000000 0.000000 0.000000 0.037954
#
#
# Mechanical properties :
#
#
# Convention : Reuss Voigt Hill
#
# Bulk Modulus (GPa) = 20.15651 57.50194 38.82923
# Shear Modulus (GPa) = 19.35695 27.08565 23.22130
#
# Velocity S-wave (km/s) = 3.15606 3.73333 3.45677
# Velocity P-wave (km/s) = 4.86345 6.94069 5.99276
#
# Compressibility (1/GPa) = 0.04961176
#
# Stress axis : x y z
#
# Youngs Moduli (GPa) = 55.75463 16.59756 64.58408
#
# Poissons Ratio (x) = 0.08469 0.69972
# Poissons Ratio (y) = 0.28449 0.39345
# Poissons Ratio (z) = 0.60406 0.10111
#
# Static dielectric constant tensor:
#      x y z
#    x 3.333100 0.000000 0.000000 
#    y 0.000000 3.388170 0.000000 
#    z 0.000000 0.000000 3.887120 
# 
# 
# High freq. dielectric constant tensor:
#      x y z
#    x 1.763510 0.000000 0.000000 
#    y 0.000000 1.740390 0.000000 
#    z 0.000000 0.000000 1.768170 
# 
# From -- ./inp_files/20270.got.cif
#   From: 2010.03.12/outbox.cif.g09.slc.cpg/sg62_11_cif.got.tgz:20270.got - 2010.04.10 19:12:36.
