data_PCOD8252970
_publ_section_title
;
Structure prediction by ZEFSAII (Michael W. Deem and Ramdas Pophale) SiO2 
 PCOD8252970
Probable space group: P N M A
;
_chemical_formula_sum "Si O2"
_cell_formula_units_Z 48
_cell_length_a 20.129041
_cell_length_b 8.910994
_cell_length_c 14.768648
_cell_angle_alpha 90.000000
_cell_angle_beta 90.000000
_cell_angle_gamma 90.000000
_cell_volume 2649.048900
_symmetry_space_group_name_H-M "P N M A"
_symmetry_group_IT_number 62
_symmetry_cell_setting 'orthorhombic'
loop_
_space_group_symop_operation_xyz
x,y,z
1/2-x,-y,1/2+z
1/2+x,1/2-y,1/2-z
-x,1/2+y,-z
-x,-y,-z
1/2+x,y,1/2-z
1/2-x,1/2+y,1/2+z
x,1/2-y,z
loop_
_atom_site_type_symbol
_atom_site_label
_atom_site_fract_x
_atom_site_fract_y
_atom_site_fract_z
Si Si1 0.986268 0.920642 0.222460
Si Si2 0.817614 0.427960 0.384576
Si Si3 0.166693 0.423672 0.800359
Si Si4 0.553009 0.073024 0.433978
Si Si5 0.693996 0.072302 0.501040
Si Si6 0.044349 0.425985 0.575927
O O1 0.007488 0.750000 0.203233
O O2 0.911774 0.948651 0.187472
O O3 0.991270 0.958293 0.328554
O O4 0.036418 0.029164 0.169422
O O5 0.824941 0.250000 0.389389
O O6 0.804656 0.476571 0.281048
O O7 0.756450 0.488775 0.444650
O O8 0.883024 0.502235 0.425854
O O9 0.181270 0.250000 0.777564
O O10 0.201069 0.476688 0.893757
O O11 0.549609 0.250000 0.446528
O O12 0.626006 0.009328 0.457690
O O13 0.500000 0.000000 0.500000
O O14 0.691621 0.250000 0.495985
O O15 0.052020 0.250000 0.558445
O O16 0.000000 0.500000 0.500000
#
# Coordination Sequence:
#
# PCOD8252970 Si02
#       6
#     8   8   8   8   8   8
#     4   9  18  34  55  79 107 139 176 221 269 324
#     4  10  20  36  57  81 109 143 185 227 274 327
#     4   9  17  35  57  74 103 146 182 217 272 328
#     4  11  20  33  54  81 111 143 179 222 272 324
#     4   9  19  36  55  75 110 149 178 221 278 328
#     4  10  21  39  61  82 110 144 184 228 274 327
#
# _framework density 18.119710000000001
#
# number of rings (size 3 to 8) (size 9 to 14) (size 15 to 20)
#    0.000    2.333    1.667    2.500    0.000    3.333 
#    3.000    5.000    0.000    0.000    0.000    0.000 
#    0.000    0.000    0.000    0.000    0.000    0.000 
#
# Total GULP energy -595217.857537 kJ/mol
# GULP energy per Si atom -12400.372032 kJ/mol
# Density = 1.807847 g / cm^3
# Si number density = 18.119710 Si / 1000 Ang^3
#
#
#
# Elastic Constant Matrix: (Units=GPa)
#
#
# Indices 1 2 3 4 5 6 
#
# 1 119.3138 49.0526 90.6307 0.0000 0.0000 0.0000
# 2 49.0526 73.6675 50.0987 0.0000 0.0000 0.0000
# 3 90.6307 50.0987 142.6083 0.0000 0.0000 0.0000
# 4 0.0000 0.0000 0.0000 35.8904 0.0000 0.0000
# 5 0.0000 0.0000 0.0000 0.0000 34.9562 0.0000
# 6 0.0000 0.0000 0.0000 0.0000 0.0000 23.7523
#
#
#
# Elastic Compliance Matrix: (Units=1/GPa)
#
#
# Indices 1 2 3 4 5 6 
#
# 1 0.017721 -0.005441 -0.009351 0.000000 0.000000 0.000000
# 2 -0.005441 0.019506 -0.003395 0.000000 0.000000 0.000000
# 3 -0.009351 -0.003395 0.014147 0.000000 0.000000 0.000000
# 4 0.000000 0.000000 0.000000 0.027863 0.000000 0.000000
# 5 0.000000 0.000000 0.000000 0.000000 0.028607 0.000000
# 6 0.000000 0.000000 0.000000 0.000000 0.000000 0.042101
#
#
# Mechanical properties :
#
#
# Convention : Reuss Voigt Hill
#
# Bulk Modulus (GPa) = 66.65835 79.46151 73.05993
# Shear Modulus (GPa) = 26.13453 28.64030 27.38742
#
# Velocity S-wave (km/s) = 3.80192 3.98001 3.89198
# Velocity P-wave (km/s) = 7.49269 8.06656 7.78492
#
# Compressibility (1/GPa) = 0.01500187
#
# Stress axis : x y z
#
# Youngs Moduli (GPa) = 56.43104 51.26646 70.68445
#
# Poissons Ratio (x) = 0.27892 0.66094
# Poissons Ratio (y) = 0.30702 0.23997
# Poissons Ratio (z) = 0.52767 0.17404
#
# Static dielectric constant tensor:
#      x y z
#    x 3.361710 0.000000 0.000000 
#    y 0.000000 3.248600 0.000000 
#    z 0.000000 0.000000 3.591290 
# 
# 
# High freq. dielectric constant tensor:
#      x y z
#    x 1.687820 0.000000 0.000000 
#    y 0.000000 1.692300 0.000000 
#    z 0.000000 0.000000 1.713940 
# 
# From -- ./inp_files/19584.got.cif
#   From: 2010.03.12/outbox.cif.g09.slc.cpg/sg62_10_cif.got.tgz:19584.got - 2010.04.10 19:12:36.
