data_PCOD8252014
_publ_section_title
;
Structure prediction by ZEFSAII (Michael W. Deem and Ramdas Pophale) SiO2 
 PCOD8252014
Probable space group: P N M A
;
_chemical_formula_sum "Si O2"
_cell_formula_units_Z 56
_cell_length_a 20.282393
_cell_length_b 16.283098
_cell_length_c 8.696757
_cell_angle_alpha 90.000000
_cell_angle_beta 90.000000
_cell_angle_gamma 90.000000
_cell_volume 2872.192644
_symmetry_space_group_name_H-M "P N M A"
_symmetry_group_IT_number 62
_symmetry_cell_setting 'orthorhombic'
loop_
_space_group_symop_operation_xyz
x,y,z
1/2-x,-y,1/2+z
1/2+x,1/2-y,1/2-z
-x,1/2+y,-z
-x,-y,-z
1/2+x,y,1/2-z
1/2-x,1/2+y,1/2+z
x,1/2-y,z
loop_
_atom_site_type_symbol
_atom_site_label
_atom_site_fract_x
_atom_site_fract_y
_atom_site_fract_z
Si Si1 0.941379 0.531713 0.601889
Si Si2 0.150042 0.846212 0.947567
Si Si3 0.134777 0.445210 0.675191
Si Si4 0.220892 0.343555 0.908175
Si Si5 0.167988 0.929722 0.268563
Si Si6 0.467913 0.047191 0.358874
Si Si7 0.759461 0.073147 0.295524
O O1 0.894168 0.587208 0.489857
O O2 0.904128 0.450423 0.667345
O O3 0.000000 0.500000 0.500000
O O4 0.972987 0.580051 0.746741
O O5 0.148662 0.750000 0.989134
O O6 0.076687 0.873528 0.896235
O O7 0.206806 0.861456 0.820150
O O8 0.167264 0.903475 0.091291
O O9 0.173686 0.378009 0.773871
O O10 0.075383 0.477244 0.778714
O O11 0.181790 0.520927 0.627247
O O12 0.202000 0.250000 0.926078
O O13 0.297542 0.355289 0.861100
O O14 0.213153 0.384707 0.075633
O O15 0.212039 0.011393 0.295690
O O16 0.500000 0.000000 0.500000
#
# Coordination Sequence:
#
# PCOD8252014 Si02
#       7
#     8   8   8   8   8   8   8
#     4  10  20  36  61  85 110 153 212 250 282 348
#     4  11  23  38  58  92 126 152 197 267 319 355
#     4   9  20  36  57  85 112 150 201 246 290 360
#     4  11  22  36  57  88 121 152 186 245 313 361
#     4  11  20  37  62  87 114 157 204 244 297 374
#     4  10  19  36  62  82 109 156 209 244 292 367
#     4  10  20  36  61  87 115 158 195 243 304 382
#
# _framework density 19.497299999999999
#
# number of rings (size 3 to 8) (size 9 to 14) (size 15 to 20)
#    0.000    1.714    2.857    3.429    2.000    0.000 
#    0.000    1.429    0.000    0.000    0.000    0.000 
#    0.000    0.000    0.000    0.000    0.000    0.000 
#
# Total GULP energy -693884.860421 kJ/mol
# GULP energy per Si atom -12390.801079 kJ/mol
# Density = 1.945292 g / cm^3
# Si number density = 19.497300 Si / 1000 Ang^3
#
#
#
# Elastic Constant Matrix: (Units=GPa)
#
#
# Indices 1 2 3 4 5 6 
#
# 1 87.2767 33.0539 40.2826 0.0000 0.0000 0.0000
# 2 33.0539 88.3690 32.2590 0.0000 0.0000 0.0000
# 3 40.2826 32.2590 99.4260 0.0000 0.0000 0.0000
# 4 0.0000 0.0000 0.0000 21.4137 0.0000 0.0000
# 5 0.0000 0.0000 0.0000 0.0000 50.8365 0.0000
# 6 0.0000 0.0000 0.0000 0.0000 0.0000 21.7379
#
#
#
# Elastic Compliance Matrix: (Units=1/GPa)
#
#
# Indices 1 2 3 4 5 6 
#
# 1 0.015191 -0.003897 -0.004890 0.000000 0.000000 0.000000
# 2 -0.003897 0.013836 -0.002910 0.000000 0.000000 0.000000
# 3 -0.004890 -0.002910 0.012983 0.000000 0.000000 0.000000
# 4 0.000000 0.000000 0.000000 0.046699 0.000000 0.000000
# 5 0.000000 0.000000 0.000000 0.000000 0.019671 0.000000
# 6 0.000000 0.000000 0.000000 0.000000 0.000000 0.046003
#
#
# Mechanical properties :
#
#
# Convention : Reuss Voigt Hill
#
# Bulk Modulus (GPa) = 53.71905 54.02918 53.87411
# Shear Modulus (GPa) = 27.17648 30.09606 28.63627
#
# Velocity S-wave (km/s) = 3.73749 3.93313 3.83656
# Velocity P-wave (km/s) = 6.79978 6.95682 6.87875
#
# Compressibility (1/GPa) = 0.01861537
#
# Stress axis : x y z
#
# Youngs Moduli (GPa) = 65.82973 72.27419 77.02217
#
# Poissons Ratio (x) = 0.28164 0.37665
# Poissons Ratio (y) = 0.25653 0.22416
# Poissons Ratio (z) = 0.32192 0.21035
#
# Static dielectric constant tensor:
#      x y z
#    x 4.039590 0.000000 0.000000 
#    y 0.000000 3.096970 0.000000 
#    z 0.000000 0.000000 3.984150 
# 
# 
# High freq. dielectric constant tensor:
#      x y z
#    x 1.769310 0.000000 0.000000 
#    y 0.000000 1.705450 0.000000 
#    z 0.000000 0.000000 1.784750 
# 
# From -- ./inp_files/8758.got.cif
#   From: 2010.03.12/outbox.cif.g09.slc.cpg/sg62_5_cif.got.tgz:8758.got - 2010.04.10 19:12:36.
