data_PCOD8252450
_publ_section_title
;
Structure prediction by ZEFSAII (Michael W. Deem and Ramdas Pophale) SiO2 
 PCOD8252450
Probable space group: P N M A
;
_chemical_formula_sum "Si O2"
_cell_formula_units_Z 64
_cell_length_a 17.836216
_cell_length_b 9.189752
_cell_length_c 20.436880
_cell_angle_alpha 90.000000
_cell_angle_beta 90.000000
_cell_angle_gamma 90.000000
_cell_volume 3349.817209
_symmetry_space_group_name_H-M "P N M A"
_symmetry_group_IT_number 62
_symmetry_cell_setting 'orthorhombic'
loop_
_space_group_symop_operation_xyz
x,y,z
1/2-x,-y,1/2+z
1/2+x,1/2-y,1/2-z
-x,1/2+y,-z
-x,-y,-z
1/2+x,y,1/2-z
1/2-x,1/2+y,1/2+z
x,1/2-y,z
loop_
_atom_site_type_symbol
_atom_site_label
_atom_site_fract_x
_atom_site_fract_y
_atom_site_fract_z
Si Si1 0.321161 0.085622 0.007236
Si Si2 0.910463 0.415570 0.259560
Si Si3 0.356627 0.419883 0.634475
Si Si4 0.647353 0.582434 0.619340
Si Si5 0.357206 0.914222 0.506659
Si Si6 0.917475 0.582986 0.743180
Si Si7 0.818232 0.580374 0.365108
Si Si8 0.679497 0.419346 0.120012
O O1 0.351798 0.250000 0.009232
O O2 0.232013 0.080687 0.006328
O O3 0.350620 0.001875 0.071293
O O4 0.351991 0.007268 0.942300
O O5 0.882997 0.250000 0.272105
O O6 0.900373 0.455437 0.183432
O O7 0.860956 0.524798 0.301487
O O8 0.996794 0.434383 0.278769
O O9 0.372520 0.250000 0.627403
O O10 0.387390 0.497583 0.569124
O O11 0.402148 0.481485 0.695336
O O12 0.269150 0.453302 0.645135
O O13 0.639432 0.750000 0.598734
O O14 0.613482 0.487782 0.560076
O O15 0.733888 0.543938 0.633634
O O16 0.387756 0.750000 0.510343
O O17 0.898947 0.750000 0.761883
O O18 0.866531 0.529422 0.683200
O O19 0.833369 0.750000 0.374861
O O20 0.666977 0.250000 0.105259
#
# Coordination Sequence:
#
# PCOD8252450 Si02
#       8
#     8   8   8   8   8   8   8   8
#     4   9  17  30  51  78 104 129 163 210 258 304
#     4  10  21  36  53  75 105 140 176 213 255 305
#     4  10  20  34  54  79 105 134 170 212 257 306
#     4   9  17  31  52  76 102 132 166 207 255 304
#     4   9  17  30  51  78 104 129 163 210 258 304
#     4  10  21  36  53  75 105 140 176 213 255 305
#     4  10  20  34  54  79 105 134 170 212 257 306
#     4   9  17  31  52  76 102 132 166 207 255 304
#
# _framework density 19.105521
#
# number of rings (size 3 to 8) (size 9 to 14) (size 15 to 20)
#    0.000    2.500    0.000    2.250    0.000    7.000 
#    0.000    3.750    0.000    0.000    0.000    0.000 
#    0.000    0.000    0.000    0.000    0.000    0.000 
#
# Total GULP energy -793804.433238 kJ/mol
# GULP energy per Si atom -12403.194269 kJ/mol
# Density = 1.906204 g / cm^3
# Si number density = 19.105521 Si / 1000 Ang^3
#
#
#
# Elastic Constant Matrix: (Units=GPa)
#
#
# Indices 1 2 3 4 5 6 
#
# 1 24.7478 17.2977 9.0740 0.0000 0.0000 0.0000
# 2 17.2977 93.7981 47.6490 0.0000 0.0000 0.0000
# 3 9.0740 47.6490 97.0246 0.0000 0.0000 0.0000
# 4 0.0000 0.0000 0.0000 42.8522 0.0000 0.0000
# 5 0.0000 0.0000 0.0000 0.0000 3.6886 0.0000
# 6 0.0000 0.0000 0.0000 0.0000 0.0000 17.8873
#
#
#
# Elastic Compliance Matrix: (Units=1/GPa)
#
#
# Indices 1 2 3 4 5 6 
#
# 1 0.046389 -0.008462 -0.000183 0.000000 0.000000 0.000000
# 2 -0.008462 0.015749 -0.006943 0.000000 0.000000 0.000000
# 3 -0.000183 -0.006943 0.013733 0.000000 0.000000 0.000000
# 4 0.000000 0.000000 0.000000 0.023336 0.000000 0.000000
# 5 0.000000 0.000000 0.000000 0.000000 0.271102 0.000000
# 6 0.000000 0.000000 0.000000 0.000000 0.000000 0.055906
#
#
# Mechanical properties :
#
#
# Convention : Reuss Voigt Hill
#
# Bulk Modulus (GPa) = 22.37330 40.40133 31.38731
# Shear Modulus (GPa) = 10.58674 22.32227 16.45450
#
# Velocity S-wave (km/s) = 2.35653 3.42185 2.93788
# Velocity P-wave (km/s) = 4.37494 6.06666 5.28888
#
# Compressibility (1/GPa) = 0.04469614
#
# Stress axis : x y z
#
# Youngs Moduli (GPa) = 21.55674 63.49758 72.81524
#
# Poissons Ratio (x) = 0.53732 0.01331
# Poissons Ratio (y) = 0.18241 0.50554
# Poissons Ratio (z) = 0.00394 0.44085
#
# Static dielectric constant tensor:
#      x y z
#    x 3.131480 0.000000 0.000000 
#    y 0.000000 3.546230 0.000000 
#    z 0.000000 0.000000 3.589540 
# 
# 
# High freq. dielectric constant tensor:
#      x y z
#    x 1.707150 0.000000 0.000000 
#    y 0.000000 1.745300 0.000000 
#    z 0.000000 0.000000 1.754600 
# 
# From -- ./inp_files/27909.got.cif
#   From: 2010.03.12/outbox.cif.g09.slc.cpg/sg62_14_cif.got.tgz:27909.got - 2010.04.10 19:12:36.
