data_PCOD8252640
_publ_section_title
;
Structure prediction by ZEFSAII (Michael W. Deem and Ramdas Pophale) SiO2 
 PCOD8252640
Probable space group: P N M A
;
_chemical_formula_sum "Si O2"
_cell_formula_units_Z 48
_cell_length_a 16.499698
_cell_length_b 9.298162
_cell_length_c 17.835609
_cell_angle_alpha 90.000000
_cell_angle_beta 90.000000
_cell_angle_gamma 90.000000
_cell_volume 2736.283217
_symmetry_space_group_name_H-M "P N M A"
_symmetry_group_IT_number 62
_symmetry_cell_setting 'orthorhombic'
loop_
_space_group_symop_operation_xyz
x,y,z
1/2-x,-y,1/2+z
1/2+x,1/2-y,1/2-z
-x,1/2+y,-z
-x,-y,-z
1/2+x,y,1/2-z
1/2-x,1/2+y,1/2+z
x,1/2-y,z
loop_
_atom_site_type_symbol
_atom_site_label
_atom_site_fract_x
_atom_site_fract_y
_atom_site_fract_z
Si Si1 0.743762 0.920589 0.447694
Si Si2 0.664818 0.584701 0.672706
Si Si3 0.169845 0.082283 0.403296
Si Si4 0.581744 0.919180 0.518074
Si Si5 0.640676 0.416850 0.821417
Si Si6 0.014545 0.581267 0.422506
O O1 0.746451 0.750000 0.452685
O O2 0.799223 0.975142 0.516183
O O3 0.650612 0.970705 0.458366
O O4 0.781885 0.975146 0.369393
O O5 0.649377 0.750000 0.691249
O O6 0.759885 0.557022 0.657818
O O7 0.612017 0.538742 0.600843
O O8 0.634435 0.495135 0.742803
O O9 0.144949 0.250000 0.406770
O O10 0.093000 0.985314 0.381090
O O11 0.566499 0.750000 0.511486
O O12 0.500000 0.000000 0.500000
O O13 0.651774 0.250000 0.804368
O O14 0.560049 0.447550 0.867831
O O15 0.026486 0.750000 0.438055
O O16 0.000000 0.500000 0.500000
#
# Coordination Sequence:
#
# PCOD8252640 Si02
#       6
#     8   8   8   8   8   8
#     4   8  15  32  55  74  98 137 173 206 258 314
#     4   9  20  37  56  77 106 142 175 217 272 315
#     4   9  17  35  57  75 102 139 176 213 258 314
#     4   9  18  35  58  78 101 137 179 220 263 310
#     4  10  20  35  54  77 108 142 176 215 263 320
#     4  11  21  33  54  83 110 140 178 219 265 316
#
# _framework density 17.542045000000002
#
# number of rings (size 3 to 8) (size 9 to 14) (size 15 to 20)
#    0.000    2.667    1.667    2.500    0.000    2.667 
#    3.000    3.333    0.000    0.000    0.000    0.000 
#    0.000    0.000    0.000    0.000    0.000    0.000 
#
# Total GULP energy -595040.707191 kJ/mol
# GULP energy per Si atom -12396.681400 kJ/mol
# Density = 1.750212 g / cm^3
# Si number density = 17.542045 Si / 1000 Ang^3
#
#
#
# Elastic Constant Matrix: (Units=GPa)
#
#
# Indices 1 2 3 4 5 6 
#
# 1 141.2688 64.3140 60.2590 0.0000 0.0000 0.0000
# 2 64.3140 70.0419 54.5643 0.0000 0.0000 0.0000
# 3 60.2590 54.5643 102.5287 0.0000 0.0000 0.0000
# 4 0.0000 0.0000 0.0000 30.2109 0.0000 0.0000
# 5 0.0000 0.0000 0.0000 0.0000 18.7736 0.0000
# 6 0.0000 0.0000 0.0000 0.0000 0.0000 35.0363
#
#
#
# Elastic Compliance Matrix: (Units=1/GPa)
#
#
# Indices 1 2 3 4 5 6 
#
# 1 0.012423 -0.009769 -0.002102 0.000000 0.000000 0.000000
# 2 -0.009769 0.032071 -0.011326 0.000000 0.000000 0.000000
# 3 -0.002102 -0.011326 0.017016 0.000000 0.000000 0.000000
# 4 0.000000 0.000000 0.000000 0.033101 0.000000 0.000000
# 5 0.000000 0.000000 0.000000 0.000000 0.053266 0.000000
# 6 0.000000 0.000000 0.000000 0.000000 0.000000 0.028542
#
#
# Mechanical properties :
#
#
# Convention : Reuss Voigt Hill
#
# Bulk Modulus (GPa) = 66.15863 74.67935 70.41899
# Shear Modulus (GPa) = 21.94403 25.78429 23.86416
#
# Velocity S-wave (km/s) = 3.54070 3.83803 3.69236
# Velocity P-wave (km/s) = 7.38320 7.89333 7.64252
#
# Compressibility (1/GPa) = 0.01511519
#
# Stress axis : x y z
#
# Youngs Moduli (GPa) = 80.49546 31.18102 58.76697
#
# Poissons Ratio (x) = 0.30462 0.12354
# Poissons Ratio (y) = 0.78640 0.66559
# Poissons Ratio (z) = 0.16922 0.35315
#
# Static dielectric constant tensor:
#      x y z
#    x 3.455040 0.000000 0.000000 
#    y 0.000000 3.084510 0.000000 
#    z 0.000000 0.000000 3.240610 
# 
# 
# High freq. dielectric constant tensor:
#      x y z
#    x 1.688040 0.000000 0.000000 
#    y 0.000000 1.660130 0.000000 
#    z 0.000000 0.000000 1.666060 
# 
# From -- ./inp_files/24236.got.cif
#   From: 2010.03.12/outbox.cif.g09.slc.cpg/sg62_13_cif.got.tgz:24236.got - 2010.04.10 19:12:36.
