data_PCOD8252865
_publ_section_title
;
Structure prediction by ZEFSAII (Michael W. Deem and Ramdas Pophale) SiO2 
 PCOD8252865
Probable space group: P N M A
;
_chemical_formula_sum "Si O2"
_cell_formula_units_Z 64
_cell_length_a 8.508961
_cell_length_b 23.271905
_cell_length_c 13.816086
_cell_angle_alpha 90.000000
_cell_angle_beta 90.000000
_cell_angle_gamma 90.000000
_cell_volume 2735.857648
_symmetry_space_group_name_H-M "P N M A"
_symmetry_group_IT_number 62
_symmetry_cell_setting 'orthorhombic'
loop_
_space_group_symop_operation_xyz
x,y,z
1/2-x,-y,1/2+z
1/2+x,1/2-y,1/2-z
-x,1/2+y,-z
-x,-y,-z
1/2+x,y,1/2-z
1/2-x,1/2+y,1/2+z
x,1/2-y,z
loop_
_atom_site_type_symbol
_atom_site_label
_atom_site_fract_x
_atom_site_fract_y
_atom_site_fract_z
Si Si1 0.338970 0.430822 0.840416
Si Si2 0.175754 0.430869 0.035402
Si Si3 0.001756 0.685797 0.325305
Si Si4 0.320394 0.968872 0.141295
Si Si5 0.647102 0.687345 0.374848
Si Si6 0.806584 0.813479 0.877380
Si Si7 0.839310 0.401780 0.022774
Si Si8 0.666904 0.813777 0.674318
O O1 0.383850 0.364316 0.863191
O O2 0.493789 0.470455 0.841804
O O3 0.261346 0.439526 0.734844
O O4 0.224890 0.451555 0.927114
O O5 0.259466 0.466819 0.121268
O O6 0.226287 0.364182 0.046560
O O7 0.987936 0.441485 0.051845
O O8 0.041471 0.750000 0.367535
O O9 0.822096 0.667463 0.343024
O O10 0.021587 0.687492 0.210345
O O11 0.288138 0.935210 0.040436
O O12 0.659923 0.750000 0.422042
O O13 0.576545 0.646243 0.455562
O O14 0.772315 0.750000 0.922780
O O15 0.694758 0.824931 0.786417
O O16 0.981980 0.817306 0.838623
O O17 0.756799 0.366090 0.110449
O O18 0.731828 0.750000 0.644426
#
# Coordination Sequence:
#
# PCOD8252865 Si02
#       8
#     8   8   8   8   8   8   8   8
#     4  12  24  45  67  91 132 169 213 270 323 382
#     4  11  27  42  66  96 123 167 217 264 322 388
#     4  10  20  36  60  91 125 168 208 251 314 378
#     4  12  26  44  65  93 126 172 214 264 321 380
#     4  10  20  35  58  92 130 167 210 252 309 380
#     4   9  20  41  64  91 126 160 208 263 322 377
#     4  11  21  39  62  90 128 163 214 258 316 372
#     4   9  19  36  61  89 121 165 204 256 314 371
#
# _framework density 23.39303
#
# number of rings (size 3 to 8) (size 9 to 14) (size 15 to 20)
#    0.000    1.500    2.500    1.875    1.750    5.000 
#    0.000    0.000    0.000    0.000    0.000    0.000 
#    0.000    0.000    0.000    0.000    0.000    0.000 
#
# Total GULP energy -793149.790871 kJ/mol
# GULP energy per Si atom -12392.965482 kJ/mol
# Density = 2.333979 g / cm^3
# Si number density = 23.393030 Si / 1000 Ang^3
#
#
#
# Elastic Constant Matrix: (Units=GPa)
#
#
# Indices 1 2 3 4 5 6 
#
# 1 43.3828 9.7391 18.4737 0.0000 0.0000 0.0000
# 2 9.7391 82.6222 14.9719 0.0000 0.0000 0.0000
# 3 18.4737 14.9719 64.5624 0.0000 0.0000 0.0000
# 4 0.0000 0.0000 0.0000 38.5506 0.0000 0.0000
# 5 0.0000 0.0000 0.0000 0.0000 28.7925 0.0000
# 6 0.0000 0.0000 0.0000 0.0000 0.0000 23.4243
#
#
#
# Elastic Compliance Matrix: (Units=1/GPa)
#
#
# Indices 1 2 3 4 5 6 
#
# 1 0.026511 -0.001827 -0.007162 0.000000 0.000000 0.000000
# 2 -0.001827 0.012760 -0.002436 0.000000 0.000000 0.000000
# 3 -0.007162 -0.002436 0.018103 0.000000 0.000000 0.000000
# 4 0.000000 0.000000 0.000000 0.025940 0.000000 0.000000
# 5 0.000000 0.000000 0.000000 0.000000 0.034731 0.000000
# 6 0.000000 0.000000 0.000000 0.000000 0.000000 0.042691
#
#
# Mechanical properties :
#
#
# Convention : Reuss Voigt Hill
#
# Bulk Modulus (GPa) = 28.96602 30.77076 29.86839
# Shear Modulus (GPa) = 25.62866 27.97899 26.80383
#
# Velocity S-wave (km/s) = 3.31353 3.46213 3.38864
# Velocity P-wave (km/s) = 5.20082 5.40039 5.30154
#
# Compressibility (1/GPa) = 0.03452321
#
# Stress axis : x y z
#
# Youngs Moduli (GPa) = 37.72082 78.36910 55.23903
#
# Poissons Ratio (x) = 0.14319 0.39562
# Poissons Ratio (y) = 0.06892 0.13458
# Poissons Ratio (z) = 0.27015 0.19093
#
# Static dielectric constant tensor:
#      x y z
#    x 3.934440 0.000000 0.000000 
#    y 0.000000 4.692020 0.000000 
#    z 0.000000 0.000000 4.094420 
# 
# 
# High freq. dielectric constant tensor:
#      x y z
#    x 1.907690 0.000000 0.000000 
#    y 0.000000 1.940580 0.000000 
#    z 0.000000 0.000000 1.912320 
# 
# From -- ./inp_files/17336.got.cif
#   From: 2010.03.12/outbox.cif.g09.slc.cpg/sg62_9_cif.got.tgz:17336.got - 2010.04.10 19:12:36.
