data_PCOD8252751
_publ_section_title
;
Structure prediction by ZEFSAII (Michael W. Deem and Ramdas Pophale) SiO2 
 PCOD8252751
Probable space group: P N M A
;
_chemical_formula_sum "Si O2"
_cell_formula_units_Z 56
_cell_length_a 22.889285
_cell_length_b 9.038756
_cell_length_c 13.144961
_cell_angle_alpha 90.000000
_cell_angle_beta 90.000000
_cell_angle_gamma 90.000000
_cell_volume 2719.569685
_symmetry_space_group_name_H-M "P N M A"
_symmetry_group_IT_number 62
_symmetry_cell_setting 'orthorhombic'
loop_
_space_group_symop_operation_xyz
x,y,z
1/2-x,-y,1/2+z
1/2+x,1/2-y,1/2-z
-x,1/2+y,-z
-x,-y,-z
1/2+x,y,1/2-z
1/2-x,1/2+y,1/2+z
x,1/2-y,z
loop_
_atom_site_type_symbol
_atom_site_label
_atom_site_fract_x
_atom_site_fract_y
_atom_site_fract_z
Si Si1 0.344031 0.418386 0.991435
Si Si2 0.269063 0.424293 0.800634
Si Si3 0.055560 0.416219 0.396628
Si Si4 0.160397 0.579538 0.720806
Si Si5 0.130850 0.082747 0.192989
Si Si6 0.465001 0.417251 0.586495
Si Si7 0.040153 0.083068 0.710324
O O1 0.362849 0.250000 0.968732
O O2 0.294114 0.466753 0.911795
O O3 0.402636 0.516476 0.983435
O O4 0.318468 0.438017 0.104113
O O5 0.266455 0.250000 0.782942
O O6 0.204460 0.491486 0.793495
O O7 0.309205 0.496086 0.713381
O O8 0.037752 0.250000 0.426969
O O9 0.091278 0.418364 0.292517
O O10 0.996627 0.512769 0.383566
O O11 0.159270 0.750000 0.754317
O O12 0.096282 0.514376 0.734871
O O13 0.145698 0.250000 0.159107
O O14 0.096539 0.000980 0.102272
O O15 0.500000 0.500000 0.500000
O O16 0.452057 0.250000 0.551277
O O17 0.501229 0.418123 0.689632
O O18 0.057937 0.250000 0.680208
#
# Coordination Sequence:
#
# PCOD8252751 Si02
#       7
#     8   8   8   8   8   8   8
#     4   9  20  38  59  82 110 147 188 231 284 341
#     4  10  20  38  60  81 109 147 190 237 284 340
#     4   9  17  31  56  85 111 141 180 225 272 330
#     4  11  23  39  58  83 115 151 191 240 288 337
#     4   9  17  32  55  81 108 142 183 230 278 328
#     4  10  20  35  56  83 114 149 190 235 286 342
#     4  10  21  37  56  81 115 152 185 230 288 341
#
# _framework density 20.591494000000001
#
# number of rings (size 3 to 8) (size 9 to 14) (size 15 to 20)
#    0.000    2.286    0.000    2.571    0.000    7.429 
#    2.571    0.000    0.000    0.000    0.000    0.000 
#    0.000    0.000    0.000    0.000    0.000    0.000 
#
# Total GULP energy -694577.265629 kJ/mol
# GULP energy per Si atom -12403.165458 kJ/mol
# Density = 2.054463 g / cm^3
# Si number density = 20.591494 Si / 1000 Ang^3
#
#
#
# Elastic Constant Matrix: (Units=GPa)
#
#
# Indices 1 2 3 4 5 6 
#
# 1 91.9761 45.0241 -1.2477 0.0000 0.0000 0.0000
# 2 45.0241 150.0430 16.1703 0.0000 0.0000 0.0000
# 3 -1.2477 16.1703 24.6333 0.0000 0.0000 0.0000
# 4 0.0000 0.0000 0.0000 26.8726 0.0000 0.0000
# 5 0.0000 0.0000 0.0000 0.0000 27.7875 0.0000
# 6 0.0000 0.0000 0.0000 0.0000 0.0000 44.2548
#
#
#
# Elastic Compliance Matrix: (Units=1/GPa)
#
#
# Indices 1 2 3 4 5 6 
#
# 1 0.013014 -0.004279 0.003468 0.000000 0.000000 0.000000
# 2 -0.004279 0.008579 -0.005848 0.000000 0.000000 0.000000
# 3 0.003468 -0.005848 0.044610 0.000000 0.000000 0.000000
# 4 0.000000 0.000000 0.000000 0.037213 0.000000 0.000000
# 5 0.000000 0.000000 0.000000 0.000000 0.035987 0.000000
# 6 0.000000 0.000000 0.000000 0.000000 0.000000 0.022596
#
#
# Mechanical properties :
#
#
# Convention : Reuss Voigt Hill
#
# Bulk Modulus (GPa) = 18.90903 42.94952 30.92928
# Shear Modulus (GPa) = 25.91392 33.56336 29.73864
#
# Velocity S-wave (km/s) = 3.55135 4.04166 3.80441
# Velocity P-wave (km/s) = 5.10088 6.53324 5.86098
#
# Compressibility (1/GPa) = 0.05288478
#
# Stress axis : x y z
#
# Youngs Moduli (GPa) = 76.83996 116.56312 22.41639
#
# Poissons Ratio (x) = 0.49877 -0.07774
# Poissons Ratio (y) = 0.32879 0.13110
# Poissons Ratio (z) = -0.26648 0.68170
#
# Static dielectric constant tensor:
#      x y z
#    x 3.623080 0.000000 0.000000 
#    y 0.000000 4.002380 0.000000 
#    z 0.000000 0.000000 3.631250 
# 
# 
# High freq. dielectric constant tensor:
#      x y z
#    x 1.800300 0.000000 0.000000 
#    y 0.000000 1.819980 0.000000 
#    z 0.000000 0.000000 1.789240 
# 
# From -- ./inp_files/20274.got.cif
#   From: 2010.03.12/outbox.cif.g09.slc.cpg/sg62_11_cif.got.tgz:20274.got - 2010.04.10 19:12:36.
