data_PCOD8252978
_publ_section_title
;
Structure prediction by ZEFSAII (Michael W. Deem and Ramdas Pophale) SiO2 
 PCOD8252978
Probable space group: P N M A
;
_chemical_formula_sum "Si O2"
_cell_formula_units_Z 48
_cell_length_a 30.891484
_cell_length_b 8.607619
_cell_length_c 8.996386
_cell_angle_alpha 90.000000
_cell_angle_beta 90.000000
_cell_angle_gamma 90.000000
_cell_volume 2392.158151
_symmetry_space_group_name_H-M "P N M A"
_symmetry_group_IT_number 62
_symmetry_cell_setting 'orthorhombic'
loop_
_space_group_symop_operation_xyz
x,y,z
1/2-x,-y,1/2+z
1/2+x,1/2-y,1/2-z
-x,1/2+y,-z
-x,-y,-z
1/2+x,y,1/2-z
1/2-x,1/2+y,1/2+z
x,1/2-y,z
loop_
_atom_site_type_symbol
_atom_site_label
_atom_site_fract_x
_atom_site_fract_y
_atom_site_fract_z
Si Si1 0.039922 0.067873 0.410530
Si Si2 0.710040 0.930811 0.081928
Si Si3 0.119763 0.931205 0.576405
Si Si4 0.709314 0.566775 0.416943
Si Si5 0.125858 0.934530 0.914646
Si Si6 0.958906 0.066096 0.916369
O O1 0.033359 0.250000 0.388527
O O2 0.083587 0.034491 0.499153
O O3 0.042125 0.987043 0.252133
O O4 0.000000 0.000000 0.500000
O O5 0.722113 0.750000 0.078186
O O6 0.708385 0.997484 0.249022
O O7 0.664362 0.963249 0.006480
O O8 0.745979 0.023337 0.992648
O O9 0.106643 0.750000 0.568440
O O10 0.124195 0.990859 0.744893
O O11 0.704304 0.750000 0.412744
O O12 0.668850 0.495130 0.508040
O O13 0.127457 0.750000 0.920215
O O14 0.083955 0.997581 0.001595
O O15 0.960688 0.250000 0.922695
O O16 0.000000 0.000000 0.000000
#
# Coordination Sequence:
#
# PCOD8252978 Si02
#       6
#     8   8   8   8   8   8
#     4  12  25  41  61  87 118 154 196 241 294 351
#     4  10  21  36  57  85 116 152 192 238 293 348
#     4  10  20  38  62  86 114 149 191 238 292 351
#     4  10  20  36  57  82 113 151 195 238 285 345
#     4   9  19  36  60  85 111 148 190 236 291 348
#     4  11  22  39  62  89 121 156 197 243 294 351
#
# _framework density 20.065563000000001
#
# number of rings (size 3 to 8) (size 9 to 14) (size 15 to 20)
#    0.000    1.667    0.000    5.000    0.000    6.667 
#    0.000    5.000    0.000    0.000    0.000    0.000 
#    0.000    0.000    0.000    0.000    0.000    0.000 
#
# Total GULP energy -595405.602315 kJ/mol
# GULP energy per Si atom -12404.283382 kJ/mol
# Density = 2.001989 g / cm^3
# Si number density = 20.065563 Si / 1000 Ang^3
#
#
#
# Elastic Constant Matrix: (Units=GPa)
#
#
# Indices 1 2 3 4 5 6 
#
# 1 122.8011 20.6079 68.3937 0.0000 0.0000 0.0000
# 2 20.6079 40.0973 17.6562 0.0000 0.0000 0.0000
# 3 68.3937 17.6562 186.0076 0.0000 0.0000 0.0000
# 4 0.0000 0.0000 0.0000 27.9870 0.0000 0.0000
# 5 0.0000 0.0000 0.0000 0.0000 46.3031 0.0000
# 6 0.0000 0.0000 0.0000 0.0000 0.0000 33.1345
#
#
#
# Elastic Compliance Matrix: (Units=1/GPa)
#
#
# Indices 1 2 3 4 5 6 
#
# 1 0.010815 -0.003973 -0.003599 0.000000 0.000000 0.000000
# 2 -0.003973 0.027487 -0.001148 0.000000 0.000000 0.000000
# 3 -0.003599 -0.001148 0.006809 0.000000 0.000000 0.000000
# 4 0.000000 0.000000 0.000000 0.035731 0.000000 0.000000
# 5 0.000000 0.000000 0.000000 0.000000 0.021597 0.000000
# 6 0.000000 0.000000 0.000000 0.000000 0.000000 0.030180
#
#
# Mechanical properties :
#
#
# Convention : Reuss Voigt Hill
#
# Bulk Modulus (GPa) = 36.14201 62.46908 49.30554
# Shear Modulus (GPa) = 31.39083 37.63481 34.51282
#
# Velocity S-wave (km/s) = 3.95956 4.33551 4.15179
# Velocity P-wave (km/s) = 6.24141 7.50082 6.89991
#
# Compressibility (1/GPa) = 0.02766863
#
# Stress axis : x y z
#
# Youngs Moduli (GPa) = 92.46715 36.38093 146.87396
#
# Poissons Ratio (x) = 0.14455 0.52865
# Poissons Ratio (y) = 0.36740 0.16864
# Poissons Ratio (z) = 0.33282 0.04177
#
# Static dielectric constant tensor:
#      x y z
#    x 3.831680 0.000000 0.000000 
#    y 0.000000 3.502460 0.000000 
#    z 0.000000 0.000000 4.032240 
# 
# 
# High freq. dielectric constant tensor:
#      x y z
#    x 1.802310 0.000000 0.000000 
#    y 0.000000 1.758820 0.000000 
#    z 0.000000 0.000000 1.807340 
# 
# From -- ./inp_files/10225.got.cif
#   From: 2010.03.12/outbox.cif.g09.slc.cpg/sg62_6_cif.got.tgz:10225.got - 2010.04.10 19:12:36.
