data_PCOD8252069
_publ_section_title
;
Structure prediction by ZEFSAII (Michael W. Deem and Ramdas Pophale) SiO2 
 PCOD8252069
Probable space group: P N M A
;
_chemical_formula_sum "Si O2"
_cell_formula_units_Z 48
_cell_length_a 18.125152
_cell_length_b 12.761355
_cell_length_c 10.239575
_cell_angle_alpha 90.000000
_cell_angle_beta 90.000000
_cell_angle_gamma 90.000000
_cell_volume 2368.429048
_symmetry_space_group_name_H-M "P N M A"
_symmetry_group_IT_number 62
_symmetry_cell_setting 'orthorhombic'
loop_
_space_group_symop_operation_xyz
x,y,z
1/2-x,-y,1/2+z
1/2+x,1/2-y,1/2-z
-x,1/2+y,-z
-x,-y,-z
1/2+x,y,1/2-z
1/2-x,1/2+y,1/2+z
x,1/2-y,z
loop_
_atom_site_type_symbol
_atom_site_label
_atom_site_fract_x
_atom_site_fract_y
_atom_site_fract_z
Si Si1 0.889037 0.367587 0.325664
Si Si2 0.372556 0.373025 0.714106
Si Si3 0.164990 0.068139 0.535557
Si Si4 0.462160 0.961428 0.870642
Si Si5 0.708292 0.133872 0.696103
Si Si6 0.674194 0.565381 0.559104
O O1 0.882836 0.250000 0.382791
O O2 0.849425 0.444124 0.431236
O O3 0.848375 0.370817 0.186977
O O4 0.975464 0.394524 0.296156
O O5 0.388970 0.250000 0.731625
O O6 0.435464 0.440123 0.784822
O O7 0.291894 0.403087 0.771089
O O8 0.377907 0.404595 0.561672
O O9 0.158241 0.129720 0.672643
O O10 0.243135 0.096522 0.475848
O O11 0.107308 0.106576 0.424250
O O12 0.500000 0.000000 0.000000
O O13 0.706925 0.250000 0.637803
O O14 0.671737 0.059228 0.587839
#
# Coordination Sequence:
#
# PCOD8252069 Si02
#       6
#     8   8   8   8   8   8
#     4  10  22  38  58  86 121 160 193 239 308 357
#     4  10  20  36  62  86 114 163 202 236 299 356
#     4   9  19  36  60  84 117 153 199 251 289 345
#     4  10  21  38  58  86 119 155 198 246 285 349
#     4   9  18  33  58  89 116 152 197 243 300 350
#     4  10  19  37  60  88 121 151 200 255 291 345
#
# _framework density 20.266597999999998
#
# number of rings (size 3 to 8) (size 9 to 14) (size 15 to 20)
#    0.000    2.333    1.667    0.500    0.000    5.333 
#    0.000    7.500    0.000    0.000    0.000    0.000 
#    0.000    0.000    0.000    0.000    0.000    0.000 
#
# Total GULP energy -594873.837041 kJ/mol
# GULP energy per Si atom -12393.204938 kJ/mol
# Density = 2.022047 g / cm^3
# Si number density = 20.266598 Si / 1000 Ang^3
#
#
#
# Elastic Constant Matrix: (Units=GPa)
#
#
# Indices 1 2 3 4 5 6 
#
# 1 83.9893 18.8349 35.0338 0.0000 0.0000 0.0000
# 2 18.8349 81.4206 3.5000 0.0000 0.0000 0.0000
# 3 35.0338 3.5000 69.7095 0.0000 0.0000 0.0000
# 4 0.0000 0.0000 0.0000 15.1752 0.0000 0.0000
# 5 0.0000 0.0000 0.0000 0.0000 37.8188 0.0000
# 6 0.0000 0.0000 0.0000 0.0000 0.0000 27.7817
#
#
#
# Elastic Compliance Matrix: (Units=1/GPa)
#
#
# Indices 1 2 3 4 5 6 
#
# 1 0.015925 -0.003347 -0.007835 0.000000 0.000000 0.000000
# 2 -0.003347 0.013012 0.001029 0.000000 0.000000 0.000000
# 3 -0.007835 0.001029 0.018231 0.000000 0.000000 0.000000
# 4 0.000000 0.000000 0.000000 0.065897 0.000000 0.000000
# 5 0.000000 0.000000 0.000000 0.000000 0.026442 0.000000
# 6 0.000000 0.000000 0.000000 0.000000 0.000000 0.035995
#
#
# Mechanical properties :
#
#
# Convention : Reuss Voigt Hill
#
# Bulk Modulus (GPa) = 37.22847 38.87297 38.05072
# Shear Modulus (GPa) = 24.41840 28.00519 26.21180
#
# Velocity S-wave (km/s) = 3.47487 3.72134 3.60022
# Velocity P-wave (km/s) = 5.87443 6.13897 6.00816
#
# Compressibility (1/GPa) = 0.02686116
#
# Stress axis : x y z
#
# Youngs Moduli (GPa) = 62.79338 76.85238 54.85023
#
# Poissons Ratio (x) = 0.25724 0.42978
# Poissons Ratio (y) = 0.21018 -0.05643
# Poissons Ratio (z) = 0.49202 -0.07907
#
# Static dielectric constant tensor:
#      x y z
#    x 4.548270 0.000000 0.000000 
#    y 0.000000 3.515250 0.000000 
#    z 0.000000 0.000000 4.360310 
# 
# 
# High freq. dielectric constant tensor:
#      x y z
#    x 1.782880 0.000000 0.000000 
#    y 0.000000 1.774770 0.000000 
#    z 0.000000 0.000000 1.790940 
# 
# From -- ./inp_files/14133.got.cif
#   From: 2010.03.12/outbox.cif.g09.slc.cpg/sg62_8_cif.got.tgz:14133.got - 2010.04.10 19:12:36.
