data_PCOD8252867
_publ_section_title
;
Structure prediction by ZEFSAII (Michael W. Deem and Ramdas Pophale) SiO2 
 PCOD8252867
Probable space group: P N M A
;
_chemical_formula_sum "Si O2"
_cell_formula_units_Z 44
_cell_length_a 15.035898
_cell_length_b 14.533887
_cell_length_c 10.565253
_cell_angle_alpha 90.000000
_cell_angle_beta 90.000000
_cell_angle_gamma 90.000000
_cell_volume 2308.825187
_symmetry_space_group_name_H-M "P N M A"
_symmetry_group_IT_number 62
_symmetry_cell_setting 'orthorhombic'
loop_
_space_group_symop_operation_xyz
x,y,z
1/2-x,-y,1/2+z
1/2+x,1/2-y,1/2-z
-x,1/2+y,-z
-x,-y,-z
1/2+x,y,1/2-z
1/2-x,1/2+y,1/2+z
x,1/2-y,z
loop_
_atom_site_type_symbol
_atom_site_label
_atom_site_fract_x
_atom_site_fract_y
_atom_site_fract_z
Si Si1 0.858540 0.250000 0.467368
Si Si2 0.959540 0.907754 0.157326
Si Si3 0.301013 0.250000 0.327189
Si Si4 0.610165 0.250000 0.063851
Si Si5 0.500828 0.103299 0.947036
Si Si6 0.837043 0.750000 0.051541
Si Si7 0.550472 0.250000 0.324638
Si Si8 0.576279 0.603386 0.574306
O O1 0.831614 0.250000 0.318876
O O2 0.914833 0.341349 0.501775
O O3 0.770266 0.250000 0.557296
O O4 0.882172 0.836248 0.121778
O O5 0.998486 0.895817 0.296434
O O6 0.911590 0.005246 0.139421
O O7 0.049611 0.902590 0.073378
O O8 0.197206 0.250000 0.350414
O O9 0.333973 0.159885 0.402605
O O10 0.538529 0.250000 0.175145
O O11 0.592423 0.156731 0.985032
O O12 0.500000 0.000000 0.000000
O O13 0.856053 0.750000 0.899772
O O14 0.504456 0.155856 0.361911
#
# Coordination Sequence:
#
# PCOD8252867 Si02
#       8
#     4   8   4   4   8   4   4   8
#     4  11  23  39  60  88 117 158 192 235 300 345
#     4  10  20  39  58  88 113 149 198 226 296 344
#     4  11  21  38  58  91 113 147 200 233 288 341
#     4  11  22  35  58  85 120 152 190 238 285 341
#     4  11  23  41  60  86 118 157 194 241 292 349
#     4  10  20  35  59  82 119 150 186 241 277 345
#     4   9  16  35  57  82 109 149 190 227 282 330
#     4   9  19  36  64  82 109 151 190 241 272 349
#
# _framework density 19.057310999999999
#
# number of rings (size 3 to 8) (size 9 to 14) (size 15 to 20)
#    0.000    1.818    0.909    6.000    0.000    1.455 
#    6.545    0.000    0.000    0.000    0.000    0.000 
#    0.000    0.000    0.000    0.000    0.000    0.000 
#
# Total GULP energy -545138.608299 kJ/mol
# GULP energy per Si atom -12389.513825 kJ/mol
# Density = 1.901394 g / cm^3
# Si number density = 19.057311 Si / 1000 Ang^3
#
#
#
# Elastic Constant Matrix: (Units=GPa)
#
#
# Indices 1 2 3 4 5 6 
#
# 1 91.4560 47.5825 33.6233 0.0000 0.0000 0.0000
# 2 47.5825 173.3146 51.2375 0.0000 0.0000 0.0000
# 3 33.6233 51.2375 137.1185 0.0000 0.0000 0.0000
# 4 0.0000 0.0000 0.0000 63.9612 0.0000 0.0000
# 5 0.0000 0.0000 0.0000 0.0000 25.0315 0.0000
# 6 0.0000 0.0000 0.0000 0.0000 0.0000 15.1256
#
#
#
# Elastic Compliance Matrix: (Units=1/GPa)
#
#
# Indices 1 2 3 4 5 6 
#
# 1 0.013288 -0.003018 -0.002131 0.000000 0.000000 0.000000
# 2 -0.003018 0.007172 -0.001940 0.000000 0.000000 0.000000
# 3 -0.002131 -0.001940 0.008540 0.000000 0.000000 0.000000
# 4 0.000000 0.000000 0.000000 0.015634 0.000000 0.000000
# 5 0.000000 0.000000 0.000000 0.000000 0.039950 0.000000
# 6 0.000000 0.000000 0.000000 0.000000 0.000000 0.066113
#
#
# Mechanical properties :
#
#
# Convention : Reuss Voigt Hill
#
# Bulk Modulus (GPa) = 67.46352 74.08619 70.77485
# Shear Modulus (GPa) = 29.44372 38.78672 34.11522
#
# Velocity S-wave (km/s) = 3.93492 4.51629 4.23559
# Velocity P-wave (km/s) = 7.49146 8.13361 7.81913
#
# Compressibility (1/GPa) = 0.01482283
#
# Stress axis : x y z
#
# Youngs Moduli (GPa) = 75.25689 139.43150 117.09240
#
# Poissons Ratio (x) = 0.42084 0.24947
# Poissons Ratio (y) = 0.22714 0.22714
# Poissons Ratio (z) = 0.16034 0.27048
#
# Static dielectric constant tensor:
#      x y z
#    x 3.384320 0.000000 0.000000 
#    y 0.000000 3.701870 0.000000 
#    z 0.000000 0.000000 3.760210 
# 
# 
# High freq. dielectric constant tensor:
#      x y z
#    x 1.720160 0.000000 0.000000 
#    y 0.000000 1.752990 0.000000 
#    z 0.000000 0.000000 1.756330 
# 
# From -- ./inp_files/7602.got.cif
#   From: 2010.03.12/outbox.cif.g09.slc.cpg/sg62_4_cif.got.tgz:7602.got - 2010.04.10 19:12:36.
