data_PCOD8252637
_publ_section_title
;
Structure prediction by ZEFSAII (Michael W. Deem and Ramdas Pophale) SiO2 
 PCOD8252637
Probable space group: P N M A
;
_chemical_formula_sum "Si O2"
_cell_formula_units_Z 48
_cell_length_a 19.855663
_cell_length_b 9.252961
_cell_length_c 14.892107
_cell_angle_alpha 90.000000
_cell_angle_beta 90.000000
_cell_angle_gamma 90.000000
_cell_volume 2736.032632
_symmetry_space_group_name_H-M "P N M A"
_symmetry_group_IT_number 62
_symmetry_cell_setting 'orthorhombic'
loop_
_space_group_symop_operation_xyz
x,y,z
1/2-x,-y,1/2+z
1/2+x,1/2-y,1/2-z
-x,1/2+y,-z
-x,-y,-z
1/2+x,y,1/2-z
1/2-x,1/2+y,1/2+z
x,1/2-y,z
loop_
_atom_site_type_symbol
_atom_site_label
_atom_site_fract_x
_atom_site_fract_y
_atom_site_fract_z
Si Si1 0.309621 0.920588 0.112119
Si Si2 0.038652 0.082899 0.576676
Si Si3 0.698818 0.417906 0.500973
Si Si4 0.338073 0.921113 0.306166
Si Si5 0.011883 0.418917 0.778001
Si Si6 0.450209 0.580270 0.567651
O O1 0.300291 0.750000 0.104401
O O2 0.383780 0.967872 0.079772
O O3 0.300067 0.973167 0.215761
O O4 0.254511 0.995097 0.051683
O O5 0.035406 0.250000 0.552495
O O6 0.002419 0.053575 0.671972
O O7 0.000000 0.000000 0.500000
O O8 0.716864 0.250000 0.494684
O O9 0.700928 0.472227 0.604687
O O10 0.625970 0.450227 0.460713
O O11 0.344037 0.750000 0.303083
O O12 0.414790 0.976903 0.308254
O O13 0.002059 0.250000 0.801309
O O14 0.958060 0.514220 0.832568
O O15 0.500000 0.500000 0.500000
O O16 0.466641 0.750000 0.566923
#
# Coordination Sequence:
#
# PCOD8252637 Si02
#       6
#     8   8   8   8   8   8
#     4   9  19  36  56  77 102 138 180 218 256 310
#     4   9  19  36  59  81 106 140 179 221 265 313
#     4  10  20  35  54  76 106 140 173 217 266 313
#     4   8  15  33  56  72  97 138 174 207 257 310
#     4   9  17  34  56  77 103 138 177 216 259 314
#     4  11  21  33  53  81 110 139 172 217 268 317
#
# _framework density 17.54365
#
# number of rings (size 3 to 8) (size 9 to 14) (size 15 to 20)
#    0.000    2.667    1.667    2.500    0.000    2.667 
#    3.000    3.333    0.000    0.000    0.000    0.000 
#    0.000    0.000    0.000    0.000    0.000    0.000 
#
# Total GULP energy -595028.588698 kJ/mol
# GULP energy per Si atom -12396.428931 kJ/mol
# Density = 1.750372 g / cm^3
# Si number density = 17.543650 Si / 1000 Ang^3
#
#
#
# Elastic Constant Matrix: (Units=GPa)
#
#
# Indices 1 2 3 4 5 6 
#
# 1 93.2127 53.4794 84.4869 0.0000 0.0000 0.0000
# 2 53.4794 63.6834 63.1010 0.0000 0.0000 0.0000
# 3 84.4869 63.1010 162.8350 0.0000 0.0000 0.0000
# 4 0.0000 0.0000 0.0000 34.7332 0.0000 0.0000
# 5 0.0000 0.0000 0.0000 0.0000 34.3305 0.0000
# 6 0.0000 0.0000 0.0000 0.0000 0.0000 33.1746
#
#
#
# Elastic Compliance Matrix: (Units=1/GPa)
#
#
# Indices 1 2 3 4 5 6 
#
# 1 0.026033 -0.013762 -0.008174 0.000000 0.000000 0.000000
# 2 -0.013762 0.032766 -0.005557 0.000000 0.000000 0.000000
# 3 -0.008174 -0.005557 0.012536 0.000000 0.000000 0.000000
# 4 0.000000 0.000000 0.000000 0.028791 0.000000 0.000000
# 5 0.000000 0.000000 0.000000 0.000000 0.029129 0.000000
# 6 0.000000 0.000000 0.000000 0.000000 0.000000 0.030144
#
#
# Mechanical properties :
#
#
# Convention : Reuss Voigt Hill
#
# Bulk Modulus (GPa) = 61.16906 80.20731 70.68819
# Shear Modulus (GPa) = 22.74456 28.35860 25.55158
#
# Velocity S-wave (km/s) = 3.60454 4.02488 3.82050
# Velocity P-wave (km/s) = 7.22953 8.21082 7.73575
#
# Compressibility (1/GPa) = 0.01634813
#
# Stress axis : x y z
#
# Youngs Moduli (GPa) = 38.41274 30.51973 79.77304
#
# Poissons Ratio (x) = 0.42003 0.65207
# Poissons Ratio (y) = 0.52865 0.44327
# Poissons Ratio (z) = 0.31399 0.16959
#
# Static dielectric constant tensor:
#      x y z
#    x 3.182670 0.000000 0.000000 
#    y 0.000000 3.064380 0.000000 
#    z 0.000000 0.000000 3.654130 
# 
# 
# High freq. dielectric constant tensor:
#      x y z
#    x 1.662340 0.000000 0.000000 
#    y 0.000000 1.659690 0.000000 
#    z 0.000000 0.000000 1.694580 
# 
# From -- ./inp_files/19560.got.cif
#   From: 2010.03.12/outbox.cif.g09.slc.cpg/sg62_10_cif.got.tgz:19560.got - 2010.04.10 19:12:36.
