data_PCOD8252606
_publ_section_title
;
Structure prediction by ZEFSAII (Michael W. Deem and Ramdas Pophale) SiO2 
 PCOD8252606
Probable space group: P N M A
;
_chemical_formula_sum "Si O2"
_cell_formula_units_Z 56
_cell_length_a 21.365184
_cell_length_b 8.925912
_cell_length_c 14.429749
_cell_angle_alpha 90.000000
_cell_angle_beta 90.000000
_cell_angle_gamma 90.000000
_cell_volume 2751.807278
_symmetry_space_group_name_H-M "P N M A"
_symmetry_group_IT_number 62
_symmetry_cell_setting 'orthorhombic'
loop_
_space_group_symop_operation_xyz
x,y,z
1/2-x,-y,1/2+z
1/2+x,1/2-y,1/2-z
-x,1/2+y,-z
-x,-y,-z
1/2+x,y,1/2-z
1/2-x,1/2+y,1/2+z
x,1/2-y,z
loop_
_atom_site_type_symbol
_atom_site_label
_atom_site_fract_x
_atom_site_fract_y
_atom_site_fract_z
Si Si1 0.833474 0.571666 0.386963
Si Si2 0.433793 0.574405 0.605333
Si Si3 0.806835 0.074625 0.198531
Si Si4 0.024688 0.424897 0.591586
Si Si5 0.909675 0.075749 0.711556
Si Si6 0.074879 0.922782 0.920275
Si Si7 0.298301 0.427701 0.923220
O O1 0.826025 0.750000 0.381737
O O2 0.799183 0.496348 0.299876
O O3 0.905795 0.519659 0.384788
O O4 0.800418 0.510016 0.478475
O O5 0.426000 0.750000 0.606601
O O6 0.396375 0.510024 0.693045
O O7 0.506303 0.522251 0.611595
O O8 0.402974 0.512968 0.511143
O O9 0.789584 0.250000 0.201062
O O10 0.877544 0.047657 0.163421
O O11 0.762169 0.986611 0.129332
O O12 0.023582 0.250000 0.572136
O O13 0.000000 0.500000 0.500000
O O14 0.978863 0.467770 0.675888
O O15 0.903222 0.250000 0.732664
O O16 0.859593 0.025596 0.634790
O O17 0.072849 0.750000 0.949165
O O18 0.294322 0.250000 0.938113
#
# Coordination Sequence:
#
# PCOD8252606 Si02
#       7
#     8   8   8   8   8   8   8
#     4  11  23  40  64  93 123 157 201 250 304 366
#     4  10  20  34  59  90 117 149 191 240 292 350
#     4  11  24  42  64  87 118 160 205 250 301 360
#     4  10  20  35  59  90 122 157 195 243 302 363
#     4  10  21  37  57  85 121 158 192 237 300 356
#     4   9  20  39  59  84 117 153 191 239 296 350
#     4  11  24  42  62  85 119 159 202 248 296 353
#
# _framework density 20.350263000000002
#
# number of rings (size 3 to 8) (size 9 to 14) (size 15 to 20)
#    0.000    1.714    1.429    2.571    0.000    5.143 
#    0.000    1.429    0.000    0.000    0.000    0.000 
#    0.000    0.000    0.000    0.000    0.000    0.000 
#
# Total GULP energy -694663.362610 kJ/mol
# GULP energy per Si atom -12404.702904 kJ/mol
# Density = 2.030395 g / cm^3
# Si number density = 20.350263 Si / 1000 Ang^3
#
#
#
# Elastic Constant Matrix: (Units=GPa)
#
#
# Indices 1 2 3 4 5 6 
#
# 1 58.0546 16.4443 20.0302 0.0000 0.0000 0.0000
# 2 16.4443 49.8856 37.0182 0.0000 0.0000 0.0000
# 3 20.0302 37.0182 136.5593 0.0000 0.0000 0.0000
# 4 0.0000 0.0000 0.0000 41.0259 0.0000 0.0000
# 5 0.0000 0.0000 0.0000 0.0000 28.0284 0.0000
# 6 0.0000 0.0000 0.0000 0.0000 0.0000 28.7849
#
#
#
# Elastic Compliance Matrix: (Units=1/GPa)
#
#
# Indices 1 2 3 4 5 6 
#
# 1 0.019204 -0.005308 -0.001378 0.000000 0.000000 0.000000
# 2 -0.005308 0.026561 -0.006421 0.000000 0.000000 0.000000
# 3 -0.001378 -0.006421 0.009266 0.000000 0.000000 0.000000
# 4 0.000000 0.000000 0.000000 0.024375 0.000000 0.000000
# 5 0.000000 0.000000 0.000000 0.000000 0.035678 0.000000
# 6 0.000000 0.000000 0.000000 0.000000 0.000000 0.034740
#
#
# Mechanical properties :
#
#
# Convention : Reuss Voigt Hill
#
# Bulk Modulus (GPa) = 34.70317 43.49829 39.10073
# Shear Modulus (GPa) = 26.93330 30.96829 28.95080
#
# Velocity S-wave (km/s) = 3.64192 3.90521 3.77586
# Velocity P-wave (km/s) = 5.89701 6.46184 6.18588
#
# Compressibility (1/GPa) = 0.02881581
#
# Stress axis : x y z
#
# Youngs Moduli (GPa) = 52.07223 37.64961 107.92549
#
# Poissons Ratio (x) = 0.19984 0.14872
# Poissons Ratio (y) = 0.27639 0.69304
# Poissons Ratio (z) = 0.07175 0.24177
#
# Static dielectric constant tensor:
#      x y z
#    x 4.035090 0.000000 0.000000 
#    y 0.000000 3.649060 0.000000 
#    z 0.000000 0.000000 3.663840 
# 
# 
# High freq. dielectric constant tensor:
#      x y z
#    x 1.788220 0.000000 0.000000 
#    y 0.000000 1.797430 0.000000 
#    z 0.000000 0.000000 1.806200 
# 
# From -- ./inp_files/20354.got.cif
#   From: 2010.03.12/outbox.cif.g09.slc.cpg/sg62_11_cif.got.tgz:20354.got - 2010.04.10 19:12:36.
