data_PCOD8252697
_publ_section_title
;
Structure prediction by ZEFSAII (Michael W. Deem and Ramdas Pophale) SiO2 
 PCOD8252697
Probable space group: P N M A
;
_chemical_formula_sum "Si O2"
_cell_formula_units_Z 64
_cell_length_a 17.061711
_cell_length_b 8.663564
_cell_length_c 22.041244
_cell_angle_alpha 90.000000
_cell_angle_beta 90.000000
_cell_angle_gamma 90.000000
_cell_volume 3258.031446
_symmetry_space_group_name_H-M "P N M A"
_symmetry_group_IT_number 62
_symmetry_cell_setting 'orthorhombic'
loop_
_space_group_symop_operation_xyz
x,y,z
1/2-x,-y,1/2+z
1/2+x,1/2-y,1/2-z
-x,1/2+y,-z
-x,-y,-z
1/2+x,y,1/2-z
1/2-x,1/2+y,1/2+z
x,1/2-y,z
loop_
_atom_site_type_symbol
_atom_site_label
_atom_site_fract_x
_atom_site_fract_y
_atom_site_fract_z
Si Si1 0.465714 0.433042 0.630273
Si Si2 0.398390 0.423122 0.955274
Si Si3 0.820675 0.928720 0.433481
Si Si4 0.286332 0.421519 0.841462
Si Si5 0.529530 0.432254 0.868680
Si Si6 0.636959 0.065352 0.596012
Si Si7 0.923353 0.064778 0.737651
Si Si8 0.659051 0.430869 0.458993
O O1 0.467180 0.250000 0.632308
O O2 0.552666 0.497274 0.617049
O O3 0.436281 0.500007 0.694836
O O4 0.409232 0.485924 0.577280
O O5 0.408750 0.250000 0.982671
O O6 0.333696 0.414393 0.903422
O O7 0.478557 0.492320 0.926353
O O8 0.368994 0.541947 0.005454
O O9 0.796588 0.750000 0.429942
O O10 0.878835 0.975033 0.377550
O O11 0.742795 0.030471 0.429213
O O12 0.267206 0.250000 0.818039
O O13 0.202818 0.502995 0.857274
O O14 0.340361 0.501156 0.789182
O O15 0.517405 0.250000 0.869273
O O16 0.495153 0.495766 0.804952
O O17 0.640624 0.250000 0.596523
O O18 0.655315 0.007212 0.527882
O O19 0.921380 0.250000 0.736734
O O20 0.644511 0.250000 0.455411
#
# Coordination Sequence:
#
# PCOD8252697 Si02
#       8
#     8   8   8   8   8   8   8   8
#     4  10  20  35  55  82 105 125 166 226 271 301
#     4   9  15  28  50  72 103 141 175 205 250 319
#     4  11  20  30  47  77 112 135 169 224 266 298
#     4   8  13  26  50  77 102 134 172 204 241 306
#     4   8  16  29  48  76 106 138 171 210 258 314
#     4   9  17  31  53  79 102 130 174 214 250 307
#     4   8  15  30  51  77 107 134 165 208 260 308
#     4  11  22  37  54  72 101 145 179 208 262 322
#
# _framework density 19.643763
#
# number of rings (size 3 to 8) (size 9 to 14) (size 15 to 20)
#    0.000    2.750    1.250    3.000    0.000    0.000 
#    2.250    1.250    0.000    4.500    0.000    0.000 
#    0.000    0.000    0.000    0.000    0.000    0.000 
#
# Total GULP energy -793059.228120 kJ/mol
# GULP energy per Si atom -12391.550439 kJ/mol
# Density = 1.959905 g / cm^3
# Si number density = 19.643763 Si / 1000 Ang^3
#
#
#
# Elastic Constant Matrix: (Units=GPa)
#
#
# Indices 1 2 3 4 5 6 
#
# 1 160.4492 4.6652 67.7903 0.0000 0.0000 0.0000
# 2 4.6652 6.3888 9.0873 0.0000 0.0000 0.0000
# 3 67.7903 9.0873 91.9700 0.0000 0.0000 0.0000
# 4 0.0000 0.0000 0.0000 14.9766 0.0000 0.0000
# 5 0.0000 0.0000 0.0000 0.0000 20.2300 0.0000
# 6 0.0000 0.0000 0.0000 0.0000 0.0000 18.2076
#
#
#
# Elastic Compliance Matrix: (Units=1/GPa)
#
#
# Indices 1 2 3 4 5 6 
#
# 1 0.009113 0.003374 -0.007051 0.000000 0.000000 0.000000
# 2 0.003374 0.183368 -0.020605 0.000000 0.000000 0.000000
# 3 -0.007051 -0.020605 0.018106 0.000000 0.000000 0.000000
# 4 0.000000 0.000000 0.000000 0.066771 0.000000 0.000000
# 5 0.000000 0.000000 0.000000 0.000000 0.049431 0.000000
# 6 0.000000 0.000000 0.000000 0.000000 0.000000 0.054922
#
#
# Mechanical properties :
#
#
# Convention : Reuss Voigt Hill
#
# Bulk Modulus (GPa) = 6.17191 46.87708 26.52449
# Shear Modulus (GPa) = 10.32452 22.50052 16.41252
#
# Velocity S-wave (km/s) = 2.29506 3.38809 2.89365
# Velocity P-wave (km/s) = 3.18932 6.26266 4.96954
#
# Compressibility (1/GPa) = 0.16202435
#
# Stress axis : x y z
#
# Youngs Moduli (GPa) = 109.72882 5.45350 55.22991
#
# Poissons Ratio (x) = -0.01840 0.38941
# Poissons Ratio (y) = -0.37024 1.13802
# Poissons Ratio (z) = 0.77367 0.11237
#
# Static dielectric constant tensor:
#      x y z
#    x 3.949700 0.000000 0.000000 
#    y 0.000000 3.027860 0.000000 
#    z 0.000000 0.000000 3.663180 
# 
# 
# High freq. dielectric constant tensor:
#      x y z
#    x 1.781030 0.000000 0.000000 
#    y 0.000000 1.704390 0.000000 
#    z 0.000000 0.000000 1.752780 
# 
# From -- ./inp_files/30063.got.cif
#   From: 2010.03.12/outbox.cif.g09.slc.cpg/sg62_16_cif.got.tgz:30063.got - 2010.04.10 19:12:36.
