data_PCOD8252570
_publ_section_title
;
Structure prediction by ZEFSAII (Michael W. Deem and Ramdas Pophale) SiO2 
 PCOD8252570
Probable space group: P N M A
;
_chemical_formula_sum "Si O2"
_cell_formula_units_Z 48
_cell_length_a 18.173919
_cell_length_b 14.666081
_cell_length_c 9.669663
_cell_angle_alpha 90.000000
_cell_angle_beta 90.000000
_cell_angle_gamma 90.000000
_cell_volume 2577.353602
_symmetry_space_group_name_H-M "P N M A"
_symmetry_group_IT_number 62
_symmetry_cell_setting 'orthorhombic'
loop_
_space_group_symop_operation_xyz
x,y,z
1/2-x,-y,1/2+z
1/2+x,1/2-y,1/2-z
-x,1/2+y,-z
-x,-y,-z
1/2+x,y,1/2-z
1/2-x,1/2+y,1/2+z
x,1/2-y,z
loop_
_atom_site_type_symbol
_atom_site_label
_atom_site_fract_x
_atom_site_fract_y
_atom_site_fract_z
Si Si1 0.485637 0.557220 0.866388
Si Si2 0.544880 0.450665 0.618752
Si Si3 0.971325 0.750000 0.536792
Si Si4 0.668038 0.250000 0.218313
Si Si5 0.452585 0.750000 0.293772
Si Si6 0.709449 0.445680 0.512836
Si Si7 0.817661 0.750000 0.022439
Si Si8 0.814002 0.945822 0.706175
O O1 0.538054 0.514185 0.752023
O O2 0.511399 0.660263 0.902981
O O3 0.401314 0.552220 0.817294
O O4 0.500000 0.500000 0.000000
O O5 0.500000 0.500000 0.500000
O O6 0.515004 0.346012 0.644213
O O7 0.630612 0.451576 0.584813
O O8 0.889922 0.750000 0.595871
O O9 0.964931 0.750000 0.370504
O O10 0.634242 0.250000 0.376953
O O11 0.715827 0.158391 0.199491
O O12 0.367271 0.750000 0.339460
O O13 0.733679 0.339393 0.518533
O O14 0.704106 0.485700 0.357699
O O15 0.773107 0.499086 0.589061
#
# Coordination Sequence:
#
# PCOD8252570 Si02
#       8
#     8   8   4   4   4   8   4   8
#     4  11  22  38  61  87 119 153 195 244 291 344
#     4  11  22  40  61  86 119 155 197 242 289 346
#     4  10  20  34  56  88 116 152 194 234 290 352
#     4   8  18  36  56  80 111 148 194 232 279 352
#     4  10  20  34  58  86 115 152 196 236 285 353
#     4  10  21  37  60  83 113 150 191 237 288 343
#     4   8  18  36  56  80 108 152 194 228 282 349
#     4  10  21  37  59  84 113 150 191 236 288 344
#
# _framework density 18.623754999999999
#
# number of rings (size 3 to 8) (size 9 to 14) (size 15 to 20)
#    0.000    2.000    3.333    0.000    4.667    1.333 
#    0.000    3.333    0.000    0.000    0.000    0.000 
#    0.000    0.000    0.000    0.000    0.000    0.000 
#
# Total GULP energy -594650.171686 kJ/mol
# GULP energy per Si atom -12388.545243 kJ/mol
# Density = 1.858137 g / cm^3
# Si number density = 18.623755 Si / 1000 Ang^3
#
#
#
# Elastic Constant Matrix: (Units=GPa)
#
#
# Indices 1 2 3 4 5 6 
#
# 1 31.6113 21.3187 10.7352 0.0000 0.0000 0.0000
# 2 21.3187 148.2295 57.3663 0.0000 0.0000 0.0000
# 3 10.7352 57.3663 121.4862 0.0000 0.0000 0.0000
# 4 0.0000 0.0000 0.0000 36.1505 0.0000 0.0000
# 5 0.0000 0.0000 0.0000 0.0000 35.6691 0.0000
# 6 0.0000 0.0000 0.0000 0.0000 0.0000 24.3216
#
#
#
# Elastic Compliance Matrix: (Units=1/GPa)
#
#
# Indices 1 2 3 4 5 6 
#
# 1 0.035109 -0.004709 -0.000879 0.000000 0.000000 0.000000
# 2 -0.004709 0.008887 -0.003780 0.000000 0.000000 0.000000
# 3 -0.000879 -0.003780 0.010094 0.000000 0.000000 0.000000
# 4 0.000000 0.000000 0.000000 0.027662 0.000000 0.000000
# 5 0.000000 0.000000 0.000000 0.000000 0.028035 0.000000
# 6 0.000000 0.000000 0.000000 0.000000 0.000000 0.041116
#
#
# Mechanical properties :
#
#
# Convention : Reuss Voigt Hill
#
# Bulk Modulus (GPa) = 28.28612 53.35194 40.81903
# Shear Modulus (GPa) = 27.55988 33.35536 30.45762
#
# Velocity S-wave (km/s) = 3.85102 4.23663 4.04842
# Velocity P-wave (km/s) = 5.91566 7.25544 6.61953
#
# Compressibility (1/GPa) = 0.03535303
#
# Stress axis : x y z
#
# Youngs Moduli (GPa) = 28.48299 112.52956 99.06853
#
# Poissons Ratio (x) = 0.52994 0.08704
# Poissons Ratio (y) = 0.13414 0.37449
# Poissons Ratio (z) = 0.02503 0.42538
#
# Static dielectric constant tensor:
#      x y z
#    x 2.967490 0.000000 0.000000 
#    y 0.000000 4.020650 0.000000 
#    z 0.000000 0.000000 3.741860 
# 
# 
# High freq. dielectric constant tensor:
#      x y z
#    x 1.670420 0.000000 0.000000 
#    y 0.000000 1.746280 0.000000 
#    z 0.000000 0.000000 1.744790 
# 
# From -- ./inp_files/7740.got.cif
#   From: 2010.03.12/outbox.cif.g09.slc.cpg/sg62_4_cif.got.tgz:7740.got - 2010.04.10 19:12:36.
