data_PCOD8252622
_publ_section_title
;
Structure prediction by ZEFSAII (Michael W. Deem and Ramdas Pophale) SiO2 
 PCOD8252622
Probable space group: P N M A
;
_chemical_formula_sum "Si O2"
_cell_formula_units_Z 64
_cell_length_a 14.492594
_cell_length_b 8.386696
_cell_length_c 30.490363
_cell_angle_alpha 90.000000
_cell_angle_beta 90.000000
_cell_angle_gamma 90.000000
_cell_volume 3705.950565
_symmetry_space_group_name_H-M "P N M A"
_symmetry_group_IT_number 62
_symmetry_cell_setting 'orthorhombic'
loop_
_space_group_symop_operation_xyz
x,y,z
1/2-x,-y,1/2+z
1/2+x,1/2-y,1/2-z
-x,1/2+y,-z
-x,-y,-z
1/2+x,y,1/2-z
1/2-x,1/2+y,1/2+z
x,1/2-y,z
loop_
_atom_site_type_symbol
_atom_site_label
_atom_site_fract_x
_atom_site_fract_y
_atom_site_fract_z
Si Si1 0.176231 0.431836 0.138159
Si Si2 0.808622 0.938728 0.132654
Si Si3 0.831358 0.060432 0.703658
Si Si4 0.393723 0.561916 0.453367
Si Si5 0.207473 0.433851 0.713047
Si Si6 0.406173 0.561718 0.550096
Si Si7 0.502371 0.433119 0.674838
Si Si8 0.015197 0.566616 0.732839
O O1 0.209154 0.250000 0.143741
O O2 0.243247 0.544666 0.165987
O O3 0.171776 0.481344 0.086441
O O4 0.072513 0.448013 0.155276
O O5 0.803113 0.750000 0.132623
O O6 0.720965 0.003278 0.159766
O O7 0.818528 0.003365 0.082300
O O8 0.899144 0.993336 0.158550
O O9 0.843900 0.250000 0.703324
O O10 0.774038 0.008076 0.747292
O O11 0.930102 0.973904 0.700644
O O12 0.387169 0.750000 0.453713
O O13 0.373025 0.495727 0.502362
O O14 0.496326 0.517113 0.437325
O O15 0.182409 0.250000 0.720012
O O16 0.113634 0.534534 0.710398
O O17 0.422566 0.750000 0.548385
O O18 0.480697 0.250000 0.661833
O O19 0.502195 0.446708 0.726985
O O20 0.010134 0.750000 0.747466
#
# Coordination Sequence:
#
# PCOD8252622 Si02
#       8
#     8   8   8   8   8   8   8   8
#     4  11  21  32  46  72 104 135 169 206 251 293
#     4   9  17  30  50  72  94 128 171 206 236 283
#     4  10  20  35  52  71  96 128 169 206 241 290
#     4   9  16  29  48  70  97 131 167 200 242 296
#     4  11  22  36  54  72  96 133 173 207 242 291
#     4   9  18  29  44  70 103 132 160 201 249 296
#     4  11  19  31  49  71  99 135 174 207 239 286
#     4  12  24  36  50  72 102 132 164 208 254 294
#
# _framework density 17.269524000000001
#
# number of rings (size 3 to 8) (size 9 to 14) (size 15 to 20)
#    0.000    1.750    3.750    2.250    0.000    1.000 
#    0.000    0.625    0.000    0.000    0.000    0.875 
#    0.000    0.000    0.000    0.000    0.000    0.000 
#
# Total GULP energy -793265.145596 kJ/mol
# GULP energy per Si atom -12394.767900 kJ/mol
# Density = 1.723022 g / cm^3
# Si number density = 17.269524 Si / 1000 Ang^3
#
#
#
# Elastic Constant Matrix: (Units=GPa)
#
#
# Indices 1 2 3 4 5 6 
#
# 1 78.5405 16.4031 30.9653 0.0000 0.0000 0.0000
# 2 16.4031 32.2254 10.7482 0.0000 0.0000 0.0000
# 3 30.9653 10.7482 103.7661 0.0000 0.0000 0.0000
# 4 0.0000 0.0000 0.0000 15.9074 0.0000 0.0000
# 5 0.0000 0.0000 0.0000 0.0000 25.9635 0.0000
# 6 0.0000 0.0000 0.0000 0.0000 0.0000 20.4405
#
#
#
# Elastic Compliance Matrix: (Units=1/GPa)
#
#
# Indices 1 2 3 4 5 6 
#
# 1 0.015698 -0.006658 -0.003995 0.000000 0.000000 0.000000
# 2 -0.006658 0.034966 -0.001635 0.000000 0.000000 0.000000
# 3 -0.003995 -0.001635 0.010999 0.000000 0.000000 0.000000
# 4 0.000000 0.000000 0.000000 0.062864 0.000000 0.000000
# 5 0.000000 0.000000 0.000000 0.000000 0.038516 0.000000
# 6 0.000000 0.000000 0.000000 0.000000 0.000000 0.048923
#
#
# Mechanical properties :
#
#
# Convention : Reuss Voigt Hill
#
# Bulk Modulus (GPa) = 26.96392 36.75168 31.85780
# Shear Modulus (GPa) = 20.08828 22.88999 21.48914
#
# Velocity S-wave (km/s) = 3.41430 3.64463 3.53135
# Velocity P-wave (km/s) = 5.58487 6.24808 5.92576
#
# Compressibility (1/GPa) = 0.03708660
#
# Stress axis : x y z
#
# Youngs Moduli (GPa) = 63.70332 28.59945 90.92139
#
# Poissons Ratio (x) = 0.19041 0.36321
# Poissons Ratio (y) = 0.42413 0.14865
# Poissons Ratio (z) = 0.25448 0.04676
#
# Static dielectric constant tensor:
#      x y z
#    x 3.129550 0.000000 0.000000 
#    y 0.000000 3.011330 0.000000 
#    z 0.000000 0.000000 3.733340 
# 
# 
# High freq. dielectric constant tensor:
#      x y z
#    x 1.635360 0.000000 0.000000 
#    y 0.000000 1.657270 0.000000 
#    z 0.000000 0.000000 1.664740 
# 
# From -- ./inp_files/32697.got.cif
#   From: 2010.03.12/outbox.cif.g09.slc.cpg/sg62_17_cif.got.tgz:32697.got - 2010.04.10 19:12:36.
