data_PCOD8252907
_publ_section_title
;
Structure prediction by ZEFSAII (Michael W. Deem and Ramdas Pophale) SiO2 
 PCOD8252907
Probable space group: P N M A
;
_chemical_formula_sum "Si O2"
_cell_formula_units_Z 48
_cell_length_a 9.085530
_cell_length_b 24.348596
_cell_length_c 10.588954
_cell_angle_alpha 90.000000
_cell_angle_beta 90.000000
_cell_angle_gamma 90.000000
_cell_volume 2342.487339
_symmetry_space_group_name_H-M "P N M A"
_symmetry_group_IT_number 62
_symmetry_cell_setting 'orthorhombic'
loop_
_space_group_symop_operation_xyz
x,y,z
1/2-x,-y,1/2+z
1/2+x,1/2-y,1/2-z
-x,1/2+y,-z
-x,-y,-z
1/2+x,y,1/2-z
1/2-x,1/2+y,1/2+z
x,1/2-y,z
loop_
_atom_site_type_symbol
_atom_site_label
_atom_site_fract_x
_atom_site_fract_y
_atom_site_fract_z
Si Si1 0.276244 0.899977 0.226465
Si Si2 0.504928 0.943898 0.423481
Si Si3 0.298230 0.191096 0.904584
Si Si4 0.209493 0.812705 0.796235
Si Si5 0.111163 0.188373 0.539670
Si Si6 0.913090 0.847309 0.903068
O O1 0.380270 0.939188 0.313344
O O2 0.166197 0.936077 0.139956
O O3 0.177817 0.860357 0.313112
O O4 0.373806 0.857485 0.147219
O O5 0.476526 0.902527 0.538509
O O6 0.500000 0.000000 0.500000
O O7 0.299613 0.250000 0.831918
O O8 0.438631 0.189139 0.999500
O O9 0.143952 0.188933 0.979457
O O10 0.246815 0.750000 0.757441
O O11 0.271330 0.854313 0.689228
O O12 0.035674 0.817789 0.818166
O O13 0.288846 0.830175 0.924707
O O14 0.157558 0.250000 0.585822
#
# Coordination Sequence:
#
# PCOD8252907 Si02
#       6
#     8   8   8   8   8   8
#     4  11  21  44  65  92 131 157 212 269 320 381
#     4  11  26  46  70  94 121 170 223 276 324 368
#     4  10  20  35  60  94 128 169 206 249 317 389
#     4  11  21  35  58  91 133 174 206 249 313 390
#     4  10  20  35  60  94 132 174 206 246 322 392
#     4  11  23  39  61  89 135 170 219 263 309 373
#
# _framework density 20.491039000000001
#
# number of rings (size 3 to 8) (size 9 to 14) (size 15 to 20)
#    0.000    1.333    3.333    3.000    0.000    2.667 
#    0.000    0.833    0.000    0.000    0.000    0.000 
#    0.000    0.000    0.000    0.000    0.000    0.000 
#
# Total GULP energy -594688.202975 kJ/mol
# GULP energy per Si atom -12389.337562 kJ/mol
# Density = 2.044440 g / cm^3
# Si number density = 20.491039 Si / 1000 Ang^3
#
#
#
# Elastic Constant Matrix: (Units=GPa)
#
#
# Indices 1 2 3 4 5 6 
#
# 1 105.7309 43.1517 39.4233 0.0000 0.0000 0.0000
# 2 43.1517 103.6684 49.4652 0.0000 0.0000 0.0000
# 3 39.4233 49.4652 89.6765 0.0000 0.0000 0.0000
# 4 0.0000 0.0000 0.0000 30.0522 0.0000 0.0000
# 5 0.0000 0.0000 0.0000 0.0000 47.5113 0.0000
# 6 0.0000 0.0000 0.0000 0.0000 0.0000 35.0802
#
#
#
# Elastic Compliance Matrix: (Units=1/GPa)
#
#
# Indices 1 2 3 4 5 6 
#
# 1 0.012136 -0.003401 -0.003459 0.000000 0.000000 0.000000
# 2 -0.003401 0.014045 -0.006252 0.000000 0.000000 0.000000
# 3 -0.003459 -0.006252 0.016120 0.000000 0.000000 0.000000
# 4 0.000000 0.000000 0.000000 0.033275 0.000000 0.000000
# 5 0.000000 0.000000 0.000000 0.000000 0.021048 0.000000
# 6 0.000000 0.000000 0.000000 0.000000 0.000000 0.028506
#
#
# Mechanical properties :
#
#
# Convention : Reuss Voigt Hill
#
# Bulk Modulus (GPa) = 62.20079 62.57291 62.38685
# Shear Modulus (GPa) = 31.90536 33.66445 32.78491
#
# Velocity S-wave (km/s) = 3.95021 4.05765 4.00429
# Velocity P-wave (km/s) = 7.15728 7.24953 7.20355
#
# Compressibility (1/GPa) = 0.01607697
#
# Stress axis : x y z
#
# Youngs Moduli (GPa) = 82.40087 71.20013 62.03294
#
# Poissons Ratio (x) = 0.24215 0.21458
# Poissons Ratio (y) = 0.28024 0.38783
# Poissons Ratio (z) = 0.28504 0.44514
#
# Static dielectric constant tensor:
#      x y z
#    x 3.786800 0.000000 0.000000 
#    y 0.000000 3.367360 0.000000 
#    z 0.000000 0.000000 3.763450 
# 
# 
# High freq. dielectric constant tensor:
#      x y z
#    x 1.817880 0.000000 0.000000 
#    y 0.000000 1.765630 0.000000 
#    z 0.000000 0.000000 1.803540 
# 
# From -- ./inp_files/11312.got.cif
#   From: 2010.03.12/outbox.cif.g09.slc.cpg/sg62_6_cif.got.tgz:11312.got - 2010.04.10 19:12:36.
