data_PCOD8252617
_publ_section_title
;
Structure prediction by ZEFSAII (Michael W. Deem and Ramdas Pophale) SiO2 
 PCOD8252617
Probable space group: P N M A
;
_chemical_formula_sum "Si O2"
_cell_formula_units_Z 48
_cell_length_a 18.468359
_cell_length_b 15.518992
_cell_length_c 8.748345
_cell_angle_alpha 90.000000
_cell_angle_beta 90.000000
_cell_angle_gamma 90.000000
_cell_volume 2507.365921
_symmetry_space_group_name_H-M "P N M A"
_symmetry_group_IT_number 62
_symmetry_cell_setting 'orthorhombic'
loop_
_space_group_symop_operation_xyz
x,y,z
1/2-x,-y,1/2+z
1/2+x,1/2-y,1/2-z
-x,1/2+y,-z
-x,-y,-z
1/2+x,y,1/2-z
1/2-x,1/2+y,1/2+z
x,1/2-y,z
loop_
_atom_site_type_symbol
_atom_site_label
_atom_site_fract_x
_atom_site_fract_y
_atom_site_fract_z
Si Si1 0.785067 0.912731 0.553407
Si Si2 0.437607 0.653877 0.013356
Si Si3 0.729525 0.250000 0.584893
Si Si4 0.554116 0.750000 0.550807
Si Si5 0.729965 0.913688 0.889507
Si Si6 0.576091 0.654277 0.839953
Si Si7 0.207088 0.750000 0.093016
Si Si8 0.566693 0.250000 0.697409
O O1 0.870623 0.907605 0.522354
O O2 0.774019 0.915114 0.733466
O O3 0.743935 0.832961 0.479898
O O4 0.753294 0.999326 0.480360
O O5 0.423576 0.750000 0.941907
O O6 0.448311 0.664882 0.197407
O O7 0.509254 0.613653 0.934801
O O8 0.740893 0.165646 0.485657
O O9 0.785496 0.250000 0.725078
O O10 0.649517 0.250000 0.650745
O O11 0.555860 0.664898 0.659724
O O12 0.622055 0.750000 0.438317
O O13 0.481556 0.750000 0.452890
O O14 0.644336 0.907655 0.857489
O O15 0.595494 0.750000 0.906662
#
# Coordination Sequence:
#
# PCOD8252617 Si02
#       8
#     8   8   4   4   8   8   4   4
#     4  12  23  43  64  93 126 167 212 263 314 373
#     4   9  20  38  63  87 127 164 206 248 320 375
#     4  12  24  39  67  95 126 167 211 260 318 372
#     4  10  20  34  67  95 127 161 211 254 310 381
#     4  12  26  40  66  94 126 168 218 261 315 375
#     4   9  19  40  60  92 121 166 207 251 313 380
#     4  12  21  42  67  93 127 169 199 271 314 366
#     4  10  21  35  63  99 122 163 211 253 308 391
#
# _framework density 19.143595000000001
#
# number of rings (size 3 to 8) (size 9 to 14) (size 15 to 20)
#    1.000    0.333    5.000    1.500    4.667    0.667 
#    0.000    0.000    0.000    3.000    0.000    0.000 
#    0.000    0.000    0.000    0.000    0.000    0.000 
#
# Total GULP energy -595121.347199 kJ/mol
# GULP energy per Si atom -12398.361400 kJ/mol
# Density = 1.910002 g / cm^3
# Si number density = 19.143595 Si / 1000 Ang^3
#
#
#
# Elastic Constant Matrix: (Units=GPa)
#
#
# Indices 1 2 3 4 5 6 
#
# 1 66.1302 10.9333 32.5433 0.0000 0.0000 0.0000
# 2 10.9333 95.3333 44.6393 0.0000 0.0000 0.0000
# 3 32.5433 44.6393 148.4596 0.0000 0.0000 0.0000
# 4 0.0000 0.0000 0.0000 46.0659 0.0000 0.0000
# 5 0.0000 0.0000 0.0000 0.0000 43.4660 0.0000
# 6 0.0000 0.0000 0.0000 0.0000 0.0000 87.3852
#
#
#
# Elastic Compliance Matrix: (Units=1/GPa)
#
#
# Indices 1 2 3 4 5 6 
#
# 1 0.016955 -0.000238 -0.003645 0.000000 0.000000 0.000000
# 2 -0.000238 0.012212 -0.003620 0.000000 0.000000 0.000000
# 3 -0.003645 -0.003620 0.008623 0.000000 0.000000 0.000000
# 4 0.000000 0.000000 0.000000 0.021708 0.000000 0.000000
# 5 0.000000 0.000000 0.000000 0.000000 0.023006 0.000000
# 6 0.000000 0.000000 0.000000 0.000000 0.000000 0.011444
#
#
# Mechanical properties :
#
#
# Convention : Reuss Voigt Hill
#
# Bulk Modulus (GPa) = 43.88912 54.01720 48.95316
# Shear Modulus (GPa) = 42.90084 50.17058 46.53571
#
# Velocity S-wave (km/s) = 4.73906 5.12488 4.93574
# Velocity P-wave (km/s) = 7.27468 7.95596 7.62293
#
# Compressibility (1/GPa) = 0.02278469
#
# Stress axis : x y z
#
# Youngs Moduli (GPa) = 58.98037 81.88865 115.96515
#
# Poissons Ratio (x) = 0.01946 0.42271
# Poissons Ratio (y) = 0.01402 0.41977
# Poissons Ratio (z) = 0.21499 0.29642
#
# Static dielectric constant tensor:
#      x y z
#    x 3.491170 0.000000 0.000000 
#    y 0.000000 3.242140 0.000000 
#    z 0.000000 0.000000 3.572220 
# 
# 
# High freq. dielectric constant tensor:
#      x y z
#    x 1.749630 0.000000 0.000000 
#    y 0.000000 1.719290 0.000000 
#    z 0.000000 0.000000 1.751240 
# 
# From -- ./inp_files/7873.got.cif
#   From: 2010.03.12/outbox.cif.g09.slc.cpg/sg62_4_cif.got.tgz:7873.got - 2010.04.10 19:12:36.
