data_PCOD8252086
_publ_section_title
;
Structure prediction by ZEFSAII (Michael W. Deem and Ramdas Pophale) SiO2 
 PCOD8252086
Probable space group: P N M A
;
_chemical_formula_sum "Si O2"
_cell_formula_units_Z 64
_cell_length_a 23.630336
_cell_length_b 8.833520
_cell_length_c 15.129440
_cell_angle_alpha 90.000000
_cell_angle_beta 90.000000
_cell_angle_gamma 90.000000
_cell_volume 3158.104867
_symmetry_space_group_name_H-M "P N M A"
_symmetry_group_IT_number 62
_symmetry_cell_setting 'orthorhombic'
loop_
_space_group_symop_operation_xyz
x,y,z
1/2-x,-y,1/2+z
1/2+x,1/2-y,1/2-z
-x,1/2+y,-z
-x,-y,-z
1/2+x,y,1/2-z
1/2-x,1/2+y,1/2+z
x,1/2-y,z
loop_
_atom_site_type_symbol
_atom_site_label
_atom_site_fract_x
_atom_site_fract_y
_atom_site_fract_z
Si Si1 0.361215 0.421330 0.189644
Si Si2 0.466832 0.926692 0.920878
Si Si3 0.521665 0.570650 0.745851
Si Si4 0.755485 0.927056 0.071123
Si Si5 0.634166 0.581395 0.009983
Si Si6 0.246666 0.572693 0.228304
Si Si7 0.334436 0.430614 0.570442
Si Si8 0.459179 0.569014 0.572387
O O1 0.341604 0.250000 0.212656
O O2 0.411915 0.477641 0.253982
O O3 0.386688 0.427306 0.090979
O O4 0.309015 0.533683 0.195068
O O5 0.476700 0.750000 0.924282
O O6 0.489171 0.998124 0.829894
O O7 0.500000 0.000000 0.000000
O O8 0.400492 0.965214 0.929586
O O9 0.519332 0.750000 0.750256
O O10 0.488912 0.510420 0.661333
O O11 0.772023 0.750000 0.073695
O O12 0.742479 0.989213 0.170707
O O13 0.700069 0.959292 0.013302
O O14 0.805027 0.017791 0.021337
O O15 0.624404 0.750000 0.048117
O O16 0.238591 0.750000 0.229749
O O17 0.199836 0.509199 0.158135
O O18 0.338811 0.250000 0.570056
O O19 0.396445 0.502196 0.569868
O O20 0.500000 0.500000 0.500000
O O21 0.456395 0.750000 0.564451
#
# Coordination Sequence:
#
# PCOD8252086 Si02
#       8
#     8   8   8   8   8   8   8   8
#     4  10  19  37  62  86 118 158 201 247 304 371
#     4  11  21  36  57  86 122 159 197 240 292 358
#     4   9  21  40  60  86 121 160 202 247 299 365
#     4  10  22  41  63  88 122 164 203 247 310 372
#     4  10  20  36  59  86 120 158 195 241 300 364
#     4  10  23  40  60  91 126 157 201 257 307 361
#     4  11  24  43  65  94 129 162 207 263 312 369
#     4  11  25  46  68  90 122 165 215 267 316 366
#
# _framework density 20.265317
#
# number of rings (size 3 to 8) (size 9 to 14) (size 15 to 20)
#    0.000    1.750    2.500    1.125    3.500    2.000 
#    0.000    2.500    0.000    0.000    0.000    0.000 
#    0.000    0.000    0.000    0.000    0.000    0.000 
#
# Total GULP energy -793397.670317 kJ/mol
# GULP energy per Si atom -12396.838599 kJ/mol
# Density = 2.021919 g / cm^3
# Si number density = 20.265317 Si / 1000 Ang^3
#
#
#
# Elastic Constant Matrix: (Units=GPa)
#
#
# Indices 1 2 3 4 5 6 
#
# 1 148.7560 35.7317 73.9870 0.0000 0.0000 0.0000
# 2 35.7317 48.3593 41.9841 0.0000 0.0000 0.0000
# 3 73.9870 41.9841 145.8775 0.0000 0.0000 0.0000
# 4 0.0000 0.0000 0.0000 25.6304 0.0000 0.0000
# 5 0.0000 0.0000 0.0000 0.0000 36.5161 0.0000
# 6 0.0000 0.0000 0.0000 0.0000 0.0000 36.7853
#
#
#
# Elastic Compliance Matrix: (Units=1/GPa)
#
#
# Indices 1 2 3 4 5 6 
#
# 1 0.009480 -0.003773 -0.003722 0.000000 0.000000 0.000000
# 2 -0.003773 0.029068 -0.006452 0.000000 0.000000 0.000000
# 3 -0.003722 -0.006452 0.010600 0.000000 0.000000 0.000000
# 4 0.000000 0.000000 0.000000 0.039016 0.000000 0.000000
# 5 0.000000 0.000000 0.000000 0.000000 0.027385 0.000000
# 6 0.000000 0.000000 0.000000 0.000000 0.000000 0.027185
#
#
# Mechanical properties :
#
#
# Convention : Reuss Voigt Hill
#
# Bulk Modulus (GPa) = 47.05244 71.82206 59.43725
# Shear Modulus (GPa) = 28.13517 32.53903 30.33710
#
# Velocity S-wave (km/s) = 3.73009 4.01140 3.87330
# Velocity P-wave (km/s) = 6.46684 7.54804 7.02826
#
# Compressibility (1/GPa) = 0.02125288
#
# Stress axis : x y z
#
# Youngs Moduli (GPa) = 105.48454 34.40204 94.34025
#
# Poissons Ratio (x) = 0.12980 0.35116
# Poissons Ratio (y) = 0.39800 0.60871
# Poissons Ratio (z) = 0.39264 0.22197
#
# Static dielectric constant tensor:
#      x y z
#    x 3.849460 0.000000 0.000000 
#    y 0.000000 3.345070 0.000000 
#    z 0.000000 0.000000 4.101770 
# 
# 
# High freq. dielectric constant tensor:
#      x y z
#    x 1.803220 0.000000 0.000000 
#    y 0.000000 1.770010 0.000000 
#    z 0.000000 0.000000 1.799450 
# 
# From -- ./inp_files/20929.got.cif
#   From: 2010.03.12/outbox.cif.g09.slc.cpg/sg62_11_cif.got.tgz:20929.got - 2010.04.10 19:12:36.
