data_PCOD8252009
_publ_section_title
;
Structure prediction by ZEFSAII (Michael W. Deem and Ramdas Pophale) SiO2 
 PCOD8252009
Probable space group: P N M A
;
_chemical_formula_sum "Si O2"
_cell_formula_units_Z 64
_cell_length_a 22.191778
_cell_length_b 8.826341
_cell_length_c 16.581273
_cell_angle_alpha 90.000000
_cell_angle_beta 90.000000
_cell_angle_gamma 90.000000
_cell_volume 3247.810422
_symmetry_space_group_name_H-M "P N M A"
_symmetry_group_IT_number 62
_symmetry_cell_setting 'orthorhombic'
loop_
_space_group_symop_operation_xyz
x,y,z
1/2-x,-y,1/2+z
1/2+x,1/2-y,1/2-z
-x,1/2+y,-z
-x,-y,-z
1/2+x,y,1/2-z
1/2-x,1/2+y,1/2+z
x,1/2-y,z
loop_
_atom_site_type_symbol
_atom_site_label
_atom_site_fract_x
_atom_site_fract_y
_atom_site_fract_z
Si Si1 0.266336 0.077844 0.419372
Si Si2 0.064887 0.928074 0.498866
Si Si3 0.864277 0.923702 0.641514
Si Si4 0.390393 0.571937 0.674634
Si Si5 0.613129 0.926176 0.676646
Si Si6 0.355730 0.430227 0.146369
Si Si7 0.497178 0.571250 0.412098
Si Si8 0.228908 0.071442 0.088594
O O1 0.267420 0.250000 0.451435
O O2 0.206755 0.045515 0.367286
O O3 0.321892 0.045064 0.361344
O O4 0.269533 0.967013 0.494729
O O5 0.057916 0.750000 0.505608
O O6 0.102124 0.993015 0.574932
O O7 0.098950 0.967887 0.416999
O O8 0.000000 0.000000 0.500000
O O9 0.879945 0.750000 0.620730
O O10 0.884050 0.964167 0.731439
O O11 0.398768 0.750000 0.658317
O O12 0.447979 0.484526 0.642198
O O13 0.331418 0.506039 0.629491
O O14 0.594242 0.750000 0.671921
O O15 0.616818 0.984230 0.768768
O O16 0.564933 0.026130 0.630048
O O17 0.352740 0.250000 0.144095
O O18 0.288222 0.495629 0.132849
O O19 0.500000 0.500000 0.500000
O O20 0.500292 0.750000 0.421484
O O21 0.228508 0.250000 0.098796
#
# Coordination Sequence:
#
# PCOD8252009 Si02
#       8
#     8   8   8   8   8   8   8   8
#     4  10  20  35  59  90 121 154 195 246 298 352
#     4  11  23  39  60  88 122 162 202 246 299 356
#     4  10  21  39  61  89 122 158 200 245 299 359
#     4  10  22  39  63  89 118 157 201 248 298 355
#     4  10  21  39  63  88 118 156 200 247 297 352
#     4   9  19  37  61  87 116 155 198 241 293 352
#     4  12  26  44  63  88 121 157 199 244 295 354
#     4  10  19  36  61  88 118 155 199 243 294 359
#
# _framework density 19.705584000000002
#
# number of rings (size 3 to 8) (size 9 to 14) (size 15 to 20)
#    0.000    1.750    1.250    3.000    1.750    6.500 
#    0.000    1.250    0.000    3.000    0.000    0.000 
#    0.000    0.000    0.000    0.000    0.000    0.000 
#
# Total GULP energy -793821.247003 kJ/mol
# GULP energy per Si atom -12403.456984 kJ/mol
# Density = 1.966073 g / cm^3
# Si number density = 19.705584 Si / 1000 Ang^3
#
#
#
# Elastic Constant Matrix: (Units=GPa)
#
#
# Indices 1 2 3 4 5 6 
#
# 1 158.4852 46.1679 63.4040 0.0000 0.0000 0.0000
# 2 46.1679 58.9862 38.6772 0.0000 0.0000 0.0000
# 3 63.4040 38.6772 139.8258 0.0000 0.0000 0.0000
# 4 0.0000 0.0000 0.0000 30.9713 0.0000 0.0000
# 5 0.0000 0.0000 0.0000 0.0000 33.4243 0.0000
# 6 0.0000 0.0000 0.0000 0.0000 0.0000 28.0378
#
#
#
# Elastic Compliance Matrix: (Units=1/GPa)
#
#
# Indices 1 2 3 4 5 6 
#
# 1 0.008868 -0.005258 -0.002567 0.000000 0.000000 0.000000
# 2 -0.005258 0.023827 -0.004206 0.000000 0.000000 0.000000
# 3 -0.002567 -0.004206 0.009479 0.000000 0.000000 0.000000
# 4 0.000000 0.000000 0.000000 0.032288 0.000000 0.000000
# 5 0.000000 0.000000 0.000000 0.000000 0.029918 0.000000
# 6 0.000000 0.000000 0.000000 0.000000 0.000000 0.035666
#
#
# Mechanical properties :
#
#
# Convention : Reuss Voigt Hill
#
# Bulk Modulus (GPa) = 55.21355 72.64395 63.92875
# Shear Modulus (GPa) = 29.38639 32.42322 30.90481
#
# Velocity S-wave (km/s) = 3.86589 4.06073 3.96451
# Velocity P-wave (km/s) = 6.92870 7.67664 7.31224
#
# Compressibility (1/GPa) = 0.01811150
#
# Stress axis : x y z
#
# Youngs Moduli (GPa) = 112.76015 41.96973 105.49324
#
# Poissons Ratio (x) = 0.22068 0.27079
# Poissons Ratio (y) = 0.59290 0.44375
# Poissons Ratio (z) = 0.28945 0.17654
#
# Static dielectric constant tensor:
#      x y z
#    x 3.805970 0.000000 0.000000 
#    y 0.000000 3.434830 0.000000 
#    z 0.000000 0.000000 2.689160 
# 
# 
# High freq. dielectric constant tensor:
#      x y z
#    x 1.787370 0.000000 0.000000 
#    y 0.000000 1.743760 0.000000 
#    z 0.000000 0.000000 1.781350 
# 
# From -- ./inp_files/20871.got.cif
#   From: 2010.03.12/outbox.cif.g09.slc.cpg/sg62_11_cif.got.tgz:20871.got - 2010.04.10 19:12:36.
