data_PCOD8252885
_publ_section_title
;
Structure prediction by ZEFSAII (Michael W. Deem and Ramdas Pophale) SiO2 
 PCOD8252885
Probable space group: P N M A
;
_chemical_formula_sum "Si O2"
_cell_formula_units_Z 48
_cell_length_a 11.751051
_cell_length_b 9.037490
_cell_length_c 22.324985
_cell_angle_alpha 90.000000
_cell_angle_beta 90.000000
_cell_angle_gamma 90.000000
_cell_volume 2370.913539
_symmetry_space_group_name_H-M "P N M A"
_symmetry_group_IT_number 62
_symmetry_cell_setting 'orthorhombic'
loop_
_space_group_symop_operation_xyz
x,y,z
1/2-x,-y,1/2+z
1/2+x,1/2-y,1/2-z
-x,1/2+y,-z
-x,-y,-z
1/2+x,y,1/2-z
1/2-x,1/2+y,1/2+z
x,1/2-y,z
loop_
_atom_site_type_symbol
_atom_site_label
_atom_site_fract_x
_atom_site_fract_y
_atom_site_fract_z
Si Si1 0.420790 0.587863 0.044163
Si Si2 0.237678 0.420398 0.109221
Si Si3 0.062973 0.912699 0.337058
Si Si4 0.991506 0.423941 0.064218
Si Si5 0.877527 0.422641 0.273954
Si Si6 0.180824 0.075889 0.848363
O O1 0.395362 0.750000 0.017068
O O2 0.300926 0.507704 0.055991
O O3 0.485426 0.602378 0.105740
O O4 0.500000 0.500000 0.000000
O O5 0.264763 0.250000 0.096999
O O6 0.283764 0.463394 0.175287
O O7 0.104102 0.455600 0.104031
O O8 0.070538 0.750000 0.305670
O O9 0.187262 0.965544 0.357239
O O10 0.005479 0.034323 0.294047
O O11 0.973104 0.250000 0.054896
O O12 0.885893 0.491118 0.099813
O O13 0.000000 0.500000 0.000000
O O14 0.875197 0.250000 0.257384
O O15 0.852781 0.521464 0.216965
O O16 0.156863 0.250000 0.854295
#
# Coordination Sequence:
#
# PCOD8252885 Si02
#       6
#     8   8   8   8   8   8
#     4  10  20  35  59  88 118 153 197 245 300 356
#     4   9  21  41  62  86 121 159 200 252 305 362
#     4   9  21  40  59  85 120 157 198 248 301 362
#     4  11  25  44  64  91 126 168 214 259 311 372
#     4  10  21  39  64  93 121 155 200 254 311 367
#     4  11  24  41  63  91 124 163 203 252 307 368
#
# _framework density 20.245359000000001
#
# number of rings (size 3 to 8) (size 9 to 14) (size 15 to 20)
#    0.000    2.000    0.000    2.000    4.667    4.000 
#    0.000    0.000    0.000    0.000    0.000    0.000 
#    0.000    0.000    0.000    0.000    0.000    0.000 
#
# Total GULP energy -595204.938408 kJ/mol
# GULP energy per Si atom -12400.102884 kJ/mol
# Density = 2.019928 g / cm^3
# Si number density = 20.245359 Si / 1000 Ang^3
#
#
#
# Elastic Constant Matrix: (Units=GPa)
#
#
# Indices 1 2 3 4 5 6 
#
# 1 122.6485 48.1905 29.4522 0.0000 0.0000 0.0000
# 2 48.1905 101.8551 40.4852 0.0000 0.0000 0.0000
# 3 29.4522 40.4852 68.4382 0.0000 0.0000 0.0000
# 4 0.0000 0.0000 0.0000 37.8852 0.0000 0.0000
# 5 0.0000 0.0000 0.0000 0.0000 16.1039 0.0000
# 6 0.0000 0.0000 0.0000 0.0000 0.0000 34.3917
#
#
#
# Elastic Compliance Matrix: (Units=1/GPa)
#
#
# Indices 1 2 3 4 5 6 
#
# 1 0.010223 -0.004037 -0.002011 0.000000 0.000000 0.000000
# 2 -0.004037 0.014430 -0.006799 0.000000 0.000000 0.000000
# 3 -0.002011 -0.006799 0.019499 0.000000 0.000000 0.000000
# 4 0.000000 0.000000 0.000000 0.026396 0.000000 0.000000
# 5 0.000000 0.000000 0.000000 0.000000 0.062097 0.000000
# 6 0.000000 0.000000 0.000000 0.000000 0.000000 0.029077
#
#
# Mechanical properties :
#
#
# Convention : Reuss Voigt Hill
#
# Bulk Modulus (GPa) = 54.17807 58.79973 56.48890
# Shear Modulus (GPa) = 25.83065 29.33042 27.58054
#
# Velocity S-wave (km/s) = 3.57582 3.81037 3.69496
# Velocity P-wave (km/s) = 6.62325 6.96169 6.79458
#
# Compressibility (1/GPa) = 0.01845765
#
# Stress axis : x y z
#
# Youngs Moduli (GPa) = 97.82250 69.29775 51.28422
#
# Poissons Ratio (x) = 0.27977 0.10313
# Poissons Ratio (y) = 0.39494 0.34868
# Poissons Ratio (z) = 0.19672 0.47116
#
# Static dielectric constant tensor:
#      x y z
#    x 3.787640 0.000000 0.000000 
#    y 0.000000 4.147470 0.000000 
#    z 0.000000 0.000000 3.478770 
# 
# 
# High freq. dielectric constant tensor:
#      x y z
#    x 1.798910 0.000000 0.000000 
#    y 0.000000 1.801670 0.000000 
#    z 0.000000 0.000000 1.783730 
# 
# From -- ./inp_files/29230.got.cif
#   From: 2010.03.12/outbox.cif.g09.slc.cpg/sg62_15_cif.got.tgz:29230.got - 2010.04.10 19:12:36.
