data_PCOD8252161
_publ_section_title
;
Structure prediction by ZEFSAII (Michael W. Deem and Ramdas Pophale) SiO2 
 PCOD8252161
Probable space group: P N M A
;
_chemical_formula_sum "Si O2"
_cell_formula_units_Z 64
_cell_length_a 12.804412
_cell_length_b 18.089637
_cell_length_c 13.961018
_cell_angle_alpha 90.000000
_cell_angle_beta 90.000000
_cell_angle_gamma 90.000000
_cell_volume 3233.751021
_symmetry_space_group_name_H-M "P N M A"
_symmetry_group_IT_number 62
_symmetry_cell_setting 'orthorhombic'
loop_
_space_group_symop_operation_xyz
x,y,z
1/2-x,-y,1/2+z
1/2+x,1/2-y,1/2-z
-x,1/2+y,-z
-x,-y,-z
1/2+x,y,1/2-z
1/2-x,1/2+y,1/2+z
x,1/2-y,z
loop_
_atom_site_type_symbol
_atom_site_label
_atom_site_fract_x
_atom_site_fract_y
_atom_site_fract_z
Si Si1 0.437033 0.395313 0.501783
Si Si2 0.254908 0.666321 0.097016
Si Si3 0.393645 0.567222 0.771931
Si Si4 0.857778 0.835379 0.911193
Si Si5 0.448443 0.987500 0.348435
Si Si6 0.940423 0.664053 0.543593
Si Si7 0.240423 0.573836 0.286568
Si Si8 0.835244 0.336454 0.540145
O O1 0.341648 0.340521 0.523318
O O2 0.538294 0.348268 0.472923
O O3 0.460420 0.444306 0.595547
O O4 0.400626 0.448881 0.416126
O O5 0.259849 0.750000 0.136079
O O6 0.236588 0.610296 0.182956
O O7 0.361630 0.646139 0.042740
O O8 0.359101 0.620751 0.687050
O O9 0.500272 0.524223 0.745503
O O10 0.411575 0.614243 0.866541
O O11 0.300699 0.509537 0.786544
O O12 0.846572 0.750000 0.885179
O O13 0.758358 0.863238 0.971648
O O14 0.360678 0.929070 0.318873
O O15 0.933491 0.750000 0.573653
O O16 0.056028 0.642757 0.509474
O O17 0.171494 0.622077 0.358922
O O18 0.826978 0.250000 0.562109
#
# Coordination Sequence:
#
# PCOD8252161 Si02
#       8
#     8   8   8   8   8   8   8   8
#     4  10  19  41  63  87 120 156 203 258 303 356
#     4  11  24  41  63  89 123 166 208 254 306 362
#     4  11  24  39  64  94 125 163 202 254 315 378
#     4  10  21  40  67  93 120 160 208 257 308 367
#     4  10  22  38  59  91 122 156 200 255 310 361
#     4  10  24  45  64  91 130 167 208 256 309 374
#     4  12  24  39  61  92 126 163 206 255 308 374
#     4  10  23  43  64  89 124 167 212 257 307 369
#
# _framework density 19.791259
#
# number of rings (size 3 to 8) (size 9 to 14) (size 15 to 20)
#    0.000    1.500    2.500    1.875    3.500    1.500 
#    0.000    0.000    0.000    0.000    0.000    0.000 
#    0.000    0.000    0.000    0.000    0.000    0.000 
#
# Total GULP energy -793912.694312 kJ/mol
# GULP energy per Si atom -12404.885849 kJ/mol
# Density = 1.974621 g / cm^3
# Si number density = 19.791259 Si / 1000 Ang^3
#
#
#
# Elastic Constant Matrix: (Units=GPa)
#
#
# Indices 1 2 3 4 5 6 
#
# 1 117.2860 31.3430 43.5424 0.0000 0.0000 0.0000
# 2 31.3430 72.7320 46.8950 0.0000 0.0000 0.0000
# 3 43.5424 46.8950 100.1404 0.0000 0.0000 0.0000
# 4 0.0000 0.0000 0.0000 23.9263 0.0000 0.0000
# 5 0.0000 0.0000 0.0000 0.0000 21.3274 0.0000
# 6 0.0000 0.0000 0.0000 0.0000 0.0000 34.4572
#
#
#
# Elastic Compliance Matrix: (Units=1/GPa)
#
#
# Indices 1 2 3 4 5 6 
#
# 1 0.010418 -0.002247 -0.003477 0.000000 0.000000 0.000000
# 2 -0.002247 0.020181 -0.008473 0.000000 0.000000 0.000000
# 3 -0.003477 -0.008473 0.015466 0.000000 0.000000 0.000000
# 4 0.000000 0.000000 0.000000 0.041795 0.000000 0.000000
# 5 0.000000 0.000000 0.000000 0.000000 0.046888 0.000000
# 6 0.000000 0.000000 0.000000 0.000000 0.000000 0.029022
#
#
# Mechanical properties :
#
#
# Convention : Reuss Voigt Hill
#
# Bulk Modulus (GPa) = 56.59800 59.30213 57.95007
# Shear Modulus (GPa) = 25.24556 27.16739 26.20648
#
# Velocity S-wave (km/s) = 3.57542 3.70901 3.64283
# Velocity P-wave (km/s) = 6.76050 6.95494 6.85841
#
# Compressibility (1/GPa) = 0.01766847
#
# Stress axis : x y z
#
# Youngs Moduli (GPa) = 95.99058 49.55180 64.65792
#
# Poissons Ratio (x) = 0.11136 0.22484
# Poissons Ratio (y) = 0.21572 0.54787
# Poissons Ratio (z) = 0.33379 0.41987
#
# Static dielectric constant tensor:
#      x y z
#    x 3.632340 0.000000 0.000000 
#    y 0.000000 3.612050 0.000000 
#    z 0.000000 0.000000 3.518550 
# 
# 
# High freq. dielectric constant tensor:
#      x y z
#    x 1.779750 0.000000 0.000000 
#    y 0.000000 1.776410 0.000000 
#    z 0.000000 0.000000 1.773140 
# 
# From -- ./inp_files/18295.got.cif
#   From: 2010.03.12/outbox.cif.g09.slc.cpg/sg62_10_cif.got.tgz:18295.got - 2010.04.10 19:12:36.
