data_PCOD8252967
_publ_section_title
;
Structure prediction by ZEFSAII (Michael W. Deem and Ramdas Pophale) SiO2 
 PCOD8252967
Probable space group: P N M A
;
_chemical_formula_sum "Si O2"
_cell_formula_units_Z 48
_cell_length_a 16.329867
_cell_length_b 9.279278
_cell_length_c 17.760880
_cell_angle_alpha 90.000000
_cell_angle_beta 90.000000
_cell_angle_gamma 90.000000
_cell_volume 2691.295056
_symmetry_space_group_name_H-M "P N M A"
_symmetry_group_IT_number 62
_symmetry_cell_setting 'orthorhombic'
loop_
_space_group_symop_operation_xyz
x,y,z
1/2-x,-y,1/2+z
1/2+x,1/2-y,1/2-z
-x,1/2+y,-z
-x,-y,-z
1/2+x,y,1/2-z
1/2-x,1/2+y,1/2+z
x,1/2-y,z
loop_
_atom_site_type_symbol
_atom_site_label
_atom_site_fract_x
_atom_site_fract_y
_atom_site_fract_z
Si Si1 0.269940 0.084435 0.447053
Si Si2 0.675169 0.083646 0.335212
Si Si3 0.814992 0.586946 0.399196
Si Si4 0.366717 0.917057 0.832152
Si Si5 0.498413 0.582017 0.077915
Si Si6 0.084919 0.420828 0.013346
O O1 0.300171 0.250000 0.449621
O O2 0.206213 0.050320 0.514105
O O3 0.221740 0.051277 0.369745
O O4 0.348771 0.980944 0.453499
O O5 0.695578 0.250000 0.340298
O O6 0.635451 0.043398 0.255688
O O7 0.613884 0.038037 0.402261
O O8 0.762642 0.007617 0.341969
O O9 0.791332 0.750000 0.381438
O O10 0.910145 0.557431 0.384140
O O11 0.390394 0.750000 0.846032
O O12 0.435148 0.019641 0.865743
O O13 0.515494 0.750000 0.062990
O O14 0.500000 0.500000 0.000000
O O15 0.075043 0.250000 0.002033
O O16 0.000000 0.500000 0.000000
#
# Coordination Sequence:
#
# PCOD8252967 Si02
#       6
#     8   8   8   8   8   8
#     4   9  17  33  56  77 103 138 174 217 267 317
#     4   9  20  37  57  79 106 141 182 226 271 323
#     4   9  18  34  54  77 106 140 176 214 262 318
#     4  10  20  37  56  80 112 143 179 225 277 327
#     4  11  21  34  55  84 114 146 183 223 268 324
#     4  10  20  36  57  81 105 138 186 227 267 318
#
# _framework density 17.835279
#
# number of rings (size 3 to 8) (size 9 to 14) (size 15 to 20)
#    0.000    2.333    1.667    1.000    0.000    3.333 
#    3.000    0.000    0.000    0.000    0.000    0.000 
#    0.000    0.000    0.000    0.000    0.000    0.000 
#
# Total GULP energy -595254.101274 kJ/mol
# GULP energy per Si atom -12401.127110 kJ/mol
# Density = 1.779468 g / cm^3
# Si number density = 17.835279 Si / 1000 Ang^3
#
#
#
# Elastic Constant Matrix: (Units=GPa)
#
#
# Indices 1 2 3 4 5 6 
#
# 1 129.1703 75.9910 57.2816 0.0000 0.0000 0.0000
# 2 75.9910 98.0452 56.2953 0.0000 0.0000 0.0000
# 3 57.2816 56.2953 90.1498 0.0000 0.0000 0.0000
# 4 0.0000 0.0000 0.0000 26.2433 0.0000 0.0000
# 5 0.0000 0.0000 0.0000 0.0000 21.6403 0.0000
# 6 0.0000 0.0000 0.0000 0.0000 0.0000 38.6583
#
#
#
# Elastic Compliance Matrix: (Units=1/GPa)
#
#
# Indices 1 2 3 4 5 6 
#
# 1 0.014914 -0.009538 -0.003520 0.000000 0.000000 0.000000
# 2 -0.009538 0.022000 -0.007678 0.000000 0.000000 0.000000
# 3 -0.003520 -0.007678 0.018124 0.000000 0.000000 0.000000
# 4 0.000000 0.000000 0.000000 0.038105 0.000000 0.000000
# 5 0.000000 0.000000 0.000000 0.000000 0.046210 0.000000
# 6 0.000000 0.000000 0.000000 0.000000 0.000000 0.025868
#
#
# Mechanical properties :
#
#
# Convention : Reuss Voigt Hill
#
# Bulk Modulus (GPa) = 73.71386 77.38901 75.55143
# Shear Modulus (GPa) = 23.67245 25.82821 24.75033
#
# Velocity S-wave (km/s) = 3.64714 3.80959 3.72925
# Velocity P-wave (km/s) = 7.69127 7.92690 7.80997
#
# Compressibility (1/GPa) = 0.01356597
#
# Stress axis : x y z
#
# Youngs Moduli (GPa) = 67.05087 45.45361 55.17522
#
# Poissons Ratio (x) = 0.43354 0.19423
# Poissons Ratio (y) = 0.63953 0.42363
# Poissons Ratio (z) = 0.23604 0.34899
#
# Static dielectric constant tensor:
#      x y z
#    x 3.392870 0.000000 0.000000 
#    y 0.000000 3.363900 0.000000 
#    z 0.000000 0.000000 3.445980 
# 
# 
# High freq. dielectric constant tensor:
#      x y z
#    x 1.690820 0.000000 0.000000 
#    y 0.000000 1.695470 0.000000 
#    z 0.000000 0.000000 1.676650 
# 
# From -- ./inp_files/23689.got.cif
#   From: 2010.03.12/outbox.cif.g09.slc.cpg/sg62_12_cif.got.tgz:23689.got - 2010.04.10 19:12:36.
