data_PCOD8252725
_publ_section_title
;
Structure prediction by ZEFSAII (Michael W. Deem and Ramdas Pophale) SiO2 
 PCOD8252725
Probable space group: P N M A
;
_chemical_formula_sum "Si O2"
_cell_formula_units_Z 56
_cell_length_a 20.726334
_cell_length_b 14.502292
_cell_length_c 9.816877
_cell_angle_alpha 90.000000
_cell_angle_beta 90.000000
_cell_angle_gamma 90.000000
_cell_volume 2950.750486
_symmetry_space_group_name_H-M "P N M A"
_symmetry_group_IT_number 62
_symmetry_cell_setting 'orthorhombic'
loop_
_space_group_symop_operation_xyz
x,y,z
1/2-x,-y,1/2+z
1/2+x,1/2-y,1/2-z
-x,1/2+y,-z
-x,-y,-z
1/2+x,y,1/2-z
1/2-x,1/2+y,1/2+z
x,1/2-y,z
loop_
_atom_site_type_symbol
_atom_site_label
_atom_site_fract_x
_atom_site_fract_y
_atom_site_fract_z
Si Si1 0.004138 0.500138 0.839351
Si Si2 0.197559 0.645064 0.028496
Si Si3 0.107639 0.854566 0.781844
Si Si4 0.639341 0.515516 0.246311
Si Si5 0.099626 0.645432 0.476998
Si Si6 0.660548 0.145376 0.064066
Si Si7 0.540754 0.357475 0.877264
O O1 0.042399 0.591419 0.805629
O O2 0.038981 0.412214 0.767090
O O3 0.932894 0.508191 0.784181
O O4 0.000000 0.500000 0.000000
O O5 0.176207 0.750000 0.071156
O O6 0.176002 0.565357 0.131248
O O7 0.166073 0.618831 0.882584
O O8 0.274354 0.640905 0.022943
O O9 0.086899 0.750000 0.804446
O O10 0.128600 0.871936 0.626533
O O11 0.669903 0.418488 0.197884
O O12 0.643509 0.584376 0.119759
O O13 0.109290 0.750000 0.429765
O O14 0.023360 0.620708 0.465755
O O15 0.647230 0.250000 0.113416
O O16 0.601761 0.109850 0.968198
O O17 0.546997 0.250000 0.839729
#
# Coordination Sequence:
#
# PCOD8252725 Si02
#       7
#     8   8   8   8   8   8   8
#     4  11  21  34  54  85 117 141 186 235 288 341
#     4  10  22  40  59  80 112 152 190 228 281 337
#     4  10  20  35  56  81 113 148 181 230 288 338
#     4  11  21  36  59  86 111 150 184 239 283 337
#     4   9  18  33  58  88 110 138 187 236 279 331
#     4  10  22  39  58  81 113 154 194 231 275 337
#     4   9  19  36  57  80 111 150 189 231 282 336
#
# _framework density 18.978223
#
# number of rings (size 3 to 8) (size 9 to 14) (size 15 to 20)
#    0.000    2.000    1.429    2.143    0.000    7.429 
#    0.000    0.000    0.000    0.857    0.000    0.000 
#    0.000    0.000    0.000    0.000    0.000    0.000 
#
# Total GULP energy -694197.318434 kJ/mol
# GULP energy per Si atom -12396.380686 kJ/mol
# Density = 1.893503 g / cm^3
# Si number density = 18.978223 Si / 1000 Ang^3
#
#
#
# Elastic Constant Matrix: (Units=GPa)
#
#
# Indices 1 2 3 4 5 6 
#
# 1 66.7471 33.2700 33.4543 0.0000 0.0000 0.0000
# 2 33.2700 74.4789 72.6224 0.0000 0.0000 0.0000
# 3 33.4543 72.6224 122.2203 0.0000 0.0000 0.0000
# 4 0.0000 0.0000 0.0000 37.1957 0.0000 0.0000
# 5 0.0000 0.0000 0.0000 0.0000 4.7422 0.0000
# 6 0.0000 0.0000 0.0000 0.0000 0.0000 21.2545
#
#
#
# Elastic Compliance Matrix: (Units=1/GPa)
#
#
# Indices 1 2 3 4 5 6 
#
# 1 0.019281 -0.008242 -0.000380 0.000000 0.000000 0.000000
# 2 -0.008242 0.035445 -0.018805 0.000000 0.000000 0.000000
# 3 -0.000380 -0.018805 0.019460 0.000000 0.000000 0.000000
# 4 0.000000 0.000000 0.000000 0.026885 0.000000 0.000000
# 5 0.000000 0.000000 0.000000 0.000000 0.210871 0.000000
# 6 0.000000 0.000000 0.000000 0.000000 0.000000 0.047049
#
#
# Mechanical properties :
#
#
# Convention : Reuss Voigt Hill
#
# Bulk Modulus (GPa) = 51.73102 60.23775 55.98439
# Shear Modulus (GPa) = 11.89662 20.91178 16.40420
#
# Velocity S-wave (km/s) = 2.50643 3.32306 2.94321
# Velocity P-wave (km/s) = 5.97440 6.82151 6.41196
#
# Compressibility (1/GPa) = 0.01933076
#
# Stress axis : x y z
#
# Youngs Moduli (GPa) = 51.86522 28.21309 51.38825
#
# Poissons Ratio (x) = 0.23254 0.01953
# Poissons Ratio (y) = 0.42748 0.96635
# Poissons Ratio (z) = 0.01972 0.53054
#
# Static dielectric constant tensor:
#      x y z
#    x 3.352290 0.000000 0.000000 
#    y 0.000000 3.654310 0.000000 
#    z 0.000000 0.000000 3.752740 
# 
# 
# High freq. dielectric constant tensor:
#      x y z
#    x 1.725310 0.000000 0.000000 
#    y 0.000000 1.749550 0.000000 
#    z 0.000000 0.000000 1.733910 
# 
# From -- ./inp_files/8722.got.cif
#   From: 2010.03.12/outbox.cif.g09.slc.cpg/sg62_5_cif.got.tgz:8722.got - 2010.04.10 19:12:36.
