data_PCOD8252363
_publ_section_title
;
Structure prediction by ZEFSAII (Michael W. Deem and Ramdas Pophale) SiO2 
 PCOD8252363
Probable space group: P N M A
;
_chemical_formula_sum "Si O2"
_cell_formula_units_Z 40
_cell_length_a 6.205994
_cell_length_b 7.796665
_cell_length_c 29.555625
_cell_angle_alpha 90.000000
_cell_angle_beta 90.000000
_cell_angle_gamma 90.000000
_cell_volume 1430.080133
_symmetry_space_group_name_H-M "P N M A"
_symmetry_group_IT_number 62
_symmetry_cell_setting 'orthorhombic'
loop_
_space_group_symop_operation_xyz
x,y,z
1/2-x,-y,1/2+z
1/2+x,1/2-y,1/2-z
-x,1/2+y,-z
-x,-y,-z
1/2+x,y,1/2-z
1/2-x,1/2+y,1/2+z
x,1/2-y,z
loop_
_atom_site_type_symbol
_atom_site_label
_atom_site_fract_x
_atom_site_fract_y
_atom_site_fract_z
Si Si1 0.513209 0.750000 0.314674
Si Si2 0.416191 0.940301 0.844807
Si Si3 0.287489 0.048254 0.532497
Si Si4 0.818190 0.052676 0.561481
Si Si5 0.011502 0.250000 0.710979
Si Si6 0.093880 0.443293 0.127080
O O1 0.422466 0.750000 0.263630
O O2 0.452691 0.573726 0.341315
O O3 0.768841 0.750000 0.315463
O O4 0.389204 0.750000 0.823427
O O5 0.654486 0.970569 0.863615
O O6 0.263222 0.953830 0.890626
O O7 0.372282 0.084110 0.805529
O O8 0.287797 0.250000 0.529286
O O9 0.047903 0.979226 0.544534
O O10 0.345368 0.970420 0.482164
O O11 0.445920 0.987649 0.573600
O O12 0.833388 0.250000 0.575296
O O13 0.025854 0.250000 0.139938
#
# Coordination Sequence:
#
# PCOD8252363 Si02
#       6
#     4   8   8   8   4   8
#     4  10  20  34  50  68  92 122 158 196 235 274
#     4   9  16  27  42  61  88 121 152 186 230 276
#     4   9  14  20  32  54  85 120 152 179 216 273
#     4   9  14  20  32  54  85 120 152 179 216 273
#     4  10  20  34  50  68  92 122 158 196 235 274
#     4   9  16  27  42  61  88 121 152 186 230 276
#
# _framework density 27.970464
#
# number of rings (size 3 to 8) (size 9 to 14) (size 15 to 20)
#    0.000    2.800    2.000    1.200    0.000    5.600 
#    0.000    0.000    0.000    0.000    0.000    0.000 
#    0.000    1.600    0.000    0.000    0.000    0.000 
#
# Total GULP energy -496115.620888 kJ/mol
# GULP energy per Si atom -12402.890522 kJ/mol
# Density = 2.790680 g / cm^3
# Si number density = 27.970464 Si / 1000 Ang^3
#
#
#
# Elastic Constant Matrix: (Units=GPa)
#
#
# Indices 1 2 3 4 5 6 
#
# 1 93.5143 -4.9052 62.4643 0.0000 0.0000 0.0000
# 2 -4.9052 226.2423 117.8385 0.0000 0.0000 0.0000
# 3 62.4643 117.8385 224.0933 0.0000 0.0000 0.0000
# 4 0.0000 0.0000 0.0000 46.5859 0.0000 0.0000
# 5 0.0000 0.0000 0.0000 0.0000 57.6294 0.0000
# 6 0.0000 0.0000 0.0000 0.0000 0.0000 -15.0420
#
#
#
# Elastic Compliance Matrix: (Units=1/GPa)
#
#
# Indices 1 2 3 4 5 6 
#
# 1 0.014831 0.003408 -0.005926 0.000000 0.000000 0.000000
# 2 0.003408 0.006870 -0.004563 0.000000 0.000000 0.000000
# 3 -0.005926 -0.004563 0.008514 0.000000 0.000000 0.000000
# 4 0.000000 0.000000 0.000000 0.021466 0.000000 0.000000
# 5 0.000000 0.000000 0.000000 0.000000 0.017352 0.000000
# 6 0.000000 0.000000 0.000000 0.000000 0.000000 -0.066481
#
#
# Mechanical properties :
#
#
# Convention : Reuss Voigt Hill
#
# Bulk Modulus (GPa) = 62.29234 99.40504 80.84869
# Shear Modulus (GPa) = 226.60450 42.39816 134.50133
#
# Velocity S-wave (km/s) = 9.01063 3.89758 6.94200
# Velocity P-wave (km/s) = 11.42692 7.47471 9.65520
#
# Compressibility (1/GPa) = 0.01605334
#
# Stress axis : x y z
#
# Youngs Moduli (GPa) = 67.42732 145.55017 117.45861
#
# Poissons Ratio (x) = -0.49606 0.69608
# Poissons Ratio (y) = -0.22981 0.53594
# Poissons Ratio (z) = 0.39958 0.66412
#
# Static dielectric constant tensor:
#      x y z
#    x 5.974210 0.000000 0.000000 
#    y 0.000000 4.865780 0.000000 
#    z 0.000000 0.000000 5.068340 
# 
# 
# High freq. dielectric constant tensor:
#      x y z
#    x 2.232490 0.000000 0.000000 
#    y 0.000000 2.106850 0.000000 
#    z 0.000000 0.000000 2.132190 
# 
# From -- ./inp_files/22810.got.cif
#   From: 2010.03.12/outbox.cif.g09.slc.cpg/sg62_12_cif.got.tgz:22810.got - 2010.04.10 19:12:36.
