data_PCOD8252232
_publ_section_title
;
Structure prediction by ZEFSAII (Michael W. Deem and Ramdas Pophale) SiO2 
 PCOD8252232
Probable space group: P N M A
;
_chemical_formula_sum "Si O2"
_cell_formula_units_Z 56
_cell_length_a 13.625979
_cell_length_b 9.027602
_cell_length_c 23.661983
_cell_angle_alpha 90.000000
_cell_angle_beta 90.000000
_cell_angle_gamma 90.000000
_cell_volume 2910.658524
_symmetry_space_group_name_H-M "P N M A"
_symmetry_group_IT_number 62
_symmetry_cell_setting 'orthorhombic'
loop_
_space_group_symop_operation_xyz
x,y,z
1/2-x,-y,1/2+z
1/2+x,1/2-y,1/2-z
-x,1/2+y,-z
-x,-y,-z
1/2+x,y,1/2-z
1/2-x,1/2+y,1/2+z
x,1/2-y,z
loop_
_atom_site_type_symbol
_atom_site_label
_atom_site_fract_x
_atom_site_fract_y
_atom_site_fract_z
Si Si1 0.105865 0.574142 0.003536
Si Si2 0.385511 0.416582 0.716235
Si Si3 0.392933 0.921177 0.827183
Si Si4 0.613495 0.580001 0.826656
Si Si5 0.617457 0.085365 0.716281
Si Si6 0.198021 0.078344 0.110058
Si Si7 0.704077 0.579424 0.611472
O O1 0.092762 0.750000 0.007196
O O2 0.170001 0.522732 0.949722
O O3 0.165138 0.519372 0.057614
O O4 0.000000 0.500000 0.000000
O O5 0.343988 0.250000 0.707423
O O6 0.347131 0.483469 0.775686
O O7 0.501500 0.413806 0.720678
O O8 0.357928 0.524193 0.665470
O O9 0.392355 0.750000 0.808294
O O10 0.503400 0.971622 0.843775
O O11 0.321280 0.946861 0.880858
O O12 0.612786 0.750000 0.807641
O O13 0.658308 0.491120 0.773316
O O14 0.685000 0.555781 0.880234
O O15 0.661319 0.250000 0.714075
O O16 0.644160 0.003350 0.659240
O O17 0.171682 0.250000 0.099257
O O18 0.676318 0.750000 0.617965
#
# Coordination Sequence:
#
# PCOD8252232 Si02
#       7
#     8   8   8   8   8   8   8
#     4  11  24  41  59  80 106 138 176 220 265 314
#     4  10  20  33  51  80 113 143 175 216 266 317
#     4   9  18  35  56  78 106 140 176 216 261 315
#     4   9  19  35  55  78 107 141 176 213 258 313
#     4  10  20  32  51  80 112 141 172 214 264 313
#     4  11  22  36  55  79 106 141 181 219 261 312
#     4  10  21  36  55  77 103 138 179 218 262 314
#
# _framework density 19.239633000000001
#
# number of rings (size 3 to 8) (size 9 to 14) (size 15 to 20)
#    0.000    2.000    0.000    3.429    0.000   10.286 
#    0.000    0.714    0.000    0.000    0.000    0.000 
#    0.000    0.000    0.000    0.000    0.000    0.000 
#
# Total GULP energy -694407.790207 kJ/mol
# GULP energy per Si atom -12400.139111 kJ/mol
# Density = 1.919584 g / cm^3
# Si number density = 19.239633 Si / 1000 Ang^3
#
#
#
# Elastic Constant Matrix: (Units=GPa)
#
#
# Indices 1 2 3 4 5 6 
#
# 1 74.8834 41.3191 69.9734 0.0000 0.0000 0.0000
# 2 41.3191 73.0202 46.0996 0.0000 0.0000 0.0000
# 3 69.9734 46.0996 131.4639 0.0000 0.0000 0.0000
# 4 0.0000 0.0000 0.0000 32.0492 0.0000 0.0000
# 5 0.0000 0.0000 0.0000 0.0000 31.1107 0.0000
# 6 0.0000 0.0000 0.0000 0.0000 0.0000 23.2407
#
#
#
# Elastic Compliance Matrix: (Units=1/GPa)
#
#
# Indices 1 2 3 4 5 6 
#
# 1 0.030595 -0.009031 -0.013118 0.000000 0.000000 0.000000
# 2 -0.009031 0.020254 -0.002296 0.000000 0.000000 0.000000
# 3 -0.013118 -0.002296 0.015394 0.000000 0.000000 0.000000
# 4 0.000000 0.000000 0.000000 0.031202 0.000000 0.000000
# 5 0.000000 0.000000 0.000000 0.000000 0.032143 0.000000
# 6 0.000000 0.000000 0.000000 0.000000 0.000000 0.043028
#
#
# Mechanical properties :
#
#
# Convention : Reuss Voigt Hill
#
# Bulk Modulus (GPa) = 57.62209 66.01687 61.81948
# Shear Modulus (GPa) = 21.99847 25.41184 23.70515
#
# Velocity S-wave (km/s) = 3.38508 3.63823 3.51394
# Velocity P-wave (km/s) = 6.73001 7.21363 6.97601
#
# Compressibility (1/GPa) = 0.01735446
#
# Stress axis : x y z
#
# Youngs Moduli (GPa) = 32.68558 49.37227 64.96163
#
# Poissons Ratio (x) = 0.44587 0.85214
# Poissons Ratio (y) = 0.29517 0.14913
# Poissons Ratio (z) = 0.42876 0.11335
#
# Static dielectric constant tensor:
#      x y z
#    x 3.790040 0.000000 0.000000 
#    y 0.000000 3.732180 0.000000 
#    z 0.000000 0.000000 3.416020 
# 
# 
# High freq. dielectric constant tensor:
#      x y z
#    x 1.764450 0.000000 0.000000 
#    y 0.000000 1.755100 0.000000 
#    z 0.000000 0.000000 1.728210 
# 
# From -- ./inp_files/27169.got.cif
#   From: 2010.03.12/outbox.cif.g09.slc.cpg/sg62_14_cif.got.tgz:27169.got - 2010.04.10 19:12:36.
