data_PCOD8252777
_publ_section_title
;
Structure prediction by ZEFSAII (Michael W. Deem and Ramdas Pophale) SiO2 
 PCOD8252777
Probable space group: P N M A
;
_chemical_formula_sum "Si O2"
_cell_formula_units_Z 64
_cell_length_a 14.709216
_cell_length_b 8.635701
_cell_length_c 24.578117
_cell_angle_alpha 90.000000
_cell_angle_beta 90.000000
_cell_angle_gamma 90.000000
_cell_volume 3122.020352
_symmetry_space_group_name_H-M "P N M A"
_symmetry_group_IT_number 62
_symmetry_cell_setting 'orthorhombic'
loop_
_space_group_symop_operation_xyz
x,y,z
1/2-x,-y,1/2+z
1/2+x,1/2-y,1/2-z
-x,1/2+y,-z
-x,-y,-z
1/2+x,y,1/2-z
1/2-x,1/2+y,1/2+z
x,1/2-y,z
loop_
_atom_site_type_symbol
_atom_site_label
_atom_site_fract_x
_atom_site_fract_y
_atom_site_fract_z
Si Si1 0.953152 0.572978 0.867830
Si Si2 0.126198 0.931302 0.238900
Si Si3 0.821628 0.429213 0.262419
Si Si4 0.095152 0.428086 0.015747
Si Si5 0.021160 0.432718 0.670736
Si Si6 0.047395 0.934153 0.446887
Si Si7 0.629510 0.073137 0.656615
Si Si8 0.751173 0.430862 0.558755
O O1 0.985483 0.750000 0.863460
O O2 0.900324 0.526341 0.814069
O O3 0.886997 0.551259 0.919746
O O4 0.040200 0.463553 0.878814
O O5 0.114755 0.750000 0.227785
O O6 0.063277 0.981254 0.290127
O O7 0.231442 0.970238 0.248408
O O8 0.797166 0.250000 0.270940
O O9 0.878704 0.457463 0.207564
O O10 0.884222 0.485950 0.312308
O O11 0.090375 0.250000 0.998130
O O12 0.179869 0.507171 0.983859
O O13 0.000000 0.500000 0.000000
O O14 0.035864 0.250000 0.673690
O O15 0.000641 0.488237 0.609137
O O16 0.048070 0.750000 0.449271
O O17 0.149345 0.004598 0.447256
O O18 0.000000 0.000000 0.500000
O O19 0.627131 0.250000 0.677240
O O20 0.718342 0.040862 0.620530
O O21 0.758376 0.250000 0.546420
#
# Coordination Sequence:
#
# PCOD8252777 Si02
#       8
#     8   8   8   8   8   8   8   8
#     4  11  22  35  55  89 129 161 197 254 313 359
#     4  11  23  41  65  90 122 166 211 251 302 376
#     4  12  25  39  61  92 128 161 200 260 319 370
#     4  10  20  35  56  85 123 161 199 245 302 369
#     4  10  22  42  66  90 121 163 211 255 302 374
#     4  10  22  42  65  90 119 155 205 261 307 361
#     4  11  20  36  62  87 116 160 211 251 300 373
#     4   9  19  37  62  87 116 161 209 250 301 365
#
# _framework density 20.499545000000001
#
# number of rings (size 3 to 8) (size 9 to 14) (size 15 to 20)
#    0.000    1.500    2.500    3.000    0.000    4.500 
#    0.000    4.375    0.000    0.000    0.000    0.000 
#    0.000    0.000    0.000    0.000    0.000    0.000 
#
# Total GULP energy -793535.796228 kJ/mol
# GULP energy per Si atom -12398.996816 kJ/mol
# Density = 2.045289 g / cm^3
# Si number density = 20.499545 Si / 1000 Ang^3
#
#
#
# Elastic Constant Matrix: (Units=GPa)
#
#
# Indices 1 2 3 4 5 6 
#
# 1 104.5120 20.1607 47.0345 0.0000 0.0000 0.0000
# 2 20.1607 45.9332 36.5142 0.0000 0.0000 0.0000
# 3 47.0345 36.5142 137.8513 0.0000 0.0000 0.0000
# 4 0.0000 0.0000 0.0000 28.0993 0.0000 0.0000
# 5 0.0000 0.0000 0.0000 0.0000 32.7463 0.0000
# 6 0.0000 0.0000 0.0000 0.0000 0.0000 28.7511
#
#
#
# Elastic Compliance Matrix: (Units=1/GPa)
#
#
# Indices 1 2 3 4 5 6 
#
# 1 0.011517 -0.002446 -0.003282 0.000000 0.000000 0.000000
# 2 -0.002446 0.028097 -0.006608 0.000000 0.000000 0.000000
# 3 -0.003282 -0.006608 0.010124 0.000000 0.000000 0.000000
# 4 0.000000 0.000000 0.000000 0.035588 0.000000 0.000000
# 5 0.000000 0.000000 0.000000 0.000000 0.030538 0.000000
# 6 0.000000 0.000000 0.000000 0.000000 0.000000 0.034781
#
#
# Mechanical properties :
#
#
# Convention : Reuss Voigt Hill
#
# Bulk Modulus (GPa) = 39.89293 55.07948 47.48620
# Shear Modulus (GPa) = 27.22236 30.22515 28.72375
#
# Velocity S-wave (km/s) = 3.64806 3.84400 3.74731
# Velocity P-wave (km/s) = 6.10304 6.82852 6.47595
#
# Compressibility (1/GPa) = 0.02506710
#
# Stress axis : x y z
#
# Youngs Moduli (GPa) = 86.82798 35.59067 98.77377
#
# Poissons Ratio (x) = 0.08707 0.32414
# Poissons Ratio (y) = 0.21241 0.65267
# Poissons Ratio (z) = 0.28493 0.23518
#
# Static dielectric constant tensor:
#      x y z
#    x 3.925230 0.000000 0.000000 
#    y 0.000000 3.465070 0.000000 
#    z 0.000000 0.000000 3.947400 
# 
# 
# High freq. dielectric constant tensor:
#      x y z
#    x 1.804770 0.000000 0.000000 
#    y 0.000000 1.780840 0.000000 
#    z 0.000000 0.000000 1.811710 
# 
# From -- ./inp_files/29862.got.cif
#   From: 2010.03.12/outbox.cif.g09.slc.cpg/sg62_15_cif.got.tgz:29862.got - 2010.04.10 19:12:36.
