data_PCOD8252488
_publ_section_title
;
Structure prediction by ZEFSAII (Michael W. Deem and Ramdas Pophale) SiO2 
 PCOD8252488
Probable space group: P N M A
;
_chemical_formula_sum "Si O2"
_cell_formula_units_Z 56
_cell_length_a 21.696250
_cell_length_b 20.019770
_cell_length_c 6.848971
_cell_angle_alpha 90.000000
_cell_angle_beta 90.000000
_cell_angle_gamma 90.000000
_cell_volume 2974.877504
_symmetry_space_group_name_H-M "P N M A"
_symmetry_group_IT_number 62
_symmetry_cell_setting 'orthorhombic'
loop_
_space_group_symop_operation_xyz
x,y,z
1/2-x,-y,1/2+z
1/2+x,1/2-y,1/2-z
-x,1/2+y,-z
-x,-y,-z
1/2+x,y,1/2-z
1/2-x,1/2+y,1/2+z
x,1/2-y,z
loop_
_atom_site_type_symbol
_atom_site_label
_atom_site_fract_x
_atom_site_fract_y
_atom_site_fract_z
Si Si1 0.294278 0.571893 0.159329
Si Si2 0.041646 0.932732 0.240411
Si Si3 0.671900 0.525668 0.167319
Si Si4 0.365500 0.910708 0.545115
Si Si5 0.157500 0.324480 0.383441
Si Si6 0.983062 0.827994 0.504796
Si Si7 0.001167 0.926840 0.833563
O O1 0.227747 0.571818 0.260862
O O2 0.344992 0.586871 0.322742
O O3 0.311927 0.503334 0.047274
O O4 0.293975 0.631010 0.001645
O O5 0.108276 0.932909 0.346676
O O6 0.004733 0.867224 0.311741
O O7 0.004355 0.002427 0.283404
O O8 0.052588 0.928239 0.004626
O O9 0.664526 0.469126 0.328778
O O10 0.344596 0.842509 0.653566
O O11 0.438709 0.915422 0.545044
O O12 0.181406 0.250000 0.403631
O O13 0.090142 0.335129 0.477554
O O14 0.003221 0.750000 0.499040
O O15 0.015303 0.866234 0.686617
#
# Coordination Sequence:
#
# PCOD8252488 Si02
#       7
#     8   8   8   8   8   8   8
#     4  11  19  35  56  79 109 143 178 227 276 316
#     4  10  20  34  54  83 110 143 179 227 274 326
#     4  10  21  33  53  81 109 137 181 222 270 324
#     4   9  18  33  53  77 106 138 175 223 269 319
#     4   9  20  35  54  80 106 139 184 225 266 322
#     4  10  20  36  55  80 114 147 180 220 272 330
#     4   9  19  34  55  82 110 140 181 225 275 325
#
# _framework density 18.824304000000001
#
# number of rings (size 3 to 8) (size 9 to 14) (size 15 to 20)
#    0.000    2.286    1.429    2.143    0.000    4.571 
#    0.000    3.571    0.000    1.714    0.000    0.000 
#    0.000    0.000    0.000    0.000    0.000    0.000 
#
# Total GULP energy -694168.443919 kJ/mol
# GULP energy per Si atom -12395.865070 kJ/mol
# Density = 1.878146 g / cm^3
# Si number density = 18.824304 Si / 1000 Ang^3
#
#
#
# Elastic Constant Matrix: (Units=GPa)
#
#
# Indices 1 2 3 4 5 6 
#
# 1 52.0166 29.2279 26.4467 0.0000 0.0000 0.0000
# 2 29.2279 118.6691 41.4316 0.0000 0.0000 0.0000
# 3 26.4467 41.4316 96.1205 0.0000 0.0000 0.0000
# 4 0.0000 0.0000 0.0000 23.3361 0.0000 0.0000
# 5 0.0000 0.0000 0.0000 0.0000 28.7087 0.0000
# 6 0.0000 0.0000 0.0000 0.0000 0.0000 20.4311
#
#
#
# Elastic Compliance Matrix: (Units=1/GPa)
#
#
# Indices 1 2 3 4 5 6 
#
# 1 0.024046 -0.004253 -0.004783 0.000000 0.000000 0.000000
# 2 -0.004253 0.010672 -0.003430 0.000000 0.000000 0.000000
# 3 -0.004783 -0.003430 0.013198 0.000000 0.000000 0.000000
# 4 0.000000 0.000000 0.000000 0.042852 0.000000 0.000000
# 5 0.000000 0.000000 0.000000 0.000000 0.034833 0.000000
# 6 0.000000 0.000000 0.000000 0.000000 0.000000 0.048945
#
#
# Mechanical properties :
#
#
# Convention : Reuss Voigt Hill
#
# Bulk Modulus (GPa) = 43.50703 51.22430 47.36567
# Shear Modulus (GPa) = 24.13853 25.80852 24.97353
#
# Velocity S-wave (km/s) = 3.58482 3.70675 3.64629
# Velocity P-wave (km/s) = 6.34798 6.75210 6.55316
#
# Compressibility (1/GPa) = 0.02298479
#
# Stress axis : x y z
#
# Youngs Moduli (GPa) = 41.58710 93.70613 75.76903
#
# Poissons Ratio (x) = 0.39849 0.36240
# Poissons Ratio (y) = 0.17685 0.25988
# Poissons Ratio (z) = 0.19891 0.32140
#
# Static dielectric constant tensor:
#      x y z
#    x 3.275180 0.000000 0.000000 
#    y 0.000000 3.408090 0.000000 
#    z 0.000000 0.000000 3.453160 
# 
# 
# High freq. dielectric constant tensor:
#      x y z
#    x 1.705440 0.000000 0.000000 
#    y 0.000000 1.710990 0.000000 
#    z 0.000000 0.000000 1.740660 
# 
# From -- ./inp_files/2815.got.cif
#   From: 2010.03.12/outbox.cif.g09.slc.cpg/sg62_2_cif.got.tgz:2815.got - 2010.04.10 19:12:36.
