data_PCOD8252713
_publ_section_title
;
Structure prediction by ZEFSAII (Michael W. Deem and Ramdas Pophale) SiO2 
 PCOD8252713
Probable space group: P N M A
;
_chemical_formula_sum "Si O2"
_cell_formula_units_Z 64
_cell_length_a 19.920804
_cell_length_b 8.975428
_cell_length_c 19.954152
_cell_angle_alpha 90.000000
_cell_angle_beta 90.000000
_cell_angle_gamma 90.000000
_cell_volume 3567.757321
_symmetry_space_group_name_H-M "P N M A"
_symmetry_group_IT_number 62
_symmetry_cell_setting 'orthorhombic'
loop_
_space_group_symop_operation_xyz
x,y,z
1/2-x,-y,1/2+z
1/2+x,1/2-y,1/2-z
-x,1/2+y,-z
-x,-y,-z
1/2+x,y,1/2-z
1/2-x,1/2+y,1/2+z
x,1/2-y,z
loop_
_atom_site_type_symbol
_atom_site_label
_atom_site_fract_x
_atom_site_fract_y
_atom_site_fract_z
Si Si1 0.683591 0.422867 0.574859
Si Si2 0.424398 0.079959 0.673612
Si Si3 0.074844 0.923364 0.327768
Si Si4 0.565854 0.574737 0.820470
Si Si5 0.574457 0.074029 0.683930
Si Si6 0.672226 0.575601 0.934547
Si Si7 0.177564 0.421285 0.076684
Si Si8 0.676381 0.073410 0.072426
O O1 0.703341 0.250000 0.583478
O O2 0.625516 0.471095 0.625700
O O3 0.656463 0.453451 0.500068
O O4 0.748834 0.520132 0.590063
O O5 0.420657 0.250000 0.652730
O O6 0.404149 0.055044 0.750639
O O7 0.500203 0.021352 0.661617
O O8 0.372739 0.999088 0.626354
O O9 0.074444 0.750000 0.348019
O O10 0.127810 0.013708 0.370556
O O11 0.001425 0.989594 0.341180
O O12 0.551593 0.750000 0.814906
O O13 0.595594 0.513537 0.750795
O O14 0.620510 0.537193 0.876517
O O15 0.574522 0.250000 0.699776
O O16 0.673835 0.750000 0.952698
O O17 0.746262 0.522288 0.911526
O O18 0.650842 0.487992 0.001184
O O19 0.172585 0.250000 0.094620
O O20 0.674099 0.250000 0.071422
#
# Coordination Sequence:
#
# PCOD8252713 Si02
#       8
#     8   8   8   8   8   8   8   8
#     4   9  19  37  56  75 105 143 177 211 261 319
#     4   9  19  34  52  76 104 136 175 215 255 305
#     4  10  21  38  56  75 106 144 175 209 261 321
#     4  10  20  35  56  81 106 134 175 224 264 303
#     4   9  19  36  55  75 105 144 179 212 259 319
#     4   9  20  38  55  74 106 142 171 207 262 319
#     4   9  18  33  53  76 104 139 174 212 259 308
#     4  11  22  35  55  82 106 132 174 222 261 304
#
# _framework density 17.938438000000001
#
# number of rings (size 3 to 8) (size 9 to 14) (size 15 to 20)
#    0.000    2.500    0.000    3.375    0.000    8.000 
#    0.000    2.500    0.000    0.000    0.000    0.000 
#    0.000    0.000    0.000    0.000    0.000    0.000 
#
# Total GULP energy -793659.667287 kJ/mol
# GULP energy per Si atom -12400.932301 kJ/mol
# Density = 1.789761 g / cm^3
# Si number density = 17.938438 Si / 1000 Ang^3
#
#
#
# Elastic Constant Matrix: (Units=GPa)
#
#
# Indices 1 2 3 4 5 6 
#
# 1 91.9952 46.6043 74.9324 0.0000 0.0000 0.0000
# 2 46.6043 81.1835 54.2443 0.0000 0.0000 0.0000
# 3 74.9324 54.2443 107.7068 0.0000 0.0000 0.0000
# 4 0.0000 0.0000 0.0000 33.5370 0.0000 0.0000
# 5 0.0000 0.0000 0.0000 0.0000 42.4572 0.0000
# 6 0.0000 0.0000 0.0000 0.0000 0.0000 31.5918
#
#
#
# Elastic Compliance Matrix: (Units=1/GPa)
#
#
# Indices 1 2 3 4 5 6 
#
# 1 0.026038 -0.004286 -0.015957 0.000000 0.000000 0.000000
# 2 -0.004286 0.019271 -0.006723 0.000000 0.000000 0.000000
# 3 -0.015957 -0.006723 0.023772 0.000000 0.000000 0.000000
# 4 0.000000 0.000000 0.000000 0.029818 0.000000 0.000000
# 5 0.000000 0.000000 0.000000 0.000000 0.023553 0.000000
# 6 0.000000 0.000000 0.000000 0.000000 0.000000 0.031654
#
#
# Mechanical properties :
#
#
# Convention : Reuss Voigt Hill
#
# Bulk Modulus (GPa) = 66.01223 70.27194 68.14208
# Shear Modulus (GPa) = 23.46460 28.52418 25.99439
#
# Velocity S-wave (km/s) = 3.62064 3.99195 3.81082
# Velocity P-wave (km/s) = 7.37278 7.77860 7.57841
#
# Compressibility (1/GPa) = 0.01514871
#
# Stress axis : x y z
#
# Youngs Moduli (GPa) = 38.40477 51.89261 42.06685
#
# Poissons Ratio (x) = 0.22241 0.67124
# Poissons Ratio (y) = 0.16460 0.28283
# Poissons Ratio (z) = 0.61281 0.34890
#
# Static dielectric constant tensor:
#      x y z
#    x 3.422460 0.000000 0.000000 
#    y 0.000000 3.331830 0.000000 
#    z 0.000000 0.000000 3.391850 
# 
# 
# High freq. dielectric constant tensor:
#      x y z
#    x 1.697650 0.000000 0.000000 
#    y 0.000000 1.694950 0.000000 
#    z 0.000000 0.000000 1.697930 
# 
# From -- ./inp_files/27736.got.cif
#   From: 2010.03.12/outbox.cif.g09.slc.cpg/sg62_14_cif.got.tgz:27736.got - 2010.04.10 19:12:36.
