data_PCOD8252499
_publ_section_title
;
Structure prediction by ZEFSAII (Michael W. Deem and Ramdas Pophale) SiO2 
 PCOD8252499
Probable space group: P N M A
;
_chemical_formula_sum "Si O2"
_cell_formula_units_Z 56
_cell_length_a 21.156521
_cell_length_b 8.926613
_cell_length_c 15.131641
_cell_angle_alpha 90.000000
_cell_angle_beta 90.000000
_cell_angle_gamma 90.000000
_cell_volume 2857.702334
_symmetry_space_group_name_H-M "P N M A"
_symmetry_group_IT_number 62
_symmetry_cell_setting 'orthorhombic'
loop_
_space_group_symop_operation_xyz
x,y,z
1/2-x,-y,1/2+z
1/2+x,1/2-y,1/2-z
-x,1/2+y,-z
-x,-y,-z
1/2+x,y,1/2-z
1/2-x,1/2+y,1/2+z
x,1/2-y,z
loop_
_atom_site_type_symbol
_atom_site_label
_atom_site_fract_x
_atom_site_fract_y
_atom_site_fract_z
Si Si1 0.968317 0.918607 0.121627
Si Si2 0.305855 0.426800 0.946639
Si Si3 0.757577 0.573155 0.231025
Si Si4 0.934407 0.426284 0.472682
Si Si5 0.104553 0.077028 0.707257
Si Si6 0.595653 0.580645 0.467117
Si Si7 0.785078 0.925007 0.902368
O O1 0.946161 0.750000 0.094926
O O2 0.952059 0.949093 0.223602
O O3 0.043513 0.933764 0.110132
O O4 0.934149 0.041263 0.061569
O O5 0.296905 0.250000 0.943496
O O6 0.272339 0.495582 0.859299
O O7 0.380110 0.469582 0.955314
O O8 0.270621 0.486707 0.034326
O O9 0.751086 0.750000 0.229201
O O10 0.830463 0.524522 0.244951
O O11 0.715730 0.511429 0.310423
O O12 0.944901 0.250000 0.470081
O O13 0.910649 0.477163 0.377017
O O14 0.000000 0.500000 0.500000
O O15 0.109261 0.250000 0.677577
O O16 0.622395 0.750000 0.470965
O O17 0.649189 0.459836 0.449218
O O18 0.778401 0.750000 0.884249
#
# Coordination Sequence:
#
# PCOD8252499 Si02
#       7
#     8   8   8   8   8   8   8
#     4   9  19  36  57  81 114 155 193 233 289 354
#     4   9  20  39  61  83 115 156 194 239 298 359
#     4  10  20  36  60  86 110 145 195 243 289 347
#     4  11  23  41  62  85 117 156 202 248 300 357
#     4  10  20  37  61  86 114 152 197 242 295 359
#     4  10  20  34  54  84 117 150 192 240 288 341
#     4  11  21  37  58  82 115 152 188 233 294 351
#
# _framework density 19.596164000000002
#
# number of rings (size 3 to 8) (size 9 to 14) (size 15 to 20)
#    0.000    2.000    1.429    2.143    0.000    4.571 
#    0.000   10.000    0.000    0.000    0.000    0.000 
#    0.000    0.000    0.000    0.000    0.000    0.000 
#
# Total GULP energy -694394.211933 kJ/mol
# GULP energy per Si atom -12399.896642 kJ/mol
# Density = 1.955156 g / cm^3
# Si number density = 19.596164 Si / 1000 Ang^3
#
#
#
# Elastic Constant Matrix: (Units=GPa)
#
#
# Indices 1 2 3 4 5 6 
#
# 1 125.6299 41.8585 59.0713 0.0000 0.0000 0.0000
# 2 41.8585 44.1945 33.1750 0.0000 0.0000 0.0000
# 3 59.0713 33.1750 118.6083 0.0000 0.0000 0.0000
# 4 0.0000 0.0000 0.0000 27.1245 0.0000 0.0000
# 5 0.0000 0.0000 0.0000 0.0000 31.1666 0.0000
# 6 0.0000 0.0000 0.0000 0.0000 0.0000 30.5082
#
#
#
# Elastic Compliance Matrix: (Units=1/GPa)
#
#
# Indices 1 2 3 4 5 6 
#
# 1 0.012849 -0.009324 -0.003791 0.000000 0.000000 0.000000
# 2 -0.009324 0.035407 -0.005260 0.000000 0.000000 0.000000
# 3 -0.003791 -0.005260 0.011791 0.000000 0.000000 0.000000
# 4 0.000000 0.000000 0.000000 0.036867 0.000000 0.000000
# 5 0.000000 0.000000 0.000000 0.000000 0.032086 0.000000
# 6 0.000000 0.000000 0.000000 0.000000 0.000000 0.032778
#
#
# Mechanical properties :
#
#
# Convention : Reuss Voigt Hill
#
# Bulk Modulus (GPa) = 42.92537 61.84913 52.38725
# Shear Modulus (GPa) = 24.23740 28.04838 26.14289
#
# Velocity S-wave (km/s) = 3.52069 3.78738 3.65647
# Velocity P-wave (km/s) = 6.20319 7.12433 6.67966
#
# Compressibility (1/GPa) = 0.02329625
#
# Stress axis : x y z
#
# Youngs Moduli (GPa) = 77.82524 28.24336 84.81381
#
# Poissons Ratio (x) = 0.26334 0.32157
# Poissons Ratio (y) = 0.72564 0.44609
# Poissons Ratio (z) = 0.29507 0.14855
#
# Static dielectric constant tensor:
#      x y z
#    x 3.724920 0.000000 0.000000 
#    y 0.000000 3.402900 0.000000 
#    z 0.000000 0.000000 3.622230 
# 
# 
# High freq. dielectric constant tensor:
#      x y z
#    x 1.769710 0.000000 0.000000 
#    y 0.000000 1.748620 0.000000 
#    z 0.000000 0.000000 1.762680 
# 
# From -- ./inp_files/20289.got.cif
#   From: 2010.03.12/outbox.cif.g09.slc.cpg/sg62_11_cif.got.tgz:20289.got - 2010.04.10 19:12:36.
