data_PCOD8252806
_publ_section_title
;
Structure prediction by ZEFSAII (Michael W. Deem and Ramdas Pophale) SiO2 
 PCOD8252806
Probable space group: P N M A
;
_chemical_formula_sum "Si O2"
_cell_formula_units_Z 56
_cell_length_a 21.348372
_cell_length_b 8.962140
_cell_length_c 14.580040
_cell_angle_alpha 90.000000
_cell_angle_beta 90.000000
_cell_angle_gamma 90.000000
_cell_volume 2789.556751
_symmetry_space_group_name_H-M "P N M A"
_symmetry_group_IT_number 62
_symmetry_cell_setting 'orthorhombic'
loop_
_space_group_symop_operation_xyz
x,y,z
1/2-x,-y,1/2+z
1/2+x,1/2-y,1/2-z
-x,1/2+y,-z
-x,-y,-z
1/2+x,y,1/2-z
1/2-x,1/2+y,1/2+z
x,1/2-y,z
loop_
_atom_site_type_symbol
_atom_site_label
_atom_site_fract_x
_atom_site_fract_y
_atom_site_fract_z
Si Si1 0.720461 0.922765 0.836519
Si Si2 0.352106 0.575508 0.010822
Si Si3 0.865235 0.923831 0.837922
Si Si4 0.959758 0.918364 0.354391
Si Si5 0.899354 0.079224 0.658055
Si Si6 0.068480 0.571825 0.993270
Si Si7 0.388096 0.425078 0.295569
O O1 0.706507 0.750000 0.857919
O O2 0.792564 0.951581 0.814979
O O3 0.678372 0.977047 0.749359
O O4 0.704706 0.017604 0.926998
O O5 0.343894 0.750000 0.992534
O O6 0.417222 0.532707 0.060056
O O7 0.350453 0.492785 0.913058
O O8 0.880747 0.750000 0.851618
O O9 0.902409 0.987595 0.751776
O O10 0.886521 0.013271 0.927081
O O11 0.942886 0.750000 0.326208
O O12 0.031417 0.934010 0.384778
O O13 0.945577 0.017176 0.265457
O O14 0.880090 0.250000 0.677068
O O15 0.061932 0.750000 0.999431
O O16 0.102488 0.518093 0.899399
O O17 0.000000 0.500000 0.000000
O O18 0.392285 0.250000 0.295828
#
# Coordination Sequence:
#
# PCOD8252806 Si02
#       7
#     8   8   8   8   8   8   8
#     4   9  20  40  60  81 111 146 187 233 283 339
#     4  10  20  35  57  84 113 146 185 228 275 332
#     4  11  24  40  58  82 113 149 191 241 291 342
#     4   9  19  34  54  83 115 145 179 223 274 330
#     4  11  22  36  55  81 114 149 184 226 280 338
#     4  11  23  39  60  87 118 154 197 244 296 351
#     4   9  19  36  59  82 107 145 188 231 281 338
#
# _framework density 20.074874000000001
#
# number of rings (size 3 to 8) (size 9 to 14) (size 15 to 20)
#    0.000    2.000    0.000    3.000    0.000    7.429 
#    0.000    1.429    0.000    0.000    0.000    0.000 
#    0.000    0.000    0.000    0.000    0.000    0.000 
#
# Total GULP energy -694470.938632 kJ/mol
# GULP energy per Si atom -12401.266761 kJ/mol
# Density = 2.002918 g / cm^3
# Si number density = 20.074874 Si / 1000 Ang^3
#
#
#
# Elastic Constant Matrix: (Units=GPa)
#
#
# Indices 1 2 3 4 5 6 
#
# 1 69.6748 32.9926 22.1748 0.0000 0.0000 0.0000
# 2 32.9926 57.1192 37.3925 0.0000 0.0000 0.0000
# 3 22.1748 37.3925 120.9632 0.0000 0.0000 0.0000
# 4 0.0000 0.0000 0.0000 34.7926 0.0000 0.0000
# 5 0.0000 0.0000 0.0000 0.0000 21.4772 0.0000
# 6 0.0000 0.0000 0.0000 0.0000 0.0000 29.7663
#
#
#
# Elastic Compliance Matrix: (Units=1/GPa)
#
#
# Indices 1 2 3 4 5 6 
#
# 1 0.019757 -0.011335 -0.000118 0.000000 0.000000 0.000000
# 2 -0.011335 0.028452 -0.006717 0.000000 0.000000 0.000000
# 3 -0.000118 -0.006717 0.010365 0.000000 0.000000 0.000000
# 4 0.000000 0.000000 0.000000 0.028742 0.000000 0.000000
# 5 0.000000 0.000000 0.000000 0.000000 0.046561 0.000000
# 6 0.000000 0.000000 0.000000 0.000000 0.000000 0.033595
#
#
# Mechanical properties :
#
#
# Convention : Reuss Voigt Hill
#
# Bulk Modulus (GPa) = 44.97611 48.09746 46.53678
# Shear Modulus (GPa) = 23.67167 27.55370 25.61269
#
# Velocity S-wave (km/s) = 3.43763 3.70881 3.57579
# Velocity P-wave (km/s) = 6.18136 6.50779 6.34668
#
# Compressibility (1/GPa) = 0.02223403
#
# Stress axis : x y z
#
# Youngs Moduli (GPa) = 50.61451 35.14737 96.47800
#
# Poissons Ratio (x) = 0.39838 0.01139
# Poissons Ratio (y) = 0.57370 0.64806
# Poissons Ratio (z) = 0.00597 0.23609
#
# Static dielectric constant tensor:
#      x y z
#    x 3.597330 0.000000 0.000000 
#    y 0.000000 3.680520 0.000000 
#    z 0.000000 0.000000 3.742240 
# 
# 
# High freq. dielectric constant tensor:
#      x y z
#    x 1.776990 0.000000 0.000000 
#    y 0.000000 1.787500 0.000000 
#    z 0.000000 0.000000 1.787810 
# 
# From -- ./inp_files/20224.got.cif
#   From: 2010.03.12/outbox.cif.g09.slc.cpg/sg62_11_cif.got.tgz:20224.got - 2010.04.10 19:12:36.
