data_PCOD8252932
_publ_section_title
;
Structure prediction by ZEFSAII (Michael W. Deem and Ramdas Pophale) SiO2 
 PCOD8252932
Probable space group: P N M A
;
_chemical_formula_sum "Si O2"
_cell_formula_units_Z 40
_cell_length_a 17.751148
_cell_length_b 9.663177
_cell_length_c 11.026353
_cell_angle_alpha 90.000000
_cell_angle_beta 90.000000
_cell_angle_gamma 90.000000
_cell_volume 1891.377731
_symmetry_space_group_name_H-M "P N M A"
_symmetry_group_IT_number 62
_symmetry_cell_setting 'orthorhombic'
loop_
_space_group_symop_operation_xyz
x,y,z
1/2-x,-y,1/2+z
1/2+x,1/2-y,1/2-z
-x,1/2+y,-z
-x,-y,-z
1/2+x,y,1/2-z
1/2-x,1/2+y,1/2+z
x,1/2-y,z
loop_
_atom_site_type_symbol
_atom_site_label
_atom_site_fract_x
_atom_site_fract_y
_atom_site_fract_z
Si Si1 0.562392 0.250000 0.359365
Si Si2 0.853267 0.750000 0.101420
Si Si3 0.915058 0.250000 0.987683
Si Si4 0.177531 0.250000 0.567199
Si Si5 0.240936 0.453656 0.756930
Si Si6 0.772063 0.250000 0.156150
Si Si7 0.087910 0.545992 0.226927
Si Si8 0.027088 0.250000 0.691095
O O1 0.627497 0.250000 0.460660
O O2 0.479589 0.250000 0.412929
O O3 0.573250 0.383135 0.275524
O O4 0.804328 0.886277 0.131111
O O5 0.929801 0.750000 0.179678
O O6 0.921000 0.111935 0.906851
O O7 0.837305 0.250000 0.057966
O O8 0.211697 0.387123 0.631320
O O9 0.195391 0.250000 0.424527
O O10 0.086712 0.250000 0.581249
O O11 0.225210 0.617599 0.755934
O O12 0.328852 0.421506 0.776128
O O13 0.026336 0.614730 0.316266
#
# Coordination Sequence:
#
# PCOD8252932 Si02
#       8
#     4   4   4   4   8   4   8   4
#     4  12  23  29  59  94 120 136 199 246 312 351
#     4  10  20  36  55  88 115 153 192 236 292 375
#     4  11  21  34  59  84 122 154 188 239 325 350
#     4  10  22  42  58  89 116 161 200 246 291 366
#     4  10  22  38  60  84 121 158 199 237 300 356
#     4  12  22  39  64  87 122 158 204 245 297 361
#     4  11  20  38  54  87 120 154 185 254 294 353
#     4   9  20  36  59  72 117 154 193 230 299 343
#
# _framework density 21.148606000000001
#
# number of rings (size 3 to 8) (size 9 to 14) (size 15 to 20)
#    0.000    1.600    4.000    4.200    5.600    0.000 
#    0.000    1.000    0.000    0.000    0.000    0.000 
#    0.000    0.000    0.000    0.000    0.000    0.000 
#
# Total GULP energy -496056.654854 kJ/mol
# GULP energy per Si atom -12401.416371 kJ/mol
# Density = 2.110047 g / cm^3
# Si number density = 21.148606 Si / 1000 Ang^3
#
#
#
# Elastic Constant Matrix: (Units=GPa)
#
#
# Indices 1 2 3 4 5 6 
#
# 1 124.7270 33.9980 -6.7967 0.0000 0.0000 0.0000
# 2 33.9980 179.6062 20.5053 0.0000 0.0000 0.0000
# 3 -6.7967 20.5053 19.2515 0.0000 0.0000 0.0000
# 4 0.0000 0.0000 0.0000 7.8728 0.0000 0.0000
# 5 0.0000 0.0000 0.0000 0.0000 23.5063 0.0000
# 6 0.0000 0.0000 0.0000 0.0000 0.0000 5.4749
#
#
#
# Elastic Compliance Matrix: (Units=1/GPa)
#
#
# Indices 1 2 3 4 5 6 
#
# 1 0.008965 -0.002343 0.005661 0.000000 0.000000 0.000000
# 2 -0.002343 0.006951 -0.008231 0.000000 0.000000 0.000000
# 3 0.005661 -0.008231 0.062710 0.000000 0.000000 0.000000
# 4 0.000000 0.000000 0.000000 0.127020 0.000000 0.000000
# 5 0.000000 0.000000 0.000000 0.000000 0.042542 0.000000
# 6 0.000000 0.000000 0.000000 0.000000 0.000000 0.182652
#
#
# Mechanical properties :
#
#
# Convention : Reuss Voigt Hill
#
# Bulk Modulus (GPa) = 14.53517 46.55531 30.54524
# Shear Modulus (GPa) = 10.78518 25.76268 18.27393
#
# Velocity S-wave (km/s) = 2.26070 3.49402 2.94270
# Velocity P-wave (km/s) = 3.70165 6.19183 5.10103
#
# Compressibility (1/GPa) = 0.06879863
#
# Stress axis : x y z
#
# Youngs Moduli (GPa) = 111.54859 143.86400 15.94649
#
# Poissons Ratio (x) = 0.33711 -0.09027
# Poissons Ratio (y) = 0.26138 0.13126
# Poissons Ratio (z) = -0.63146 1.18415
#
# Static dielectric constant tensor:
#      x y z
#    x 4.127960 0.000000 0.000000 
#    y 0.000000 3.973200 0.000000 
#    z 0.000000 0.000000 3.285750 
# 
# 
# High freq. dielectric constant tensor:
#      x y z
#    x 1.850980 0.000000 0.000000 
#    y 0.000000 1.837190 0.000000 
#    z 0.000000 0.000000 1.777600 
# 
# From -- ./inp_files/13950.got.cif
#   From: 2010.03.12/outbox.cif.g09.slc.cpg/sg62_7_cif.got.tgz:13950.got - 2010.04.10 19:12:36.
