data_PCOD8252148
_publ_section_title
;
Structure prediction by ZEFSAII (Michael W. Deem and Ramdas Pophale) SiO2 
 PCOD8252148
Probable space group: P N M A
;
_chemical_formula_sum "Si O2"
_cell_formula_units_Z 40
_cell_length_a 15.211903
_cell_length_b 13.989298
_cell_length_c 9.386376
_cell_angle_alpha 90.000000
_cell_angle_beta 90.000000
_cell_angle_gamma 90.000000
_cell_volume 1997.456896
_symmetry_space_group_name_H-M "P N M A"
_symmetry_group_IT_number 62
_symmetry_cell_setting 'orthorhombic'
loop_
_space_group_symop_operation_xyz
x,y,z
1/2-x,-y,1/2+z
1/2+x,1/2-y,1/2-z
-x,1/2+y,-z
-x,-y,-z
1/2+x,y,1/2-z
1/2-x,1/2+y,1/2+z
x,1/2-y,z
loop_
_atom_site_type_symbol
_atom_site_label
_atom_site_fract_x
_atom_site_fract_y
_atom_site_fract_z
Si Si1 0.362911 0.553924 0.344723
Si Si2 0.027321 0.985832 0.337941
Si Si3 0.142066 0.646195 0.935816
Si Si4 0.685159 0.642454 0.244313
Si Si5 0.443417 0.857920 0.614927
O O1 0.448741 0.568200 0.246000
O O2 0.331382 0.442461 0.334707
O O3 0.284915 0.620753 0.296257
O O4 0.382576 0.581322 0.508617
O O5 0.115370 0.923198 0.336764
O O6 0.049641 0.088277 0.266448
O O7 0.000000 0.000000 0.500000
O O8 0.171386 0.750000 0.871099
O O9 0.037828 0.645895 0.959818
O O10 0.185130 0.629048 0.087415
O O11 0.662593 0.750000 0.198756
O O12 0.407174 0.750000 0.639452
#
# Coordination Sequence:
#
# PCOD8252148 Si02
#       5
#     8   8   8   8   8
#     4  11  21  39  65  90 122 171 210 252 313 372
#     4  11  24  40  62  93 129 163 200 264 319 372
#     4   9  18  37  63  86 114 155 207 257 301 361
#     4  11  23  38  62  93 122 160 209 258 308 366
#     4  10  19  39  65  89 117 162 212 252 309 378
#
# _framework density 20.025462999999998
#
# number of rings (size 3 to 8) (size 9 to 14) (size 15 to 20)
#    0.000    1.600    4.000    1.800    2.800    1.600 
#    0.000    1.000    0.000    0.000    0.000    0.000 
#    0.000    0.000    0.000    0.000    0.000    0.000 
#
# Total GULP energy -495911.629135 kJ/mol
# GULP energy per Si atom -12397.790728 kJ/mol
# Density = 1.997988 g / cm^3
# Si number density = 20.025463 Si / 1000 Ang^3
#
#
#
# Elastic Constant Matrix: (Units=GPa)
#
#
# Indices 1 2 3 4 5 6 
#
# 1 69.8439 26.6159 27.0005 0.0000 0.0000 0.0000
# 2 26.6159 107.5393 40.4084 0.0000 0.0000 0.0000
# 3 27.0005 40.4084 93.8217 0.0000 0.0000 0.0000
# 4 0.0000 0.0000 0.0000 24.0405 0.0000 0.0000
# 5 0.0000 0.0000 0.0000 0.0000 19.1378 0.0000
# 6 0.0000 0.0000 0.0000 0.0000 0.0000 28.4506
#
#
#
# Elastic Compliance Matrix: (Units=1/GPa)
#
#
# Indices 1 2 3 4 5 6 
#
# 1 0.016784 -0.002791 -0.003628 0.000000 0.000000 0.000000
# 2 -0.002791 0.011558 -0.004175 0.000000 0.000000 0.000000
# 3 -0.003628 -0.004175 0.013501 0.000000 0.000000 0.000000
# 4 0.000000 0.000000 0.000000 0.041597 0.000000 0.000000
# 5 0.000000 0.000000 0.000000 0.000000 0.052253 0.000000
# 6 0.000000 0.000000 0.000000 0.000000 0.000000 0.035149
#
#
# Mechanical properties :
#
#
# Convention : Reuss Voigt Hill
#
# Bulk Modulus (GPa) = 48.41399 51.02828 49.72113
# Shear Modulus (GPa) = 25.13657 26.13778 25.63718
#
# Velocity S-wave (km/s) = 3.54677 3.61671 3.58191
# Velocity P-wave (km/s) = 6.40324 6.55575 6.47994
#
# Compressibility (1/GPa) = 0.02065519
#
# Stress axis : x y z
#
# Youngs Moduli (GPa) = 59.58169 86.51713 74.06959
#
# Poissons Ratio (x) = 0.24144 0.26874
# Poissons Ratio (y) = 0.16627 0.30924
# Poissons Ratio (z) = 0.21617 0.36121
#
# Static dielectric constant tensor:
#      x y z
#    x 3.535560 0.000000 0.000000 
#    y 0.000000 4.086010 0.000000 
#    z 0.000000 0.000000 3.329260 
# 
# 
# High freq. dielectric constant tensor:
#      x y z
#    x 1.770930 0.000000 0.000000 
#    y 0.000000 1.798740 0.000000 
#    z 0.000000 0.000000 1.759740 
# 
# From -- ./inp_files/6090.got.cif
#   From: 2010.03.12/outbox.cif.g09.slc.cpg/sg62_4_cif.got.tgz:6090.got - 2010.04.10 19:12:36.
