data_PCOD8252515
_publ_section_title
;
Structure prediction by ZEFSAII (Michael W. Deem and Ramdas Pophale) SiO2 
 PCOD8252515
Probable space group: P N M A
;
_chemical_formula_sum "Si O2"
_cell_formula_units_Z 64
_cell_length_a 18.617873
_cell_length_b 8.868405
_cell_length_c 20.637253
_cell_angle_alpha 90.000000
_cell_angle_beta 90.000000
_cell_angle_gamma 90.000000
_cell_volume 3407.434137
_symmetry_space_group_name_H-M "P N M A"
_symmetry_group_IT_number 62
_symmetry_cell_setting 'orthorhombic'
loop_
_space_group_symop_operation_xyz
x,y,z
1/2-x,-y,1/2+z
1/2+x,1/2-y,1/2-z
-x,1/2+y,-z
-x,-y,-z
1/2+x,y,1/2-z
1/2-x,1/2+y,1/2+z
x,1/2-y,z
loop_
_atom_site_type_symbol
_atom_site_label
_atom_site_fract_x
_atom_site_fract_y
_atom_site_fract_z
Si Si1 0.665925 0.583785 0.255662
Si Si2 0.175143 0.072307 0.616262
Si Si3 0.835868 0.583962 0.243201
Si Si4 0.669848 0.571905 0.112922
Si Si5 0.577433 0.572994 0.495637
Si Si6 0.922838 0.572437 0.502553
Si Si7 0.822988 0.074871 0.116319
Si Si8 0.670876 0.072757 0.384366
O O1 0.635210 0.750000 0.272647
O O2 0.750951 0.593556 0.250245
O O3 0.639420 0.531047 0.184666
O O4 0.642982 0.468428 0.311967
O O5 0.193486 0.250000 0.613844
O O6 0.137733 0.030072 0.685462
O O7 0.119755 0.022587 0.561471
O O8 0.248380 0.982720 0.604003
O O9 0.866946 0.750000 0.226306
O O10 0.857887 0.469807 0.185931
O O11 0.667093 0.750000 0.100534
O O12 0.618604 0.485199 0.064826
O O13 0.751506 0.519545 0.102370
O O14 0.500000 0.500000 0.500000
O O15 0.569399 0.750000 0.485352
O O16 0.619668 0.535298 0.561473
O O17 0.619049 0.505327 0.435134
O O18 0.930843 0.750000 0.506635
O O19 0.000000 0.500000 0.500000
O O20 0.802596 0.250000 0.117018
O O21 0.667000 0.250000 0.393892
#
# Coordination Sequence:
#
# PCOD8252515 Si02
#       8
#     8   8   8   8   8   8   8   8
#     4   8  16  32  53  78 109 141 172 212 262 315
#     4   9  19  36  56  79 108 142 178 215 261 317
#     4   8  15  30  53  79 106 137 173 213 259 314
#     4  10  20  35  57  83 109 140 179 218 261 318
#     4  11  24  40  55  74 106 145 182 222 268 319
#     4  11  23  38  55  76 107 145 183 225 269 316
#     4  10  20  34  55  83 110 136 171 218 269 316
#     4  11  21  33  56  86 110 136 175 221 266 315
#
# _framework density 18.782461999999999
#
# number of rings (size 3 to 8) (size 9 to 14) (size 15 to 20)
#    0.000    2.250    0.000    4.875    0.000   11.000 
#    0.000    1.250    0.000    4.500    0.000    0.000 
#    0.000    0.000    0.000    0.000    0.000    0.000 
#
# Total GULP energy -793453.690994 kJ/mol
# GULP energy per Si atom -12397.713922 kJ/mol
# Density = 1.873971 g / cm^3
# Si number density = 18.782462 Si / 1000 Ang^3
#
#
#
# Elastic Constant Matrix: (Units=GPa)
#
#
# Indices 1 2 3 4 5 6 
#
# 1 85.0371 45.9421 66.6355 0.0000 0.0000 0.0000
# 2 45.9421 84.9400 57.5503 0.0000 0.0000 0.0000
# 3 66.6355 57.5503 163.3403 0.0000 0.0000 0.0000
# 4 0.0000 0.0000 0.0000 35.3446 0.0000 0.0000
# 5 0.0000 0.0000 0.0000 0.0000 -6.7161 0.0000
# 6 0.0000 0.0000 0.0000 0.0000 0.0000 24.6708
#
#
#
# Elastic Compliance Matrix: (Units=1/GPa)
#
#
# Indices 1 2 3 4 5 6 
#
# 1 0.019981 -0.006941 -0.005706 0.000000 0.000000 0.000000
# 2 -0.006941 0.017876 -0.003467 0.000000 0.000000 0.000000
# 3 -0.005706 -0.003467 0.009671 0.000000 0.000000 0.000000
# 4 0.000000 0.000000 0.000000 0.028293 0.000000 0.000000
# 5 0.000000 0.000000 0.000000 0.000000 -0.148895 0.000000
# 6 0.000000 0.000000 0.000000 0.000000 0.000000 0.040534
#
#
# Mechanical properties :
#
#
# Convention : Reuss Voigt Hill
#
# Bulk Modulus (GPa) = 65.35511 74.84147 70.09829
# Shear Modulus (GPa) = 1044.61972 21.53915 533.07944
#
# Velocity S-wave (km/s) = 23.60879 3.39007 16.86517
# Velocity P-wave (km/s) = 27.89333 7.43347 20.41194
#
# Compressibility (1/GPa) = 0.01530102
#
# Stress axis : x y z
#
# Youngs Moduli (GPa) = 50.04873 55.94028 103.39976
#
# Poissons Ratio (x) = 0.38830 0.58995
# Poissons Ratio (y) = 0.34740 0.35845
# Poissons Ratio (z) = 0.28555 0.19393
#
# Static dielectric constant tensor:
#      x y z
#    x 3.062890 0.000000 0.000000 
#    y 0.000000 3.496370 0.000000 
#    z 0.000000 0.000000 4.159160 
# 
# 
# High freq. dielectric constant tensor:
#      x y z
#    x 1.692500 0.000000 0.000000 
#    y 0.000000 1.733660 0.000000 
#    z 0.000000 0.000000 1.753940 
# 
# From -- ./inp_files/27768.got.cif
#   From: 2010.03.12/outbox.cif.g09.slc.cpg/sg62_14_cif.got.tgz:27768.got - 2010.04.10 19:12:36.
