data_PCOD8252737
_publ_section_title
;
Structure prediction by ZEFSAII (Michael W. Deem and Ramdas Pophale) SiO2 
 PCOD8252737
Probable space group: P N M A
;
_chemical_formula_sum "Si O2"
_cell_formula_units_Z 48
_cell_length_a 17.467207
_cell_length_b 17.530366
_cell_length_c 8.826395
_cell_angle_alpha 90.000000
_cell_angle_beta 90.000000
_cell_angle_gamma 90.000000
_cell_volume 2702.699800
_symmetry_space_group_name_H-M "P N M A"
_symmetry_group_IT_number 62
_symmetry_cell_setting 'orthorhombic'
loop_
_space_group_symop_operation_xyz
x,y,z
1/2-x,-y,1/2+z
1/2+x,1/2-y,1/2-z
-x,1/2+y,-z
-x,-y,-z
1/2+x,y,1/2-z
1/2-x,1/2+y,1/2+z
x,1/2-y,z
loop_
_atom_site_type_symbol
_atom_site_label
_atom_site_fract_x
_atom_site_fract_y
_atom_site_fract_z
Si Si1 0.493279 0.665578 0.801832
Si Si2 0.576364 0.537985 0.940146
Si Si3 0.837124 0.664590 0.527562
Si Si4 0.067836 0.055661 0.055862
Si Si5 0.842327 0.928670 0.235409
Si Si6 0.184197 0.013570 0.308075
O O1 0.520316 0.750000 0.759253
O O2 0.563370 0.624510 0.887054
O O3 0.424705 0.665609 0.921683
O O4 0.470922 0.624507 0.646291
O O5 0.597976 0.490681 0.792975
O O6 0.500000 0.500000 0.000000
O O7 0.643574 0.535268 0.061404
O O8 0.801125 0.750000 0.549430
O O9 0.834479 0.643075 0.349340
O O10 0.795996 0.599644 0.631126
O O11 0.128103 0.011676 0.163640
O O12 0.120144 0.094620 0.924828
O O13 0.000000 0.000000 0.000000
O O14 0.760662 0.969010 0.226894
#
# Coordination Sequence:
#
# PCOD8252737 Si02
#       6
#     8   8   8   8   8   8
#     4  10  20  35  56  83 109 141 185 233 276 320
#     4  11  17  37  58  78 105 149 190 217 261 334
#     4   9  19  36  57  78 109 149 187 223 272 330
#     4  11  19  32  56  83 110 139 183 234 272 320
#     4  11  20  33  57  86 109 142 186 228 271 328
#     4  10  21  34  56  84 110 147 188 222 274 335
#
# _framework density 17.760017999999999
#
# number of rings (size 3 to 8) (size 9 to 14) (size 15 to 20)
#    0.000    1.667    6.667    2.000    0.000    0.667 
#    0.000    1.667    0.000    2.000    0.000    0.000 
#    0.000    0.000    0.000    0.000    0.000    0.000 
#
# Total GULP energy -594846.195706 kJ/mol
# GULP energy per Si atom -12392.629077 kJ/mol
# Density = 1.771960 g / cm^3
# Si number density = 17.760018 Si / 1000 Ang^3
#
#
#
# Elastic Constant Matrix: (Units=GPa)
#
#
# Indices 1 2 3 4 5 6 
#
# 1 72.2945 55.4741 35.7504 0.0000 0.0000 0.0000
# 2 55.4741 134.2285 53.4859 0.0000 0.0000 0.0000
# 3 35.7504 53.4859 111.6720 0.0000 0.0000 0.0000
# 4 0.0000 0.0000 0.0000 18.3674 0.0000 0.0000
# 5 0.0000 0.0000 0.0000 0.0000 26.6972 0.0000
# 6 0.0000 0.0000 0.0000 0.0000 0.0000 19.5807
#
#
#
# Elastic Compliance Matrix: (Units=1/GPa)
#
#
# Indices 1 2 3 4 5 6 
#
# 1 0.021138 -0.007464 -0.003192 0.000000 0.000000 0.000000
# 2 -0.007464 0.011843 -0.003283 0.000000 0.000000 0.000000
# 3 -0.003192 -0.003283 0.011549 0.000000 0.000000 0.000000
# 4 0.000000 0.000000 0.000000 0.054444 0.000000 0.000000
# 5 0.000000 0.000000 0.000000 0.000000 0.037457 0.000000
# 6 0.000000 0.000000 0.000000 0.000000 0.000000 0.051071
#
#
# Mechanical properties :
#
#
# Convention : Reuss Voigt Hill
#
# Bulk Modulus (GPa) = 60.05198 67.51289 63.78244
# Shear Modulus (GPa) = 22.63152 24.49469 23.56310
#
# Velocity S-wave (km/s) = 3.57360 3.71779 3.64641
# Velocity P-wave (km/s) = 7.13540 7.51836 7.32938
#
# Compressibility (1/GPa) = 0.01665224
#
# Stress axis : x y z
#
# Youngs Moduli (GPa) = 47.30739 84.43972 86.58769
#
# Poissons Ratio (x) = 0.63026 0.27641
# Poissons Ratio (y) = 0.35311 0.28424
# Poissons Ratio (z) = 0.15102 0.27718
#
# Static dielectric constant tensor:
#      x y z
#    x 3.113990 0.000000 0.000000 
#    y 0.000000 3.360000 0.000000 
#    z 0.000000 0.000000 3.485820 
# 
# 
# High freq. dielectric constant tensor:
#      x y z
#    x 1.677330 0.000000 0.000000 
#    y 0.000000 1.669540 0.000000 
#    z 0.000000 0.000000 1.702180 
# 
# From -- ./inp_files/7800.got.cif
#   From: 2010.03.12/outbox.cif.g09.slc.cpg/sg62_4_cif.got.tgz:7800.got - 2010.04.10 19:12:36.
