data_PCOD8252231
_publ_section_title
;
Structure prediction by ZEFSAII (Michael W. Deem and Ramdas Pophale) SiO2 
 PCOD8252231
Probable space group: P N M A
;
_chemical_formula_sum "Si O2"
_cell_formula_units_Z 28
_cell_length_a 5.127889
_cell_length_b 21.040501
_cell_length_c 11.716584
_cell_angle_alpha 90.000000
_cell_angle_beta 90.000000
_cell_angle_gamma 90.000000
_cell_volume 1264.141541
_symmetry_space_group_name_H-M "P N M A"
_symmetry_group_IT_number 62
_symmetry_cell_setting 'orthorhombic'
loop_
_space_group_symop_operation_xyz
x,y,z
1/2-x,-y,1/2+z
1/2+x,1/2-y,1/2-z
-x,1/2+y,-z
-x,-y,-z
1/2+x,y,1/2-z
1/2-x,1/2+y,1/2+z
x,1/2-y,z
loop_
_atom_site_type_symbol
_atom_site_label
_atom_site_fract_x
_atom_site_fract_y
_atom_site_fract_z
Si Si1 0.997305 0.679657 0.957004
Si Si2 0.504492 0.099990 0.057938
Si Si3 0.956793 0.531677 0.321851
Si Si4 0.049417 0.750000 0.174963
O O1 0.020681 0.750000 0.900469
O O2 0.725336 0.649539 0.919674
O O3 0.013913 0.687431 0.095425
O O4 0.225380 0.634334 0.912460
O O5 0.492676 0.077340 0.927892
O O6 0.476864 0.041540 0.143030
O O7 0.670381 0.546420 0.274323
O O8 0.841629 0.750000 0.276401
#
# Coordination Sequence:
#
# PCOD8252231 Si02
#       4
#     8   8   8   4
#     4  10  22  36  59  85 120 165 183 240 298 366
#     4  11  22  41  62  88 122 160 199 243 307 354
#     4  11  24  40  63  90 117 157 206 255 295 347
#     4  10  20  32  50  84 118 150 190 228 284 358
#
# _framework density 22.149419000000002
#
# number of rings (size 3 to 8) (size 9 to 14) (size 15 to 20)
#    0.857    0.571    0.000    6.000    0.000   11.429 
#    0.000    0.000    0.000   17.143    0.000    0.000 
#    0.000    0.000    0.000    0.000    0.000    0.000 
#
# Total GULP energy -347265.019662 kJ/mol
# GULP energy per Si atom -12402.322131 kJ/mol
# Density = 2.209901 g / cm^3
# Si number density = 22.149419 Si / 1000 Ang^3
#
#
#
# Elastic Constant Matrix: (Units=GPa)
#
#
# Indices 1 2 3 4 5 6 
#
# 1 102.3694 20.4209 9.9253 0.0000 0.0000 0.0000
# 2 20.4209 84.5180 -8.4373 0.0000 0.0000 0.0000
# 3 9.9253 -8.4373 19.0773 0.0000 0.0000 0.0000
# 4 0.0000 0.0000 0.0000 17.6062 0.0000 0.0000
# 5 0.0000 0.0000 0.0000 0.0000 9.4870 0.0000
# 6 0.0000 0.0000 0.0000 0.0000 0.0000 37.3916
#
#
#
# Elastic Compliance Matrix: (Units=1/GPa)
#
#
# Indices 1 2 3 4 5 6 
#
# 1 0.011162 -0.003428 -0.007324 0.000000 0.000000 0.000000
# 2 -0.003428 0.013431 0.007724 0.000000 0.000000 0.000000
# 3 -0.007324 0.007724 0.059644 0.000000 0.000000 0.000000
# 4 0.000000 0.000000 0.000000 0.056798 0.000000 0.000000
# 5 0.000000 0.000000 0.000000 0.000000 0.105407 0.000000
# 6 0.000000 0.000000 0.000000 0.000000 0.000000 0.026744
#
#
# Mechanical properties :
#
#
# Convention : Reuss Voigt Hill
#
# Bulk Modulus (GPa) = 12.79068 27.75362 20.27215
# Shear Modulus (GPa) = 16.37712 25.16735 20.77224
#
# Velocity S-wave (km/s) = 2.72213 3.37449 3.06571
# Velocity P-wave (km/s) = 3.95819 5.26691 4.65873
#
# Compressibility (1/GPa) = 0.07818190
#
# Stress axis : x y z
#
# Youngs Moduli (GPa) = 89.58594 74.45388 16.76603
#
# Poissons Ratio (x) = 0.25524 0.12279
# Poissons Ratio (y) = 0.30711 -0.12950
# Poissons Ratio (z) = 0.65609 -0.57506
#
# Static dielectric constant tensor:
#      x y z
#    x 3.886780 0.000000 0.000000 
#    y 0.000000 4.033680 0.000000 
#    z 0.000000 0.000000 3.751680 
# 
# 
# High freq. dielectric constant tensor:
#      x y z
#    x 1.883000 0.000000 0.000000 
#    y 0.000000 1.881350 0.000000 
#    z 0.000000 0.000000 1.851450 
# 
# From -- ./inp_files/16112.got.cif
#   From: 2010.03.12/outbox.cif.g09.slc.cpg/sg62_9_cif.got.tgz:16112.got - 2010.04.10 19:12:36.
