data_PCOD8252665
_publ_section_title
;
Structure prediction by ZEFSAII (Michael W. Deem and Ramdas Pophale) SiO2 
 PCOD8252665
Probable space group: P N M A
;
_chemical_formula_sum "Si O2"
_cell_formula_units_Z 48
_cell_length_a 28.308333
_cell_length_b 8.889188
_cell_length_c 10.093076
_cell_angle_alpha 90.000000
_cell_angle_beta 90.000000
_cell_angle_gamma 90.000000
_cell_volume 2539.802407
_symmetry_space_group_name_H-M "P N M A"
_symmetry_group_IT_number 62
_symmetry_cell_setting 'orthorhombic'
loop_
_space_group_symop_operation_xyz
x,y,z
1/2-x,-y,1/2+z
1/2+x,1/2-y,1/2-z
-x,1/2+y,-z
-x,-y,-z
1/2+x,y,1/2-z
1/2-x,1/2+y,1/2+z
x,1/2-y,z
loop_
_atom_site_type_symbol
_atom_site_label
_atom_site_fract_x
_atom_site_fract_y
_atom_site_fract_z
Si Si1 0.453850 0.924549 0.158502
Si Si2 0.102526 0.572252 0.887639
Si Si3 0.881566 0.574231 0.841738
Si Si4 0.562951 0.924245 0.110395
Si Si5 0.225986 0.074912 0.108937
Si Si6 0.790658 0.426851 0.157036
O O1 0.440574 0.750000 0.145889
O O2 0.509749 0.949773 0.158616
O O3 0.435412 0.991107 0.295783
O O4 0.429837 0.013578 0.037642
O O5 0.094583 0.750000 0.882929
O O6 0.154628 0.524774 0.837606
O O7 0.094463 0.515043 0.036938
O O8 0.892027 0.750000 0.860273
O O9 0.902831 0.517061 0.704857
O O10 0.826019 0.539212 0.835993
O O11 0.577350 0.750000 0.112047
O O12 0.233288 0.250000 0.084695
O O13 0.264347 0.011376 0.212749
O O14 0.235338 0.994297 0.970342
O O15 0.785134 0.250000 0.146293
#
# Coordination Sequence:
#
# PCOD8252665 Si02
#       6
#     8   8   8   8   8   8
#     4  10  21  37  56  78 105 137 173 214 260 310
#     4  10  20  35  55  78 106 139 175 216 259 306
#     4  10  20  35  55  78 106 139 175 216 259 306
#     4  10  21  37  56  78 105 137 173 214 260 310
#     4   9  19  35  53  76 105 136 172 212 255 304
#     4   9  19  35  53  76 105 136 172 212 255 304
#
# _framework density 18.899107000000001
#
# number of rings (size 3 to 8) (size 9 to 14) (size 15 to 20)
#    0.000    2.333    0.000    2.000    0.000    6.000 
#    0.000    3.333    0.000    0.000    0.000    0.000 
#    0.000    0.000    0.000    0.000    0.000    0.000 
#
# Total GULP energy -595404.187085 kJ/mol
# GULP energy per Si atom -12404.253898 kJ/mol
# Density = 1.885609 g / cm^3
# Si number density = 18.899107 Si / 1000 Ang^3
#
#
#
# Elastic Constant Matrix: (Units=GPa)
#
#
# Indices 1 2 3 4 5 6 
#
# 1 18.9174 17.2813 2.0196 0.0000 0.0000 0.0000
# 2 17.2813 52.1862 9.8962 0.0000 0.0000 0.0000
# 3 2.0196 9.8962 39.6309 0.0000 0.0000 0.0000
# 4 0.0000 0.0000 0.0000 41.5665 0.0000 0.0000
# 5 0.0000 0.0000 0.0000 0.0000 39.8273 0.0000
# 6 0.0000 0.0000 0.0000 0.0000 0.0000 21.7552
#
#
#
# Elastic Compliance Matrix: (Units=1/GPa)
#
#
# Indices 1 2 3 4 5 6 
#
# 1 0.076029 -0.025657 0.002532 0.000000 0.000000 0.000000
# 2 -0.025657 0.028773 -0.005877 0.000000 0.000000 0.000000
# 3 0.002532 -0.005877 0.026571 0.000000 0.000000 0.000000
# 4 0.000000 0.000000 0.000000 0.024058 0.000000 0.000000
# 5 0.000000 0.000000 0.000000 0.000000 0.025108 0.000000
# 6 0.000000 0.000000 0.000000 0.000000 0.000000 0.045966
#
#
# Mechanical properties :
#
#
# Convention : Reuss Voigt Hill
#
# Bulk Modulus (GPa) = 13.62967 18.79206 16.21087
# Shear Modulus (GPa) = 16.18298 26.06561 21.12430
#
# Velocity S-wave (km/s) = 2.92941 3.71778 3.34689
# Velocity P-wave (km/s) = 4.32080 5.32862 4.85095
#
# Compressibility (1/GPa) = 0.07336937
#
# Stress axis : x y z
#
# Youngs Moduli (GPa) = 13.15285 34.75483 37.63438
#
# Poissons Ratio (x) = 0.89171 -0.09530
# Poissons Ratio (y) = 0.33746 0.22119
# Poissons Ratio (z) = -0.03331 0.20427
#
# Static dielectric constant tensor:
#      x y z
#    x 3.433720 0.000000 0.000000 
#    y 0.000000 3.499320 0.000000 
#    z 0.000000 0.000000 3.522970 
# 
# 
# High freq. dielectric constant tensor:
#      x y z
#    x 1.725340 0.000000 0.000000 
#    y 0.000000 1.741900 0.000000 
#    z 0.000000 0.000000 1.742090 
# 
# From -- ./inp_files/4507.got.cif
#   From: 2010.03.12/outbox.cif.g09.slc.cpg/sg62_3_cif.got.tgz:4507.got - 2010.04.10 19:12:36.
