data_PCOD8252307
_publ_section_title
;
Structure prediction by ZEFSAII (Michael W. Deem and Ramdas Pophale) SiO2 
 PCOD8252307
Probable space group: P N M A
;
_chemical_formula_sum "Si O2"
_cell_formula_units_Z 64
_cell_length_a 30.009358
_cell_length_b 8.792242
_cell_length_c 14.211134
_cell_angle_alpha 90.000000
_cell_angle_beta 90.000000
_cell_angle_gamma 90.000000
_cell_volume 3749.601138
_symmetry_space_group_name_H-M "P N M A"
_symmetry_group_IT_number 62
_symmetry_cell_setting 'orthorhombic'
loop_
_space_group_symop_operation_xyz
x,y,z
1/2-x,-y,1/2+z
1/2+x,1/2-y,1/2-z
-x,1/2+y,-z
-x,-y,-z
1/2+x,y,1/2-z
1/2-x,1/2+y,1/2+z
x,1/2-y,z
loop_
_atom_site_type_symbol
_atom_site_label
_atom_site_fract_x
_atom_site_fract_y
_atom_site_fract_z
Si Si1 0.231094 0.574329 0.520198
Si Si2 0.552329 0.073700 0.600800
Si Si3 0.322169 0.079265 0.525383
Si Si4 0.134102 0.578762 0.827800
Si Si5 0.548771 0.573323 0.399474
Si Si6 0.802682 0.424793 0.681016
Si Si7 0.787895 0.570627 0.285711
Si Si8 0.371281 0.572612 0.691827
O O1 0.244156 0.750000 0.533829
O O2 0.274222 0.477643 0.493623
O O3 0.198525 0.553426 0.431352
O O4 0.208260 0.511737 0.614056
O O5 0.564794 0.250000 0.600628
O O6 0.501718 0.044499 0.634239
O O7 0.584177 0.989605 0.676297
O O8 0.559219 0.014771 0.495200
O O9 0.318411 0.250000 0.567277
O O10 0.354405 0.077481 0.437308
O O11 0.340094 0.965927 0.603802
O O12 0.134725 0.750000 0.786914
O O13 0.168394 0.475039 0.771601
O O14 0.558058 0.750000 0.418766
O O15 0.581454 0.513643 0.317574
O O16 0.810268 0.250000 0.708200
O O17 0.756841 0.481807 0.730880
O O18 0.845144 0.521062 0.714848
O O19 0.788149 0.750000 0.300595
O O20 0.380920 0.750000 0.696918
#
# Coordination Sequence:
#
# PCOD8252307 Si02
#       8
#     8   8   8   8   8   8   8   8
#     4  11  22  37  54  74 102 138 180 221 261 306
#     4  10  20  33  52  76 104 138 176 216 260 312
#     4  11  21  32  49  73 105 141 176 215 260 305
#     4  11  22  34  52  76 106 143 179 217 259 310
#     4  10  20  34  51  74 106 140 173 214 263 314
#     4  10  22  37  53  74 104 139 175 217 262 309
#     4  11  22  36  54  76 105 139 177 219 262 309
#     4  12  23  33  52  77 104 140 180 218 257 312
#
# _framework density 17.068481999999999
#
# number of rings (size 3 to 8) (size 9 to 14) (size 15 to 20)
#    0.000    1.250    3.750    3.375    0.000    4.000 
#    0.000    0.000    0.000    0.000    0.000    0.875 
#    0.000    0.000    0.000    0.000    0.000    0.000 
#
# Total GULP energy -793740.826413 kJ/mol
# GULP energy per Si atom -12402.200413 kJ/mol
# Density = 1.702963 g / cm^3
# Si number density = 17.068482 Si / 1000 Ang^3
#
#
#
# Elastic Constant Matrix: (Units=GPa)
#
#
# Indices 1 2 3 4 5 6 
#
# 1 97.4398 28.5010 20.8453 0.0000 0.0000 0.0000
# 2 28.5010 57.6612 21.7190 0.0000 0.0000 0.0000
# 3 20.8453 21.7190 63.3675 0.0000 0.0000 0.0000
# 4 0.0000 0.0000 0.0000 25.5107 0.0000 0.0000
# 5 0.0000 0.0000 0.0000 0.0000 24.5466 0.0000
# 6 0.0000 0.0000 0.0000 0.0000 0.0000 29.3896
#
#
#
# Elastic Compliance Matrix: (Units=1/GPa)
#
#
# Indices 1 2 3 4 5 6 
#
# 1 0.012270 -0.005218 -0.002248 0.000000 0.000000 0.000000
# 2 -0.005218 0.022133 -0.005869 0.000000 0.000000 0.000000
# 3 -0.002248 -0.005869 0.018532 0.000000 0.000000 0.000000
# 4 0.000000 0.000000 0.000000 0.039199 0.000000 0.000000
# 5 0.000000 0.000000 0.000000 0.000000 0.040739 0.000000
# 6 0.000000 0.000000 0.000000 0.000000 0.000000 0.034026
#
#
# Mechanical properties :
#
#
# Convention : Reuss Voigt Hill
#
# Bulk Modulus (GPa) = 38.07477 40.06657 39.07067
# Shear Modulus (GPa) = 24.71286 25.71626 25.21456
#
# Velocity S-wave (km/s) = 3.80921 3.88577 3.84768
# Velocity P-wave (km/s) = 6.45773 6.60736 6.53298
#
# Compressibility (1/GPa) = 0.02626411
#
# Stress axis : x y z
#
# Youngs Moduli (GPa) = 81.50008 45.18197 53.96040
#
# Poissons Ratio (x) = 0.23577 0.12129
# Poissons Ratio (y) = 0.42528 0.31671
# Poissons Ratio (z) = 0.18320 0.26519
#
# Static dielectric constant tensor:
#      x y z
#    x 3.253090 0.000000 0.000000 
#    y 0.000000 3.343300 0.000000 
#    z 0.000000 0.000000 2.963380 
# 
# 
# High freq. dielectric constant tensor:
#      x y z
#    x 1.654000 0.000000 0.000000 
#    y 0.000000 1.675960 0.000000 
#    z 0.000000 0.000000 1.626310 
# 
# From -- ./inp_files/21260.got.cif
#   From: 2010.03.12/outbox.cif.g09.slc.cpg/sg62_11_cif.got.tgz:21260.got - 2010.04.10 19:12:36.
