data_PCOD8252611
_publ_section_title
;
Structure prediction by ZEFSAII (Michael W. Deem and Ramdas Pophale) SiO2 
 PCOD8252611
Probable space group: P N M A
;
_chemical_formula_sum "Si O2"
_cell_formula_units_Z 56
_cell_length_a 11.282785
_cell_length_b 23.980316
_cell_length_c 11.618882
_cell_angle_alpha 90.000000
_cell_angle_beta 90.000000
_cell_angle_gamma 90.000000
_cell_volume 3143.659900
_symmetry_space_group_name_H-M "P N M A"
_symmetry_group_IT_number 62
_symmetry_cell_setting 'orthorhombic'
loop_
_space_group_symop_operation_xyz
x,y,z
1/2-x,-y,1/2+z
1/2+x,1/2-y,1/2-z
-x,1/2+y,-z
-x,-y,-z
1/2+x,y,1/2-z
1/2-x,1/2+y,1/2+z
x,1/2-y,z
loop_
_atom_site_type_symbol
_atom_site_label
_atom_site_fract_x
_atom_site_fract_y
_atom_site_fract_z
Si Si1 0.269227 0.750000 0.642672
Si Si2 0.467935 0.250000 0.290077
Si Si3 0.152490 0.954952 0.989934
Si Si4 0.312172 0.867298 0.544065
Si Si5 0.034016 0.872544 0.823540
Si Si6 0.071655 0.577655 0.581582
Si Si7 0.422684 0.562759 0.371068
Si Si8 0.598190 0.050048 0.891814
O O1 0.134737 0.750000 0.691764
O O2 0.384833 0.750000 0.732481
O O3 0.276965 0.803213 0.558951
O O4 0.443300 0.192518 0.357732
O O5 0.130396 0.907816 0.893250
O O6 0.159925 0.013168 0.920999
O O7 0.273462 0.943102 0.054292
O O8 0.055377 0.953784 0.091326
O O9 0.399922 0.889050 0.644558
O O10 0.203422 0.909266 0.543433
O O11 0.382289 0.877918 0.424828
O O12 0.041021 0.881439 0.686997
O O13 0.056792 0.513796 0.619271
O O14 0.987277 0.587440 0.471910
O O15 0.409141 0.573398 0.236435
#
# Coordination Sequence:
#
# PCOD8252611 Si02
#       8
#     4   4   8   8   8   8   8   8
#     4  10  20  36  60  88 112 154 198 238 296 348
#     4  10  20  34  60  88 114 152 188 248 296 342
#     4  10  21  36  55  79 113 157 181 232 289 342
#     4  10  21  38  58  80 114 155 187 234 287 349
#     4  10  21  37  58  83 117 148 191 234 296 349
#     4  11  22  33  53  87 116 147 186 235 282 339
#     4  10  21  37  55  79 113 154 192 226 285 349
#     4  11  24  33  55  86 116 149 190 233 283 341
#
# _framework density 17.813631999999998
#
# number of rings (size 3 to 8) (size 9 to 14) (size 15 to 20)
#    0.000    1.714    4.286    0.000    4.000    0.000 
#    0.000    0.000    0.000    2.571    0.000    0.000 
#    0.000    0.000    0.000    0.000    0.000    0.000 
#
# Total GULP energy -693855.322199 kJ/mol
# GULP energy per Si atom -12390.273611 kJ/mol
# Density = 1.777309 g / cm^3
# Si number density = 17.813632 Si / 1000 Ang^3
#
#
#
# Elastic Constant Matrix: (Units=GPa)
#
#
# Indices 1 2 3 4 5 6 
#
# 1 98.9648 30.8441 56.2291 0.0000 0.0000 0.0000
# 2 30.8441 78.0811 35.7730 0.0000 0.0000 0.0000
# 3 56.2291 35.7730 127.6942 0.0000 0.0000 0.0000
# 4 0.0000 0.0000 0.0000 18.5790 0.0000 0.0000
# 5 0.0000 0.0000 0.0000 0.0000 24.1499 0.0000
# 6 0.0000 0.0000 0.0000 0.0000 0.0000 18.4277
#
#
#
# Elastic Compliance Matrix: (Units=1/GPa)
#
#
# Indices 1 2 3 4 5 6 
#
# 1 0.014113 -0.003129 -0.005338 0.000000 0.000000 0.000000
# 2 -0.003129 0.015387 -0.002933 0.000000 0.000000 0.000000
# 3 -0.005338 -0.002933 0.011003 0.000000 0.000000 0.000000
# 4 0.000000 0.000000 0.000000 0.053824 0.000000 0.000000
# 5 0.000000 0.000000 0.000000 0.000000 0.041408 0.000000
# 6 0.000000 0.000000 0.000000 0.000000 0.000000 0.054266
#
#
# Mechanical properties :
#
#
# Convention : Reuss Voigt Hill
#
# Bulk Modulus (GPa) = 56.48626 61.15918 58.82272
# Shear Modulus (GPa) = 22.86216 24.35756 23.60986
#
# Velocity S-wave (km/s) = 3.58635 3.70179 3.64453
# Velocity P-wave (km/s) = 6.99483 7.25798 7.12762
#
# Compressibility (1/GPa) = 0.01770342
#
# Stress axis : x y z
#
# Youngs Moduli (GPa) = 70.85822 64.99005 90.88277
#
# Poissons Ratio (x) = 0.20338 0.48511
# Poissons Ratio (y) = 0.22174 0.26652
# Poissons Ratio (z) = 0.37822 0.19059
#
# Static dielectric constant tensor:
#      x y z
#    x 3.476220 0.000000 0.000000 
#    y 0.000000 3.337220 0.000000 
#    z 0.000000 0.000000 3.201130 
# 
# 
# High freq. dielectric constant tensor:
#      x y z
#    x 1.702580 0.000000 0.000000 
#    y 0.000000 1.679280 0.000000 
#    z 0.000000 0.000000 1.668970 
# 
# From -- ./inp_files/12443.got.cif
#   From: 2010.03.12/outbox.cif.g09.slc.cpg/sg62_7_cif.got.tgz:12443.got - 2010.04.10 19:12:36.
