data_PCOD8252895
_publ_section_title
;
Structure prediction by ZEFSAII (Michael W. Deem and Ramdas Pophale) SiO2 
 PCOD8252895
Probable space group: P N M A
;
_chemical_formula_sum "Si O2"
_cell_formula_units_Z 64
_cell_length_a 10.881375
_cell_length_b 9.113310
_cell_length_c 32.051897
_cell_angle_alpha 90.000000
_cell_angle_beta 90.000000
_cell_angle_gamma 90.000000
_cell_volume 3178.437379
_symmetry_space_group_name_H-M "P N M A"
_symmetry_group_IT_number 62
_symmetry_cell_setting 'orthorhombic'
loop_
_space_group_symop_operation_xyz
x,y,z
1/2-x,-y,1/2+z
1/2+x,1/2-y,1/2-z
-x,1/2+y,-z
-x,-y,-z
1/2+x,y,1/2-z
1/2-x,1/2+y,1/2+z
x,1/2-y,z
loop_
_atom_site_type_symbol
_atom_site_label
_atom_site_fract_x
_atom_site_fract_y
_atom_site_fract_z
Si Si1 0.873826 0.084129 0.509652
Si Si2 0.510533 0.422895 0.693217
Si Si3 0.475996 0.588608 0.772659
Si Si4 0.623152 0.916292 0.106804
Si Si5 0.870894 0.920175 0.879245
Si Si6 0.761653 0.087216 0.171364
Si Si7 0.888163 0.922705 0.975664
Si Si8 0.098377 0.921770 0.645918
O O1 0.893071 0.250000 0.493445
O O2 0.849312 0.078833 0.558388
O O3 0.748703 0.018852 0.488690
O O4 0.000000 0.000000 0.500000
O O5 0.509720 0.250000 0.691442
O O6 0.444680 0.475998 0.735634
O O7 0.455391 0.483740 0.650559
O O8 0.646229 0.488183 0.697940
O O9 0.506461 0.750000 0.753668
O O10 0.359105 0.599753 0.801733
O O11 0.584622 0.538159 0.804606
O O12 0.624374 0.750000 0.123864
O O13 0.733027 0.007605 0.127803
O O14 0.491624 0.986400 0.116592
O O15 0.891855 0.750000 0.868985
O O16 0.905010 0.956854 0.926771
O O17 0.732139 0.965999 0.869515
O O18 0.814993 0.250000 0.162110
O O19 0.895669 0.750000 0.985281
O O20 0.000000 0.000000 0.000000
O O21 0.069696 0.750000 0.639213
#
# Coordination Sequence:
#
# PCOD8252895 Si02
#       8
#     8   8   8   8   8   8   8   8
#     4  10  22  39  62  93 126 159 203 257 312 370
#     4  12  26  39  58  88 123 156 193 250 307 357
#     4   9  20  39  62  88 115 154 200 244 292 351
#     4  10  20  35  59  92 127 156 190 246 308 357
#     4  10  22  41  63  87 117 160 212 251 293 360
#     4  10  22  41  63  85 115 157 204 243 285 355
#     4  10  23  42  63  90 126 165 209 260 311 371
#     4   9  19  38  64  90 120 161 204 247 292 354
#
# _framework density 20.135680000000001
#
# number of rings (size 3 to 8) (size 9 to 14) (size 15 to 20)
#    0.000    2.000    0.000    3.375    3.500    6.000 
#    0.000    0.000    0.000    0.000    0.000    0.000 
#    0.000    0.000    0.000    0.000    0.000    0.000 
#
# Total GULP energy -793480.969394 kJ/mol
# GULP energy per Si atom -12398.140147 kJ/mol
# Density = 2.008985 g / cm^3
# Si number density = 20.135680 Si / 1000 Ang^3
#
#
#
# Elastic Constant Matrix: (Units=GPa)
#
#
# Indices 1 2 3 4 5 6 
#
# 1 78.1583 36.9471 31.8219 0.0000 0.0000 0.0000
# 2 36.9471 102.8636 50.0173 0.0000 0.0000 0.0000
# 3 31.8219 50.0173 102.9625 0.0000 0.0000 0.0000
# 4 0.0000 0.0000 0.0000 31.2835 0.0000 0.0000
# 5 0.0000 0.0000 0.0000 0.0000 25.7510 0.0000
# 6 0.0000 0.0000 0.0000 0.0000 0.0000 29.8490
#
#
#
# Elastic Compliance Matrix: (Units=1/GPa)
#
#
# Indices 1 2 3 4 5 6 
#
# 1 0.016014 -0.004380 -0.002822 0.000000 0.000000 0.000000
# 2 -0.004380 0.013926 -0.005411 0.000000 0.000000 0.000000
# 3 -0.002822 -0.005411 0.013213 0.000000 0.000000 0.000000
# 4 0.000000 0.000000 0.000000 0.031966 0.000000 0.000000
# 5 0.000000 0.000000 0.000000 0.000000 0.038833 0.000000
# 6 0.000000 0.000000 0.000000 0.000000 0.000000 0.033502
#
#
# Mechanical properties :
#
#
# Convention : Reuss Voigt Hill
#
# Bulk Modulus (GPa) = 55.78115 57.95079 56.86597
# Shear Modulus (GPa) = 27.98681 28.38992 28.18836
#
# Velocity S-wave (km/s) = 3.73220 3.75898 3.74561
# Velocity P-wave (km/s) = 6.80699 6.90525 6.85630
#
# Compressibility (1/GPa) = 0.01792720
#
# Stress axis : x y z
#
# Youngs Moduli (GPa) = 62.44597 71.80761 75.68262
#
# Poissons Ratio (x) = 0.31451 0.21355
# Poissons Ratio (y) = 0.27351 0.40955
# Poissons Ratio (z) = 0.17620 0.38858
#
# Static dielectric constant tensor:
#      x y z
#    x 3.777580 0.000000 0.000000 
#    y 0.000000 3.761060 0.000000 
#    z 0.000000 0.000000 3.874920 
# 
# 
# High freq. dielectric constant tensor:
#      x y z
#    x 1.789760 0.000000 0.000000 
#    y 0.000000 1.778370 0.000000 
#    z 0.000000 0.000000 1.795050 
# 
# From -- ./inp_files/32530.got.cif
#   From: 2010.03.12/outbox.cif.g09.slc.cpg/sg62_17_cif.got.tgz:32530.got - 2010.04.10 19:12:36.
