data_PCOD8252155
_publ_section_title
;
Structure prediction by ZEFSAII (Michael W. Deem and Ramdas Pophale) SiO2 
 PCOD8252155
Probable space group: P N M A
;
_chemical_formula_sum "Si O2"
_cell_formula_units_Z 64
_cell_length_a 9.019160
_cell_length_b 17.119536
_cell_length_c 19.951368
_cell_angle_alpha 90.000000
_cell_angle_beta 90.000000
_cell_angle_gamma 90.000000
_cell_volume 3080.567719
_symmetry_space_group_name_H-M "P N M A"
_symmetry_group_IT_number 62
_symmetry_cell_setting 'orthorhombic'
loop_
_space_group_symop_operation_xyz
x,y,z
1/2-x,-y,1/2+z
1/2+x,1/2-y,1/2-z
-x,1/2+y,-z
-x,-y,-z
1/2+x,y,1/2-z
1/2-x,1/2+y,1/2+z
x,1/2-y,z
loop_
_atom_site_type_symbol
_atom_site_label
_atom_site_fract_x
_atom_site_fract_y
_atom_site_fract_z
Si Si1 0.734565 0.162130 0.071889
Si Si2 0.591613 0.839611 0.299954
Si Si3 0.428541 0.430976 0.919777
Si Si4 0.283403 0.841783 0.682330
Si Si5 0.608170 0.906397 0.696269
Si Si6 0.292314 0.920027 0.304205
Si Si7 0.784478 0.840406 0.424653
Si Si8 0.567540 0.903608 0.927196
O O1 0.795579 0.250000 0.078413
O O2 0.821852 0.108960 0.123813
O O3 0.556869 0.163034 0.083677
O O4 0.761278 0.125122 0.997587
O O5 0.623304 0.750000 0.279337
O O6 0.416755 0.853558 0.301105
O O7 0.666842 0.899654 0.249346
O O8 0.652506 0.858217 0.373915
O O9 0.281296 0.416913 0.877188
O O10 0.562405 0.375221 0.896698
O O11 0.487054 0.517358 0.904515
O O12 0.380811 0.413595 0.996135
O O13 0.311730 0.750000 0.669415
O O14 0.434921 0.887735 0.695191
O O15 0.181549 0.851462 0.747668
O O16 0.208519 0.881530 0.617500
O O17 0.634606 0.996819 0.713784
O O18 0.815714 0.750000 0.434859
#
# Coordination Sequence:
#
# PCOD8252155 Si02
#       8
#     8   8   8   8   8   8   8   8
#     4  10  19  40  66  91 127 168 211 259 318 382
#     4  11  25  44  65  94 130 169 216 269 327 383
#     4  10  22  41  65  95 128 163 211 263 317 379
#     4  12  26  43  64  92 130 173 215 264 320 382
#     4  12  26  42  62  98 130 171 213 267 319 386
#     4  12  25  42  65  96 127 171 211 269 323 387
#     4   9  21  39  66  94 123 166 211 263 323 386
#     4  10  22  41  64  94 127 166 211 260 315 378
#
# _framework density 20.775392
#
# number of rings (size 3 to 8) (size 9 to 14) (size 15 to 20)
#    0.000    1.250    1.250    4.125    5.250    3.500 
#    0.000    2.500    0.000    0.000    0.000    0.000 
#    0.000    0.000    0.000    0.000    0.000    0.000 
#
# Total GULP energy -793837.024025 kJ/mol
# GULP energy per Si atom -12403.703500 kJ/mol
# Density = 2.072811 g / cm^3
# Si number density = 20.775392 Si / 1000 Ang^3
#
#
#
# Elastic Constant Matrix: (Units=GPa)
#
#
# Indices 1 2 3 4 5 6 
#
# 1 124.2704 36.7970 59.1095 0.0000 0.0000 0.0000
# 2 36.7970 76.6584 46.0325 0.0000 0.0000 0.0000
# 3 59.1095 46.0325 100.2474 0.0000 0.0000 0.0000
# 4 0.0000 0.0000 0.0000 29.7419 0.0000 0.0000
# 5 0.0000 0.0000 0.0000 0.0000 41.8109 0.0000
# 6 0.0000 0.0000 0.0000 0.0000 0.0000 35.7104
#
#
#
# Elastic Compliance Matrix: (Units=1/GPa)
#
#
# Indices 1 2 3 4 5 6 
#
# 1 0.011398 -0.001982 -0.005810 0.000000 0.000000 0.000000
# 2 -0.001982 0.018356 -0.007260 0.000000 0.000000 0.000000
# 3 -0.005810 -0.007260 0.016735 0.000000 0.000000 0.000000
# 4 0.000000 0.000000 0.000000 0.033623 0.000000 0.000000
# 5 0.000000 0.000000 0.000000 0.000000 0.023917 0.000000
# 6 0.000000 0.000000 0.000000 0.000000 0.000000 0.028003
#
#
# Mechanical properties :
#
#
# Convention : Reuss Voigt Hill
#
# Bulk Modulus (GPa) = 61.03657 65.00603 63.02130
# Shear Modulus (GPa) = 29.83339 32.06846 30.95093
#
# Velocity S-wave (km/s) = 3.79357 3.93310 3.86396
# Velocity P-wave (km/s) = 6.97361 7.20996 7.09277
#
# Compressibility (1/GPa) = 0.01638362
#
# Stress axis : x y z
#
# Youngs Moduli (GPa) = 87.73843 54.47843 59.75467
#
# Poissons Ratio (x) = 0.10797 0.34719
# Poissons Ratio (y) = 0.17389 0.43383
# Poissons Ratio (z) = 0.50979 0.39552
#
# Static dielectric constant tensor:
#      x y z
#    x 3.658200 0.000000 0.000000 
#    y 0.000000 3.776300 0.000000 
#    z 0.000000 0.000000 3.915860 
# 
# 
# High freq. dielectric constant tensor:
#      x y z
#    x 1.807800 0.000000 0.000000 
#    y 0.000000 1.820270 0.000000 
#    z 0.000000 0.000000 1.823360 
# 
# From -- ./inp_files/26192.got.cif
#   From: 2010.03.12/outbox.cif.g09.slc.cpg/sg62_14_cif.got.tgz:26192.got - 2010.04.10 19:12:36.
