data_PCOD8252392
_publ_section_title
;
Structure prediction by ZEFSAII (Michael W. Deem and Ramdas Pophale) SiO2 
 PCOD8252392
Probable space group: P N M A
;
_chemical_formula_sum "Si O2"
_cell_formula_units_Z 40
_cell_length_a 20.895911
_cell_length_b 8.451237
_cell_length_c 12.491409
_cell_angle_alpha 90.000000
_cell_angle_beta 90.000000
_cell_angle_gamma 90.000000
_cell_volume 2205.936564
_symmetry_space_group_name_H-M "P N M A"
_symmetry_group_IT_number 62
_symmetry_cell_setting 'orthorhombic'
loop_
_space_group_symop_operation_xyz
x,y,z
1/2-x,-y,1/2+z
1/2+x,1/2-y,1/2-z
-x,1/2+y,-z
-x,-y,-z
1/2+x,y,1/2-z
1/2-x,1/2+y,1/2+z
x,1/2-y,z
loop_
_atom_site_type_symbol
_atom_site_label
_atom_site_fract_x
_atom_site_fract_y
_atom_site_fract_z
Si Si1 0.832188 0.066459 0.673501
Si Si2 0.802386 0.434725 0.117405
Si Si3 0.328551 0.932692 0.163596
Si Si4 0.195482 0.065944 0.107176
Si Si5 0.070263 0.434149 0.486921
O O1 0.815327 0.250000 0.660186
O O2 0.773643 0.965277 0.625654
O O3 0.841851 0.025154 0.798419
O O4 0.896678 0.024726 0.611166
O O5 0.815719 0.250000 0.125149
O O6 0.840501 0.522162 0.212750
O O7 0.829736 0.500594 0.005911
O O8 0.307718 0.750000 0.154438
O O9 0.392514 0.967971 0.097439
O O10 0.271568 0.038587 0.116243
O O11 0.180294 0.250000 0.116322
O O12 0.068640 0.250000 0.459249
O O13 0.000000 0.500000 0.500000
#
# Coordination Sequence:
#
# PCOD8252392 Si02
#       5
#     8   8   8   8   8
#     4  11  21  34  53  78 109 142 181 223 272 323
#     4  11  20  32  52  79 111 142 176 221 273 325
#     4  10  20  34  52  77 108 141 180 222 268 321
#     4  11  20  32  53  79 110 143 176 220 274 325
#     4  11  23  38  57  79 110 146 186 226 266 320
#
# _framework density 18.132887
#
# number of rings (size 3 to 8) (size 9 to 14) (size 15 to 20)
#    0.000    1.200    2.000    9.000    0.000    2.400 
#    0.000    0.000    0.000    1.200    0.000    0.000 
#    0.000    0.000    0.000    0.000    0.000    0.000 
#
# Total GULP energy -496185.281709 kJ/mol
# GULP energy per Si atom -12404.632043 kJ/mol
# Density = 1.809162 g / cm^3
# Si number density = 18.132887 Si / 1000 Ang^3
#
#
#
# Elastic Constant Matrix: (Units=GPa)
#
#
# Indices 1 2 3 4 5 6 
#
# 1 79.8355 19.9025 42.2423 0.0000 0.0000 0.0000
# 2 19.9025 91.2389 28.0721 0.0000 0.0000 0.0000
# 3 42.2423 28.0721 144.2718 0.0000 0.0000 0.0000
# 4 0.0000 0.0000 0.0000 34.6275 0.0000 0.0000
# 5 0.0000 0.0000 0.0000 0.0000 24.7239 0.0000
# 6 0.0000 0.0000 0.0000 0.0000 0.0000 22.4802
#
#
#
# Elastic Compliance Matrix: (Units=1/GPa)
#
#
# Indices 1 2 3 4 5 6 
#
# 1 0.015180 -0.002068 -0.004042 0.000000 0.000000 0.000000
# 2 -0.002068 0.011940 -0.001718 0.000000 0.000000 0.000000
# 3 -0.004042 -0.001718 0.008449 0.000000 0.000000 0.000000
# 4 0.000000 0.000000 0.000000 0.028879 0.000000 0.000000
# 5 0.000000 0.000000 0.000000 0.000000 0.040447 0.000000
# 6 0.000000 0.000000 0.000000 0.000000 0.000000 0.044484
#
#
# Mechanical properties :
#
#
# Convention : Reuss Voigt Hill
#
# Bulk Modulus (GPa) = 50.21718 55.08665 52.65191
# Shear Modulus (GPa) = 29.12539 31.37495 30.25017
#
# Velocity S-wave (km/s) = 4.01211 4.16417 4.08885
# Velocity P-wave (km/s) = 7.01547 7.31887 7.16878
#
# Compressibility (1/GPa) = 0.01991350
#
# Stress axis : x y z
#
# Youngs Moduli (GPa) = 65.87583 83.75359 118.35429
#
# Poissons Ratio (x) = 0.17317 0.47843
# Poissons Ratio (y) = 0.13620 0.20331
# Poissons Ratio (z) = 0.26629 0.14387
#
# Static dielectric constant tensor:
#      x y z
#    x 2.786550 0.000000 0.000000 
#    y 0.000000 3.499350 0.000000 
#    z 0.000000 0.000000 3.774330 
# 
# 
# High freq. dielectric constant tensor:
#      x y z
#    x 1.644660 0.000000 0.000000 
#    y 0.000000 1.723970 0.000000 
#    z 0.000000 0.000000 1.723220 
# 
# From -- ./inp_files/13862.got.cif
#   From: 2010.03.12/outbox.cif.g09.slc.cpg/sg62_7_cif.got.tgz:13862.got - 2010.04.10 19:12:36.
