data_PCOD8252712
_publ_section_title
;
Structure prediction by ZEFSAII (Michael W. Deem and Ramdas Pophale) SiO2 
 PCOD8252712
Probable space group: P N M A
;
_chemical_formula_sum "Si O2"
_cell_formula_units_Z 40
_cell_length_a 13.365786
_cell_length_b 9.157405
_cell_length_c 17.904695
_cell_angle_alpha 90.000000
_cell_angle_beta 90.000000
_cell_angle_gamma 90.000000
_cell_volume 2191.461537
_symmetry_space_group_name_H-M "P N M A"
_symmetry_group_IT_number 62
_symmetry_cell_setting 'orthorhombic'
loop_
_space_group_symop_operation_xyz
x,y,z
1/2-x,-y,1/2+z
1/2+x,1/2-y,1/2-z
-x,1/2+y,-z
-x,-y,-z
1/2+x,y,1/2-z
1/2-x,1/2+y,1/2+z
x,1/2-y,z
loop_
_atom_site_type_symbol
_atom_site_label
_atom_site_fract_x
_atom_site_fract_y
_atom_site_fract_z
Si Si1 0.909026 0.417174 0.672612
Si Si2 0.634596 0.418523 0.872772
Si Si3 0.406072 0.917967 0.532408
Si Si4 0.181342 0.422235 0.189244
Si Si5 0.810608 0.420241 0.517865
O O1 0.881181 0.250000 0.691990
O O2 0.874141 0.523551 0.737536
O O3 0.852856 0.467411 0.597652
O O4 0.026842 0.436121 0.664044
O O5 0.665769 0.250000 0.880062
O O6 0.711505 0.500311 0.818277
O O7 0.631929 0.488213 0.954990
O O8 0.433298 0.750000 0.526934
O O9 0.386654 0.963999 0.618017
O O10 0.307619 0.954941 0.483860
O O11 0.500000 0.000000 0.500000
O O12 0.199962 0.250000 0.193419
O O13 0.830594 0.250000 0.501009
#
# Coordination Sequence:
#
# PCOD8252712 Si02
#       5
#     8   8   8   8   8
#     4  10  21  36  56  82 109 139 178 224 271 318
#     4  10  20  35  56  80 107 140 177 220 271 322
#     4   9  19  35  54  75 102 138 176 217 262 309
#     4  10  22  38  54  77 110 144 179 221 268 319
#     4   9  19  36  55  78 108 139 176 220 266 320
#
# _framework density 18.252659000000001
#
# number of rings (size 3 to 8) (size 9 to 14) (size 15 to 20)
#    0.000    2.400    0.000    3.000    0.000    8.000 
#    0.000    6.000    0.000    0.000    0.000    0.000 
#    0.000    0.000    0.000    0.000    0.000    0.000 
#
# Total GULP energy -496107.211056 kJ/mol
# GULP energy per Si atom -12402.680276 kJ/mol
# Density = 1.821111 g / cm^3
# Si number density = 18.252659 Si / 1000 Ang^3
#
#
#
# Elastic Constant Matrix: (Units=GPa)
#
#
# Indices 1 2 3 4 5 6 
#
# 1 95.7879 55.4860 66.8266 0.0000 0.0000 0.0000
# 2 55.4860 89.8223 63.7136 0.0000 0.0000 0.0000
# 3 66.8266 63.7136 116.7131 0.0000 0.0000 0.0000
# 4 0.0000 0.0000 0.0000 36.8061 0.0000 0.0000
# 5 0.0000 0.0000 0.0000 0.0000 26.2047 0.0000
# 6 0.0000 0.0000 0.0000 0.0000 0.0000 29.7456
#
#
#
# Elastic Compliance Matrix: (Units=1/GPa)
#
#
# Indices 1 2 3 4 5 6 
#
# 1 0.019622 -0.006775 -0.007536 0.000000 0.000000 0.000000
# 2 -0.006775 0.020508 -0.007316 0.000000 0.000000 0.000000
# 3 -0.007536 -0.007316 0.016877 0.000000 0.000000 0.000000
# 4 0.000000 0.000000 0.000000 0.027169 0.000000 0.000000
# 5 0.000000 0.000000 0.000000 0.000000 0.038161 0.000000
# 6 0.000000 0.000000 0.000000 0.000000 0.000000 0.033618
#
#
# Mechanical properties :
#
#
# Convention : Reuss Voigt Hill
#
# Bulk Modulus (GPa) = 72.71882 74.93061 73.82471
# Shear Modulus (GPa) = 24.53444 26.30440 25.41942
#
# Velocity S-wave (km/s) = 3.67025 3.80034 3.73586
# Velocity P-wave (km/s) = 7.60839 7.77160 7.69043
#
# Compressibility (1/GPa) = 0.01375160
#
# Stress axis : x y z
#
# Youngs Moduli (GPa) = 50.96241 48.76198 59.25282
#
# Poissons Ratio (x) = 0.33039 0.44656
# Poissons Ratio (y) = 0.34529 0.43348
# Poissons Ratio (z) = 0.38408 0.35673
#
# Static dielectric constant tensor:
#      x y z
#    x 3.395050 0.000000 0.000000 
#    y 0.000000 3.421910 0.000000 
#    z 0.000000 0.000000 3.491300 
# 
# 
# High freq. dielectric constant tensor:
#      x y z
#    x 1.713250 0.000000 0.000000 
#    y 0.000000 1.712620 0.000000 
#    z 0.000000 0.000000 1.706210 
# 
# From -- ./inp_files/18613.got.cif
#   From: 2010.03.12/outbox.cif.g09.slc.cpg/sg62_10_cif.got.tgz:18613.got - 2010.04.10 19:12:36.
