data_PCOD8252162
_publ_section_title
;
Structure prediction by ZEFSAII (Michael W. Deem and Ramdas Pophale) SiO2 
 PCOD8252162
Probable space group: P N M A
;
_chemical_formula_sum "Si O2"
_cell_formula_units_Z 40
_cell_length_a 14.032620
_cell_length_b 14.495286
_cell_length_c 9.131284
_cell_angle_alpha 90.000000
_cell_angle_beta 90.000000
_cell_angle_gamma 90.000000
_cell_volume 1857.365626
_symmetry_space_group_name_H-M "P N M A"
_symmetry_group_IT_number 62
_symmetry_cell_setting 'orthorhombic'
loop_
_space_group_symop_operation_xyz
x,y,z
1/2-x,-y,1/2+z
1/2+x,1/2-y,1/2-z
-x,1/2+y,-z
-x,-y,-z
1/2+x,y,1/2-z
1/2-x,1/2+y,1/2+z
x,1/2-y,z
loop_
_atom_site_type_symbol
_atom_site_label
_atom_site_fract_x
_atom_site_fract_y
_atom_site_fract_z
Si Si1 0.568128 0.750000 0.532051
Si Si2 0.060427 0.075605 0.079144
Si Si3 0.154608 0.750000 0.684564
Si Si4 0.412930 0.552284 0.922930
Si Si5 0.970419 0.750000 0.510234
Si Si6 0.231213 0.899645 0.479503
Si Si7 0.137944 0.750000 0.291061
O O1 0.500348 0.834071 0.563233
O O2 0.659348 0.750000 0.640769
O O3 0.621471 0.750000 0.379229
O O4 0.078840 0.048981 0.247528
O O5 0.156514 0.086501 0.985048
O O6 0.000000 0.000000 0.000000
O O7 0.202781 0.842967 0.625053
O O8 0.042519 0.750000 0.646442
O O9 0.406062 0.657851 0.980410
O O10 0.317413 0.500020 0.973858
O O11 0.500000 0.500000 0.000000
O O12 0.033123 0.750000 0.363041
O O13 0.197656 0.840490 0.338385
#
# Coordination Sequence:
#
# PCOD8252162 Si02
#       7
#     4   8   4   8   4   8   4
#     4  12  22  45  70 103 134 178 235 288 361 406
#     4  12  27  44  70 101 141 188 228 289 348 413
#     4  10  19  41  76  95 130 179 224 294 345 408
#     4  12  21  43  73  99 138 182 232 289 351 418
#     4  10  20  39  70  99 122 188 216 279 354 401
#     4  10  23  44  67 100 143 180 231 282 347 422
#     4  10  21  41  74  99 134 179 219 291 352 401
#
# _framework density 21.535878
#
# number of rings (size 3 to 8) (size 9 to 14) (size 15 to 20)
#    0.000    1.200    6.000    2.400    0.000    3.200 
#    0.000    3.000    4.400    0.000    0.000    0.000 
#    0.000    0.000    0.000    0.000    0.000    0.000 
#
# Total GULP energy -495941.664799 kJ/mol
# GULP energy per Si atom -12398.541620 kJ/mol
# Density = 2.148686 g / cm^3
# Si number density = 21.535878 Si / 1000 Ang^3
#
#
#
# Elastic Constant Matrix: (Units=GPa)
#
#
# Indices 1 2 3 4 5 6 
#
# 1 118.4592 66.1227 59.7309 0.0000 0.0000 0.0000
# 2 66.1227 182.3902 47.7477 0.0000 0.0000 0.0000
# 3 59.7309 47.7477 160.2499 0.0000 0.0000 0.0000
# 4 0.0000 0.0000 0.0000 21.8992 0.0000 0.0000
# 5 0.0000 0.0000 0.0000 0.0000 12.3114 0.0000
# 6 0.0000 0.0000 0.0000 0.0000 0.0000 52.2888
#
#
#
# Elastic Compliance Matrix: (Units=1/GPa)
#
#
# Indices 1 2 3 4 5 6 
#
# 1 0.012149 -0.003491 -0.003488 0.000000 0.000000 0.000000
# 2 -0.003491 0.006950 -0.000769 0.000000 0.000000 0.000000
# 3 -0.003488 -0.000769 0.007770 0.000000 0.000000 0.000000
# 4 0.000000 0.000000 0.000000 0.045664 0.000000 0.000000
# 5 0.000000 0.000000 0.000000 0.000000 0.081226 0.000000
# 6 0.000000 0.000000 0.000000 0.000000 0.000000 0.019125
#
#
# Mechanical properties :
#
#
# Convention : Reuss Voigt Hill
#
# Bulk Modulus (GPa) = 87.94336 89.81133 88.87734
# Shear Modulus (GPa) = 26.01842 36.46641 31.24242
#
# Velocity S-wave (km/s) = 3.47961 4.11942 3.81296
# Velocity P-wave (km/s) = 7.55433 8.02620 7.79384
#
# Compressibility (1/GPa) = 0.01137096
#
# Stress axis : x y z
#
# Youngs Moduli (GPa) = 82.30802 143.88632 128.70502
#
# Poissons Ratio (x) = 0.50237 0.44896
# Poissons Ratio (y) = 0.28737 0.09903
# Poissons Ratio (z) = 0.28711 0.11071
#
# Static dielectric constant tensor:
#      x y z
#    x 3.795470 0.000000 0.000000 
#    y 0.000000 4.194070 0.000000 
#    z 0.000000 0.000000 4.150720 
# 
# 
# High freq. dielectric constant tensor:
#      x y z
#    x 1.836490 0.000000 0.000000 
#    y 0.000000 1.864840 0.000000 
#    z 0.000000 0.000000 1.845570 
# 
# From -- ./inp_files/6150.got.cif
#   From: 2010.03.12/outbox.cif.g09.slc.cpg/sg62_4_cif.got.tgz:6150.got - 2010.04.10 19:12:36.
