data_PCOD8252075
_publ_section_title
;
Structure prediction by ZEFSAII (Michael W. Deem and Ramdas Pophale) SiO2 
 PCOD8252075
Probable space group: P N M A
;
_chemical_formula_sum "Si O2"
_cell_formula_units_Z 64
_cell_length_a 13.402939
_cell_length_b 22.032788
_cell_length_c 11.520120
_cell_angle_alpha 90.000000
_cell_angle_beta 90.000000
_cell_angle_gamma 90.000000
_cell_volume 3401.938825
_symmetry_space_group_name_H-M "P N M A"
_symmetry_group_IT_number 62
_symmetry_cell_setting 'orthorhombic'
loop_
_space_group_symop_operation_xyz
x,y,z
1/2-x,-y,1/2+z
1/2+x,1/2-y,1/2-z
-x,1/2+y,-z
-x,-y,-z
1/2+x,y,1/2-z
1/2-x,1/2+y,1/2+z
x,1/2-y,z
loop_
_atom_site_type_symbol
_atom_site_label
_atom_site_fract_x
_atom_site_fract_y
_atom_site_fract_z
Si Si1 0.417381 0.956930 0.732121
Si Si2 0.186629 0.002583 0.018731
Si Si3 0.817716 0.319774 0.700372
Si Si4 0.129849 0.388990 0.873889
Si Si5 0.785138 0.319214 0.971536
Si Si6 0.865634 0.916543 0.524155
Si Si7 0.955405 0.101329 0.046153
Si Si8 0.987279 0.084858 0.670275
O O1 0.381079 0.916486 0.838448
O O2 0.510316 0.921410 0.673082
O O3 0.326688 0.961028 0.639369
O O4 0.443297 0.023546 0.777913
O O5 0.291972 0.969873 0.016921
O O6 0.093141 0.956354 0.018776
O O7 0.181680 0.047234 0.908049
O O8 0.841613 0.250000 0.668597
O O9 0.714151 0.337393 0.637149
O O10 0.904758 0.363206 0.655048
O O11 0.814101 0.328726 0.838161
O O12 0.078339 0.392630 0.749159
O O13 0.048136 0.372570 0.971903
O O14 0.771446 0.250000 0.006057
O O15 0.680075 0.351280 0.994523
O O16 0.871635 0.346664 0.054633
O O17 0.969807 0.926776 0.458399
#
# Coordination Sequence:
#
# PCOD8252075 Si02
#       8
#     8   8   8   8   8   8   8   8
#     4  11  21  36  56  86 121 151 189 229 296 347
#     4  10  20  36  59  88 117 149 186 237 280 352
#     4  11  24  38  57  86 120 152 196 245 290 342
#     4  11  19  35  60  84 115 148 187 236 296 333
#     4  10  21  38  58  84 111 150 202 240 277 343
#     4  11  24  34  58  88 119 154 182 234 297 348
#     4  10  19  37  61  85 112 150 195 241 282 344
#     4  12  21  37  57  87 122 149 187 238 293 350
#
# _framework density 18.812801
#
# number of rings (size 3 to 8) (size 9 to 14) (size 15 to 20)
#    0.000    1.250    5.000    2.625    1.750    1.500 
#    0.000    3.125    0.000    3.750    0.000    0.000 
#    0.000    0.000    0.000    0.000    0.000    0.000 
#
# Total GULP energy -793685.035794 kJ/mol
# GULP energy per Si atom -12401.328684 kJ/mol
# Density = 1.876998 g / cm^3
# Si number density = 18.812801 Si / 1000 Ang^3
#
#
#
# Elastic Constant Matrix: (Units=GPa)
#
#
# Indices 1 2 3 4 5 6 
#
# 1 76.5757 35.7622 31.3525 0.0000 0.0000 0.0000
# 2 35.7622 76.7289 14.9236 0.0000 0.0000 0.0000
# 3 31.3525 14.9236 84.1863 0.0000 0.0000 0.0000
# 4 0.0000 0.0000 0.0000 21.3585 0.0000 0.0000
# 5 0.0000 0.0000 0.0000 0.0000 30.5340 0.0000
# 6 0.0000 0.0000 0.0000 0.0000 0.0000 21.1748
#
#
#
# Elastic Compliance Matrix: (Units=1/GPa)
#
#
# Indices 1 2 3 4 5 6 
#
# 1 0.019017 -0.007753 -0.005708 0.000000 0.000000 0.000000
# 2 -0.007753 0.016659 -0.000066 0.000000 0.000000 0.000000
# 3 -0.005708 -0.000066 0.014016 0.000000 0.000000 0.000000
# 4 0.000000 0.000000 0.000000 0.046820 0.000000 0.000000
# 5 0.000000 0.000000 0.000000 0.000000 0.032750 0.000000
# 6 0.000000 0.000000 0.000000 0.000000 0.000000 0.047226
#
#
# Mechanical properties :
#
#
# Convention : Reuss Voigt Hill
#
# Bulk Modulus (GPa) = 44.17286 44.61861 44.39574
# Shear Modulus (GPa) = 23.68680 24.97695 24.33187
#
# Velocity S-wave (km/s) = 3.55220 3.64766 3.60024
# Velocity P-wave (km/s) = 6.35259 6.44276 6.39783
#
# Compressibility (1/GPa) = 0.02263833
#
# Stress axis : x y z
#
# Youngs Moduli (GPa) = 52.58489 60.02617 71.34830
#
# Poissons Ratio (x) = 0.46540 0.40724
# Poissons Ratio (y) = 0.40771 0.00469
# Poissons Ratio (z) = 0.30014 0.00394
#
# Static dielectric constant tensor:
#      x y z
#    x 3.480050 0.000000 0.000000 
#    y 0.000000 3.384320 0.000000 
#    z 0.000000 0.000000 3.458700 
# 
# 
# High freq. dielectric constant tensor:
#      x y z
#    x 1.735380 0.000000 0.000000 
#    y 0.000000 1.715310 0.000000 
#    z 0.000000 0.000000 1.719990 
# 
# From -- ./inp_files/12565.got.cif
#   From: 2010.03.12/outbox.cif.g09.slc.cpg/sg62_7_cif.got.tgz:12565.got - 2010.04.10 19:12:36.
