data_PCOD8252474
_publ_section_title
;
Structure prediction by ZEFSAII (Michael W. Deem and Ramdas Pophale) SiO2 
 PCOD8252474
Probable space group: P N M A
;
_chemical_formula_sum "Si O2"
_cell_formula_units_Z 64
_cell_length_a 15.058794
_cell_length_b 9.267217
_cell_length_c 24.470711
_cell_angle_alpha 90.000000
_cell_angle_beta 90.000000
_cell_angle_gamma 90.000000
_cell_volume 3414.963867
_symmetry_space_group_name_H-M "P N M A"
_symmetry_group_IT_number 62
_symmetry_cell_setting 'orthorhombic'
loop_
_space_group_symop_operation_xyz
x,y,z
1/2-x,-y,1/2+z
1/2+x,1/2-y,1/2-z
-x,1/2+y,-z
-x,-y,-z
1/2+x,y,1/2-z
1/2-x,1/2+y,1/2+z
x,1/2-y,z
loop_
_atom_site_type_symbol
_atom_site_label
_atom_site_fract_x
_atom_site_fract_y
_atom_site_fract_z
Si Si1 0.991055 0.582902 0.101939
Si Si2 0.671672 0.915433 0.557449
Si Si3 0.182218 0.080780 0.357651
Si Si4 0.711463 0.413562 0.264373
Si Si5 0.496120 0.078870 0.839875
Si Si6 0.541160 0.916522 0.281350
Si Si7 0.831238 0.082127 0.361998
Si Si8 0.811744 0.416241 0.931636
O O1 0.976672 0.750000 0.088937
O O2 0.978110 0.549446 0.166816
O O3 0.088955 0.534407 0.083430
O O4 0.919748 0.497808 0.066922
O O5 0.652271 0.750000 0.571522
O O6 0.749350 0.974394 0.596698
O O7 0.703955 0.936351 0.495911
O O8 0.159261 0.250000 0.364166
O O9 0.227284 0.046447 0.298982
O O10 0.093180 0.987897 0.364986
O O11 0.678657 0.250000 0.269324
O O12 0.634514 0.507051 0.291361
O O13 0.800812 0.439057 0.298980
O O14 0.497143 0.250000 0.849490
O O15 0.503805 0.036488 0.775609
O O16 0.578458 0.006548 0.870917
O O17 0.565858 0.750000 0.279430
O O18 0.847396 0.250000 0.375549
O O19 0.757296 0.020662 0.402357
O O20 0.795896 0.250000 0.913840
#
# Coordination Sequence:
#
# PCOD8252474 Si02
#       8
#     8   8   8   8   8   8   8   8
#     4  10  20  34  54  81 115 150 182 224 274 327
#     4  10  22  37  58  83 109 148 191 231 280 332
#     4   9  19  38  57  79 112 144 182 233 279 326
#     4   9  18  32  52  78 108 142 177 220 274 326
#     4  10  21  36  56  82 113 148 185 227 278 336
#     4   9  18  33  52  79 112 146 180 217 268 326
#     4  11  22  35  56  85 112 146 188 231 282 333
#     4  10  21  39  58  80 113 150 189 233 277 327
#
# _framework density 18.741046000000001
#
# number of rings (size 3 to 8) (size 9 to 14) (size 15 to 20)
#    0.000    2.250    1.250    1.125    1.750    3.000 
#    0.000    0.625    0.000    0.000    0.000    0.000 
#    0.000    0.000    0.000    0.000    0.000    0.000 
#
# Total GULP energy -793648.483702 kJ/mol
# GULP energy per Si atom -12400.757558 kJ/mol
# Density = 1.869839 g / cm^3
# Si number density = 18.741046 Si / 1000 Ang^3
#
#
#
# Elastic Constant Matrix: (Units=GPa)
#
#
# Indices 1 2 3 4 5 6 
#
# 1 113.0296 54.3991 50.3725 0.0000 0.0000 0.0000
# 2 54.3991 69.8148 32.8899 0.0000 0.0000 0.0000
# 3 50.3725 32.8899 78.4498 0.0000 0.0000 0.0000
# 4 0.0000 0.0000 0.0000 24.2518 0.0000 0.0000
# 5 0.0000 0.0000 0.0000 0.0000 24.0986 0.0000
# 6 0.0000 0.0000 0.0000 0.0000 0.0000 33.3420
#
#
#
# Elastic Compliance Matrix: (Units=1/GPa)
#
#
# Indices 1 2 3 4 5 6 
#
# 1 0.016416 -0.009751 -0.006452 0.000000 0.000000 0.000000
# 2 -0.009751 0.023642 -0.003650 0.000000 0.000000 0.000000
# 3 -0.006452 -0.003650 0.018420 0.000000 0.000000 0.000000
# 4 0.000000 0.000000 0.000000 0.041234 0.000000 0.000000
# 5 0.000000 0.000000 0.000000 0.000000 0.041496 0.000000
# 6 0.000000 0.000000 0.000000 0.000000 0.000000 0.029992
#
#
# Mechanical properties :
#
#
# Convention : Reuss Voigt Hill
#
# Bulk Modulus (GPa) = 53.27732 59.62413 56.45073
# Shear Modulus (GPa) = 23.02392 24.58064 23.80228
#
# Velocity S-wave (km/s) = 3.50884 3.62552 3.56766
# Velocity P-wave (km/s) = 6.70118 7.02920 6.86715
#
# Compressibility (1/GPa) = 0.01876971
#
# Stress axis : x y z
#
# Youngs Moduli (GPa) = 60.91612 42.29845 54.28750
#
# Poissons Ratio (x) = 0.41247 0.35029
# Poissons Ratio (y) = 0.59402 0.19816
# Poissons Ratio (z) = 0.39306 0.15440
#
# Static dielectric constant tensor:
#      x y z
#    x 3.252890 0.000000 0.000000 
#    y 0.000000 3.411110 0.000000 
#    z 0.000000 0.000000 3.530570 
# 
# 
# High freq. dielectric constant tensor:
#      x y z
#    x 1.717330 0.000000 0.000000 
#    y 0.000000 1.727250 0.000000 
#    z 0.000000 0.000000 1.725630 
# 
# From -- ./inp_files/29729.got.cif
#   From: 2010.03.12/outbox.cif.g09.slc.cpg/sg62_15_cif.got.tgz:29729.got - 2010.04.10 19:12:36.
