data_PCOD8252894
_publ_section_title
;
Structure prediction by ZEFSAII (Michael W. Deem and Ramdas Pophale) SiO2 
 PCOD8252894
Probable space group: P N M A
;
_chemical_formula_sum "Si O2"
_cell_formula_units_Z 56
_cell_length_a 12.178308
_cell_length_b 14.640088
_cell_length_c 15.212992
_cell_angle_alpha 90.000000
_cell_angle_beta 90.000000
_cell_angle_gamma 90.000000
_cell_volume 2712.347176
_symmetry_space_group_name_H-M "P N M A"
_symmetry_group_IT_number 62
_symmetry_cell_setting 'orthorhombic'
loop_
_space_group_symop_operation_xyz
x,y,z
1/2-x,-y,1/2+z
1/2+x,1/2-y,1/2-z
-x,1/2+y,-z
-x,-y,-z
1/2+x,y,1/2-z
1/2-x,1/2+y,1/2+z
x,1/2-y,z
loop_
_atom_site_type_symbol
_atom_site_label
_atom_site_fract_x
_atom_site_fract_y
_atom_site_fract_z
Si Si1 0.028106 0.142391 0.396276
Si Si2 0.605559 0.501113 0.438562
Si Si3 0.422901 0.492228 0.761903
Si Si4 0.282093 0.647497 0.032107
Si Si5 0.907952 0.848211 0.295209
Si Si6 0.230312 0.649182 0.330906
Si Si7 0.287193 0.145474 0.035694
O O1 0.031808 0.250000 0.376865
O O2 0.113560 0.115476 0.473465
O O3 0.904198 0.112833 0.423971
O O4 0.066533 0.091665 0.306724
O O5 0.500000 0.500000 0.500000
O O6 0.555588 0.509036 0.341449
O O7 0.676901 0.583449 0.479210
O O8 0.683784 0.412416 0.430835
O O9 0.508697 0.428495 0.812817
O O10 0.309554 0.439917 0.778071
O O11 0.247879 0.750000 0.004304
O O12 0.310656 0.642221 0.134558
O O13 0.967391 0.750000 0.310416
O O14 0.858669 0.850529 0.196247
O O15 0.181906 0.750000 0.303988
O O16 0.208468 0.632347 0.432079
O O17 0.264783 0.250000 0.062321
#
# Coordination Sequence:
#
# PCOD8252894 Si02
#       7
#     8   8   8   8   8   8   8
#     4  10  23  42  67  93 117 161 223 275 312 355
#     4  12  26  41  60  92 133 174 208 242 309 390
#     4  12  23  36  61  88 127 159 204 256 309 369
#     4  10  21  42  67  93 126 161 205 265 320 369
#     4  10  20  35  59  92 123 155 199 253 318 376
#     4  10  20  36  60  91 120 152 197 251 315 373
#     4  10  22  43  66  89 123 165 213 264 314 368
#
# _framework density 20.646324
#
# number of rings (size 3 to 8) (size 9 to 14) (size 15 to 20)
#    0.000    1.429    1.429    3.857    0.000    5.714 
#    0.000    0.000    0.000    0.000    0.000    0.000 
#    0.000    0.000    0.000    0.000    0.000    0.000 
#
# Total GULP energy -693914.967870 kJ/mol
# GULP energy per Si atom -12391.338712 kJ/mol
# Density = 2.059933 g / cm^3
# Si number density = 20.646324 Si / 1000 Ang^3
#
#
#
# Elastic Constant Matrix: (Units=GPa)
#
#
# Indices 1 2 3 4 5 6 
#
# 1 102.8646 47.8420 23.7495 0.0000 0.0000 0.0000
# 2 47.8420 102.2319 33.4436 0.0000 0.0000 0.0000
# 3 23.7495 33.4436 73.4528 0.0000 0.0000 0.0000
# 4 0.0000 0.0000 0.0000 29.9484 0.0000 0.0000
# 5 0.0000 0.0000 0.0000 0.0000 27.9581 0.0000
# 6 0.0000 0.0000 0.0000 0.0000 0.0000 33.4184
#
#
#
# Elastic Compliance Matrix: (Units=1/GPa)
#
#
# Indices 1 2 3 4 5 6 
#
# 1 0.012590 -0.005358 -0.001631 0.000000 0.000000 0.000000
# 2 -0.005358 0.013774 -0.004539 0.000000 0.000000 0.000000
# 3 -0.001631 -0.004539 0.016208 0.000000 0.000000 0.000000
# 4 0.000000 0.000000 0.000000 0.033391 0.000000 0.000000
# 5 0.000000 0.000000 0.000000 0.000000 0.035768 0.000000
# 6 0.000000 0.000000 0.000000 0.000000 0.000000 0.029924
#
#
# Mechanical properties :
#
#
# Convention : Reuss Voigt Hill
#
# Bulk Modulus (GPa) = 51.24064 54.29105 52.76585
# Shear Modulus (GPa) = 29.20276 29.83261 29.51769
#
# Velocity S-wave (km/s) = 3.76497 3.80535 3.78522
# Velocity P-wave (km/s) = 6.61605 6.75725 6.68703
#
# Compressibility (1/GPa) = 0.01951576
#
# Stress axis : x y z
#
# Youngs Moduli (GPa) = 79.42646 72.60007 61.69727
#
# Poissons Ratio (x) = 0.38902 0.10064
# Poissons Ratio (y) = 0.42559 0.28004
# Poissons Ratio (z) = 0.12955 0.32953
#
# Static dielectric constant tensor:
#      x y z
#    x 3.644830 0.000000 0.000000 
#    y 0.000000 3.929410 0.000000 
#    z 0.000000 0.000000 3.590500 
# 
# 
# High freq. dielectric constant tensor:
#      x y z
#    x 1.803440 0.000000 0.000000 
#    y 0.000000 1.817900 0.000000 
#    z 0.000000 0.000000 1.798640 
# 
# From -- ./inp_files/18115.got.cif
#   From: 2010.03.12/outbox.cif.g09.slc.cpg/sg62_10_cif.got.tgz:18115.got - 2010.04.10 19:12:36.
