data_PCOD8252421
_publ_section_title
;
Structure prediction by ZEFSAII (Michael W. Deem and Ramdas Pophale) SiO2 
 PCOD8252421
Probable space group: P N M A
;
_chemical_formula_sum "Si O2"
_cell_formula_units_Z 40
_cell_length_a 17.645340
_cell_length_b 9.036080
_cell_length_c 13.655421
_cell_angle_alpha 90.000000
_cell_angle_beta 90.000000
_cell_angle_gamma 90.000000
_cell_volume 2177.284558
_symmetry_space_group_name_H-M "P N M A"
_symmetry_group_IT_number 62
_symmetry_cell_setting 'orthorhombic'
loop_
_space_group_symop_operation_xyz
x,y,z
1/2-x,-y,1/2+z
1/2+x,1/2-y,1/2-z
-x,1/2+y,-z
-x,-y,-z
1/2+x,y,1/2-z
1/2-x,1/2+y,1/2+z
x,1/2-y,z
loop_
_atom_site_type_symbol
_atom_site_label
_atom_site_fract_x
_atom_site_fract_y
_atom_site_fract_z
Si Si1 0.032772 0.424258 0.712256
Si Si2 0.521751 0.075147 0.399428
Si Si3 0.870187 0.422364 0.631553
Si Si4 0.839537 0.076027 0.412357
Si Si5 0.182383 0.078781 0.185094
O O1 0.039860 0.250000 0.731083
O O2 0.104079 0.481387 0.652751
O O3 0.032123 0.508106 0.815775
O O4 0.957478 0.464659 0.651175
O O5 0.508919 0.250000 0.405724
O O6 0.608655 0.032463 0.376823
O O7 0.500000 0.000000 0.500000
O O8 0.856030 0.250000 0.641445
O O9 0.847931 0.478170 0.523915
O O10 0.815099 0.497047 0.710694
O O11 0.858073 0.250000 0.401637
O O12 0.754961 0.036366 0.378954
O O13 0.180332 0.250000 0.210683
#
# Coordination Sequence:
#
# PCOD8252421 Si02
#       5
#     8   8   8   8   8
#     4  10  20  34  53  79 105 136 179 219 258 314
#     4  10  20  36  56  78 107 143 179 219 263 314
#     4   9  19  35  54  75 105 140 173 212 261 312
#     4  10  20  35  54  78 106 137 172 216 267 313
#     4   9  20  36  53  76 107 138 172 214 263 313
#
# _framework density 18.371507000000001
#
# number of rings (size 3 to 8) (size 9 to 14) (size 15 to 20)
#    0.000    2.400    0.000    1.800    0.000    4.800 
#    0.000    2.000    0.000    0.000    0.000    0.000 
#    0.000    0.000    0.000    0.000    0.000    0.000 
#
# Total GULP energy -496136.868786 kJ/mol
# GULP energy per Si atom -12403.421720 kJ/mol
# Density = 1.832969 g / cm^3
# Si number density = 18.371507 Si / 1000 Ang^3
#
#
#
# Elastic Constant Matrix: (Units=GPa)
#
#
# Indices 1 2 3 4 5 6 
#
# 1 87.9301 43.4978 77.5869 0.0000 0.0000 0.0000
# 2 43.4978 68.6760 67.7728 0.0000 0.0000 0.0000
# 3 77.5869 67.7728 186.2569 0.0000 0.0000 0.0000
# 4 0.0000 0.0000 0.0000 37.0609 0.0000 0.0000
# 5 0.0000 0.0000 0.0000 0.0000 28.9555 0.0000
# 6 0.0000 0.0000 0.0000 0.0000 0.0000 26.8077
#
#
#
# Elastic Compliance Matrix: (Units=1/GPa)
#
#
# Indices 1 2 3 4 5 6 
#
# 1 0.019875 -0.006893 -0.005771 0.000000 0.000000 0.000000
# 2 -0.006893 0.025110 -0.006265 0.000000 0.000000 0.000000
# 3 -0.005771 -0.006265 0.010052 0.000000 0.000000 0.000000
# 4 0.000000 0.000000 0.000000 0.026983 0.000000 0.000000
# 5 0.000000 0.000000 0.000000 0.000000 0.034536 0.000000
# 6 0.000000 0.000000 0.000000 0.000000 0.000000 0.037303
#
#
# Mechanical properties :
#
#
# Convention : Reuss Voigt Hill
#
# Bulk Modulus (GPa) = 58.21192 80.06420 69.13806
# Shear Modulus (GPa) = 25.32380 28.83187 27.07783
#
# Velocity S-wave (km/s) = 3.71675 3.96584 3.84331
# Velocity P-wave (km/s) = 7.08334 8.04026 7.57692
#
# Compressibility (1/GPa) = 0.01717861
#
# Stress axis : x y z
#
# Youngs Moduli (GPa) = 50.31559 39.82473 99.47809
#
# Poissons Ratio (x) = 0.27452 0.57405
# Poissons Ratio (y) = 0.34684 0.62326
# Poissons Ratio (z) = 0.29035 0.24951
#
# Static dielectric constant tensor:
#      x y z
#    x 3.437730 0.000000 0.000000 
#    y 0.000000 3.383670 0.000000 
#    z 0.000000 0.000000 3.638010 
# 
# 
# High freq. dielectric constant tensor:
#      x y z
#    x 1.708220 0.000000 0.000000 
#    y 0.000000 1.714200 0.000000 
#    z 0.000000 0.000000 1.722260 
# 
# From -- ./inp_files/13833.got.cif
#   From: 2010.03.12/outbox.cif.g09.slc.cpg/sg62_7_cif.got.tgz:13833.got - 2010.04.10 19:12:36.
