data_PCOD8252964
_publ_section_title
;
Structure prediction by ZEFSAII (Michael W. Deem and Ramdas Pophale) SiO2 
 PCOD8252964
Probable space group: P N M A
;
_chemical_formula_sum "Si O2"
_cell_formula_units_Z 40
_cell_length_a 7.814815
_cell_length_b 8.419469
_cell_length_c 29.668850
_cell_angle_alpha 90.000000
_cell_angle_beta 90.000000
_cell_angle_gamma 90.000000
_cell_volume 1952.109237
_symmetry_space_group_name_H-M "P N M A"
_symmetry_group_IT_number 62
_symmetry_cell_setting 'orthorhombic'
loop_
_space_group_symop_operation_xyz
x,y,z
1/2-x,-y,1/2+z
1/2+x,1/2-y,1/2-z
-x,1/2+y,-z
-x,-y,-z
1/2+x,y,1/2-z
1/2-x,1/2+y,1/2+z
x,1/2-y,z
loop_
_atom_site_type_symbol
_atom_site_label
_atom_site_fract_x
_atom_site_fract_y
_atom_site_fract_z
Si Si1 0.304881 0.438576 0.613101
Si Si2 0.806430 0.562177 0.110959
Si Si3 0.658652 0.069024 0.295865
Si Si4 0.807230 0.570365 0.210094
Si Si5 0.000806 0.561994 0.449836
O O1 0.298785 0.250000 0.619053
O O2 0.499044 0.500326 0.601904
O O3 0.235845 0.521554 0.659201
O O4 0.174668 0.494740 0.574105
O O5 0.812982 0.750000 0.107125
O O6 0.735948 0.516543 0.161074
O O7 0.669630 0.491601 0.075407
O O8 0.593829 0.250000 0.299329
O O9 0.510370 0.938380 0.294579
O O10 0.762987 0.051399 0.249734
O O11 0.751271 0.750000 0.222024
O O12 0.011006 0.750000 0.449643
O O13 0.000000 0.500000 0.500000
#
# Coordination Sequence:
#
# PCOD8252964 Si02
#       5
#     8   8   8   8   8
#     4   9  19  37  58  78 108 152 195 231 280 354
#     4   8  17  35  56  79 107 143 191 237 272 332
#     4  11  22  35  53  85 120 148 186 244 299 338
#     4  10  20  36  57  80 110 156 200 230 279 354
#     4  10  21  37  58  84 110 143 190 241 292 347
#
# _framework density 20.490658
#
# number of rings (size 3 to 8) (size 9 to 14) (size 15 to 20)
#    0.000    2.400    0.000    3.600    2.800    1.600 
#    0.000    5.000    0.000    0.000    0.000    0.000 
#    0.000    0.000    0.000    0.000    0.000    0.000 
#
# Total GULP energy -495676.472693 kJ/mol
# GULP energy per Si atom -12391.911817 kJ/mol
# Density = 2.044402 g / cm^3
# Si number density = 20.490658 Si / 1000 Ang^3
#
#
#
# Elastic Constant Matrix: (Units=GPa)
#
#
# Indices 1 2 3 4 5 6 
#
# 1 111.3595 20.2732 87.0172 0.0000 0.0000 0.0000
# 2 20.2732 38.7625 32.3183 0.0000 0.0000 0.0000
# 3 87.0172 32.3183 191.0434 0.0000 0.0000 0.0000
# 4 0.0000 0.0000 0.0000 29.9161 0.0000 0.0000
# 5 0.0000 0.0000 0.0000 0.0000 38.3857 0.0000
# 6 0.0000 0.0000 0.0000 0.0000 0.0000 15.6086
#
#
#
# Elastic Compliance Matrix: (Units=1/GPa)
#
#
# Indices 1 2 3 4 5 6 
#
# 1 0.014125 -0.002356 -0.006035 0.000000 0.000000 0.000000
# 2 -0.002356 0.030427 -0.004074 0.000000 0.000000 0.000000
# 3 -0.006035 -0.004074 0.008673 0.000000 0.000000 0.000000
# 4 0.000000 0.000000 0.000000 0.033427 0.000000 0.000000
# 5 0.000000 0.000000 0.000000 0.000000 0.026051 0.000000
# 6 0.000000 0.000000 0.000000 0.000000 0.000000 0.064067
#
#
# Mechanical properties :
#
#
# Convention : Reuss Voigt Hill
#
# Bulk Modulus (GPa) = 35.34278 68.93140 52.13709
# Shear Modulus (GPa) = 23.68197 30.21919 26.95058
#
# Velocity S-wave (km/s) = 3.40331 3.84445 3.63059
# Velocity P-wave (km/s) = 5.72093 7.30889 6.56311
#
# Compressibility (1/GPa) = 0.02829432
#
# Stress axis : x y z
#
# Youngs Moduli (GPa) = 70.79855 32.86540 115.30679
#
# Poissons Ratio (x) = 0.07742 0.69588
# Poissons Ratio (y) = 0.16677 0.46980
# Poissons Ratio (z) = 0.42727 0.13390
#
# Static dielectric constant tensor:
#      x y z
#    x 3.997410 0.000000 0.000000 
#    y 0.000000 3.274300 0.000000 
#    z 0.000000 0.000000 5.206690 
# 
# 
# High freq. dielectric constant tensor:
#      x y z
#    x 1.793860 0.000000 0.000000 
#    y 0.000000 1.771290 0.000000 
#    z 0.000000 0.000000 1.806480 
# 
# From -- ./inp_files/28564.got.cif
#   From: 2010.03.12/outbox.cif.g09.slc.cpg/sg62_15_cif.got.tgz:28564.got - 2010.04.10 19:12:36.
