data_PCOD8252433
_publ_section_title
;
Structure prediction by ZEFSAII (Michael W. Deem and Ramdas Pophale) SiO2 
 PCOD8252433
Probable space group: P N M A
;
_chemical_formula_sum "Si O2"
_cell_formula_units_Z 56
_cell_length_a 22.189640
_cell_length_b 8.964285
_cell_length_c 14.419981
_cell_angle_alpha 90.000000
_cell_angle_beta 90.000000
_cell_angle_gamma 90.000000
_cell_volume 2868.339807
_symmetry_space_group_name_H-M "P N M A"
_symmetry_group_IT_number 62
_symmetry_cell_setting 'orthorhombic'
loop_
_space_group_symop_operation_xyz
x,y,z
1/2-x,-y,1/2+z
1/2+x,1/2-y,1/2-z
-x,1/2+y,-z
-x,-y,-z
1/2+x,y,1/2-z
1/2-x,1/2+y,1/2+z
x,1/2-y,z
loop_
_atom_site_type_symbol
_atom_site_label
_atom_site_fract_x
_atom_site_fract_y
_atom_site_fract_z
Si Si1 0.646769 0.079306 0.891661
Si Si2 0.717664 0.426326 0.595482
Si Si3 0.498134 0.426072 0.400044
Si Si4 0.287181 0.423021 0.593694
Si Si5 0.381367 0.425597 0.286096
Si Si6 0.657481 0.079254 0.095670
Si Si7 0.615498 0.421706 0.291140
O O1 0.632183 0.250000 0.866742
O O2 0.717896 0.046457 0.882660
O O3 0.610147 0.973660 0.821291
O O4 0.626112 0.040255 0.997139
O O5 0.712488 0.250000 0.594647
O O6 0.692837 0.490551 0.498830
O O7 0.677420 0.489802 0.678138
O O8 0.786114 0.472817 0.613924
O O9 0.500000 0.500000 0.500000
O O10 0.499136 0.250000 0.413350
O O11 0.438836 0.477883 0.345347
O O12 0.554932 0.481109 0.339350
O O13 0.300289 0.250000 0.577238
O O14 0.327404 0.482295 0.677554
O O15 0.371745 0.250000 0.292410
O O16 0.681734 0.250000 0.089831
O O17 0.609857 0.059477 0.179401
O O18 0.627100 0.250000 0.317451
#
# Coordination Sequence:
#
# PCOD8252433 Si02
#       7
#     8   8   8   8   8   8   8
#     4   9  19  35  54  79 109 140 175 216 263 317
#     4  11  21  33  53  81 111 142 178 219 265 320
#     4  10  23  40  57  79 106 138 177 220 264 313
#     4  10  20  34  53  81 114 143 175 218 268 320
#     4  11  22  36  54  77 108 144 180 220 266 314
#     4   9  19  36  57  80 108 140 175 219 268 317
#     4  10  20  36  57  79 105 141 182 222 268 317
#
# _framework density 19.523489999999999
#
# number of rings (size 3 to 8) (size 9 to 14) (size 15 to 20)
#    0.000    2.000    0.000    4.714    0.000    9.714 
#    0.000    0.714    0.000    0.000    0.000    0.000 
#    0.000    0.000    0.000    0.000    0.000    0.000 
#
# Total GULP energy -694513.168748 kJ/mol
# GULP energy per Si atom -12402.020871 kJ/mol
# Density = 1.947905 g / cm^3
# Si number density = 19.523490 Si / 1000 Ang^3
#
#
#
# Elastic Constant Matrix: (Units=GPa)
#
#
# Indices 1 2 3 4 5 6 
#
# 1 58.4075 32.3342 58.2125 0.0000 0.0000 0.0000
# 2 32.3342 85.7244 53.0083 0.0000 0.0000 0.0000
# 3 58.2125 53.0083 166.0222 0.0000 0.0000 0.0000
# 4 0.0000 0.0000 0.0000 34.2310 0.0000 0.0000
# 5 0.0000 0.0000 0.0000 0.0000 33.0636 0.0000
# 6 0.0000 0.0000 0.0000 0.0000 0.0000 19.3305
#
#
#
# Elastic Compliance Matrix: (Units=1/GPa)
#
#
# Indices 1 2 3 4 5 6 
#
# 1 0.028369 -0.005669 -0.008137 0.000000 0.000000 0.000000
# 2 -0.005669 0.015668 -0.003015 0.000000 0.000000 0.000000
# 3 -0.008137 -0.003015 0.009839 0.000000 0.000000 0.000000
# 4 0.000000 0.000000 0.000000 0.029213 0.000000 0.000000
# 5 0.000000 0.000000 0.000000 0.000000 0.030245 0.000000
# 6 0.000000 0.000000 0.000000 0.000000 0.000000 0.051732
#
#
# Mechanical properties :
#
#
# Convention : Reuss Voigt Hill
#
# Bulk Modulus (GPa) = 49.42078 66.36270 57.89174
# Shear Modulus (GPa) = 24.33654 28.43163 26.38408
#
# Velocity S-wave (km/s) = 3.53445 3.82026 3.68013
# Velocity P-wave (km/s) = 6.48266 7.31602 6.91191
#
# Compressibility (1/GPa) = 0.02023441
#
# Stress axis : x y z
#
# Youngs Moduli (GPa) = 35.24925 63.82538 101.63621
#
# Poissons Ratio (x) = 0.36182 0.82703
# Poissons Ratio (y) = 0.19982 0.30641
# Poissons Ratio (z) = 0.28683 0.19242
#
# Static dielectric constant tensor:
#      x y z
#    x 3.331160 0.000000 0.000000 
#    y 0.000000 3.469050 0.000000 
#    z 0.000000 0.000000 3.816880 
# 
# 
# High freq. dielectric constant tensor:
#      x y z
#    x 1.730110 0.000000 0.000000 
#    y 0.000000 1.757680 0.000000 
#    z 0.000000 0.000000 1.780370 
# 
# From -- ./inp_files/20187.got.cif
#   From: 2010.03.12/outbox.cif.g09.slc.cpg/sg62_11_cif.got.tgz:20187.got - 2010.04.10 19:12:36.
