data_PCOD8252943
_publ_section_title
;
Structure prediction by ZEFSAII (Michael W. Deem and Ramdas Pophale) SiO2 
 PCOD8252943
Probable space group: P N M A
;
_chemical_formula_sum "Si O2"
_cell_formula_units_Z 48
_cell_length_a 9.195508
_cell_length_b 7.731399
_cell_length_c 34.132932
_cell_angle_alpha 90.000000
_cell_angle_beta 90.000000
_cell_angle_gamma 90.000000
_cell_volume 2426.651492
_symmetry_space_group_name_H-M "P N M A"
_symmetry_group_IT_number 62
_symmetry_cell_setting 'orthorhombic'
loop_
_space_group_symop_operation_xyz
x,y,z
1/2-x,-y,1/2+z
1/2+x,1/2-y,1/2-z
-x,1/2+y,-z
-x,-y,-z
1/2+x,y,1/2-z
1/2-x,1/2+y,1/2+z
x,1/2-y,z
loop_
_atom_site_type_symbol
_atom_site_label
_atom_site_fract_x
_atom_site_fract_y
_atom_site_fract_z
Si Si1 0.342654 0.544823 0.071097
Si Si2 0.334647 0.445140 0.499490
Si Si3 0.672212 0.948680 0.351662
Si Si4 0.165205 0.052211 0.845593
Si Si5 0.668467 0.953193 0.076360
Si Si6 0.186490 0.250000 0.206506
Si Si7 0.651982 0.750000 0.712393
O O1 0.354340 0.750000 0.068976
O O2 0.252655 0.489331 0.109212
O O3 0.506065 0.469141 0.073370
O O4 0.263186 0.460921 0.032950
O O5 0.500000 0.500000 0.500000
O O6 0.332851 0.250000 0.513039
O O7 0.268678 0.464308 0.456695
O O8 0.711200 0.750000 0.340412
O O9 0.500823 0.969547 0.359366
O O10 0.725109 0.075725 0.317320
O O11 0.195970 0.250000 0.832157
O O12 0.267038 0.997392 0.881551
O O13 0.202804 0.923180 0.810190
O O14 0.671767 0.750000 0.069736
O O15 0.280789 0.250000 0.245106
O O16 0.019368 0.250000 0.218350
#
# Coordination Sequence:
#
# PCOD8252943 Si02
#       7
#     8   8   8   8   8   4   4
#     4   9  19  36  56  79 111 146 183 232 285 339
#     4  11  22  36  54  78 110 150 192 232 278 332
#     4   9  18  37  58  79 111 149 188 229 279 340
#     4   9  19  36  59  81 110 152 188 228 282 341
#     4  10  20  36  56  81 111 142 184 234 286 338
#     4  10  22  38  56  88 110 148 184 238 284 342
#     4  10  22  38  58  82 120 140 190 236 284 344
#
# _framework density 19.780342999999998
#
# number of rings (size 3 to 8) (size 9 to 14) (size 15 to 20)
#    0.000    2.333    0.000    2.000    1.167    4.667 
#    7.500    0.000    0.000    0.000    0.000    0.000 
#    0.000    0.000    0.000    0.000    0.000    0.000 
#
# Total GULP energy -595164.927985 kJ/mol
# GULP energy per Si atom -12399.269333 kJ/mol
# Density = 1.973532 g / cm^3
# Si number density = 19.780343 Si / 1000 Ang^3
#
#
#
# Elastic Constant Matrix: (Units=GPa)
#
#
# Indices 1 2 3 4 5 6 
#
# 1 78.6128 18.3174 27.9797 0.0000 0.0000 0.0000
# 2 18.3174 74.0276 38.6685 0.0000 0.0000 0.0000
# 3 27.9797 38.6685 92.5575 0.0000 0.0000 0.0000
# 4 0.0000 0.0000 0.0000 27.9657 0.0000 0.0000
# 5 0.0000 0.0000 0.0000 0.0000 43.7864 0.0000
# 6 0.0000 0.0000 0.0000 0.0000 0.0000 17.9532
#
#
#
# Elastic Compliance Matrix: (Units=1/GPa)
#
#
# Indices 1 2 3 4 5 6 
#
# 1 0.014410 -0.001650 -0.003667 0.000000 0.000000 0.000000
# 2 -0.001650 0.017468 -0.006799 0.000000 0.000000 0.000000
# 3 -0.003667 -0.006799 0.014753 0.000000 0.000000 0.000000
# 4 0.000000 0.000000 0.000000 0.035758 0.000000 0.000000
# 5 0.000000 0.000000 0.000000 0.000000 0.022838 0.000000
# 6 0.000000 0.000000 0.000000 0.000000 0.000000 0.055700
#
#
# Mechanical properties :
#
#
# Convention : Reuss Voigt Hill
#
# Bulk Modulus (GPa) = 44.64395 46.12545 45.38470
# Shear Modulus (GPa) = 25.95698 28.62322 27.29010
#
# Velocity S-wave (km/s) = 3.62644 3.80814 3.71840
# Velocity P-wave (km/s) = 6.33669 6.53494 6.43658
#
# Compressibility (1/GPa) = 0.02239945
#
# Stress axis : x y z
#
# Youngs Moduli (GPa) = 69.39558 57.24660 67.78306
#
# Poissons Ratio (x) = 0.09448 0.24854
# Poissons Ratio (y) = 0.11453 0.46085
# Poissons Ratio (z) = 0.25445 0.38922
#
# Static dielectric constant tensor:
#      x y z
#    x 3.759750 0.000000 0.000000 
#    y 0.000000 4.025470 0.000000 
#    z 0.000000 0.000000 3.422050 
# 
# 
# High freq. dielectric constant tensor:
#      x y z
#    x 1.776500 0.000000 0.000000 
#    y 0.000000 1.768070 0.000000 
#    z 0.000000 0.000000 1.766060 
# 
# From -- ./inp_files/32069.got.cif
#   From: 2010.03.12/outbox.cif.g09.slc.cpg/sg62_17_cif.got.tgz:32069.got - 2010.04.10 19:12:36.
