data_PCOD8252249
_publ_section_title
;
Structure prediction by ZEFSAII (Michael W. Deem and Ramdas Pophale) SiO2 
 PCOD8252249
Probable space group: P N M A
;
_chemical_formula_sum "Si O2"
_cell_formula_units_Z 64
_cell_length_a 13.597361
_cell_length_b 14.039475
_cell_length_c 19.866911
_cell_angle_alpha 90.000000
_cell_angle_beta 90.000000
_cell_angle_gamma 90.000000
_cell_volume 3792.589532
_symmetry_space_group_name_H-M "P N M A"
_symmetry_group_IT_number 62
_symmetry_cell_setting 'orthorhombic'
loop_
_space_group_symop_operation_xyz
x,y,z
1/2-x,-y,1/2+z
1/2+x,1/2-y,1/2-z
-x,1/2+y,-z
-x,-y,-z
1/2+x,y,1/2-z
1/2-x,1/2+y,1/2+z
x,1/2-y,z
loop_
_atom_site_type_symbol
_atom_site_label
_atom_site_fract_x
_atom_site_fract_y
_atom_site_fract_z
Si Si1 0.909823 0.144839 0.113493
Si Si2 0.820911 0.858511 0.630913
Si Si3 0.166600 0.137173 0.518039
Si Si4 0.546289 0.361853 0.855731
Si Si5 0.332957 0.861179 0.273877
Si Si6 0.616568 0.859355 0.459761
Si Si7 0.870993 0.464416 0.710540
Si Si8 0.492462 0.040964 0.657454
O O1 0.945286 0.250000 0.136174
O O2 0.796023 0.132770 0.131106
O O3 0.927794 0.132891 0.034179
O O4 0.972558 0.067938 0.153936
O O5 0.854319 0.750000 0.645512
O O6 0.860782 0.894830 0.557851
O O7 0.865521 0.925121 0.688909
O O8 0.178134 0.250000 0.516957
O O9 0.084190 0.103493 0.571097
O O10 0.272925 0.097943 0.540891
O O11 0.526156 0.250000 0.854224
O O12 0.629496 0.388783 0.800821
O O13 0.443549 0.412633 0.841483
O O14 0.309911 0.750000 0.279719
O O15 0.235586 0.917687 0.293223
O O16 0.417167 0.889228 0.326650
O O17 0.614247 0.750000 0.433898
O O18 0.551405 0.925566 0.412741
O O19 0.909170 0.453473 0.786008
#
# Coordination Sequence:
#
# PCOD8252249 Si02
#       8
#     8   8   8   8   8   8   8   8
#     4   9  18  34  53  72  97 125 165 209 243 284
#     4   9  18  34  52  69  93 127 166 206 240 277
#     4   8  15  30  51  72  95 125 163 201 233 274
#     4   9  18  31  48  72  98 125 159 195 235 286
#     4  10  20  33  47  69 104 133 155 193 242 295
#     4   9  17  30  52  79 100 126 159 198 244 292
#     4  11  21  31  48  72 100 131 163 195 239 295
#     4  11  20  31  50  76 101 129 163 197 248 295
#
# _framework density 16.875012999999999
#
# number of rings (size 3 to 8) (size 9 to 14) (size 15 to 20)
#    0.000    2.500    1.250    3.375    0.000    3.500 
#    0.000    0.000    0.000    0.000    0.000    0.000 
#    0.000    0.000    0.000    0.000    0.000    0.000 
#
# Total GULP energy -793523.299920 kJ/mol
# GULP energy per Si atom -12398.801561 kJ/mol
# Density = 1.683661 g / cm^3
# Si number density = 16.875013 Si / 1000 Ang^3
#
#
#
# Elastic Constant Matrix: (Units=GPa)
#
#
# Indices 1 2 3 4 5 6 
#
# 1 64.8660 22.6681 22.1645 0.0000 0.0000 0.0000
# 2 22.6681 64.6460 16.1052 0.0000 0.0000 0.0000
# 3 22.1645 16.1052 35.6417 0.0000 0.0000 0.0000
# 4 0.0000 0.0000 0.0000 26.9416 0.0000 0.0000
# 5 0.0000 0.0000 0.0000 0.0000 13.1918 0.0000
# 6 0.0000 0.0000 0.0000 0.0000 0.0000 23.3071
#
#
#
# Elastic Compliance Matrix: (Units=1/GPa)
#
#
# Indices 1 2 3 4 5 6 
#
# 1 0.020707 -0.004567 -0.010814 0.000000 0.000000 0.000000
# 2 -0.004567 0.018438 -0.005492 0.000000 0.000000 0.000000
# 3 -0.010814 -0.005492 0.037263 0.000000 0.000000 0.000000
# 4 0.000000 0.000000 0.000000 0.037117 0.000000 0.000000
# 5 0.000000 0.000000 0.000000 0.000000 0.075805 0.000000
# 6 0.000000 0.000000 0.000000 0.000000 0.000000 0.042905
#
#
# Mechanical properties :
#
#
# Convention : Reuss Voigt Hill
#
# Bulk Modulus (GPa) = 28.84796 31.89214 30.37005
# Shear Modulus (GPa) = 17.51097 19.63583 18.57340
#
# Velocity S-wave (km/s) = 3.22481 3.41486 3.32120
# Velocity P-wave (km/s) = 5.56759 5.87269 5.72217
#
# Compressibility (1/GPa) = 0.03466450
#
# Stress axis : x y z
#
# Youngs Moduli (GPa) = 48.29199 54.23468 26.83616
#
# Poissons Ratio (x) = 0.24769 0.29020
# Poissons Ratio (y) = 0.22055 0.14737
# Poissons Ratio (z) = 0.52221 0.29783
#
# Static dielectric constant tensor:
#      x y z
#    x 3.015860 0.000000 0.000000 
#    y 0.000000 3.074720 0.000000 
#    z 0.000000 0.000000 3.186800 
# 
# 
# High freq. dielectric constant tensor:
#      x y z
#    x 1.642300 0.000000 0.000000 
#    y 0.000000 1.639260 0.000000 
#    z 0.000000 0.000000 1.649010 
# 
# From -- ./inp_files/23212.got.cif
#   From: 2010.03.12/outbox.cif.g09.slc.cpg/sg62_12_cif.got.tgz:23212.got - 2010.04.10 19:12:36.
