data_PCOD8252821
_publ_section_title
;
Structure prediction by ZEFSAII (Michael W. Deem and Ramdas Pophale) SiO2 
 PCOD8252821
Probable space group: P N M A
;
_chemical_formula_sum "Si O2"
_cell_formula_units_Z 48
_cell_length_a 14.516179
_cell_length_b 8.803365
_cell_length_c 20.164745
_cell_angle_alpha 90.000000
_cell_angle_beta 90.000000
_cell_angle_gamma 90.000000
_cell_volume 2576.877408
_symmetry_space_group_name_H-M "P N M A"
_symmetry_group_IT_number 62
_symmetry_cell_setting 'orthorhombic'
loop_
_space_group_symop_operation_xyz
x,y,z
1/2-x,-y,1/2+z
1/2+x,1/2-y,1/2-z
-x,1/2+y,-z
-x,-y,-z
1/2+x,y,1/2-z
1/2-x,1/2+y,1/2+z
x,1/2-y,z
loop_
_atom_site_type_symbol
_atom_site_label
_atom_site_fract_x
_atom_site_fract_y
_atom_site_fract_z
Si Si1 0.393537 0.572973 0.187075
Si Si2 0.926718 0.072221 0.451502
Si Si3 0.780912 0.574054 0.980139
Si Si4 0.992747 0.571072 0.803305
Si Si5 0.814147 0.426663 0.842538
Si Si6 0.433459 0.071402 0.445902
O O1 0.417263 0.750000 0.192932
O O2 0.434579 0.511543 0.118492
O O3 0.439056 0.481201 0.246159
O O4 0.284230 0.542734 0.191483
O O5 0.945461 0.250000 0.441055
O O6 0.827489 0.042331 0.484287
O O7 0.000000 0.000000 0.500000
O O8 0.805029 0.750000 0.985451
O O9 0.822980 0.516225 0.911204
O O10 0.829545 0.487261 0.040951
O O11 0.977790 0.750000 0.798838
O O12 0.037413 0.519585 0.872706
O O13 0.893866 0.489077 0.794164
O O14 0.828345 0.250000 0.857437
O O15 0.436842 0.250000 0.453359
O O16 0.500000 0.000000 0.500000
#
# Coordination Sequence:
#
# PCOD8252821 Si02
#       6
#     8   8   8   8   8   8
#     4  10  22  40  61  86 115 151 195 240 289 346
#     4  10  21  39  63  88 116 153 195 240 288 342
#     4  10  20  35  57  85 115 149 189 236 285 339
#     4  11  23  38  58  85 117 154 193 238 289 345
#     4  10  20  36  60  84 110 151 192 233 285 342
#     4  11  22  35  56  86 118 152 191 233 284 342
#
# _framework density 18.627196000000001
#
# number of rings (size 3 to 8) (size 9 to 14) (size 15 to 20)
#    0.000    1.667    1.667    3.000    0.000    6.000 
#    3.000    0.000    0.000    0.000    0.000    0.000 
#    0.000    0.000    0.000    0.000    0.000    0.000 
#
# Total GULP energy -595418.041491 kJ/mol
# GULP energy per Si atom -12404.542531 kJ/mol
# Density = 1.858480 g / cm^3
# Si number density = 18.627196 Si / 1000 Ang^3
#
#
#
# Elastic Constant Matrix: (Units=GPa)
#
#
# Indices 1 2 3 4 5 6 
#
# 1 107.1520 41.3883 61.8323 0.0000 0.0000 0.0000
# 2 41.3883 63.3107 36.8535 0.0000 0.0000 0.0000
# 3 61.8323 36.8535 98.5182 0.0000 0.0000 0.0000
# 4 0.0000 0.0000 0.0000 34.8468 0.0000 0.0000
# 5 0.0000 0.0000 0.0000 0.0000 32.0352 0.0000
# 6 0.0000 0.0000 0.0000 0.0000 0.0000 34.8074
#
#
#
# Elastic Compliance Matrix: (Units=1/GPa)
#
#
# Indices 1 2 3 4 5 6 
#
# 1 0.016230 -0.005984 -0.007948 0.000000 0.000000 0.000000
# 2 -0.005984 0.022398 -0.004623 0.000000 0.000000 0.000000
# 3 -0.007948 -0.004623 0.016868 0.000000 0.000000 0.000000
# 4 0.000000 0.000000 0.000000 0.028697 0.000000 0.000000
# 5 0.000000 0.000000 0.000000 0.000000 0.031216 0.000000
# 6 0.000000 0.000000 0.000000 0.000000 0.000000 0.028730
#
#
# Mechanical properties :
#
#
# Convention : Reuss Voigt Hill
#
# Bulk Modulus (GPa) = 54.38715 61.01437 57.70076
# Shear Modulus (GPa) = 26.68412 28.93167 27.80790
#
# Velocity S-wave (km/s) = 3.78899 3.94534 3.86795
# Velocity P-wave (km/s) = 6.95723 7.31990 7.14087
#
# Compressibility (1/GPa) = 0.01838669
#
# Stress axis : x y z
#
# Youngs Moduli (GPa) = 61.61338 44.64692 59.28289
#
# Poissons Ratio (x) = 0.26715 0.47119
# Poissons Ratio (y) = 0.36867 0.27407
# Poissons Ratio (z) = 0.48971 0.20641
#
# Static dielectric constant tensor:
#      x y z
#    x 3.429010 0.000000 0.000000 
#    y 0.000000 3.577750 0.000000 
#    z 0.000000 0.000000 3.380010 
# 
# 
# High freq. dielectric constant tensor:
#      x y z
#    x 1.732770 0.000000 0.000000 
#    y 0.000000 1.742440 0.000000 
#    z 0.000000 0.000000 1.707080 
# 
# From -- ./inp_files/23764.got.cif
#   From: 2010.03.12/outbox.cif.g09.slc.cpg/sg62_12_cif.got.tgz:23764.got - 2010.04.10 19:12:36.
