data_PCOD8252393
_publ_section_title
;
Structure prediction by ZEFSAII (Michael W. Deem and Ramdas Pophale) SiO2 
 PCOD8252393
Probable space group: P N M A
;
_chemical_formula_sum "Si O2"
_cell_formula_units_Z 64
_cell_length_a 11.437147
_cell_length_b 9.327884
_cell_length_c 32.791894
_cell_angle_alpha 90.000000
_cell_angle_beta 90.000000
_cell_angle_gamma 90.000000
_cell_volume 3498.382897
_symmetry_space_group_name_H-M "P N M A"
_symmetry_group_IT_number 62
_symmetry_cell_setting 'orthorhombic'
loop_
_space_group_symop_operation_xyz
x,y,z
1/2-x,-y,1/2+z
1/2+x,1/2-y,1/2-z
-x,1/2+y,-z
-x,-y,-z
1/2+x,y,1/2-z
1/2-x,1/2+y,1/2+z
x,1/2-y,z
loop_
_atom_site_type_symbol
_atom_site_label
_atom_site_fract_x
_atom_site_fract_y
_atom_site_fract_z
Si Si1 0.597531 0.082530 0.446727
Si Si2 0.793456 0.085478 0.873591
Si Si3 0.340318 0.083909 0.476186
Si Si4 0.527693 0.082554 0.866042
Si Si5 0.831242 0.915385 0.594559
Si Si6 0.192501 0.917271 0.824399
Si Si7 0.891476 0.082966 0.714508
Si Si8 0.030564 0.913443 0.196274
O O1 0.626009 0.250000 0.445725
O O2 0.460223 0.051731 0.452230
O O3 0.635634 0.012844 0.404546
O O4 0.670367 0.012181 0.483597
O O5 0.798598 0.250000 0.888644
O O6 0.660560 0.030418 0.870476
O O7 0.849588 0.070403 0.828883
O O8 0.335269 0.250000 0.489037
O O9 0.231949 0.041546 0.447432
O O10 0.515989 0.250000 0.873944
O O11 0.483574 0.041904 0.820793
O O12 0.449836 0.005254 0.900443
O O13 0.867006 0.750000 0.594706
O O14 0.741835 0.949686 0.630867
O O15 0.186964 0.750000 0.814559
O O16 0.272933 0.993303 0.790646
O O17 0.063724 0.981893 0.823361
O O18 0.858092 0.250000 0.713419
O O19 0.947603 0.039214 0.757353
O O20 0.984558 0.750000 0.194396
#
# Coordination Sequence:
#
# PCOD8252393 Si02
#       8
#     8   8   8   8   8   8   8   8
#     4  10  20  34  54  82 111 140 173 215 266 318
#     4  10  21  36  53  77 108 142 177 217 268 319
#     4   9  18  34  56  80 108 139 172 216 265 313
#     4   9  19  35  54  76 104 138 177 223 266 308
#     4   9  18  34  55  77 103 139 176 213 263 317
#     4  10  20  34  52  77 110 137 168 217 268 320
#     4   9  19  35  56  77 101 136 181 225 263 310
#     4  10  21  34  55  79 102 138 181 223 264 314
#
# _framework density 18.294166000000001
#
# number of rings (size 3 to 8) (size 9 to 14) (size 15 to 20)
#    0.000    2.500    0.000    1.500    1.750    4.000 
#    0.000    0.625    0.000    0.000    0.000    0.000 
#    0.000    0.000    0.000    0.000    0.000    0.000 
#
# Total GULP energy -793814.501274 kJ/mol
# GULP energy per Si atom -12403.351582 kJ/mol
# Density = 1.825253 g / cm^3
# Si number density = 18.294166 Si / 1000 Ang^3
#
#
#
# Elastic Constant Matrix: (Units=GPa)
#
#
# Indices 1 2 3 4 5 6 
#
# 1 82.0020 30.3951 19.1698 0.0000 0.0000 0.0000
# 2 30.3951 59.2909 28.5116 0.0000 0.0000 0.0000
# 3 19.1698 28.5116 75.5045 0.0000 0.0000 0.0000
# 4 0.0000 0.0000 0.0000 28.2691 0.0000 0.0000
# 5 0.0000 0.0000 0.0000 0.0000 22.2015 0.0000
# 6 0.0000 0.0000 0.0000 0.0000 0.0000 30.7126
#
#
#
# Elastic Compliance Matrix: (Units=1/GPa)
#
#
# Indices 1 2 3 4 5 6 
#
# 1 0.015132 -0.007221 -0.001115 0.000000 0.000000 0.000000
# 2 -0.007221 0.024054 -0.007250 0.000000 0.000000 0.000000
# 3 -0.001115 -0.007250 0.016265 0.000000 0.000000 0.000000
# 4 0.000000 0.000000 0.000000 0.035374 0.000000 0.000000
# 5 0.000000 0.000000 0.000000 0.000000 0.045042 0.000000
# 6 0.000000 0.000000 0.000000 0.000000 0.000000 0.032560
#
#
# Mechanical properties :
#
#
# Convention : Reuss Voigt Hill
#
# Bulk Modulus (GPa) = 41.18761 41.43892 41.31327
# Shear Modulus (GPa) = 24.07404 25.48470 24.77937
#
# Velocity S-wave (km/s) = 3.63153 3.73641 3.68434
# Velocity P-wave (km/s) = 6.33616 6.42767 6.38208
#
# Compressibility (1/GPa) = 0.02427914
#
# Stress axis : x y z
#
# Youngs Moduli (GPa) = 66.08457 41.57285 61.48178
#
# Poissons Ratio (x) = 0.30021 0.06856
# Poissons Ratio (y) = 0.47721 0.44573
# Poissons Ratio (z) = 0.07369 0.30140
#
# Static dielectric constant tensor:
#      x y z
#    x 3.346730 0.000000 0.000000 
#    y 0.000000 3.354550 0.000000 
#    z 0.000000 0.000000 3.361510 
# 
# 
# High freq. dielectric constant tensor:
#      x y z
#    x 1.704730 0.000000 0.000000 
#    y 0.000000 1.706770 0.000000 
#    z 0.000000 0.000000 1.706760 
# 
# From -- ./inp_files/32453.got.cif
#   From: 2010.03.12/outbox.cif.g09.slc.cpg/sg62_17_cif.got.tgz:32453.got - 2010.04.10 19:12:36.
