data_PCOD8252757
_publ_section_title
;
Structure prediction by ZEFSAII (Michael W. Deem and Ramdas Pophale) SiO2 
 PCOD8252757
Probable space group: P N M A
;
_chemical_formula_sum "Si O2"
_cell_formula_units_Z 56
_cell_length_a 24.102083
_cell_length_b 9.093084
_cell_length_c 13.394352
_cell_angle_alpha 90.000000
_cell_angle_beta 90.000000
_cell_angle_gamma 90.000000
_cell_volume 2935.536526
_symmetry_space_group_name_H-M "P N M A"
_symmetry_group_IT_number 62
_symmetry_cell_setting 'orthorhombic'
loop_
_space_group_symop_operation_xyz
x,y,z
1/2-x,-y,1/2+z
1/2+x,1/2-y,1/2-z
-x,1/2+y,-z
-x,-y,-z
1/2+x,y,1/2-z
1/2-x,1/2+y,1/2+z
x,1/2-y,z
loop_
_atom_site_type_symbol
_atom_site_label
_atom_site_fract_x
_atom_site_fract_y
_atom_site_fract_z
Si Si1 0.442069 0.079228 0.012724
Si Si2 0.551820 0.080303 0.625513
Si Si3 0.121693 0.578742 0.714118
Si Si4 0.779270 0.921745 0.384360
Si Si5 0.156657 0.080726 0.418632
Si Si6 0.824238 0.920500 0.805446
Si Si7 0.441609 0.918653 0.606525
O O1 0.449984 0.250000 0.990526
O O2 0.420846 0.049030 0.124324
O O3 0.500000 0.000000 0.000000
O O4 0.398092 0.016454 0.933680
O O5 0.553571 0.250000 0.657059
O O6 0.567133 0.055661 0.510590
O O7 0.597563 0.991343 0.686163
O O8 0.490670 0.019152 0.649355
O O9 0.132388 0.750000 0.731639
O O10 0.180500 0.503955 0.692496
O O11 0.781209 0.750000 0.360440
O O12 0.797236 0.955701 0.498058
O O13 0.717510 0.981804 0.369902
O O14 0.137636 0.250000 0.424674
O O15 0.183526 0.044884 0.311702
O O16 0.813007 0.750000 0.829739
O O17 0.886101 0.965722 0.836793
O O18 0.457466 0.750000 0.629034
#
# Coordination Sequence:
#
# PCOD8252757 Si02
#       7
#     8   8   8   8   8   8   8
#     4  10  21  35  54  81 112 145 181 225 279 338
#     4  10  20  35  56  83 115 148 187 237 283 330
#     4  10  21  37  57  79 108 149 188 224 278 342
#     4  10  21  38  57  81 112 142 184 235 279 326
#     4   9  20  38  57  80 111 145 184 231 276 329
#     4  10  21  38  60  82 110 150 190 229 283 342
#     4   9  20  37  55  80 114 150 188 231 284 342
#
# _framework density 19.076581000000001
#
# number of rings (size 3 to 8) (size 9 to 14) (size 15 to 20)
#    0.000    2.286    0.000    1.714    2.000    5.143 
#    0.000    2.857    0.000    0.000    0.000    0.000 
#    0.000    0.000    0.000    0.000    0.000    0.000 
#
# Total GULP energy -694690.462323 kJ/mol
# GULP energy per Si atom -12405.186827 kJ/mol
# Density = 1.903316 g / cm^3
# Si number density = 19.076581 Si / 1000 Ang^3
#
#
#
# Elastic Constant Matrix: (Units=GPa)
#
#
# Indices 1 2 3 4 5 6 
#
# 1 84.0400 45.8421 45.0912 0.0000 0.0000 0.0000
# 2 45.8421 92.9120 35.7242 0.0000 0.0000 0.0000
# 3 45.0912 35.7242 72.2748 0.0000 0.0000 0.0000
# 4 0.0000 0.0000 0.0000 28.9857 0.0000 0.0000
# 5 0.0000 0.0000 0.0000 0.0000 26.8550 0.0000
# 6 0.0000 0.0000 0.0000 0.0000 0.0000 42.0336
#
#
#
# Elastic Compliance Matrix: (Units=1/GPa)
#
#
# Indices 1 2 3 4 5 6 
#
# 1 0.020603 -0.006449 -0.009667 0.000000 0.000000 0.000000
# 2 -0.006449 0.015307 -0.003543 0.000000 0.000000 0.000000
# 3 -0.009667 -0.003543 0.021618 0.000000 0.000000 0.000000
# 4 0.000000 0.000000 0.000000 0.034500 0.000000 0.000000
# 5 0.000000 0.000000 0.000000 0.000000 0.037237 0.000000
# 6 0.000000 0.000000 0.000000 0.000000 0.000000 0.023791
#
#
# Mechanical properties :
#
#
# Convention : Reuss Voigt Hill
#
# Bulk Modulus (GPa) = 54.90840 55.83801 55.37320
# Shear Modulus (GPa) = 25.19629 27.74614 26.47121
#
# Velocity S-wave (km/s) = 3.63822 3.81788 3.72913
# Velocity P-wave (km/s) = 6.81869 6.98347 6.90157
#
# Compressibility (1/GPa) = 0.01821215
#
# Stress axis : x y z
#
# Youngs Moduli (GPa) = 48.53583 65.33063 46.25780
#
# Poissons Ratio (x) = 0.42130 0.44716
# Poissons Ratio (y) = 0.31300 0.16387
# Poissons Ratio (z) = 0.46918 0.23144
#
# Static dielectric constant tensor:
#      x y z
#    x 3.397900 0.000000 0.000000 
#    y 0.000000 3.353100 0.000000 
#    z 0.000000 0.000000 3.506260 
# 
# 
# High freq. dielectric constant tensor:
#      x y z
#    x 1.740760 0.000000 0.000000 
#    y 0.000000 1.748420 0.000000 
#    z 0.000000 0.000000 1.741340 
# 
# From -- ./inp_files/20336.got.cif
#   From: 2010.03.12/outbox.cif.g09.slc.cpg/sg62_11_cif.got.tgz:20336.got - 2010.04.10 19:12:36.
