data_PCOD8252005
_publ_section_title
;
Structure prediction by ZEFSAII (Michael W. Deem and Ramdas Pophale) SiO2 
 PCOD8252005
Probable space group: P N M A
;
_chemical_formula_sum "Si O2"
_cell_formula_units_Z 48
_cell_length_a 9.059871
_cell_length_b 8.805645
_cell_length_c 30.539212
_cell_angle_alpha 90.000000
_cell_angle_beta 90.000000
_cell_angle_gamma 90.000000
_cell_volume 2436.357492
_symmetry_space_group_name_H-M "P N M A"
_symmetry_group_IT_number 62
_symmetry_cell_setting 'orthorhombic'
loop_
_space_group_symop_operation_xyz
x,y,z
1/2-x,-y,1/2+z
1/2+x,1/2-y,1/2-z
-x,1/2+y,-z
-x,-y,-z
1/2+x,y,1/2-z
1/2-x,1/2+y,1/2+z
x,1/2-y,z
loop_
_atom_site_type_symbol
_atom_site_label
_atom_site_fract_x
_atom_site_fract_y
_atom_site_fract_z
Si Si1 0.314180 0.926187 0.457240
Si Si2 0.346311 0.069742 0.714243
Si Si3 0.152863 0.925693 0.046964
Si Si4 0.341439 0.928575 0.131829
Si Si5 0.157048 0.071405 0.378792
Si Si6 0.323654 0.930808 0.299253
O O1 0.276410 0.750000 0.451507
O O2 0.482049 0.963339 0.443477
O O3 0.285823 0.973280 0.507351
O O4 0.203511 0.021525 0.427316
O O5 0.348537 0.250000 0.714158
O O6 0.246752 0.012157 0.674127
O O7 0.279473 0.009601 0.759855
O O8 0.511717 0.006946 0.709304
O O9 0.170786 0.750000 0.034043
O O10 0.244716 0.969010 0.089624
O O11 0.375639 0.750000 0.134802
O O12 0.492270 0.018996 0.130636
O O13 0.167279 0.250000 0.374302
O O14 0.268803 0.995998 0.344848
O O15 0.321778 0.750000 0.302381
#
# Coordination Sequence:
#
# PCOD8252005 Si02
#       6
#     8   8   8   8   8   8
#     4  10  20  37  61  85 111 146 185 227 278 335
#     4   9  18  34  62  91 112 141 184 229 272 330
#     4   9  19  36  60  88 114 141 180 230 281 333
#     4  10  20  37  59  83 112 147 186 228 275 327
#     4  12  25  38  53  79 114 151 191 233 277 325
#     4  10  19  36  61  87 113 144 184 228 277 331
#
# _framework density 19.701542
#
# number of rings (size 3 to 8) (size 9 to 14) (size 15 to 20)
#    0.000    2.000    0.000    4.000    0.000    7.333 
#    0.000    5.833    0.000    0.000    0.000    0.000 
#    0.000    0.000    0.000    0.000    0.000    0.000 
#
# Total GULP energy -595416.611475 kJ/mol
# GULP energy per Si atom -12404.512739 kJ/mol
# Density = 1.965670 g / cm^3
# Si number density = 19.701542 Si / 1000 Ang^3
#
#
#
# Elastic Constant Matrix: (Units=GPa)
#
#
# Indices 1 2 3 4 5 6 
#
# 1 68.7028 24.9732 16.8113 0.0000 0.0000 0.0000
# 2 24.9732 45.9970 26.5432 0.0000 0.0000 0.0000
# 3 16.8113 26.5432 85.9482 0.0000 0.0000 0.0000
# 4 0.0000 0.0000 0.0000 28.3489 0.0000 0.0000
# 5 0.0000 0.0000 0.0000 0.0000 38.7797 0.0000
# 6 0.0000 0.0000 0.0000 0.0000 0.0000 17.1701
#
#
#
# Elastic Compliance Matrix: (Units=1/GPa)
#
#
# Indices 1 2 3 4 5 6 
#
# 1 0.018161 -0.009504 -0.000617 0.000000 0.000000 0.000000
# 2 -0.009504 0.031429 -0.007847 0.000000 0.000000 0.000000
# 3 -0.000617 -0.007847 0.014179 0.000000 0.000000 0.000000
# 4 0.000000 0.000000 0.000000 0.035275 0.000000 0.000000
# 5 0.000000 0.000000 0.000000 0.000000 0.025787 0.000000
# 6 0.000000 0.000000 0.000000 0.000000 0.000000 0.058241
#
#
# Mechanical properties :
#
#
# Convention : Reuss Voigt Hill
#
# Bulk Modulus (GPa) = 35.92945 37.47814 36.70379
# Shear Modulus (GPa) = 21.90239 25.68110 23.79174
#
# Velocity S-wave (km/s) = 3.33785 3.61433 3.47884
# Velocity P-wave (km/s) = 5.75599 6.04004 5.89972
#
# Compressibility (1/GPa) = 0.02783232
#
# Stress axis : x y z
#
# Youngs Moduli (GPa) = 55.06257 31.81781 70.52666
#
# Poissons Ratio (x) = 0.30240 0.04352
# Poissons Ratio (y) = 0.52332 0.55343
# Poissons Ratio (z) = 0.03398 0.24968
#
# Static dielectric constant tensor:
#      x y z
#    x 3.737570 0.000000 0.000000 
#    y 0.000000 3.313160 0.000000 
#    z 0.000000 0.000000 3.720960 
# 
# 
# High freq. dielectric constant tensor:
#      x y z
#    x 1.776840 0.000000 0.000000 
#    y 0.000000 1.739720 0.000000 
#    z 0.000000 0.000000 1.783380 
# 
# From -- ./inp_files/32005.got.cif
#   From: 2010.03.12/outbox.cif.g09.slc.cpg/sg62_17_cif.got.tgz:32005.got - 2010.04.10 19:12:36.
