data_PCOD8252067
_publ_section_title
;
Structure prediction by ZEFSAII (Michael W. Deem and Ramdas Pophale) SiO2 
 PCOD8252067
Probable space group: P N M A
;
_chemical_formula_sum "Si O2"
_cell_formula_units_Z 64
_cell_length_a 23.555233
_cell_length_b 9.037340
_cell_length_c 14.842828
_cell_angle_alpha 90.000000
_cell_angle_beta 90.000000
_cell_angle_gamma 90.000000
_cell_volume 3159.691492
_symmetry_space_group_name_H-M "P N M A"
_symmetry_group_IT_number 62
_symmetry_cell_setting 'orthorhombic'
loop_
_space_group_symop_operation_xyz
x,y,z
1/2-x,-y,1/2+z
1/2+x,1/2-y,1/2-z
-x,1/2+y,-z
-x,-y,-z
1/2+x,y,1/2-z
1/2-x,1/2+y,1/2+z
x,1/2-y,z
loop_
_atom_site_type_symbol
_atom_site_label
_atom_site_fract_x
_atom_site_fract_y
_atom_site_fract_z
Si Si1 0.664636 0.573813 0.569693
Si Si2 0.034711 0.917616 0.575901
Si Si3 0.982672 0.580794 0.770917
Si Si4 0.243803 0.925566 0.764028
Si Si5 0.958216 0.574082 0.071529
Si Si6 0.632492 0.075145 0.193163
Si Si7 0.251685 0.915892 0.081315
Si Si8 0.870992 0.915898 0.496381
O O1 0.654855 0.750000 0.573632
O O2 0.699348 0.520858 0.659120
O O3 0.604982 0.490264 0.564482
O O4 0.698171 0.528545 0.478157
O O5 0.038888 0.750000 0.546249
O O6 0.007011 0.935635 0.672118
O O7 0.098237 0.984967 0.579069
O O8 0.000000 0.000000 0.500000
O O9 0.989931 0.750000 0.806322
O O10 0.915797 0.536166 0.767086
O O11 0.016203 0.465106 0.831554
O O12 0.244091 0.750000 0.762309
O O13 0.306702 0.992947 0.780749
O O14 0.228993 0.982847 0.664569
O O15 0.956369 0.750000 0.057485
O O16 0.000000 0.500000 0.000000
O O17 0.639368 0.250000 0.184724
O O18 0.613848 0.017379 0.094798
O O19 0.240251 0.750000 0.117055
O O20 0.303490 0.917632 0.011816
O O21 0.894981 0.750000 0.486520
#
# Coordination Sequence:
#
# PCOD8252067 Si02
#       8
#     8   8   8   8   8   8   8   8
#     4  10  22  44  68  93 130 170 211 259 316 381
#     4  11  22  36  58  89 126 166 204 248 302 366
#     4  10  22  41  64  90 125 167 211 255 308 374
#     4  10  21  38  64  93 123 162 207 253 309 377
#     4  12  28  48  69  92 123 165 218 274 327 379
#     4   9  17  36  63  88 117 160 205 249 307 372
#     4  10  22  39  63  91 123 161 203 254 313 372
#     4  10  19  37  60  85 122 164 202 246 305 370
#
# _framework density 20.255141999999999
#
# number of rings (size 3 to 8) (size 9 to 14) (size 15 to 20)
#    0.000    1.750    2.500    1.500    3.500    2.500 
#    0.000    0.625    0.000    0.000    0.000    0.000 
#    0.000    0.000    0.000    0.000    0.000    0.000 
#
# Total GULP energy -793353.679520 kJ/mol
# GULP energy per Si atom -12396.151242 kJ/mol
# Density = 2.020904 g / cm^3
# Si number density = 20.255142 Si / 1000 Ang^3
#
#
#
# Elastic Constant Matrix: (Units=GPa)
#
#
# Indices 1 2 3 4 5 6 
#
# 1 141.5333 51.3182 44.8943 0.0000 0.0000 0.0000
# 2 51.3182 82.5879 46.4586 0.0000 0.0000 0.0000
# 3 44.8943 46.4586 85.4662 0.0000 0.0000 0.0000
# 4 0.0000 0.0000 0.0000 31.6486 0.0000 0.0000
# 5 0.0000 0.0000 0.0000 0.0000 32.7510 0.0000
# 6 0.0000 0.0000 0.0000 0.0000 0.0000 29.7430
#
#
#
# Elastic Compliance Matrix: (Units=1/GPa)
#
#
# Indices 1 2 3 4 5 6 
#
# 1 0.009495 -0.004457 -0.002565 0.000000 0.000000 0.000000
# 2 -0.004457 0.019534 -0.008277 0.000000 0.000000 0.000000
# 3 -0.002565 -0.008277 0.017547 0.000000 0.000000 0.000000
# 4 0.000000 0.000000 0.000000 0.031597 0.000000 0.000000
# 5 0.000000 0.000000 0.000000 0.000000 0.030533 0.000000
# 6 0.000000 0.000000 0.000000 0.000000 0.000000 0.033621
#
#
# Mechanical properties :
#
#
# Convention : Reuss Voigt Hill
#
# Bulk Modulus (GPa) = 62.58613 66.10329 64.34471
# Shear Modulus (GPa) = 28.05002 29.95626 29.00314
#
# Velocity S-wave (km/s) = 3.72537 3.84988 3.78814
# Velocity P-wave (km/s) = 7.03353 7.24350 7.13928
#
# Compressibility (1/GPa) = 0.01597798
#
# Stress axis : x y z
#
# Youngs Moduli (GPa) = 105.31666 51.19224 56.98926
#
# Poissons Ratio (x) = 0.22818 0.14616
# Poissons Ratio (y) = 0.46943 0.47171
# Poissons Ratio (z) = 0.27011 0.42373
#
# Static dielectric constant tensor:
#      x y z
#    x 2.825670 0.000000 0.000000 
#    y 0.000000 3.004290 0.000000 
#    z 0.000000 0.000000 3.545600 
# 
# 
# High freq. dielectric constant tensor:
#      x y z
#    x 1.809690 0.000000 0.000000 
#    y 0.000000 1.766070 0.000000 
#    z 0.000000 0.000000 1.792620 
# 
# From -- ./inp_files/20896.got.cif
#   From: 2010.03.12/outbox.cif.g09.slc.cpg/sg62_11_cif.got.tgz:20896.got - 2010.04.10 19:12:36.
