data_PCOD8252618
_publ_section_title
;
Structure prediction by ZEFSAII (Michael W. Deem and Ramdas Pophale) SiO2 
 PCOD8252618
Probable space group: P N M A
;
_chemical_formula_sum "Si O2"
_cell_formula_units_Z 56
_cell_length_a 16.969942
_cell_length_b 29.861692
_cell_length_c 5.184785
_cell_angle_alpha 90.000000
_cell_angle_beta 90.000000
_cell_angle_gamma 90.000000
_cell_volume 2627.395923
_symmetry_space_group_name_H-M "P N M A"
_symmetry_group_IT_number 62
_symmetry_cell_setting 'orthorhombic'
loop_
_space_group_symop_operation_xyz
x,y,z
1/2-x,-y,1/2+z
1/2+x,1/2-y,1/2-z
-x,1/2+y,-z
-x,-y,-z
1/2+x,y,1/2-z
1/2-x,1/2+y,1/2+z
x,1/2-y,z
loop_
_atom_site_type_symbol
_atom_site_label
_atom_site_fract_x
_atom_site_fract_y
_atom_site_fract_z
Si Si1 0.025010 0.895266 0.955069
Si Si2 0.799774 0.501035 0.541953
Si Si3 0.787415 0.750000 0.910181
Si Si4 0.768361 0.651747 0.986752
Si Si5 0.880835 0.910076 0.673401
Si Si6 0.377126 0.091079 0.955204
Si Si7 0.573795 0.158693 0.782273
Si Si8 0.392822 0.750000 0.085529
O O1 0.077522 0.888641 0.701261
O O2 0.944071 0.923903 0.897535
O O3 0.073679 0.915765 0.192884
O O4 0.988722 0.847356 0.048983
O O5 0.731558 0.506566 0.330866
O O6 0.851485 0.545665 0.531625
O O7 0.850150 0.458166 0.459276
O O8 0.839631 0.750000 0.660453
O O9 0.739786 0.702231 0.900196
O O10 0.842542 0.750000 0.155725
O O11 0.694742 0.624903 0.104729
O O12 0.834492 0.658327 0.202850
O O13 0.807102 0.620730 0.762776
O O14 0.936700 0.882082 0.480558
O O15 0.552867 0.205755 0.917427
#
# Coordination Sequence:
#
# PCOD8252618 Si02
#       8
#     8   8   4   8   8   8   8   4
#     4  11  26  43  63  93 133 174 211 263 328 393
#     4  12  26  42  67 101 126 169 224 273 324 387
#     4  10  20  36  62 103 121 158 217 272 330 373
#     4  10  22  39  69  94 129 168 216 279 323 385
#     4  11  22  43  69  93 130 171 217 270 322 386
#     4  12  25  44  63  95 135 172 216 268 331 391
#     4  10  21  43  66  98 127 169 219 271 325 385
#     4  10  20  34  68  95 125 158 219 270 314 381
#
# _framework density 21.313877999999999
#
# number of rings (size 3 to 8) (size 9 to 14) (size 15 to 20)
#    0.000    1.143    4.286    1.714    4.000    1.143 
#    0.000    1.429    0.000    0.000    0.000    0.000 
#    0.000    0.000    0.000    0.000    0.000    0.000 
#
# Total GULP energy -693849.658827 kJ/mol
# GULP energy per Si atom -12390.172479 kJ/mol
# Density = 2.126537 g / cm^3
# Si number density = 21.313878 Si / 1000 Ang^3
#
#
#
# Elastic Constant Matrix: (Units=GPa)
#
#
# Indices 1 2 3 4 5 6 
#
# 1 79.8407 54.2421 30.3867 0.0000 0.0000 0.0000
# 2 54.2421 166.5644 29.3052 0.0000 0.0000 0.0000
# 3 30.3867 29.3052 108.8367 0.0000 0.0000 0.0000
# 4 0.0000 0.0000 0.0000 0.8489 0.0000 0.0000
# 5 0.0000 0.0000 0.0000 0.0000 38.7646 0.0000
# 6 0.0000 0.0000 0.0000 0.0000 0.0000 -65.7795
#
#
#
# Elastic Compliance Matrix: (Units=1/GPa)
#
#
# Indices 1 2 3 4 5 6 
#
# 1 0.017245 -0.005006 -0.003467 0.000000 0.000000 0.000000
# 2 -0.005006 0.007755 -0.000691 0.000000 0.000000 0.000000
# 3 -0.003467 -0.000691 0.010342 0.000000 0.000000 0.000000
# 4 0.000000 0.000000 0.000000 1.177968 0.000000 0.000000
# 5 0.000000 0.000000 0.000000 0.000000 0.025797 0.000000
# 6 0.000000 0.000000 0.000000 0.000000 0.000000 -0.015202
#
#
# Mechanical properties :
#
#
# Convention : Reuss Voigt Hill
#
# Bulk Modulus (GPa) = 58.76901 64.78997 61.77949
# Shear Modulus (GPa) = 4.00672 10.85400 7.43036
#
# Velocity S-wave (km/s) = 1.37257 2.25910 1.86915
# Velocity P-wave (km/s) = 5.49044 6.10481 5.80576
#
# Compressibility (1/GPa) = 0.01701577
#
# Stress axis : x y z
#
# Youngs Moduli (GPa) = 57.98638 128.94231 96.69343
#
# Poissons Ratio (x) = 0.64549 0.33523
# Poissons Ratio (y) = 0.29028 0.06677
# Poissons Ratio (z) = 0.20103 0.08904
#
# Static dielectric constant tensor:
#      x y z
#    x 3.736120 0.000000 0.000000 
#    y 0.000000 4.286480 0.000000 
#    z 0.000000 0.000000 3.912940 
# 
# 
# High freq. dielectric constant tensor:
#      x y z
#    x 1.814450 0.000000 0.000000 
#    y 0.000000 1.836180 0.000000 
#    z 0.000000 0.000000 1.848660 
# 
# From -- ./inp_files/1311.got.cif
#   From: 2010.03.12/outbox.cif.g09.slc.cpg/sg62_1_cif.got.tgz:1311.got - 2010.04.10 19:12:36.
