data_PCOD8252590
_publ_section_title
;
Structure prediction by ZEFSAII (Michael W. Deem and Ramdas Pophale) SiO2 
 PCOD8252590
Probable space group: P N M A
;
_chemical_formula_sum "Si O2"
_cell_formula_units_Z 40
_cell_length_a 21.375586
_cell_length_b 19.324571
_cell_length_c 4.901777
_cell_angle_alpha 90.000000
_cell_angle_beta 90.000000
_cell_angle_gamma 90.000000
_cell_volume 2024.796776
_symmetry_space_group_name_H-M "P N M A"
_symmetry_group_IT_number 62
_symmetry_cell_setting 'orthorhombic'
loop_
_space_group_symop_operation_xyz
x,y,z
1/2-x,-y,1/2+z
1/2+x,1/2-y,1/2-z
-x,1/2+y,-z
-x,-y,-z
1/2+x,y,1/2-z
1/2-x,1/2+y,1/2+z
x,1/2-y,z
loop_
_atom_site_type_symbol
_atom_site_label
_atom_site_fract_x
_atom_site_fract_y
_atom_site_fract_z
Si Si1 0.078688 0.168854 0.466778
Si Si2 0.138440 0.104665 0.979188
Si Si3 0.966464 0.426571 0.482850
Si Si4 0.257082 0.046167 0.735703
Si Si5 0.112454 0.945421 0.023202
O O1 0.068237 0.250000 0.466275
O O2 0.093995 0.143119 0.768044
O O3 0.013816 0.132417 0.381691
O O4 0.134560 0.148221 0.259009
O O5 0.208997 0.102393 0.859182
O O6 0.113365 0.028424 0.046356
O O7 0.939179 0.411301 0.781621
O O8 0.000000 0.500000 0.500000
O O9 0.906471 0.425873 0.282703
O O10 0.318731 0.082561 0.609168
O O11 0.223462 0.004947 0.485961
#
# Coordination Sequence:
#
# PCOD8252590 Si02
#       5
#     8   8   8   8   8
#     4  12  25  38  57  84 119 162 198 239 295 360
#     4  11  20  38  59  84 120 148 193 246 298 352
#     4  12  21  36  59  86 121 152 194 246 298 354
#     4  10  20  34  57  89 118 144 182 242 305 353
#     4  11  20  35  60  90 114 149 189 250 304 342
#
# _framework density 19.755067
#
# number of rings (size 3 to 8) (size 9 to 14) (size 15 to 20)
#    0.000    0.800    4.000    7.200    0.000    0.000 
#    0.000    0.000    0.000    7.200    0.000    0.000 
#    0.000    0.000    0.000    0.000    0.000    0.000 
#
# Total GULP energy -495947.477038 kJ/mol
# GULP energy per Si atom -12398.686926 kJ/mol
# Density = 1.971010 g / cm^3
# Si number density = 19.755067 Si / 1000 Ang^3
#
#
#
# Elastic Constant Matrix: (Units=GPa)
#
#
# Indices 1 2 3 4 5 6 
#
# 1 109.2347 45.5753 22.4961 0.0000 0.0000 0.0000
# 2 45.5753 82.4542 21.2751 0.0000 0.0000 0.0000
# 3 22.4961 21.2751 95.5438 0.0000 0.0000 0.0000
# 4 0.0000 0.0000 0.0000 11.8683 0.0000 0.0000
# 5 0.0000 0.0000 0.0000 0.0000 40.8796 0.0000
# 6 0.0000 0.0000 0.0000 0.0000 0.0000 15.6316
#
#
#
# Elastic Compliance Matrix: (Units=1/GPa)
#
#
# Indices 1 2 3 4 5 6 
#
# 1 0.012083 -0.006307 -0.001441 0.000000 0.000000 0.000000
# 2 -0.006307 0.016159 -0.002113 0.000000 0.000000 0.000000
# 3 -0.001441 -0.002113 0.011276 0.000000 0.000000 0.000000
# 4 0.000000 0.000000 0.000000 0.084258 0.000000 0.000000
# 5 0.000000 0.000000 0.000000 0.000000 0.024462 0.000000
# 6 0.000000 0.000000 0.000000 0.000000 0.000000 0.063973
#
#
# Mechanical properties :
#
#
# Convention : Reuss Voigt Hill
#
# Bulk Modulus (GPa) = 50.51330 51.76952 51.14141
# Shear Modulus (GPa) = 20.96162 26.86831 23.91497
#
# Velocity S-wave (km/s) = 3.26095 3.69192 3.48310
# Velocity P-wave (km/s) = 6.30902 6.66605 6.48999
#
# Compressibility (1/GPa) = 0.01979677
#
# Stress axis : x y z
#
# Youngs Moduli (GPa) = 82.76359 61.88432 88.68271
#
# Poissons Ratio (x) = 0.39029 0.12775
# Poissons Ratio (y) = 0.52197 0.18741
# Poissons Ratio (z) = 0.11922 0.13078
#
# Static dielectric constant tensor:
#      x y z
#    x 3.752130 0.000000 0.000000 
#    y 0.000000 3.139600 0.000000 
#    z 0.000000 0.000000 3.994010 
# 
# 
# High freq. dielectric constant tensor:
#      x y z
#    x 1.775100 0.000000 0.000000 
#    y 0.000000 1.704360 0.000000 
#    z 0.000000 0.000000 1.801440 
# 
# From -- ./inp_files/2135.got.cif
#   From: 2010.03.12/outbox.cif.g09.slc.cpg/sg62_2_cif.got.tgz:2135.got - 2010.04.10 19:12:36.
