data_PCOD8252238
_publ_section_title
;
Structure prediction by ZEFSAII (Michael W. Deem and Ramdas Pophale) SiO2 
 PCOD8252238
Probable space group: P N M A
;
_chemical_formula_sum "Si O2"
_cell_formula_units_Z 56
_cell_length_a 14.185298
_cell_length_b 8.768177
_cell_length_c 24.621084
_cell_angle_alpha 90.000000
_cell_angle_beta 90.000000
_cell_angle_gamma 90.000000
_cell_volume 3062.350821
_symmetry_space_group_name_H-M "P N M A"
_symmetry_group_IT_number 62
_symmetry_cell_setting 'orthorhombic'
loop_
_space_group_symop_operation_xyz
x,y,z
1/2-x,-y,1/2+z
1/2+x,1/2-y,1/2-z
-x,1/2+y,-z
-x,-y,-z
1/2+x,y,1/2-z
1/2-x,1/2+y,1/2+z
x,1/2-y,z
loop_
_atom_site_type_symbol
_atom_site_label
_atom_site_fract_x
_atom_site_fract_y
_atom_site_fract_z
Si Si1 0.104530 0.929842 0.498984
Si Si2 0.483050 0.920112 0.838605
Si Si3 0.704521 0.424220 0.102970
Si Si4 0.144528 0.073404 0.607129
Si Si5 0.733107 0.930643 0.290200
Si Si6 0.342473 0.569349 0.317561
Si Si7 0.470395 0.572796 0.714717
O O1 0.093601 0.750000 0.495276
O O2 0.166576 0.989583 0.449508
O O3 0.162975 0.976841 0.552788
O O4 0.000000 0.000000 0.500000
O O5 0.519255 0.750000 0.853989
O O6 0.372518 0.932921 0.849472
O O7 0.500767 0.956635 0.776300
O O8 0.536765 0.044527 0.874665
O O9 0.728633 0.250000 0.087589
O O10 0.795704 0.506782 0.127359
O O11 0.158822 0.250000 0.593721
O O12 0.211156 0.016963 0.655919
O O13 0.724043 0.750000 0.287273
O O14 0.787644 0.990818 0.236450
O O15 0.630671 0.001466 0.296581
O O16 0.342602 0.750000 0.318635
O O17 0.449492 0.509624 0.320414
O O18 0.466573 0.750000 0.699863
#
# Coordination Sequence:
#
# PCOD8252238 Si02
#       7
#     8   8   8   8   8   8   8
#     4  12  24  38  57  84 115 153 192 236 287 342
#     4  10  20  32  52  82 117 152 188 232 279 335
#     4  11  22  38  57  84 117 153 193 236 283 341
#     4  11  22  37  57  83 115 153 192 236 284 342
#     4  10  22  37  56  83 115 152 191 232 285 340
#     4  11  22  37  57  84 117 154 191 235 286 342
#     4  11  22  36  56  83 116 154 193 236 283 336
#
# _framework density 18.286605000000002
#
# number of rings (size 3 to 8) (size 9 to 14) (size 15 to 20)
#    0.000    1.143    4.286    3.000    0.000    2.857 
#    0.000    0.000    0.000    0.857    0.000    0.000 
#    0.000    0.000    0.000    0.000    0.000    0.000 
#
# Total GULP energy -694518.667563 kJ/mol
# GULP energy per Si atom -12402.119064 kJ/mol
# Density = 1.824498 g / cm^3
# Si number density = 18.286605 Si / 1000 Ang^3
#
#
#
# Elastic Constant Matrix: (Units=GPa)
#
#
# Indices 1 2 3 4 5 6 
#
# 1 82.4148 32.1978 33.0224 0.0000 0.0000 0.0000
# 2 32.1978 75.9847 37.1954 0.0000 0.0000 0.0000
# 3 33.0224 37.1954 75.2199 0.0000 0.0000 0.0000
# 4 0.0000 0.0000 0.0000 30.7307 0.0000 0.0000
# 5 0.0000 0.0000 0.0000 0.0000 29.2698 0.0000
# 6 0.0000 0.0000 0.0000 0.0000 0.0000 31.0673
#
#
#
# Elastic Compliance Matrix: (Units=1/GPa)
#
#
# Indices 1 2 3 4 5 6 
#
# 1 0.015737 -0.004336 -0.004765 0.000000 0.000000 0.000000
# 2 -0.004336 0.018558 -0.007273 0.000000 0.000000 0.000000
# 3 -0.004765 -0.007273 0.018983 0.000000 0.000000 0.000000
# 4 0.000000 0.000000 0.000000 0.032541 0.000000 0.000000
# 5 0.000000 0.000000 0.000000 0.000000 0.034165 0.000000
# 6 0.000000 0.000000 0.000000 0.000000 0.000000 0.032188
#
#
# Mechanical properties :
#
#
# Convention : Reuss Voigt Hill
#
# Bulk Modulus (GPa) = 48.70922 48.71671 48.71297
# Shear Modulus (GPa) = 26.07392 26.96048 26.51720
#
# Velocity S-wave (km/s) = 3.78014 3.84387 3.81213
# Velocity P-wave (km/s) = 6.76365 6.81167 6.78770
#
# Compressibility (1/GPa) = 0.02052999
#
# Stress axis : x y z
#
# Youngs Moduli (GPa) = 63.54525 53.88438 52.67989
#
# Poissons Ratio (x) = 0.23364 0.25099
# Poissons Ratio (y) = 0.27553 0.38316
# Poissons Ratio (z) = 0.30276 0.39192
#
# Static dielectric constant tensor:
#      x y z
#    x 3.279430 0.000000 0.000000 
#    y 0.000000 3.429660 0.000000 
#    z 0.000000 0.000000 3.348220 
# 
# 
# High freq. dielectric constant tensor:
#      x y z
#    x 1.694650 0.000000 0.000000 
#    y 0.000000 1.719180 0.000000 
#    z 0.000000 0.000000 1.701740 
# 
# From -- ./inp_files/27145.got.cif
#   From: 2010.03.12/outbox.cif.g09.slc.cpg/sg62_14_cif.got.tgz:27145.got - 2010.04.10 19:12:36.
