data_PCOD8252517
_publ_section_title
;
Structure prediction by ZEFSAII (Michael W. Deem and Ramdas Pophale) SiO2 
 PCOD8252517
Probable space group: P N M A
;
_chemical_formula_sum "Si O2"
_cell_formula_units_Z 64
_cell_length_a 19.531415
_cell_length_b 8.899014
_cell_length_c 19.952643
_cell_angle_alpha 90.000000
_cell_angle_beta 90.000000
_cell_angle_gamma 90.000000
_cell_volume 3467.975574
_symmetry_space_group_name_H-M "P N M A"
_symmetry_group_IT_number 62
_symmetry_cell_setting 'orthorhombic'
loop_
_space_group_symop_operation_xyz
x,y,z
1/2-x,-y,1/2+z
1/2+x,1/2-y,1/2-z
-x,1/2+y,-z
-x,-y,-z
1/2+x,y,1/2-z
1/2-x,1/2+y,1/2+z
x,1/2-y,z
loop_
_atom_site_type_symbol
_atom_site_label
_atom_site_fract_x
_atom_site_fract_y
_atom_site_fract_z
Si Si1 0.404720 0.423818 0.302976
Si Si2 0.561076 0.423891 0.339032
Si Si3 0.562412 0.422237 0.827921
Si Si4 0.929591 0.925937 0.478504
Si Si5 0.092093 0.922596 0.292674
Si Si6 0.570279 0.572283 0.476177
Si Si7 0.671433 0.576732 0.078285
Si Si8 0.168718 0.075801 0.920012
O O1 0.385159 0.250000 0.308943
O O2 0.480695 0.455867 0.330273
O O3 0.398667 0.473914 0.225733
O O4 0.352294 0.521710 0.346149
O O5 0.576165 0.250000 0.352330
O O6 0.602046 0.475754 0.273109
O O7 0.588530 0.519389 0.401444
O O8 0.579259 0.250000 0.810439
O O9 0.588301 0.467061 0.901643
O O10 0.481348 0.451350 0.826173
O O11 0.939866 0.750000 0.486937
O O12 0.866280 0.979129 0.522696
O O13 0.000000 0.000000 0.500000
O O14 0.100997 0.750000 0.270891
O O15 0.148432 0.972287 0.347109
O O16 0.500000 0.500000 0.500000
O O17 0.562387 0.750000 0.479004
O O18 0.631182 0.522838 0.524440
O O19 0.651164 0.750000 0.067088
O O20 0.751324 0.548122 0.070571
O O21 0.149000 0.250000 0.928494
#
# Coordination Sequence:
#
# PCOD8252517 Si02
#       8
#     8   8   8   8   8   8   8   8
#     4  10  20  34  55  83 114 145 186 235 282 337
#     4  10  20  34  55  86 116 142 185 237 285 333
#     4   9  18  33  55  82 113 145 186 233 282 336
#     4  11  21  35  58  87 118 154 195 242 289 342
#     4   9  17  34  56  80 113 148 186 230 281 338
#     4  12  23  37  59  86 116 150 192 239 288 343
#     4  10  22  40  59  84 117 155 195 236 289 350
#     4  11  23  39  60  83 116 156 192 235 290 348
#
# _framework density 18.454571000000001
#
# number of rings (size 3 to 8) (size 9 to 14) (size 15 to 20)
#    0.000    1.750    2.500    2.625    0.000    3.500 
#    0.000    1.250    0.000    1.500    0.000    0.000 
#    0.000    0.000    0.000    0.000    0.000    0.000 
#
# Total GULP energy -793881.825748 kJ/mol
# GULP energy per Si atom -12404.403527 kJ/mol
# Density = 1.841257 g / cm^3
# Si number density = 18.454571 Si / 1000 Ang^3
#
#
#
# Elastic Constant Matrix: (Units=GPa)
#
#
# Indices 1 2 3 4 5 6 
#
# 1 70.5582 45.8596 53.2472 0.0000 0.0000 0.0000
# 2 45.8596 113.6980 73.1074 0.0000 0.0000 0.0000
# 3 53.2472 73.1074 144.6970 0.0000 0.0000 0.0000
# 4 0.0000 0.0000 0.0000 38.8681 0.0000 0.0000
# 5 0.0000 0.0000 0.0000 0.0000 27.6280 0.0000
# 6 0.0000 0.0000 0.0000 0.0000 0.0000 24.8848
#
#
#
# Elastic Compliance Matrix: (Units=1/GPa)
#
#
# Indices 1 2 3 4 5 6 
#
# 1 0.021607 -0.005336 -0.005255 0.000000 0.000000 0.000000
# 2 -0.005336 0.014345 -0.005284 0.000000 0.000000 0.000000
# 3 -0.005255 -0.005284 0.011515 0.000000 0.000000 0.000000
# 4 0.000000 0.000000 0.000000 0.025728 0.000000 0.000000
# 5 0.000000 0.000000 0.000000 0.000000 0.036195 0.000000
# 6 0.000000 0.000000 0.000000 0.000000 0.000000 0.040185
#
#
# Mechanical properties :
#
#
# Convention : Reuss Voigt Hill
#
# Bulk Modulus (GPa) = 63.62979 74.82018 69.22498
# Shear Modulus (GPa) = 26.80046 28.72545 27.76295
#
# Velocity S-wave (km/s) = 3.81496 3.94959 3.88286
# Velocity P-wave (km/s) = 7.34569 7.83773 7.59570
#
# Compressibility (1/GPa) = 0.01571591
#
# Stress axis : x y z
#
# Youngs Moduli (GPa) = 46.28226 69.70968 86.84578
#
# Poissons Ratio (x) = 0.37196 0.45638
# Poissons Ratio (y) = 0.24696 0.45892
# Poissons Ratio (z) = 0.24322 0.36837
#
# Static dielectric constant tensor:
#      x y z
#    x 3.185730 0.000000 0.000000 
#    y 0.000000 3.466130 0.000000 
#    z 0.000000 0.000000 3.623260 
# 
# 
# High freq. dielectric constant tensor:
#      x y z
#    x 1.685430 0.000000 0.000000 
#    y 0.000000 1.723930 0.000000 
#    z 0.000000 0.000000 1.731150 
# 
# From -- ./inp_files/27705.got.cif
#   From: 2010.03.12/outbox.cif.g09.slc.cpg/sg62_14_cif.got.tgz:27705.got - 2010.04.10 19:12:36.
