data_PCOD8252972
_publ_section_title
;
Structure prediction by ZEFSAII (Michael W. Deem and Ramdas Pophale) SiO2 
 PCOD8252972
Probable space group: P N M A
;
_chemical_formula_sum "Si O2"
_cell_formula_units_Z 48
_cell_length_a 9.831336
_cell_length_b 8.415627
_cell_length_c 29.928091
_cell_angle_alpha 90.000000
_cell_angle_beta 90.000000
_cell_angle_gamma 90.000000
_cell_volume 2476.156176
_symmetry_space_group_name_H-M "P N M A"
_symmetry_group_IT_number 62
_symmetry_cell_setting 'orthorhombic'
loop_
_space_group_symop_operation_xyz
x,y,z
1/2-x,-y,1/2+z
1/2+x,1/2-y,1/2-z
-x,1/2+y,-z
-x,-y,-z
1/2+x,y,1/2-z
1/2-x,1/2+y,1/2+z
x,1/2-y,z
loop_
_atom_site_type_symbol
_atom_site_label
_atom_site_fract_x
_atom_site_fract_y
_atom_site_fract_z
Si Si1 0.366500 0.936032 0.881910
Si Si2 0.843790 0.433358 0.714200
Si Si3 0.635536 0.565455 0.782020
Si Si4 0.155377 0.065469 0.623678
Si Si5 0.164976 0.935859 0.959454
Si Si6 0.855559 0.567050 0.946040
O O1 0.348917 0.750000 0.872879
O O2 0.271225 0.993088 0.922273
O O3 0.321428 0.030185 0.837866
O O4 0.521964 0.974826 0.894427
O O5 0.813381 0.250000 0.723970
O O6 0.740849 0.540172 0.742322
O O7 0.996712 0.473522 0.729005
O O8 0.600949 0.750000 0.787281
O O9 0.699838 0.501599 0.828137
O O10 0.120313 0.250000 0.628311
O O11 0.278239 0.040950 0.589588
O O12 0.178351 0.750000 0.970087
O O13 0.014157 0.977620 0.942337
O O14 0.199288 0.031406 0.004371
O O15 0.828784 0.750000 0.934455
#
# Coordination Sequence:
#
# PCOD8252972 Si02
#       6
#     8   8   8   8   8   8
#     4  10  20  37  58  81 110 144 183 227 276 329
#     4  11  22  38  58  84 115 146 184 230 279 330
#     4  11  22  39  60  83 112 148 188 229 277 331
#     4  11  22  37  56  81 112 145 184 228 274 325
#     4   9  20  37  57  81 109 141 181 227 273 325
#     4  10  20  36  57  81 110 144 182 225 275 329
#
# _framework density 19.384882999999999
#
# number of rings (size 3 to 8) (size 9 to 14) (size 15 to 20)
#    0.000    1.667    0.000    7.500    0.000    4.000 
#    0.000    5.000    0.000    0.000    0.000    0.000 
#    0.000    0.000    0.000    0.000    0.000    0.000 
#
# Total GULP energy -595490.071969 kJ/mol
# GULP energy per Si atom -12406.043166 kJ/mol
# Density = 1.934076 g / cm^3
# Si number density = 19.384883 Si / 1000 Ang^3
#
#
#
# Elastic Constant Matrix: (Units=GPa)
#
#
# Indices 1 2 3 4 5 6 
#
# 1 31.8832 10.7225 9.2124 0.0000 0.0000 0.0000
# 2 10.7225 72.1924 16.8112 0.0000 0.0000 0.0000
# 3 9.2124 16.8112 31.5947 0.0000 0.0000 0.0000
# 4 0.0000 0.0000 0.0000 34.5332 0.0000 0.0000
# 5 0.0000 0.0000 0.0000 0.0000 40.6572 0.0000
# 6 0.0000 0.0000 0.0000 0.0000 0.0000 25.5866
#
#
#
# Elastic Compliance Matrix: (Units=1/GPa)
#
#
# Indices 1 2 3 4 5 6 
#
# 1 0.034890 -0.003211 -0.008465 0.000000 0.000000 0.000000
# 2 -0.003211 0.016106 -0.007634 0.000000 0.000000 0.000000
# 3 -0.008465 -0.007634 0.038181 0.000000 0.000000 0.000000
# 4 0.000000 0.000000 0.000000 0.028958 0.000000 0.000000
# 5 0.000000 0.000000 0.000000 0.000000 0.024596 0.000000
# 6 0.000000 0.000000 0.000000 0.000000 0.000000 0.039083
#
#
# Mechanical properties :
#
#
# Convention : Reuss Voigt Hill
#
# Bulk Modulus (GPa) = 19.77911 23.24028 21.50969
# Shear Modulus (GPa) = 21.07164 26.75035 23.91100
#
# Velocity S-wave (km/s) = 3.30057 3.71881 3.51591
# Velocity P-wave (km/s) = 4.97499 5.51854 5.25380
#
# Compressibility (1/GPa) = 0.05055839
#
# Stress axis : x y z
#
# Youngs Moduli (GPa) = 28.66140 62.08702 26.19111
#
# Poissons Ratio (x) = 0.19936 0.22170
# Poissons Ratio (y) = 0.09203 0.19994
# Poissons Ratio (z) = 0.24261 0.47396
#
# Static dielectric constant tensor:
#      x y z
#    x 3.493450 0.000000 0.000000 
#    y 0.000000 3.552960 0.000000 
#    z 0.000000 0.000000 3.510170 
# 
# 
# High freq. dielectric constant tensor:
#      x y z
#    x 1.751790 0.000000 0.000000 
#    y 0.000000 1.767220 0.000000 
#    z 0.000000 0.000000 1.755890 
# 
# From -- ./inp_files/31929.got.cif
#   From: 2010.03.12/outbox.cif.g09.slc.cpg/sg62_16_cif.got.tgz:31929.got - 2010.04.10 19:12:36.
