data_PCOD8252845
_publ_section_title
;
Structure prediction by ZEFSAII (Michael W. Deem and Ramdas Pophale) SiO2 
 PCOD8252845
Probable space group: P N M A
;
_chemical_formula_sum "Si O2"
_cell_formula_units_Z 48
_cell_length_a 17.679606
_cell_length_b 8.821536
_cell_length_c 16.468278
_cell_angle_alpha 90.000000
_cell_angle_beta 90.000000
_cell_angle_gamma 90.000000
_cell_volume 2568.413729
_symmetry_space_group_name_H-M "P N M A"
_symmetry_group_IT_number 62
_symmetry_cell_setting 'orthorhombic'
loop_
_space_group_symop_operation_xyz
x,y,z
1/2-x,-y,1/2+z
1/2+x,1/2-y,1/2-z
-x,1/2+y,-z
-x,-y,-z
1/2+x,y,1/2-z
1/2-x,1/2+y,1/2+z
x,1/2-y,z
loop_
_atom_site_type_symbol
_atom_site_label
_atom_site_fract_x
_atom_site_fract_y
_atom_site_fract_z
Si Si1 0.941645 0.072981 0.261243
Si Si2 0.097717 0.075498 0.173300
Si Si3 0.163809 0.922829 0.321581
Si Si4 0.665690 0.074153 0.638825
Si Si5 0.986336 0.072655 0.586638
Si Si6 0.581677 0.571668 0.491206
O O1 0.925784 0.250000 0.272681
O O2 0.012279 0.042890 0.201858
O O3 0.869104 0.993389 0.221446
O O4 0.955983 0.000650 0.349081
O O5 0.109505 0.250000 0.150542
O O6 0.155857 0.030715 0.243819
O O7 0.116830 0.974742 0.095090
O O8 0.154005 0.750000 0.291950
O O9 0.244643 0.950809 0.361543
O O10 0.099990 0.962772 0.387932
O O11 0.643473 0.250000 0.632419
O O12 0.636444 0.985377 0.561159
O O13 0.003106 0.250000 0.582302
O O14 0.000000 0.000000 0.500000
O O15 0.500000 0.500000 0.500000
O O16 0.573648 0.750000 0.498487
#
# Coordination Sequence:
#
# PCOD8252845 Si02
#       6
#     8   8   8   8   8   8
#     4  10  20  35  58  85 113 148 189 233 284 346
#     4  10  20  36  59  85 113 149 191 233 283 342
#     4   9  21  40  60  83 115 152 191 237 292 344
#     4  11  22  38  59  85 118 153 191 240 293 346
#     4  10  20  38  62  86 113 149 195 244 286 340
#     4  12  23  36  58  87 119 154 194 240 287 345
#
# _framework density 18.688576999999999
#
# number of rings (size 3 to 8) (size 9 to 14) (size 15 to 20)
#    0.000    1.667    1.667    3.500    0.000    3.333 
#    3.000    0.000    0.000    0.000    0.000    0.000 
#    0.000    0.000    0.000    0.000    0.000    0.000 
#
# Total GULP energy -595455.633689 kJ/mol
# GULP energy per Si atom -12405.325702 kJ/mol
# Density = 1.864604 g / cm^3
# Si number density = 18.688577 Si / 1000 Ang^3
#
#
#
# Elastic Constant Matrix: (Units=GPa)
#
#
# Indices 1 2 3 4 5 6 
#
# 1 86.5824 49.3661 54.2687 0.0000 0.0000 0.0000
# 2 49.3661 140.5714 76.7739 0.0000 0.0000 0.0000
# 3 54.2687 76.7739 151.7093 0.0000 0.0000 0.0000
# 4 0.0000 0.0000 0.0000 41.2628 0.0000 0.0000
# 5 0.0000 0.0000 0.0000 0.0000 22.3186 0.0000
# 6 0.0000 0.0000 0.0000 0.0000 0.0000 26.6218
#
#
#
# Elastic Compliance Matrix: (Units=1/GPa)
#
#
# Indices 1 2 3 4 5 6 
#
# 1 0.016012 -0.003448 -0.003983 0.000000 0.000000 0.000000
# 2 -0.003448 0.010573 -0.004117 0.000000 0.000000 0.000000
# 3 -0.003983 -0.004117 0.010100 0.000000 0.000000 0.000000
# 4 0.000000 0.000000 0.000000 0.024235 0.000000 0.000000
# 5 0.000000 0.000000 0.000000 0.000000 0.044806 0.000000
# 6 0.000000 0.000000 0.000000 0.000000 0.000000 0.037563
#
#
# Mechanical properties :
#
#
# Convention : Reuss Voigt Hill
#
# Bulk Modulus (GPa) = 73.58901 82.18674 77.88788
# Shear Modulus (GPa) = 29.25431 31.27094 30.26262
#
# Velocity S-wave (km/s) = 3.96075 4.09499 4.02843
# Velocity P-wave (km/s) = 7.77037 8.15053 7.96272
#
# Compressibility (1/GPa) = 0.01358899
#
# Stress axis : x y z
#
# Youngs Moduli (GPa) = 62.45340 94.57707 99.01020
#
# Poissons Ratio (x) = 0.32608 0.39435
# Poissons Ratio (y) = 0.21533 0.40767
# Poissons Ratio (z) = 0.24875 0.38941
#
# Static dielectric constant tensor:
#      x y z
#    x 3.376190 0.000000 0.000000 
#    y 0.000000 3.645110 0.000000 
#    z 0.000000 0.000000 3.528730 
# 
# 
# High freq. dielectric constant tensor:
#      x y z
#    x 1.710090 0.000000 0.000000 
#    y 0.000000 1.742370 0.000000 
#    z 0.000000 0.000000 1.731540 
# 
# From -- ./inp_files/19637.got.cif
#   From: 2010.03.12/outbox.cif.g09.slc.cpg/sg62_10_cif.got.tgz:19637.got - 2010.04.10 19:12:36.
