data_PCOD8252023
_publ_section_title
;
Structure prediction by ZEFSAII (Michael W. Deem and Ramdas Pophale) SiO2 
 PCOD8252023
Probable space group: P N M A
;
_chemical_formula_sum "Si O2"
_cell_formula_units_Z 64
_cell_length_a 18.813578
_cell_length_b 8.471158
_cell_length_c 19.311140
_cell_angle_alpha 90.000000
_cell_angle_beta 90.000000
_cell_angle_gamma 90.000000
_cell_volume 3077.670294
_symmetry_space_group_name_H-M "P N M A"
_symmetry_group_IT_number 62
_symmetry_cell_setting 'orthorhombic'
loop_
_space_group_symop_operation_xyz
x,y,z
1/2-x,-y,1/2+z
1/2+x,1/2-y,1/2-z
-x,1/2+y,-z
-x,-y,-z
1/2+x,y,1/2-z
1/2-x,1/2+y,1/2+z
x,1/2-y,z
loop_
_atom_site_type_symbol
_atom_site_label
_atom_site_fract_x
_atom_site_fract_y
_atom_site_fract_z
Si Si1 0.864254 0.063374 0.673334
Si Si2 0.791820 0.065481 0.533082
Si Si3 0.477715 0.937305 0.194085
Si Si4 0.139261 0.930881 0.961756
Si Si5 0.944490 0.567369 0.155551
Si Si6 0.296341 0.065724 0.683517
Si Si7 0.345953 0.565517 0.105284
Si Si8 0.581681 0.069307 0.406575
O O1 0.870070 0.250000 0.670802
O O2 0.832415 0.001736 0.601085
O O3 0.813496 0.012068 0.737511
O O4 0.943715 0.990768 0.680788
O O5 0.773444 0.250000 0.539688
O O6 0.721342 0.963860 0.525925
O O7 0.837798 0.035057 0.464493
O O8 0.483395 0.750000 0.198657
O O9 0.448015 0.000998 0.266941
O O10 0.422166 0.988683 0.135145
O O11 0.123902 0.750000 0.979222
O O12 0.116956 0.970992 0.883528
O O13 0.091532 0.038277 0.012017
O O14 0.922941 0.750000 0.154478
O O15 0.021299 0.545688 0.121353
O O16 0.314291 0.250000 0.674020
O O17 0.214773 0.029483 0.662973
O O18 0.344586 0.965795 0.631686
O O19 0.345260 0.750000 0.086575
O O20 0.558810 0.250000 0.395332
#
# Coordination Sequence:
#
# PCOD8252023 Si02
#       8
#     8   8   8   8   8   8   8   8
#     4   9  19  37  62  90 120 157 205 250 297 364
#     4  11  23  39  62  90 120 157 204 254 306 358
#     4   9  19  37  63  91 117 159 209 249 293 360
#     4  12  25  41  59  86 125 162 202 248 300 361
#     4  11  22  39  64  91 122 159 203 248 296 358
#     4  10  19  36  62  88 118 159 202 247 298 358
#     4  10  21  37  62  90 121 159 205 249 300 359
#     4  12  23  38  61  90 124 160 199 244 301 362
#
# _framework density 20.794951000000001
#
# number of rings (size 3 to 8) (size 9 to 14) (size 15 to 20)
#    0.000    1.500    2.500    3.375    1.750    0.500 
#    0.000    2.500    0.000    0.000    0.000    0.000 
#    0.000    0.000    0.000    0.000    0.000    0.000 
#
# Total GULP energy -793782.918516 kJ/mol
# GULP energy per Si atom -12402.858102 kJ/mol
# Density = 2.074762 g / cm^3
# Si number density = 20.794951 Si / 1000 Ang^3
#
#
#
# Elastic Constant Matrix: (Units=GPa)
#
#
# Indices 1 2 3 4 5 6 
#
# 1 51.5583 14.0966 35.5210 0.0000 0.0000 0.0000
# 2 14.0966 49.6165 20.8910 0.0000 0.0000 0.0000
# 3 35.5210 20.8910 137.4028 0.0000 0.0000 0.0000
# 4 0.0000 0.0000 0.0000 20.9344 0.0000 0.0000
# 5 0.0000 0.0000 0.0000 0.0000 39.6204 0.0000
# 6 0.0000 0.0000 0.0000 0.0000 0.0000 22.6944
#
#
#
# Elastic Compliance Matrix: (Units=1/GPa)
#
#
# Indices 1 2 3 4 5 6 
#
# 1 0.024542 -0.004595 -0.005646 0.000000 0.000000 0.000000
# 2 -0.004595 0.022394 -0.002217 0.000000 0.000000 0.000000
# 3 -0.005646 -0.002217 0.009074 0.000000 0.000000 0.000000
# 4 0.000000 0.000000 0.000000 0.047768 0.000000 0.000000
# 5 0.000000 0.000000 0.000000 0.000000 0.025240 0.000000
# 6 0.000000 0.000000 0.000000 0.000000 0.000000 0.044064
#
#
# Mechanical properties :
#
#
# Convention : Reuss Voigt Hill
#
# Bulk Modulus (GPa) = 32.16078 42.17719 37.16899
# Shear Modulus (GPa) = 23.99677 27.85445 25.92561
#
# Velocity S-wave (km/s) = 3.40070 3.66386 3.53473
# Velocity P-wave (km/s) = 5.56048 6.18264 5.87979
#
# Compressibility (1/GPa) = 0.03109377
#
# Stress axis : x y z
#
# Youngs Moduli (GPa) = 40.74722 44.65571 110.19967
#
# Poissons Ratio (x) = 0.20521 0.62216
# Poissons Ratio (y) = 0.18725 0.24429
# Poissons Ratio (z) = 0.23005 0.09899
#
# Static dielectric constant tensor:
#      x y z
#    x 3.821210 0.000000 0.000000 
#    y 0.000000 3.389560 0.000000 
#    z 0.000000 0.000000 3.992660 
# 
# 
# High freq. dielectric constant tensor:
#      x y z
#    x 1.815840 0.000000 0.000000 
#    y 0.000000 1.783690 0.000000 
#    z 0.000000 0.000000 1.823660 
# 
# From -- ./inp_files/27620.got.cif
#   From: 2010.03.12/outbox.cif.g09.slc.cpg/sg62_14_cif.got.tgz:27620.got - 2010.04.10 19:12:36.
