data_PCOD8252800
_publ_section_title
;
Structure prediction by ZEFSAII (Michael W. Deem and Ramdas Pophale) SiO2 
 PCOD8252800
Probable space group: P N M A
;
_chemical_formula_sum "Si O2"
_cell_formula_units_Z 56
_cell_length_a 21.411489
_cell_length_b 9.142059
_cell_length_c 14.385370
_cell_angle_alpha 90.000000
_cell_angle_beta 90.000000
_cell_angle_gamma 90.000000
_cell_volume 2815.865628
_symmetry_space_group_name_H-M "P N M A"
_symmetry_group_IT_number 62
_symmetry_cell_setting 'orthorhombic'
loop_
_space_group_symop_operation_xyz
x,y,z
1/2-x,-y,1/2+z
1/2+x,1/2-y,1/2-z
-x,1/2+y,-z
-x,-y,-z
1/2+x,y,1/2-z
1/2-x,1/2+y,1/2+z
x,1/2-y,z
loop_
_atom_site_type_symbol
_atom_site_label
_atom_site_fract_x
_atom_site_fract_y
_atom_site_fract_z
Si Si1 0.389765 0.421334 0.301293
Si Si2 0.636049 0.082894 0.327970
Si Si3 0.719461 0.581951 0.835447
Si Si4 0.433887 0.922178 0.483228
Si Si5 0.399473 0.416450 0.845989
Si Si6 0.351090 0.582100 0.011789
Si Si7 0.959711 0.585667 0.350108
O O1 0.397368 0.250000 0.322490
O O2 0.322521 0.458771 0.254757
O O3 0.397348 0.511074 0.395763
O O4 0.444029 0.469737 0.230321
O O5 0.621133 0.250000 0.302194
O O6 0.708957 0.049235 0.314440
O O7 0.612098 0.047396 0.430849
O O8 0.599722 0.978453 0.257937
O O9 0.707592 0.750000 0.862551
O O10 0.702547 0.485505 0.924455
O O11 0.445573 0.750000 0.468021
O O12 0.500000 0.000000 0.500000
O O13 0.376838 0.250000 0.844458
O O14 0.469637 0.432815 0.883891
O O15 0.352220 0.504714 0.911783
O O16 0.334623 0.750000 0.994809
O O17 0.417766 0.556955 0.059865
O O18 0.947820 0.750000 0.311227
#
# Coordination Sequence:
#
# PCOD8252800 Si02
#       7
#     8   8   8   8   8   8   8
#     4  10  20  35  59  85 111 146 184 228 281 335
#     4  10  23  41  58  79 110 148 188 233 281 330
#     4   9  20  40  60  81 111 145 186 231 277 332
#     4  11  23  39  60  85 115 150 191 238 286 338
#     4  11  22  35  54  81 112 145 180 222 273 326
#     4  10  20  35  57  83 112 146 183 223 269 325
#     4   9  19  35  55  82 114 146 181 221 267 324
#
# _framework density 19.887312999999999
#
# number of rings (size 3 to 8) (size 9 to 14) (size 15 to 20)
#    0.000    2.000    0.000    3.000    0.000    7.429 
#    0.000    2.857    0.000    0.000    0.000    0.000 
#    0.000    0.000    0.000    0.000    0.000    0.000 
#
# Total GULP energy -694571.533233 kJ/mol
# GULP energy per Si atom -12403.063093 kJ/mol
# Density = 1.984205 g / cm^3
# Si number density = 19.887313 Si / 1000 Ang^3
#
#
#
# Elastic Constant Matrix: (Units=GPa)
#
#
# Indices 1 2 3 4 5 6 
#
# 1 71.3387 35.5158 24.1993 0.0000 0.0000 0.0000
# 2 35.5158 113.1073 59.9569 0.0000 0.0000 0.0000
# 3 24.1993 59.9569 104.7543 0.0000 0.0000 0.0000
# 4 0.0000 0.0000 0.0000 41.8266 0.0000 0.0000
# 5 0.0000 0.0000 0.0000 0.0000 21.0827 0.0000
# 6 0.0000 0.0000 0.0000 0.0000 0.0000 26.9060
#
#
#
# Elastic Compliance Matrix: (Units=1/GPa)
#
#
# Indices 1 2 3 4 5 6 
#
# 1 0.016725 -0.004599 -0.001231 0.000000 0.000000 0.000000
# 2 -0.004599 0.013956 -0.006926 0.000000 0.000000 0.000000
# 3 -0.001231 -0.006926 0.013795 0.000000 0.000000 0.000000
# 4 0.000000 0.000000 0.000000 0.023908 0.000000 0.000000
# 5 0.000000 0.000000 0.000000 0.000000 0.047432 0.000000
# 6 0.000000 0.000000 0.000000 0.000000 0.000000 0.037166
#
#
# Mechanical properties :
#
#
# Convention : Reuss Voigt Hill
#
# Bulk Modulus (GPa) = 52.73159 58.72715 55.72937
# Shear Modulus (GPa) = 27.05392 29.26494 28.15943
#
# Velocity S-wave (km/s) = 3.69231 3.84022 3.76699
# Velocity P-wave (km/s) = 6.68956 7.01834 6.85593
#
# Compressibility (1/GPa) = 0.01896396
#
# Stress axis : x y z
#
# Youngs Moduli (GPa) = 59.79110 71.65151 72.49220
#
# Poissons Ratio (x) = 0.32952 0.08927
# Poissons Ratio (y) = 0.27497 0.50206
# Poissons Ratio (z) = 0.07363 0.49624
#
# Static dielectric constant tensor:
#      x y z
#    x 3.543080 0.000000 0.000000 
#    y 0.000000 3.715870 0.000000 
#    z 0.000000 0.000000 3.513020 
# 
# 
# High freq. dielectric constant tensor:
#      x y z
#    x 1.769600 0.000000 0.000000 
#    y 0.000000 1.784430 0.000000 
#    z 0.000000 0.000000 1.776550 
# 
# From -- ./inp_files/20314.got.cif
#   From: 2010.03.12/outbox.cif.g09.slc.cpg/sg62_11_cif.got.tgz:20314.got - 2010.04.10 19:12:36.
