data_PCOD8252268
_publ_section_title
;
Structure prediction by ZEFSAII (Michael W. Deem and Ramdas Pophale) SiO2 
 PCOD8252268
Probable space group: P N M A
;
_chemical_formula_sum "Si O2"
_cell_formula_units_Z 64
_cell_length_a 30.297081
_cell_length_b 8.573445
_cell_length_c 14.656578
_cell_angle_alpha 90.000000
_cell_angle_beta 90.000000
_cell_angle_gamma 90.000000
_cell_volume 3807.051377
_symmetry_space_group_name_H-M "P N M A"
_symmetry_group_IT_number 62
_symmetry_cell_setting 'orthorhombic'
loop_
_space_group_symop_operation_xyz
x,y,z
1/2-x,-y,1/2+z
1/2+x,1/2-y,1/2-z
-x,1/2+y,-z
-x,-y,-z
1/2+x,y,1/2-z
1/2-x,1/2+y,1/2+z
x,1/2-y,z
loop_
_atom_site_type_symbol
_atom_site_label
_atom_site_fract_x
_atom_site_fract_y
_atom_site_fract_z
Si Si1 0.823939 0.564730 0.502009
Si Si2 0.726749 0.565442 0.501478
Si Si3 0.867751 0.933698 0.318791
Si Si4 0.629449 0.065062 0.182023
Si Si5 0.791690 0.065959 0.201861
Si Si6 0.704688 0.565051 0.302657
Si Si7 0.951182 0.067174 0.395637
Si Si8 0.045208 0.566295 0.396050
O O1 0.822926 0.750000 0.503551
O O2 0.775436 0.492225 0.499612
O O3 0.849124 0.503112 0.414130
O O4 0.847238 0.500601 0.591545
O O5 0.730260 0.750000 0.500186
O O6 0.704620 0.510123 0.596128
O O7 0.702969 0.510094 0.408679
O O8 0.863103 0.750000 0.305217
O O9 0.838981 0.016605 0.241321
O O10 0.918915 0.983778 0.322188
O O11 0.624520 0.250000 0.185451
O O12 0.659638 0.008437 0.264960
O O13 0.581043 0.987834 0.179141
O O14 0.784812 0.250000 0.208574
O O15 0.749568 0.990838 0.252884
O O16 0.703310 0.750000 0.293045
O O17 0.945300 0.250000 0.384521
O O18 0.941418 0.014335 0.500625
O O19 0.000232 0.018155 0.367607
O O20 0.037845 0.750000 0.391447
#
# Coordination Sequence:
#
# PCOD8252268 Si02
#       8
#     8   8   8   8   8   8   8   8
#     4   9  16  28  47  69  98 135 170 201 248 299
#     4   9  18  34  50  67  98 137 172 209 256 300
#     4  11  20  33  51  73 102 138 172 210 256 304
#     4  11  20  33  51  73 102 138 172 210 256 304
#     4  11  21  34  51  73  99 134 175 215 255 304
#     4  11  21  34  51  73  99 134 175 215 255 304
#     4  10  20  33  50  75 104 135 171 210 252 302
#     4  10  20  33  50  75 104 135 171 210 252 302
#
# _framework density 16.810911000000001
#
# number of rings (size 3 to 8) (size 9 to 14) (size 15 to 20)
#    0.000    1.750    3.750    2.250    0.000    1.000 
#    0.000    3.750    0.000    0.000    0.000    0.875 
#    0.000    0.000    0.000    0.000    0.000    0.000 
#
# Total GULP energy -793318.241430 kJ/mol
# GULP energy per Si atom -12395.597522 kJ/mol
# Density = 1.677265 g / cm^3
# Si number density = 16.810911 Si / 1000 Ang^3
#
#
#
# Elastic Constant Matrix: (Units=GPa)
#
#
# Indices 1 2 3 4 5 6 
#
# 1 101.0672 7.0223 41.0974 0.0000 0.0000 0.0000
# 2 7.0223 38.5342 14.2328 0.0000 0.0000 0.0000
# 3 41.0974 14.2328 100.9524 0.0000 0.0000 0.0000
# 4 0.0000 0.0000 0.0000 19.4768 0.0000 0.0000
# 5 0.0000 0.0000 0.0000 0.0000 25.0651 0.0000
# 6 0.0000 0.0000 0.0000 0.0000 0.0000 30.0252
#
#
#
# Elastic Compliance Matrix: (Units=1/GPa)
#
#
# Indices 1 2 3 4 5 6 
#
# 1 0.011863 -0.000399 -0.004773 0.000000 0.000000 0.000000
# 2 -0.000399 0.027390 -0.003699 0.000000 0.000000 0.000000
# 3 -0.004773 -0.003699 0.012370 0.000000 0.000000 0.000000
# 4 0.000000 0.000000 0.000000 0.051343 0.000000 0.000000
# 5 0.000000 0.000000 0.000000 0.000000 0.039896 0.000000
# 6 0.000000 0.000000 0.000000 0.000000 0.000000 0.033305
#
#
# Mechanical properties :
#
#
# Convention : Reuss Voigt Hill
#
# Bulk Modulus (GPa) = 29.51517 40.58428 35.04973
# Shear Modulus (GPa) = 24.36599 26.79351 25.57975
#
# Velocity S-wave (km/s) = 3.81125 3.99659 3.90502
# Velocity P-wave (km/s) = 6.07970 6.74471 6.42082
#
# Compressibility (1/GPa) = 0.03388088
#
# Stress axis : x y z
#
# Youngs Moduli (GPa) = 84.29532 36.50972 80.83857
#
# Poissons Ratio (x) = 0.01456 0.38586
# Poissons Ratio (y) = 0.03362 0.29904
# Poissons Ratio (z) = 0.40236 0.13506
#
# Static dielectric constant tensor:
#      x y z
#    x 3.164550 0.000000 0.000000 
#    y 0.000000 3.019130 0.000000 
#    z 0.000000 0.000000 3.236200 
# 
# 
# High freq. dielectric constant tensor:
#      x y z
#    x 1.644700 0.000000 0.000000 
#    y 0.000000 1.645380 0.000000 
#    z 0.000000 0.000000 1.623420 
# 
# From -- ./inp_files/21210.got.cif
#   From: 2010.03.12/outbox.cif.g09.slc.cpg/sg62_11_cif.got.tgz:21210.got - 2010.04.10 19:12:36.
