data_PCOD8252857
_publ_section_title
;
Structure prediction by ZEFSAII (Michael W. Deem and Ramdas Pophale) SiO2 
 PCOD8252857
Probable space group: P N M A
;
_chemical_formula_sum "Si O2"
_cell_formula_units_Z 40
_cell_length_a 10.108265
_cell_length_b 9.238953
_cell_length_c 21.231522
_cell_angle_alpha 90.000000
_cell_angle_beta 90.000000
_cell_angle_gamma 90.000000
_cell_volume 1982.807280
_symmetry_space_group_name_H-M "P N M A"
_symmetry_group_IT_number 62
_symmetry_cell_setting 'orthorhombic'
loop_
_space_group_symop_operation_xyz
x,y,z
1/2-x,-y,1/2+z
1/2+x,1/2-y,1/2-z
-x,1/2+y,-z
-x,-y,-z
1/2+x,y,1/2-z
1/2-x,1/2+y,1/2+z
x,1/2-y,z
loop_
_atom_site_type_symbol
_atom_site_label
_atom_site_fract_x
_atom_site_fract_y
_atom_site_fract_z
Si Si1 0.676909 0.913878 0.528780
Si Si2 0.028032 0.083941 0.684963
Si Si3 0.402077 0.580338 0.586904
Si Si4 0.035653 0.416212 0.437128
Si Si5 0.177304 0.916262 0.210487
O O1 0.657673 0.750000 0.504371
O O2 0.553272 0.962093 0.571253
O O3 0.806244 0.927982 0.572044
O O4 0.692202 0.014154 0.467102
O O5 0.010277 0.250000 0.663679
O O6 0.905393 0.034220 0.728304
O O7 0.165941 0.063281 0.722866
O O8 0.035135 0.986519 0.622785
O O9 0.377393 0.750000 0.589295
O O10 0.368077 0.515236 0.653680
O O11 0.989222 0.250000 0.442572
O O12 0.000000 0.500000 0.500000
O O13 0.143507 0.750000 0.194300
#
# Coordination Sequence:
#
# PCOD8252857 Si02
#       5
#     8   8   8   8   8
#     4   9  20  37  56  83 118 153 190 236 289 343
#     4  10  23  41  61  87 118 155 197 239 290 347
#     4  10  20  35  58  87 116 150 193 238 287 342
#     4  11  23  39  60  86 118 154 195 243 294 345
#     4  10  22  40  60  84 117 154 192 238 289 344
#
# _framework density 20.173418000000002
#
# number of rings (size 3 to 8) (size 9 to 14) (size 15 to 20)
#    0.000    2.000    0.000    2.400    2.800    8.800 
#    0.000    0.000    0.000    0.000    0.000    0.000 
#    0.000    0.000    0.000    0.000    0.000    0.000 
#
# Total GULP energy -496137.731922 kJ/mol
# GULP energy per Si atom -12403.443298 kJ/mol
# Density = 2.012750 g / cm^3
# Si number density = 20.173418 Si / 1000 Ang^3
#
#
#
# Elastic Constant Matrix: (Units=GPa)
#
#
# Indices 1 2 3 4 5 6 
#
# 1 91.4492 35.9785 46.6241 0.0000 0.0000 0.0000
# 2 35.9785 96.0241 55.7059 0.0000 0.0000 0.0000
# 3 46.6241 55.7059 110.6118 0.0000 0.0000 0.0000
# 4 0.0000 0.0000 0.0000 34.4562 0.0000 0.0000
# 5 0.0000 0.0000 0.0000 0.0000 32.9492 0.0000
# 6 0.0000 0.0000 0.0000 0.0000 0.0000 27.4004
#
#
#
# Elastic Compliance Matrix: (Units=1/GPa)
#
#
# Indices 1 2 3 4 5 6 
#
# 1 0.014389 -0.002646 -0.004733 0.000000 0.000000 0.000000
# 2 -0.002646 0.015199 -0.006539 0.000000 0.000000 0.000000
# 3 -0.004733 -0.006539 0.014329 0.000000 0.000000 0.000000
# 4 0.000000 0.000000 0.000000 0.029022 0.000000 0.000000
# 5 0.000000 0.000000 0.000000 0.000000 0.030350 0.000000
# 6 0.000000 0.000000 0.000000 0.000000 0.000000 0.036496
#
#
# Mechanical properties :
#
#
# Convention : Reuss Voigt Hill
#
# Bulk Modulus (GPa) = 62.18389 63.85580 63.01985
# Shear Modulus (GPa) = 28.90510 29.61294 29.25902
#
# Velocity S-wave (km/s) = 3.78938 3.83550 3.81251
# Velocity P-wave (km/s) = 7.07372 7.16498 7.11949
#
# Compressibility (1/GPa) = 0.01608133
#
# Stress axis : x y z
#
# Youngs Moduli (GPa) = 69.49862 65.79414 69.78983
#
# Poissons Ratio (x) = 0.17407 0.33029
# Poissons Ratio (y) = 0.18387 0.45637
# Poissons Ratio (z) = 0.32891 0.43024
#
# Static dielectric constant tensor:
#      x y z
#    x 3.999850 0.000000 0.000000 
#    y 0.000000 3.678000 0.000000 
#    z 0.000000 0.000000 3.439190 
# 
# 
# High freq. dielectric constant tensor:
#      x y z
#    x 1.804890 0.000000 0.000000 
#    y 0.000000 1.789160 0.000000 
#    z 0.000000 0.000000 1.771980 
# 
# From -- ./inp_files/22794.got.cif
#   From: 2010.03.12/outbox.cif.g09.slc.cpg/sg62_12_cif.got.tgz:22794.got - 2010.04.10 19:12:36.
