data_PCOD8252727
_publ_section_title
;
Structure prediction by ZEFSAII (Michael W. Deem and Ramdas Pophale) SiO2 
 PCOD8252727
Probable space group: P N M A
;
_chemical_formula_sum "Si O2"
_cell_formula_units_Z 64
_cell_length_a 11.402630
_cell_length_b 9.034139
_cell_length_c 32.959590
_cell_angle_alpha 90.000000
_cell_angle_beta 90.000000
_cell_angle_gamma 90.000000
_cell_volume 3395.264412
_symmetry_space_group_name_H-M "P N M A"
_symmetry_group_IT_number 62
_symmetry_cell_setting 'orthorhombic'
loop_
_space_group_symop_operation_xyz
x,y,z
1/2-x,-y,1/2+z
1/2+x,1/2-y,1/2-z
-x,1/2+y,-z
-x,-y,-z
1/2+x,y,1/2-z
1/2-x,1/2+y,1/2+z
x,1/2-y,z
loop_
_atom_site_type_symbol
_atom_site_label
_atom_site_fract_x
_atom_site_fract_y
_atom_site_fract_z
Si Si1 0.186079 0.419417 0.324558
Si Si2 0.962386 0.422458 0.864357
Si Si3 0.904773 0.076330 0.447839
Si Si4 0.050001 0.076888 0.694598
Si Si5 0.107642 0.420100 0.785611
Si Si6 0.167727 0.580434 0.904697
Si Si7 0.716807 0.925160 0.865170
Si Si8 0.339875 0.923916 0.974175
O O1 0.157767 0.250000 0.313931
O O2 0.277277 0.480607 0.291483
O O3 0.237302 0.436979 0.369310
O O4 0.067348 0.511332 0.324214
O O5 0.934893 0.250000 0.870509
O O6 0.847698 0.518276 0.871555
O O7 0.010083 0.456637 0.819305
O O8 0.057839 0.473350 0.897522
O O9 0.891035 0.250000 0.453326
O O10 0.859974 0.025983 0.403905
O O11 0.039370 0.024137 0.452626
O O12 0.824646 0.001182 0.482369
O O13 0.055476 0.250000 0.685456
O O14 0.051176 0.043020 0.742429
O O15 0.162769 0.000733 0.674556
O O16 0.148091 0.250000 0.788747
O O17 0.123844 0.750000 0.906873
O O18 0.230208 0.530247 0.946219
O O19 0.717388 0.750000 0.859141
O O20 0.342671 0.750000 0.981090
#
# Coordination Sequence:
#
# PCOD8252727 Si02
#       8
#     8   8   8   8   8   8   8   8
#     4  10  20  35  56  82 110 138 178 227 271 323
#     4  10  21  38  58  80 108 146 188 230 277 333
#     4   9  19  35  54  81 116 147 177 224 281 329
#     4  11  23  37  56  80 109 146 183 225 278 330
#     4   9  21  39  56  76 107 144 181 224 275 324
#     4   9  18  35  57  81 110 145 182 228 279 326
#     4  11  23  39  57  80 112 148 185 228 279 333
#     4   9  17  32  57  84 111 143 181 225 276 330
#
# _framework density 18.849782999999999
#
# number of rings (size 3 to 8) (size 9 to 14) (size 15 to 20)
#    0.000    2.250    0.000    2.250    1.750    5.500 
#    0.000    3.125    0.000    0.000    0.000    0.000 
#    0.000    0.000    0.000    0.000    0.000    0.000 
#
# Total GULP energy -793857.979938 kJ/mol
# GULP energy per Si atom -12404.030937 kJ/mol
# Density = 1.880688 g / cm^3
# Si number density = 18.849783 Si / 1000 Ang^3
#
#
#
# Elastic Constant Matrix: (Units=GPa)
#
#
# Indices 1 2 3 4 5 6 
#
# 1 77.6876 38.0078 22.9313 0.0000 0.0000 0.0000
# 2 38.0078 74.8715 35.9751 0.0000 0.0000 0.0000
# 3 22.9313 35.9751 71.6615 0.0000 0.0000 0.0000
# 4 0.0000 0.0000 0.0000 30.0974 0.0000 0.0000
# 5 0.0000 0.0000 0.0000 0.0000 17.4202 0.0000
# 6 0.0000 0.0000 0.0000 0.0000 0.0000 37.2825
#
#
#
# Elastic Compliance Matrix: (Units=1/GPa)
#
#
# Indices 1 2 3 4 5 6 
#
# 1 0.017244 -0.008042 -0.001481 0.000000 0.000000 0.000000
# 2 -0.008042 0.021353 -0.008146 0.000000 0.000000 0.000000
# 3 -0.001481 -0.008146 0.018518 0.000000 0.000000 0.000000
# 4 0.000000 0.000000 0.000000 0.033225 0.000000 0.000000
# 5 0.000000 0.000000 0.000000 0.000000 0.057405 0.000000
# 6 0.000000 0.000000 0.000000 0.000000 0.000000 0.026822
#
#
# Mechanical properties :
#
#
# Convention : Reuss Voigt Hill
#
# Bulk Modulus (GPa) = 45.92068 46.44988 46.18528
# Shear Modulus (GPa) = 23.02419 25.44711 24.23565
#
# Velocity S-wave (km/s) = 3.49873 3.67821 3.58959
# Velocity P-wave (km/s) = 6.38245 6.53717 6.46028
#
# Compressibility (1/GPa) = 0.02177668
#
# Stress axis : x y z
#
# Youngs Moduli (GPa) = 57.99245 46.83224 54.00242
#
# Poissons Ratio (x) = 0.37663 0.07996
# Poissons Ratio (y) = 0.46638 0.43990
# Poissons Ratio (z) = 0.08586 0.38149
#
# Static dielectric constant tensor:
#      x y z
#    x 3.398890 0.000000 0.000000 
#    y 0.000000 3.486010 0.000000 
#    z 0.000000 0.000000 3.495500 
# 
# 
# High freq. dielectric constant tensor:
#      x y z
#    x 1.728680 0.000000 0.000000 
#    y 0.000000 1.735990 0.000000 
#    z 0.000000 0.000000 1.730740 
# 
# From -- ./inp_files/32452.got.cif
#   From: 2010.03.12/outbox.cif.g09.slc.cpg/sg62_17_cif.got.tgz:32452.got - 2010.04.10 19:12:36.
