data_PCOD8252194
_publ_section_title
;
Structure prediction by ZEFSAII (Michael W. Deem and Ramdas Pophale) SiO2 
 PCOD8252194
Probable space group: P N M A
;
_chemical_formula_sum "Si O2"
_cell_formula_units_Z 48
_cell_length_a 8.799026
_cell_length_b 13.893492
_cell_length_c 23.312181
_cell_angle_alpha 90.000000
_cell_angle_beta 90.000000
_cell_angle_gamma 90.000000
_cell_volume 2849.895415
_symmetry_space_group_name_H-M "P N M A"
_symmetry_group_IT_number 62
_symmetry_cell_setting 'orthorhombic'
loop_
_space_group_symop_operation_xyz
x,y,z
1/2-x,-y,1/2+z
1/2+x,1/2-y,1/2-z
-x,1/2+y,-z
-x,-y,-z
1/2+x,y,1/2-z
1/2-x,1/2+y,1/2+z
x,1/2-y,z
loop_
_atom_site_type_symbol
_atom_site_label
_atom_site_fract_x
_atom_site_fract_y
_atom_site_fract_z
Si Si1 0.689977 0.643887 0.011002
Si Si2 0.722645 0.040642 0.074880
Si Si3 0.625932 0.860461 0.677807
Si Si4 0.336373 0.643898 0.037139
Si Si5 0.278594 0.860636 0.704922
Si Si6 0.130306 0.540642 0.600975
O O1 0.763434 0.750000 0.019015
O O2 0.763186 0.568976 0.056160
O O3 0.512075 0.646964 0.021780
O O4 0.713347 0.608924 0.945649
O O5 0.837776 0.070964 0.124475
O O6 0.550854 0.049783 0.097185
O O7 0.751032 0.108629 0.019823
O O8 0.649678 0.750000 0.658944
O O9 0.455458 0.880731 0.697413
O O10 0.737336 0.886904 0.729958
O O11 0.276970 0.750000 0.055122
O O12 0.314292 0.569030 0.089330
O O13 0.235301 0.750000 0.691709
O O14 0.181250 0.928885 0.663836
#
# Coordination Sequence:
#
# PCOD8252194 Si02
#       6
#     8   8   8   8   8   8
#     4   8  14  25  43  68  95 121 148 177 213 259
#     4   9  16  27  46  69  91 118 150 182 215 254
#     4  10  20  32  46  65  89 116 145 180 223 267
#     4   8  14  25  43  68  95 121 148 177 213 259
#     4  10  20  32  46  65  89 116 145 180 223 267
#     4   9  16  27  46  69  91 118 150 182 215 254
#
# _framework density 16.842724
#
# number of rings (size 3 to 8) (size 9 to 14) (size 15 to 20)
#    0.000    3.000    0.000    4.000    0.000    3.333 
#    0.000    3.333    0.000    4.000    0.000    0.000 
#    0.000    0.000    0.000    0.000    0.000    0.000 
#
# Total GULP energy -595020.028497 kJ/mol
# GULP energy per Si atom -12396.250594 kJ/mol
# Density = 1.680439 g / cm^3
# Si number density = 16.842724 Si / 1000 Ang^3
#
#
#
# Elastic Constant Matrix: (Units=GPa)
#
#
# Indices 1 2 3 4 5 6 
#
# 1 21.9715 5.4991 -3.3217 0.0000 0.0000 0.0000
# 2 5.4991 112.1489 20.3381 0.0000 0.0000 0.0000
# 3 -3.3217 20.3381 33.3168 0.0000 0.0000 0.0000
# 4 0.0000 0.0000 0.0000 27.8219 0.0000 0.0000
# 5 0.0000 0.0000 0.0000 0.0000 26.6324 0.0000
# 6 0.0000 0.0000 0.0000 0.0000 0.0000 16.3278
#
#
#
# Elastic Compliance Matrix: (Units=1/GPa)
#
#
# Indices 1 2 3 4 5 6 
#
# 1 0.047456 -0.003581 0.006918 0.000000 0.000000 0.000000
# 2 -0.003581 0.010297 -0.006643 0.000000 0.000000 0.000000
# 3 0.006918 -0.006643 0.034760 0.000000 0.000000 0.000000
# 4 0.000000 0.000000 0.000000 0.035943 0.000000 0.000000
# 5 0.000000 0.000000 0.000000 0.000000 0.037548 0.000000
# 6 0.000000 0.000000 0.000000 0.000000 0.000000 0.061245
#
#
# Mechanical properties :
#
#
# Convention : Reuss Voigt Hill
#
# Bulk Modulus (GPa) = 11.64155 23.60757 17.62456
# Shear Modulus (GPa) = 19.04796 23.81786 21.43291
#
# Velocity S-wave (km/s) = 3.36658 3.76458 3.57113
# Velocity P-wave (km/s) = 4.69454 5.73960 5.24317
#
# Compressibility (1/GPa) = 0.08589918
#
# Stress axis : x y z
#
# Youngs Moduli (GPa) = 21.07224 97.11556 28.76893
#
# Poissons Ratio (x) = 0.34782 -0.19901
# Poissons Ratio (y) = 0.07547 0.19111
# Poissons Ratio (z) = -0.14577 0.64512
#
# Static dielectric constant tensor:
#      x y z
#    x 2.815720 0.000000 0.000000 
#    y 0.000000 3.576500 0.000000 
#    z 0.000000 0.000000 3.019470 
# 
# 
# High freq. dielectric constant tensor:
#      x y z
#    x 1.621770 0.000000 0.000000 
#    y 0.000000 1.644530 0.000000 
#    z 0.000000 0.000000 1.636770 
# 
# From -- ./inp_files/25847.got.cif
#   From: 2010.03.12/outbox.cif.g09.slc.cpg/sg62_13_cif.got.tgz:25847.got - 2010.04.10 19:12:36.
