data_PCOD8252011
_publ_section_title
;
Structure prediction by ZEFSAII (Michael W. Deem and Ramdas Pophale) SiO2 
 PCOD8252011
Probable space group: P N M A
;
_chemical_formula_sum "Si O2"
_cell_formula_units_Z 64
_cell_length_a 12.062355
_cell_length_b 8.826353
_cell_length_c 30.996511
_cell_angle_alpha 90.000000
_cell_angle_beta 90.000000
_cell_angle_gamma 90.000000
_cell_volume 3300.093239
_symmetry_space_group_name_H-M "P N M A"
_symmetry_group_IT_number 62
_symmetry_cell_setting 'orthorhombic'
loop_
_space_group_symop_operation_xyz
x,y,z
1/2-x,-y,1/2+z
1/2+x,1/2-y,1/2-z
-x,1/2+y,-z
-x,-y,-z
1/2+x,y,1/2-z
1/2-x,1/2+y,1/2+z
x,1/2-y,z
loop_
_atom_site_type_symbol
_atom_site_label
_atom_site_fract_x
_atom_site_fract_y
_atom_site_fract_z
Si Si1 0.520663 0.927603 0.045760
Si Si2 0.481995 0.074658 0.295402
Si Si3 0.488845 0.575422 0.799577
Si Si4 0.522523 0.572766 0.545604
Si Si5 0.372338 0.569084 0.625119
Si Si6 0.748791 0.579362 0.663927
Si Si7 0.628989 0.069973 0.874938
Si Si8 0.761365 0.924397 0.077297
O O1 0.505443 0.750000 0.041756
O O2 0.436927 0.989133 0.082620
O O3 0.644887 0.973129 0.057490
O O4 0.500000 0.000000 0.000000
O O5 0.512586 0.250000 0.292618
O O6 0.500845 0.002774 0.248209
O O7 0.561077 0.005825 0.332933
O O8 0.353513 0.046980 0.304922
O O9 0.529160 0.750000 0.801210
O O10 0.360011 0.560880 0.809501
O O11 0.563780 0.481396 0.832464
O O12 0.500000 0.500000 0.500000
O O13 0.509068 0.750000 0.540776
O O14 0.438321 0.512931 0.582481
O O15 0.647553 0.533709 0.557556
O O16 0.365231 0.750000 0.625764
O O17 0.250596 0.500247 0.624345
O O18 0.738962 0.750000 0.644208
O O19 0.746355 0.450880 0.628014
O O20 0.637540 0.250000 0.874687
O O21 0.790710 0.750000 0.067809
#
# Coordination Sequence:
#
# PCOD8252011 Si02
#       8
#     8   8   8   8   8   8   8   8
#     4  10  24  42  61  86 117 156 198 245 297 350
#     4   9  19  37  61  90 120 151 198 252 294 344
#     4  10  21  36  63  92 116 156 203 247 295 352
#     4  11  24  42  64  92 122 157 199 247 299 353
#     4  10  22  41  63  86 118 159 201 246 292 348
#     4  10  19  36  61  89 117 153 200 249 298 348
#     4  11  24  42  59  85 125 160 193 243 302 359
#     4  11  22  40  63  88 120 157 197 245 299 356
#
# _framework density 19.393391999999999
#
# number of rings (size 3 to 8) (size 9 to 14) (size 15 to 20)
#    0.000    1.750    2.500    1.125    3.500    3.000 
#    0.000    1.250    0.000    0.000    0.000    0.000 
#    0.000    0.000    0.000    0.000    0.000    0.000 
#
# Total GULP energy -793600.849490 kJ/mol
# GULP energy per Si atom -12400.013273 kJ/mol
# Density = 1.934925 g / cm^3
# Si number density = 19.393392 Si / 1000 Ang^3
#
#
#
# Elastic Constant Matrix: (Units=GPa)
#
#
# Indices 1 2 3 4 5 6 
#
# 1 160.0284 37.1534 83.4461 0.0000 0.0000 0.0000
# 2 37.1534 28.6706 34.4154 0.0000 0.0000 0.0000
# 3 83.4461 34.4154 186.8670 0.0000 0.0000 0.0000
# 4 0.0000 0.0000 0.0000 29.4250 0.0000 0.0000
# 5 0.0000 0.0000 0.0000 0.0000 -76.1457 0.0000
# 6 0.0000 0.0000 0.0000 0.0000 0.0000 30.3146
#
#
#
# Elastic Compliance Matrix: (Units=1/GPa)
#
#
# Indices 1 2 3 4 5 6 
#
# 1 0.009851 -0.009609 -0.002629 0.000000 0.000000 0.000000
# 2 -0.009609 0.054152 -0.005682 0.000000 0.000000 0.000000
# 3 -0.002629 -0.005682 0.007572 0.000000 0.000000 0.000000
# 4 0.000000 0.000000 0.000000 0.033985 0.000000 0.000000
# 5 0.000000 0.000000 0.000000 0.000000 -0.013133 0.000000
# 6 0.000000 0.000000 0.000000 0.000000 0.000000 0.032987
#
#
# Mechanical properties :
#
#
# Convention : Reuss Voigt Hill
#
# Bulk Modulus (GPa) = 27.98487 76.17730 52.08108
# Shear Modulus (GPa) = 28.87382 11.42218 20.14800
#
# Velocity S-wave (km/s) = 3.86275 2.42951 3.22671
# Velocity P-wave (km/s) = 5.86139 6.87280 6.38714
#
# Compressibility (1/GPa) = 0.03573359
#
# Stress axis : x y z
#
# Youngs Moduli (GPa) = 101.51403 18.46644 132.06671
#
# Poissons Ratio (x) = 0.17745 0.34722
# Poissons Ratio (y) = 0.97550 0.75042
# Poissons Ratio (z) = 0.26690 0.10493
#
# Static dielectric constant tensor:
#      x y z
#    x 3.695490 0.000000 0.000000 
#    y 0.000000 3.411740 0.000000 
#    z 0.000000 0.000000 3.946520 
# 
# 
# High freq. dielectric constant tensor:
#      x y z
#    x 1.771520 0.000000 0.000000 
#    y 0.000000 1.734170 0.000000 
#    z 0.000000 0.000000 1.767740 
# 
# From -- ./inp_files/32520.got.cif
#   From: 2010.03.12/outbox.cif.g09.slc.cpg/sg62_17_cif.got.tgz:32520.got - 2010.04.10 19:12:36.
