data_PCOD8252456
_publ_section_title
;
Structure prediction by ZEFSAII (Michael W. Deem and Ramdas Pophale) SiO2 
 PCOD8252456
Probable space group: P N M A
;
_chemical_formula_sum "Si O2"
_cell_formula_units_Z 48
_cell_length_a 15.557628
_cell_length_b 8.561389
_cell_length_c 19.376163
_cell_angle_alpha 90.000000
_cell_angle_beta 90.000000
_cell_angle_gamma 90.000000
_cell_volume 2580.806194
_symmetry_space_group_name_H-M "P N M A"
_symmetry_group_IT_number 62
_symmetry_cell_setting 'orthorhombic'
loop_
_space_group_symop_operation_xyz
x,y,z
1/2-x,-y,1/2+z
1/2+x,1/2-y,1/2-z
-x,1/2+y,-z
-x,-y,-z
1/2+x,y,1/2-z
1/2-x,1/2+y,1/2+z
x,1/2-y,z
loop_
_atom_site_type_symbol
_atom_site_label
_atom_site_fract_x
_atom_site_fract_y
_atom_site_fract_z
Si Si1 0.921115 0.931899 0.202308
Si Si2 0.431580 0.434201 0.947353
Si Si3 0.257636 0.572083 0.452671
Si Si4 0.752275 0.070969 0.192460
Si Si5 0.436986 0.928861 0.795821
Si Si6 0.929834 0.068226 0.050464
O O1 0.902298 0.750000 0.202139
O O2 0.837440 0.021145 0.235522
O O3 0.939567 0.988567 0.124817
O O4 0.003507 0.964069 0.249112
O O5 0.443345 0.250000 0.935304
O O6 0.337461 0.470589 0.980911
O O7 0.443606 0.522335 0.875323
O O8 0.500000 0.500000 0.000000
O O9 0.281345 0.750000 0.469727
O O10 0.252462 0.548920 0.370756
O O11 0.334895 0.465141 0.482238
O O12 0.761947 0.250000 0.166630
O O13 0.661557 0.051231 0.232082
O O14 0.466659 0.750000 0.788996
O O15 0.944986 0.250000 0.059197
O O16 0.000000 0.000000 0.000000
#
# Coordination Sequence:
#
# PCOD8252456 Si02
#       6
#     8   8   8   8   8   8
#     4  11  21  34  54  79 107 137 171 212 257 307
#     4  10  20  34  54  79 107 138 173 214 257 305
#     4   9  17  31  51  75 102 134 172 210 251 303
#     4   9  17  31  52  75 100 134 173 210 251 303
#     4  10  20  35  55  78 105 137 174 215 257 304
#     4  11  21  35  55  78 105 136 172 213 257 306
#
# _framework density 18.598839999999999
#
# number of rings (size 3 to 8) (size 9 to 14) (size 15 to 20)
#    0.000    2.000    0.000    7.000    0.000    4.000 
#    0.000    1.667    0.000   10.000    0.000    0.000 
#    0.000    0.000    0.000    0.000    0.000    0.000 
#
# Total GULP energy -594889.355078 kJ/mol
# GULP energy per Si atom -12393.528231 kJ/mol
# Density = 1.855651 g / cm^3
# Si number density = 18.598840 Si / 1000 Ang^3
#
#
#
# Elastic Constant Matrix: (Units=GPa)
#
#
# Indices 1 2 3 4 5 6 
#
# 1 156.7918 47.7681 49.3634 0.0000 0.0000 0.0000
# 2 47.7681 93.1764 24.1405 0.0000 0.0000 0.0000
# 3 49.3634 24.1405 50.0691 0.0000 0.0000 0.0000
# 4 0.0000 0.0000 0.0000 26.9752 0.0000 0.0000
# 5 0.0000 0.0000 0.0000 0.0000 31.2887 0.0000
# 6 0.0000 0.0000 0.0000 0.0000 0.0000 33.8687
#
#
#
# Elastic Compliance Matrix: (Units=1/GPa)
#
#
# Indices 1 2 3 4 5 6 
#
# 1 0.009893 -0.002908 -0.008352 0.000000 0.000000 0.000000
# 2 -0.002908 0.013119 -0.003458 0.000000 0.000000 0.000000
# 3 -0.008352 -0.003458 0.029874 0.000000 0.000000 0.000000
# 4 0.000000 0.000000 0.000000 0.037071 0.000000 0.000000
# 5 0.000000 0.000000 0.000000 0.000000 0.031960 0.000000
# 6 0.000000 0.000000 0.000000 0.000000 0.000000 0.029526
#
#
# Mechanical properties :
#
#
# Convention : Reuss Voigt Hill
#
# Bulk Modulus (GPa) = 42.64363 60.28681 51.46522
# Shear Modulus (GPa) = 26.49759 30.34419 28.42089
#
# Velocity S-wave (km/s) = 3.77860 4.04358 3.91333
# Velocity P-wave (km/s) = 6.48190 7.36786 6.93903
#
# Compressibility (1/GPa) = 0.02345016
#
# Stress axis : x y z
#
# Youngs Moduli (GPa) = 101.07878 76.22423 33.47418
#
# Poissons Ratio (x) = 0.22167 0.27957
# Poissons Ratio (y) = 0.29395 0.11576
# Poissons Ratio (z) = 0.84418 0.26360
#
# Static dielectric constant tensor:
#      x y z
#    x 4.145650 0.000000 0.000000 
#    y 0.000000 3.383030 0.000000 
#    z 0.000000 0.000000 2.917040 
# 
# 
# High freq. dielectric constant tensor:
#      x y z
#    x 1.748910 0.000000 0.000000 
#    y 0.000000 1.741340 0.000000 
#    z 0.000000 0.000000 1.664520 
# 
# From -- ./inp_files/26885.got.cif
#   From: 2010.03.12/outbox.cif.g09.slc.cpg/sg62_14_cif.got.tgz:26885.got - 2010.04.10 19:12:36.
