data_PCOD8252626
_publ_section_title
;
Structure prediction by ZEFSAII (Michael W. Deem and Ramdas Pophale) SiO2 
 PCOD8252626
Probable space group: P N M A
;
_chemical_formula_sum "Si O2"
_cell_formula_units_Z 56
_cell_length_a 18.740459
_cell_length_b 9.055833
_cell_length_c 19.189286
_cell_angle_alpha 90.000000
_cell_angle_beta 90.000000
_cell_angle_gamma 90.000000
_cell_volume 3256.622689
_symmetry_space_group_name_H-M "P N M A"
_symmetry_group_IT_number 62
_symmetry_cell_setting 'orthorhombic'
loop_
_space_group_symop_operation_xyz
x,y,z
1/2-x,-y,1/2+z
1/2+x,1/2-y,1/2-z
-x,1/2+y,-z
-x,-y,-z
1/2+x,y,1/2-z
1/2-x,1/2+y,1/2+z
x,1/2-y,z
loop_
_atom_site_type_symbol
_atom_site_label
_atom_site_fract_x
_atom_site_fract_y
_atom_site_fract_z
Si Si1 0.853970 0.418024 0.766578
Si Si2 0.773112 0.581832 0.163670
Si Si3 0.137564 0.580083 0.728447
Si Si4 0.237675 0.076701 0.623540
Si Si5 0.475077 0.579695 0.801659
Si Si6 0.552745 0.924838 0.053881
Si Si7 0.286829 0.422038 0.982820
O O1 0.881676 0.250000 0.770353
O O2 0.803255 0.439652 0.699953
O O3 0.810986 0.461019 0.836335
O O4 0.920813 0.527125 0.758582
O O5 0.798711 0.750000 0.173680
O O6 0.832500 0.477759 0.197896
O O7 0.763643 0.541321 0.082839
O O8 0.158640 0.750000 0.719999
O O9 0.170627 0.494543 0.662942
O O10 0.053368 0.555882 0.729062
O O11 0.223714 0.250000 0.621965
O O12 0.244722 0.014960 0.546184
O O13 0.461071 0.750000 0.820772
O O14 0.464524 0.480336 0.869285
O O15 0.542262 0.750000 0.051676
O O16 0.632549 0.970901 0.033010
O O17 0.500000 0.000000 0.000000
O O18 0.284213 0.250000 0.001713
#
# Coordination Sequence:
#
# PCOD8252626 Si02
#       7
#     8   8   8   8   8   8   8
#     4   9  18  35  54  74 102 135 174 218 260 307
#     4   9  18  35  55  76 101 135 176 216 262 314
#     4  10  21  35  51  76 107 137 172 218 261 305
#     4  10  21  35  53  78 105 136 176 216 258 313
#     4  11  22  34  51  77 106 138 176 214 260 312
#     4  11  22  35  50  74 110 144 174 211 256 312
#     4  10  20  35  53  75 106 138 170 215 263 307
#
# _framework density 17.195727999999999
#
# number of rings (size 3 to 8) (size 9 to 14) (size 15 to 20)
#    0.000    2.000    1.429    3.429    0.000   10.286 
#    0.000    0.000    0.000    0.857    0.000    0.000 
#    0.000    0.000    0.000    0.000    0.000    0.000 
#
# Total GULP energy -694579.677065 kJ/mol
# GULP energy per Si atom -12403.208519 kJ/mol
# Density = 1.715659 g / cm^3
# Si number density = 17.195728 Si / 1000 Ang^3
#
#
#
# Elastic Constant Matrix: (Units=GPa)
#
#
# Indices 1 2 3 4 5 6 
#
# 1 76.6584 48.4140 56.9983 0.0000 0.0000 0.0000
# 2 48.4140 85.2791 59.6132 0.0000 0.0000 0.0000
# 3 56.9983 59.6132 116.3868 0.0000 0.0000 0.0000
# 4 0.0000 0.0000 0.0000 34.8261 0.0000 0.0000
# 5 0.0000 0.0000 0.0000 0.0000 21.0052 0.0000
# 6 0.0000 0.0000 0.0000 0.0000 0.0000 30.6853
#
#
#
# Elastic Compliance Matrix: (Units=1/GPa)
#
#
# Indices 1 2 3 4 5 6 
#
# 1 0.023811 -0.008359 -0.007379 0.000000 0.000000 0.000000
# 2 -0.008359 0.021201 -0.006765 0.000000 0.000000 0.000000
# 3 -0.007379 -0.006765 0.015671 0.000000 0.000000 0.000000
# 4 0.000000 0.000000 0.000000 0.028714 0.000000 0.000000
# 5 0.000000 0.000000 0.000000 0.000000 0.047607 0.000000
# 6 0.000000 0.000000 0.000000 0.000000 0.000000 0.032589
#
#
# Mechanical properties :
#
#
# Convention : Reuss Voigt Hill
#
# Bulk Modulus (GPa) = 63.79514 67.59727 65.69620
# Shear Modulus (GPa) = 22.74516 24.85659 23.80087
#
# Velocity S-wave (km/s) = 3.64087 3.80611 3.72441
# Velocity P-wave (km/s) = 7.40638 7.66232 7.53544
#
# Compressibility (1/GPa) = 0.01567518
#
# Stress axis : x y z
#
# Youngs Moduli (GPa) = 41.99714 47.16721 63.81142
#
# Poissons Ratio (x) = 0.39429 0.47089
# Poissons Ratio (y) = 0.35107 0.43171
# Poissons Ratio (z) = 0.30991 0.31910
#
# Static dielectric constant tensor:
#      x y z
#    x 3.215420 0.000000 0.000000 
#    y 0.000000 3.356320 0.000000 
#    z 0.000000 0.000000 3.341250 
# 
# 
# High freq. dielectric constant tensor:
#      x y z
#    x 1.651090 0.000000 0.000000 
#    y 0.000000 1.673940 0.000000 
#    z 0.000000 0.000000 1.659660 
# 
# From -- ./inp_files/27556.got.cif
#   From: 2010.03.12/outbox.cif.g09.slc.cpg/sg62_14_cif.got.tgz:27556.got - 2010.04.10 19:12:36.
