data_PCOD8252114
_publ_section_title
;
Structure prediction by ZEFSAII (Michael W. Deem and Ramdas Pophale) SiO2 
 PCOD8252114
Probable space group: P N M A
;
_chemical_formula_sum "Si O2"
_cell_formula_units_Z 32
_cell_length_a 5.258028
_cell_length_b 18.853162
_cell_length_c 14.004857
_cell_angle_alpha 90.000000
_cell_angle_beta 90.000000
_cell_angle_gamma 90.000000
_cell_volume 1388.307828
_symmetry_space_group_name_H-M "P N M A"
_symmetry_group_IT_number 62
_symmetry_cell_setting 'orthorhombic'
loop_
_space_group_symop_operation_xyz
x,y,z
1/2-x,-y,1/2+z
1/2+x,1/2-y,1/2-z
-x,1/2+y,-z
-x,-y,-z
1/2+x,y,1/2-z
1/2-x,1/2+y,1/2+z
x,1/2-y,z
loop_
_atom_site_type_symbol
_atom_site_label
_atom_site_fract_x
_atom_site_fract_y
_atom_site_fract_z
Si Si1 0.961564 0.036870 0.856612
Si Si2 0.975784 0.624062 0.811482
Si Si3 0.025362 0.250000 0.579097
Si Si4 0.525328 0.250000 0.456489
Si Si5 0.961526 0.097169 0.644241
O O1 0.922706 0.067193 0.750225
O O2 0.700132 0.059865 0.909548
O O3 0.200625 0.074115 0.909896
O O4 0.999067 0.953152 0.858081
O O5 0.699393 0.634781 0.765183
O O6 0.014313 0.680362 0.894099
O O7 0.308910 0.250000 0.537004
O O8 0.810137 0.250000 0.497903
O O9 0.991529 0.181675 0.646332
#
# Coordination Sequence:
#
# PCOD8252114 Si02
#       5
#     8   8   4   4   8
#     4  10  19  37  67  99 114 155 220 275 305 342
#     4  12  21  43  71  96 122 153 218 281 306 354
#     4  12  26  45  57  90 144 176 198 240 312 416
#     4  12  28  43  61  96 130 178 204 238 328 388
#     4  10  20  38  64  91 130 159 210 259 310 365
#
# _framework density 23.049643
#
# number of rings (size 3 to 8) (size 9 to 14) (size 15 to 20)
#    0.000    1.000    5.000    3.750    0.000    4.000 
#    0.000    7.500    0.000    0.000    0.000    0.000 
#    0.000    0.000    0.000    0.000    0.000    0.000 
#
# Total GULP energy -396740.507302 kJ/mol
# GULP energy per Si atom -12398.140853 kJ/mol
# Density = 2.299718 g / cm^3
# Si number density = 23.049643 Si / 1000 Ang^3
#
#
#
# Elastic Constant Matrix: (Units=GPa)
#
#
# Indices 1 2 3 4 5 6 
#
# 1 170.2916 4.4480 -1.5207 0.0000 0.0000 0.0000
# 2 4.4480 162.8871 29.0330 0.0000 0.0000 0.0000
# 3 -1.5207 29.0330 9.3707 0.0000 0.0000 0.0000
# 4 0.0000 0.0000 0.0000 -91.7586 0.0000 0.0000
# 5 0.0000 0.0000 0.0000 0.0000 28.8466 0.0000
# 6 0.0000 0.0000 0.0000 0.0000 0.0000 34.4468
#
#
#
# Elastic Compliance Matrix: (Units=1/GPa)
#
#
# Indices 1 2 3 4 5 6 
#
# 1 0.005921 -0.000744 0.003265 0.000000 0.000000 0.000000
# 2 -0.000744 0.013804 -0.042890 0.000000 0.000000 0.000000
# 3 0.003265 -0.042890 0.240129 0.000000 0.000000 0.000000
# 4 0.000000 0.000000 0.000000 -0.010898 0.000000 0.000000
# 5 0.000000 0.000000 0.000000 0.000000 0.034666 0.000000
# 6 0.000000 0.000000 0.000000 0.000000 0.000000 0.029030
#
#
# Mechanical properties :
#
#
# Convention : Reuss Voigt Hill
#
# Bulk Modulus (GPa) = 5.58294 45.16333 25.37314
# Shear Modulus (GPa) = 11.03521 15.01293 13.02407
#
# Velocity S-wave (km/s) = 2.19043 2.55489 2.37964
# Velocity P-wave (km/s) = 2.97064 5.32351 4.31071
#
# Compressibility (1/GPa) = 0.17911697
#
# Stress axis : x y z
#
# Youngs Moduli (GPa) = 168.89452 72.44186 4.16443
#
# Poissons Ratio (x) = 0.05387 -0.01360
# Poissons Ratio (y) = 0.12559 0.17861
# Poissons Ratio (z) = -0.55139 3.10701
#
# Static dielectric constant tensor:
#      x y z
#    x 5.951720 0.000000 0.000000 
#    y 0.000000 4.325190 0.000000 
#    z 0.000000 0.000000 3.544520 
# 
# 
# High freq. dielectric constant tensor:
#      x y z
#    x 1.954220 0.000000 0.000000 
#    y 0.000000 1.928730 0.000000 
#    z 0.000000 0.000000 1.859740 
# 
# From -- ./inp_files/16089.got.cif
#   From: 2010.03.12/outbox.cif.g09.slc.cpg/sg62_9_cif.got.tgz:16089.got - 2010.04.10 19:12:36.
