data_PCOD8252681
_publ_section_title
;
Structure prediction by ZEFSAII (Michael W. Deem and Ramdas Pophale) SiO2 
 PCOD8252681
Probable space group: P N M A
;
_chemical_formula_sum "Si O2"
_cell_formula_units_Z 48
_cell_length_a 29.568541
_cell_length_b 8.950119
_cell_length_c 9.666086
_cell_angle_alpha 90.000000
_cell_angle_beta 90.000000
_cell_angle_gamma 90.000000
_cell_volume 2558.051950
_symmetry_space_group_name_H-M "P N M A"
_symmetry_group_IT_number 62
_symmetry_cell_setting 'orthorhombic'
loop_
_space_group_symop_operation_xyz
x,y,z
1/2-x,-y,1/2+z
1/2+x,1/2-y,1/2-z
-x,1/2+y,-z
-x,-y,-z
1/2+x,y,1/2-z
1/2-x,1/2+y,1/2+z
x,1/2-y,z
loop_
_atom_site_type_symbol
_atom_site_label
_atom_site_fract_x
_atom_site_fract_y
_atom_site_fract_z
Si Si1 0.033791 0.923381 0.319822
Si Si2 0.390769 0.424408 0.601800
Si Si3 0.209579 0.920437 0.172132
Si Si4 0.127269 0.426643 0.820122
Si Si5 0.942936 0.076397 0.368607
Si Si6 0.720686 0.577767 0.642975
O O1 0.020713 0.750000 0.306575
O O2 0.069263 0.973019 0.203462
O O3 0.055910 0.956504 0.468229
O O4 0.988979 0.020221 0.296780
O O5 0.392469 0.250000 0.563621
O O6 0.343362 0.461653 0.675826
O O7 0.395998 0.515410 0.460508
O O8 0.217424 0.750000 0.219025
O O9 0.234209 0.029418 0.278307
O O10 0.229236 0.948034 0.019203
O O11 0.126704 0.250000 0.819595
O O12 0.099548 0.486721 0.689628
O O13 0.178540 0.481617 0.803962
O O14 0.937012 0.250000 0.334998
O O15 0.709676 0.750000 0.673412
#
# Coordination Sequence:
#
# PCOD8252681 Si02
#       6
#     8   8   8   8   8   8
#     4   9  19  36  57  80 106 139 178 219 264 314
#     4   9  19  37  57  78 107 139 175 220 266 313
#     4   9  19  35  54  79 108 138 175 219 265 314
#     4  11  22  36  55  79 107 140 179 220 263 314
#     4  10  20  35  55  80 110 142 176 217 266 316
#     4  10  21  37  56  79 108 141 177 218 264 313
#
# _framework density 18.764279999999999
#
# number of rings (size 3 to 8) (size 9 to 14) (size 15 to 20)
#    0.000    2.333    0.000    3.500    0.000    6.667 
#    0.000    1.667    0.000    0.000    0.000    0.000 
#    0.000    0.000    0.000    0.000    0.000    0.000 
#
# Total GULP energy -595404.713319 kJ/mol
# GULP energy per Si atom -12404.264861 kJ/mol
# Density = 1.872157 g / cm^3
# Si number density = 18.764280 Si / 1000 Ang^3
#
#
#
# Elastic Constant Matrix: (Units=GPa)
#
#
# Indices 1 2 3 4 5 6 
#
# 1 30.3495 12.9493 1.6383 0.0000 0.0000 0.0000
# 2 12.9493 80.2952 13.2015 0.0000 0.0000 0.0000
# 3 1.6383 13.2015 23.1087 0.0000 0.0000 0.0000
# 4 0.0000 0.0000 0.0000 31.4702 0.0000 0.0000
# 5 0.0000 0.0000 0.0000 0.0000 38.0742 0.0000
# 6 0.0000 0.0000 0.0000 0.0000 0.0000 36.2396
#
#
#
# Elastic Compliance Matrix: (Units=1/GPa)
#
#
# Indices 1 2 3 4 5 6 
#
# 1 0.035399 -0.005845 0.000830 0.000000 0.000000 0.000000
# 2 -0.005845 0.014710 -0.007989 0.000000 0.000000 0.000000
# 3 0.000830 -0.007989 0.047779 0.000000 0.000000 0.000000
# 4 0.000000 0.000000 0.000000 0.031776 0.000000 0.000000
# 5 0.000000 0.000000 0.000000 0.000000 0.026265 0.000000
# 6 0.000000 0.000000 0.000000 0.000000 0.000000 0.027594
#
#
# Mechanical properties :
#
#
# Convention : Reuss Voigt Hill
#
# Bulk Modulus (GPa) = 13.91239 21.03684 17.47462
# Shear Modulus (GPa) = 21.41403 28.22108 24.81756
#
# Velocity S-wave (km/s) = 3.38185 3.88232 3.64070
# Velocity P-wave (km/s) = 4.76231 5.59750 5.19671
#
# Compressibility (1/GPa) = 0.07187835
#
# Stress axis : x y z
#
# Youngs Moduli (GPa) = 28.24960 67.97988 20.92969
#
# Poissons Ratio (x) = 0.39736 -0.01736
# Poissons Ratio (y) = 0.16512 0.16721
# Poissons Ratio (z) = -0.02344 0.54311
#
# Static dielectric constant tensor:
#      x y z
#    x 3.418690 0.000000 0.000000 
#    y 0.000000 3.423850 0.000000 
#    z 0.000000 0.000000 3.389410 
# 
# 
# High freq. dielectric constant tensor:
#      x y z
#    x 1.730650 0.000000 0.000000 
#    y 0.000000 1.731710 0.000000 
#    z 0.000000 0.000000 1.725350 
# 
# From -- ./inp_files/10185.got.cif
#   From: 2010.03.12/outbox.cif.g09.slc.cpg/sg62_6_cif.got.tgz:10185.got - 2010.04.10 19:12:36.
