data_PCOD8252365
_publ_section_title
;
Structure prediction by ZEFSAII (Michael W. Deem and Ramdas Pophale) SiO2 
 PCOD8252365
Probable space group: P N M A
;
_chemical_formula_sum "Si O2"
_cell_formula_units_Z 64
_cell_length_a 27.414358
_cell_length_b 8.936482
_cell_length_c 14.532438
_cell_angle_alpha 90.000000
_cell_angle_beta 90.000000
_cell_angle_gamma 90.000000
_cell_volume 3560.271712
_symmetry_space_group_name_H-M "P N M A"
_symmetry_group_IT_number 62
_symmetry_cell_setting 'orthorhombic'
loop_
_space_group_symop_operation_xyz
x,y,z
1/2-x,-y,1/2+z
1/2+x,1/2-y,1/2-z
-x,1/2+y,-z
-x,-y,-z
1/2+x,y,1/2-z
1/2-x,1/2+y,1/2+z
x,1/2-y,z
loop_
_atom_site_type_symbol
_atom_site_label
_atom_site_fract_x
_atom_site_fract_y
_atom_site_fract_z
Si Si1 0.050132 0.423655 0.899859
Si Si2 0.049973 0.075448 0.110198
Si Si3 0.178208 0.920982 0.404374
Si Si4 0.216135 0.423710 0.096532
Si Si5 0.136277 0.577937 0.213925
Si Si6 0.330086 0.079135 0.108021
Si Si7 0.278560 0.073649 0.407132
Si Si8 0.355811 0.575182 0.283019
O O1 0.036311 0.250000 0.891296
O O2 0.094628 0.468688 0.834653
O O3 0.004089 0.519065 0.866746
O O4 0.064135 0.463475 0.004976
O O5 0.052658 0.250000 0.129605
O O6 0.087181 0.996158 0.178358
O O7 0.198381 0.750000 0.408400
O O8 0.137935 0.939958 0.324782
O O9 0.154009 0.959300 0.503202
O O10 0.223237 0.029825 0.384333
O O11 0.202463 0.250000 0.092397
O O12 0.184555 0.500730 0.175050
O O13 0.272493 0.451456 0.118884
O O14 0.201769 0.494446 0.998875
O O15 0.136576 0.750000 0.183926
O O16 0.342623 0.250000 0.132923
O O17 0.360073 0.970249 0.175699
O O18 0.282330 0.250000 0.419237
O O19 0.311647 0.021393 0.322815
O O20 0.344516 0.750000 0.293322
#
# Coordination Sequence:
#
# PCOD8252365 Si02
#       8
#     8   8   8   8   8   8   8   8
#     4   9  20  37  54  75 104 134 163 200 250 306
#     4  10  20  35  56  79 104 133 163 203 255 306
#     4   9  20  37  53  71 101 140 176 214 257 296
#     4  10  20  34  50  72 106 141 172 211 256 300
#     4  11  21  33  53  78 103 135 174 211 253 308
#     4   9  19  35  52  72 101 136 175 217 255 293
#     4  11  21  32  50  76 105 138 175 213 252 301
#     4  11  21  33  52  76 104 137 170 208 256 307
#
# _framework density 17.976156
#
# number of rings (size 3 to 8) (size 9 to 14) (size 15 to 20)
#    0.000    2.000    0.000    4.875    0.000    8.000 
#    0.000    0.000    0.000    0.750    0.000    0.000 
#    0.000    0.000    0.000    0.000    0.000    0.000 
#
# Total GULP energy -793821.505188 kJ/mol
# GULP energy per Si atom -12403.461019 kJ/mol
# Density = 1.793524 g / cm^3
# Si number density = 17.976156 Si / 1000 Ang^3
#
#
#
# Elastic Constant Matrix: (Units=GPa)
#
#
# Indices 1 2 3 4 5 6 
#
# 1 72.8231 49.9352 60.6971 0.0000 0.0000 0.0000
# 2 49.9352 97.4454 50.3255 0.0000 0.0000 0.0000
# 3 60.6971 50.3255 121.1300 0.0000 0.0000 0.0000
# 4 0.0000 0.0000 0.0000 30.0235 0.0000 0.0000
# 5 0.0000 0.0000 0.0000 0.0000 26.4569 0.0000
# 6 0.0000 0.0000 0.0000 0.0000 0.0000 28.2697
#
#
#
# Elastic Compliance Matrix: (Units=1/GPa)
#
#
# Indices 1 2 3 4 5 6 
#
# 1 0.029048 -0.009381 -0.010658 0.000000 0.000000 0.000000
# 2 -0.009381 0.016095 -0.001986 0.000000 0.000000 0.000000
# 3 -0.010658 -0.001986 0.014422 0.000000 0.000000 0.000000
# 4 0.000000 0.000000 0.000000 0.033307 0.000000 0.000000
# 5 0.000000 0.000000 0.000000 0.000000 0.037797 0.000000
# 6 0.000000 0.000000 0.000000 0.000000 0.000000 0.035374
#
#
# Mechanical properties :
#
#
# Convention : Reuss Voigt Hill
#
# Bulk Modulus (GPa) = 64.45889 68.14603 66.30246
# Shear Modulus (GPa) = 23.22719 25.64606 24.43662
#
# Velocity S-wave (km/s) = 3.59849 3.78123 3.69099
# Velocity P-wave (km/s) = 7.29393 7.55348 7.42484
#
# Compressibility (1/GPa) = 0.01551376
#
# Stress axis : x y z
#
# Youngs Moduli (GPa) = 34.42586 62.13035 69.34075
#
# Poissons Ratio (x) = 0.58285 0.73904
# Poissons Ratio (y) = 0.32295 0.13773
# Poissons Ratio (z) = 0.36692 0.12341
#
# Static dielectric constant tensor:
#      x y z
#    x 3.052350 0.000000 0.000000 
#    y 0.000000 3.372600 0.000000 
#    z 0.000000 0.000000 3.455870 
# 
# 
# High freq. dielectric constant tensor:
#      x y z
#    x 1.667310 0.000000 0.000000 
#    y 0.000000 1.706040 0.000000 
#    z 0.000000 0.000000 1.700390 
# 
# From -- ./inp_files/21238.got.cif
#   From: 2010.03.12/outbox.cif.g09.slc.cpg/sg62_11_cif.got.tgz:21238.got - 2010.04.10 19:12:36.
