data_PCOD8252342
_publ_section_title
;
Structure prediction by ZEFSAII (Michael W. Deem and Ramdas Pophale) SiO2 
 PCOD8252342
Probable space group: P N M A
;
_chemical_formula_sum "Si O2"
_cell_formula_units_Z 56
_cell_length_a 20.202959
_cell_length_b 25.470484
_cell_length_c 5.188905
_cell_angle_alpha 90.000000
_cell_angle_beta 90.000000
_cell_angle_gamma 90.000000
_cell_volume 2670.102293
_symmetry_space_group_name_H-M "P N M A"
_symmetry_group_IT_number 62
_symmetry_cell_setting 'orthorhombic'
loop_
_space_group_symop_operation_xyz
x,y,z
1/2-x,-y,1/2+z
1/2+x,1/2-y,1/2-z
-x,1/2+y,-z
-x,-y,-z
1/2+x,y,1/2-z
1/2-x,1/2+y,1/2+z
x,1/2-y,z
loop_
_atom_site_type_symbol
_atom_site_label
_atom_site_fract_x
_atom_site_fract_y
_atom_site_fract_z
Si Si1 0.669975 0.141679 0.021942
Si Si2 0.307509 0.309698 0.542963
Si Si3 0.030516 0.957672 0.185362
Si Si4 0.990738 0.370592 0.148566
Si Si5 0.606520 0.188990 0.524906
Si Si6 0.607547 0.809494 0.965761
Si Si7 0.582335 0.447235 0.083304
O O1 0.653366 0.165277 0.301635
O O2 0.653685 0.078502 0.015127
O O3 0.746397 0.150348 0.951847
O O4 0.624674 0.168388 0.806762
O O5 0.283062 0.250000 0.596870
O O6 0.340519 0.313409 0.265352
O O7 0.359318 0.326576 0.765186
O O8 0.970918 0.938906 0.361577
O O9 0.087984 0.990544 0.340367
O O10 0.058090 0.905468 0.037800
O O11 0.000000 0.000000 0.000000
O O12 0.951586 0.350172 0.400410
O O13 0.051990 0.410084 0.195023
O O14 0.027387 0.321445 0.013321
O O15 0.619678 0.250000 0.519042
O O16 0.580031 0.750000 0.986948
#
# Coordination Sequence:
#
# PCOD8252342 Si02
#       7
#     8   8   8   8   8   8   8
#     4  11  21  36  56  82 112 147 194 236 286 340
#     4  10  21  37  54  77 110 155 198 231 268 326
#     4   9  17  34  54  84 112 140 179 228 292 347
#     4  10  20  33  54  83 116 147 185 229 287 347
#     4  11  21  32  52  83 117 148 178 233 292 338
#     4  10  22  37  55  80 115 158 198 229 269 335
#     4   9  19  33  56  87 109 141 182 235 296 344
#
# _framework density 20.97298
#
# number of rings (size 3 to 8) (size 9 to 14) (size 15 to 20)
#    0.000    2.000    1.429    2.571    2.000    1.143 
#    0.000    2.857    0.000    0.000   11.143    0.000 
#    0.000    0.000    0.000    0.000    0.000    0.000 
#
# Total GULP energy -693744.392549 kJ/mol
# GULP energy per Si atom -12388.292724 kJ/mol
# Density = 2.092524 g / cm^3
# Si number density = 20.972980 Si / 1000 Ang^3
#
#
#
# Elastic Constant Matrix: (Units=GPa)
#
#
# Indices 1 2 3 4 5 6 
#
# 1 46.9204 18.6899 -14.3738 0.0000 0.0000 0.0000
# 2 18.6899 49.9160 14.9637 0.0000 0.0000 0.0000
# 3 -14.3738 14.9637 51.3860 0.0000 0.0000 0.0000
# 4 0.0000 0.0000 0.0000 31.1030 0.0000 0.0000
# 5 0.0000 0.0000 0.0000 0.0000 25.8037 0.0000
# 6 0.0000 0.0000 0.0000 0.0000 0.0000 28.2513
#
#
#
# Elastic Compliance Matrix: (Units=1/GPa)
#
#
# Indices 1 2 3 4 5 6 
#
# 1 0.031833 -0.015984 0.013559 0.000000 0.000000 0.000000
# 2 -0.015984 0.029976 -0.013200 0.000000 0.000000 0.000000
# 3 0.013559 -0.013200 0.027097 0.000000 0.000000 0.000000
# 4 0.000000 0.000000 0.000000 0.032151 0.000000 0.000000
# 5 0.000000 0.000000 0.000000 0.000000 0.038754 0.000000
# 6 0.000000 0.000000 0.000000 0.000000 0.000000 0.035397
#
#
# Mechanical properties :
#
#
# Convention : Reuss Voigt Hill
#
# Bulk Modulus (GPa) = 17.34414 20.75356 19.04885
# Shear Modulus (GPa) = 20.35192 25.62778 22.98985
#
# Velocity S-wave (km/s) = 3.11848 3.49942 3.31443
# Velocity P-wave (km/s) = 4.61024 5.12297 4.87335
#
# Compressibility (1/GPa) = 0.05765636
#
# Stress axis : x y z
#
# Youngs Moduli (GPa) = 31.41350 33.36046 36.90406
#
# Poissons Ratio (x) = 0.53324 -0.50039
# Poissons Ratio (y) = 0.50212 0.48714
# Poissons Ratio (z) = -0.42594 0.44036
#
# Static dielectric constant tensor:
#      x y z
#    x 3.400250 0.000000 0.000000 
#    y 0.000000 4.349740 0.000000 
#    z 0.000000 0.000000 4.027490 
# 
# 
# High freq. dielectric constant tensor:
#      x y z
#    x 1.773850 0.000000 0.000000 
#    y 0.000000 1.823550 0.000000 
#    z 0.000000 0.000000 1.841830 
# 
# From -- ./inp_files/2288.got.cif
#   From: 2010.03.12/outbox.cif.g09.slc.cpg/sg62_2_cif.got.tgz:2288.got - 2010.04.10 19:12:36.
