data_PCOD8252388
_publ_section_title
;
Structure prediction by ZEFSAII (Michael W. Deem and Ramdas Pophale) SiO2 
 PCOD8252388
Probable space group: P N M A
;
_chemical_formula_sum "Si O2"
_cell_formula_units_Z 56
_cell_length_a 12.774953
_cell_length_b 14.336025
_cell_length_c 16.650114
_cell_angle_alpha 90.000000
_cell_angle_beta 90.000000
_cell_angle_gamma 90.000000
_cell_volume 3049.335937
_symmetry_space_group_name_H-M "P N M A"
_symmetry_group_IT_number 62
_symmetry_cell_setting 'orthorhombic'
loop_
_space_group_symop_operation_xyz
x,y,z
1/2-x,-y,1/2+z
1/2+x,1/2-y,1/2-z
-x,1/2+y,-z
-x,-y,-z
1/2+x,y,1/2-z
1/2-x,1/2+y,1/2+z
x,1/2-y,z
loop_
_atom_site_type_symbol
_atom_site_label
_atom_site_fract_x
_atom_site_fract_y
_atom_site_fract_z
Si Si1 0.361751 0.004198 0.851801
Si Si2 0.699777 0.357978 0.709795
Si Si3 0.193557 0.857697 0.813562
Si Si4 0.775980 0.487774 0.476411
Si Si5 0.125356 0.856190 0.991793
Si Si6 0.896998 0.010117 0.315257
Si Si7 0.602403 0.356783 0.539617
O O1 0.311543 0.095953 0.810803
O O2 0.303917 0.911023 0.820605
O O3 0.480306 0.999377 0.825870
O O4 0.353880 0.012022 0.947859
O O5 0.716851 0.250000 0.732449
O O6 0.647025 0.411501 0.783878
O O7 0.623383 0.370903 0.633803
O O8 0.215593 0.750000 0.792587
O O9 0.123826 0.904661 0.744895
O O10 0.129174 0.868864 0.895879
O O11 0.718890 0.587292 0.466360
O O12 0.843454 0.463954 0.399017
O O13 0.686015 0.410934 0.486174
O O14 0.141946 0.750000 0.018441
O O15 0.013693 0.894747 0.021629
O O16 0.611853 0.250000 0.513169
#
# Coordination Sequence:
#
# PCOD8252388 Si02
#       7
#     8   8   8   8   8   8   8
#     4   9  20  38  55  74 105 143 175 211 261 310
#     4   9  20  37  54  77 108 136 170 219 268 311
#     4   9  20  37  54  77 108 136 170 219 268 311
#     4  10  20  34  52  75 107 140 177 213 248 306
#     4   9  18  34  56  78 101 134 175 218 262 305
#     4  11  22  34  54  81 106 139 178 214 258 314
#     4   9  18  34  56  78 101 134 175 218 262 305
#
# _framework density 18.364654999999999
#
# number of rings (size 3 to 8) (size 9 to 14) (size 15 to 20)
#    0.000    2.571    0.000    1.714    0.000    6.857 
#    0.000    2.857    0.000    8.571    0.000    0.000 
#    0.000    0.000    0.000    0.000    0.000    0.000 
#
# Total GULP energy -694491.755294 kJ/mol
# GULP energy per Si atom -12401.638487 kJ/mol
# Density = 1.832286 g / cm^3
# Si number density = 18.364655 Si / 1000 Ang^3
#
#
#
# Elastic Constant Matrix: (Units=GPa)
#
#
# Indices 1 2 3 4 5 6 
#
# 1 88.2969 7.3810 32.0602 0.0000 0.0000 0.0000
# 2 7.3810 85.6397 10.0583 0.0000 0.0000 0.0000
# 3 32.0602 10.0583 56.9901 0.0000 0.0000 0.0000
# 4 0.0000 0.0000 0.0000 15.2919 0.0000 0.0000
# 5 0.0000 0.0000 0.0000 0.0000 -16.5389 0.0000
# 6 0.0000 0.0000 0.0000 0.0000 0.0000 15.8187
#
#
#
# Elastic Compliance Matrix: (Units=1/GPa)
#
#
# Indices 1 2 3 4 5 6 
#
# 1 0.014240 -0.000292 -0.007959 0.000000 0.000000 0.000000
# 2 -0.000292 0.011930 -0.001941 0.000000 0.000000 0.000000
# 3 -0.007959 -0.001941 0.022367 0.000000 0.000000 0.000000
# 4 0.000000 0.000000 0.000000 0.065394 0.000000 0.000000
# 5 0.000000 0.000000 0.000000 0.000000 -0.060464 0.000000
# 6 0.000000 0.000000 0.000000 0.000000 0.000000 0.063216
#
#
# Mechanical properties :
#
#
# Convention : Reuss Voigt Hill
#
# Bulk Modulus (GPa) = 35.52200 36.65839 36.09020
# Shear Modulus (GPa) = 34.14075 15.00949 24.57512
#
# Velocity S-wave (km/s) = 4.31634 2.86195 3.66208
# Velocity P-wave (km/s) = 6.65024 5.56109 6.12990
#
# Compressibility (1/GPa) = 0.02815157
#
# Stress axis : x y z
#
# Youngs Moduli (GPa) = 70.22582 83.82227 44.70891
#
# Poissons Ratio (x) = 0.02452 0.35584
# Poissons Ratio (y) = 0.02054 0.08678
# Poissons Ratio (z) = 0.55893 0.16270
#
# Static dielectric constant tensor:
#      x y z
#    x 3.233550 0.000000 0.000000 
#    y 0.000000 3.640380 0.000000 
#    z 0.000000 0.000000 3.329290 
# 
# 
# High freq. dielectric constant tensor:
#      x y z
#    x 1.705480 0.000000 0.000000 
#    y 0.000000 1.721370 0.000000 
#    z 0.000000 0.000000 1.708820 
# 
# From -- ./inp_files/18076.got.cif
#   From: 2010.03.12/outbox.cif.g09.slc.cpg/sg62_10_cif.got.tgz:18076.got - 2010.04.10 19:12:36.
