data_PCOD8252403
_publ_section_title
;
Structure prediction by ZEFSAII (Michael W. Deem and Ramdas Pophale) SiO2 
 PCOD8252403
Probable space group: P N M A
;
_chemical_formula_sum "Si O2"
_cell_formula_units_Z 48
_cell_length_a 31.249958
_cell_length_b 9.199686
_cell_length_c 9.144847
_cell_angle_alpha 90.000000
_cell_angle_beta 90.000000
_cell_angle_gamma 90.000000
_cell_volume 2629.050245
_symmetry_space_group_name_H-M "P N M A"
_symmetry_group_IT_number 62
_symmetry_cell_setting 'orthorhombic'
loop_
_space_group_symop_operation_xyz
x,y,z
1/2-x,-y,1/2+z
1/2+x,1/2-y,1/2-z
-x,1/2+y,-z
-x,-y,-z
1/2+x,y,1/2-z
1/2-x,1/2+y,1/2+z
x,1/2-y,z
loop_
_atom_site_type_symbol
_atom_site_label
_atom_site_fract_x
_atom_site_fract_y
_atom_site_fract_z
Si Si1 0.377424 0.419596 0.774700
Si Si2 0.457273 0.582955 0.818911
Si Si3 0.218975 0.922828 0.780471
Si Si4 0.952965 0.416781 0.383870
Si Si5 0.639852 0.582244 0.900147
Si Si6 0.707470 0.580124 0.386723
O O1 0.386738 0.250000 0.785091
O O2 0.422247 0.494138 0.724888
O O3 0.341311 0.456473 0.656470
O O4 0.363216 0.480867 0.934632
O O5 0.444038 0.750000 0.808059
O O6 0.507406 0.558662 0.769662
O O7 0.456387 0.531583 0.986109
O O8 0.221507 0.750000 0.768602
O O9 0.178499 0.989891 0.691197
O O10 0.262124 0.990843 0.719722
O O11 0.214204 0.971538 0.947987
O O12 0.955684 0.250000 0.444339
O O13 0.905574 0.440125 0.314063
O O14 0.651714 0.750000 0.912741
O O15 0.717132 0.750000 0.365200
#
# Coordination Sequence:
#
# PCOD8252403 Si02
#       6
#     8   8   8   8   8   8
#     4   9  17  30  46  64  92 127 157 189 234 284
#     4   9  15  23  40  67  93 118 155 198 232 268
#     4  10  20  34  53  74  95 123 160 199 239 286
#     4   8  14  25  41  63  93 126 155 187 232 280
#     4   8  14  27  47  67  89 121 156 187 226 276
#     4  10  21  35  51  72  96 124 159 196 239 291
#
# _framework density 18.257545
#
# number of rings (size 3 to 8) (size 9 to 14) (size 15 to 20)
#    0.000    3.000    0.000    2.500    0.000    3.333 
#    0.000    5.000    0.000    1.000    0.000    0.000 
#    0.000    0.000    0.000    0.000    0.000    1.500 
#
# Total GULP energy -594629.577361 kJ/mol
# GULP energy per Si atom -12388.116195 kJ/mol
# Density = 1.821599 g / cm^3
# Si number density = 18.257545 Si / 1000 Ang^3
#
#
#
# Elastic Constant Matrix: (Units=GPa)
#
#
# Indices 1 2 3 4 5 6 
#
# 1 65.6358 18.4462 1.8907 0.0000 0.0000 0.0000
# 2 18.4462 33.5224 9.2692 0.0000 0.0000 0.0000
# 3 1.8907 9.2692 44.6911 0.0000 0.0000 0.0000
# 4 0.0000 0.0000 0.0000 15.1082 0.0000 0.0000
# 5 0.0000 0.0000 0.0000 0.0000 23.7301 0.0000
# 6 0.0000 0.0000 0.0000 0.0000 0.0000 30.3138
#
#
#
# Elastic Compliance Matrix: (Units=1/GPa)
#
#
# Indices 1 2 3 4 5 6 
#
# 1 0.018103 -0.010343 0.001379 0.000000 0.000000 0.000000
# 2 -0.010343 0.037555 -0.007352 0.000000 0.000000 0.000000
# 3 0.001379 -0.007352 0.023842 0.000000 0.000000 0.000000
# 4 0.000000 0.000000 0.000000 0.066189 0.000000 0.000000
# 5 0.000000 0.000000 0.000000 0.000000 0.042141 0.000000
# 6 0.000000 0.000000 0.000000 0.000000 0.000000 0.032988
#
#
# Mechanical properties :
#
#
# Convention : Reuss Voigt Hill
#
# Bulk Modulus (GPa) = 21.33571 22.56241 21.94906
# Shear Modulus (GPa) = 18.58249 21.44663 20.01456
#
# Velocity S-wave (km/s) = 3.19376 3.43107 3.31454
# Velocity P-wave (km/s) = 5.03105 5.29915 5.16684
#
# Compressibility (1/GPa) = 0.04686977
#
# Stress axis : x y z
#
# Youngs Moduli (GPa) = 55.24097 26.62784 41.94239
#
# Poissons Ratio (x) = 0.27540 -0.05785
# Poissons Ratio (y) = 0.57133 0.30834
# Poissons Ratio (z) = -0.07619 0.19576
#
# Static dielectric constant tensor:
#      x y z
#    x 3.946620 0.000000 0.000000 
#    y 0.000000 3.179090 0.000000 
#    z 0.000000 0.000000 3.042450 
# 
# 
# High freq. dielectric constant tensor:
#      x y z
#    x 1.736680 0.000000 0.000000 
#    y 0.000000 1.685790 0.000000 
#    z 0.000000 0.000000 1.653440 
# 
# From -- ./inp_files/10266.got.cif
#   From: 2010.03.12/outbox.cif.g09.slc.cpg/sg62_6_cif.got.tgz:10266.got - 2010.04.10 19:12:36.
