data_PCOD8252619
_publ_section_title
;
Structure prediction by ZEFSAII (Michael W. Deem and Ramdas Pophale) SiO2 
 PCOD8252619
Probable space group: P N M A
;
_chemical_formula_sum "Si O2"
_cell_formula_units_Z 44
_cell_length_a 5.241181
_cell_length_b 14.567446
_cell_length_c 31.460722
_cell_angle_alpha 90.000000
_cell_angle_beta 90.000000
_cell_angle_gamma 90.000000
_cell_volume 2402.045668
_symmetry_space_group_name_H-M "P N M A"
_symmetry_group_IT_number 62
_symmetry_cell_setting 'orthorhombic'
loop_
_space_group_symop_operation_xyz
x,y,z
1/2-x,-y,1/2+z
1/2+x,1/2-y,1/2-z
-x,1/2+y,-z
-x,-y,-z
1/2+x,y,1/2-z
1/2-x,1/2+y,1/2+z
x,1/2-y,z
loop_
_atom_site_type_symbol
_atom_site_label
_atom_site_fract_x
_atom_site_fract_y
_atom_site_fract_z
Si Si1 0.423853 0.491913 0.868488
Si Si2 0.943421 0.641214 0.566269
Si Si3 0.070039 0.587804 0.157308
Si Si4 0.041536 0.750000 0.222839
Si Si5 0.828825 0.645366 0.076283
Si Si6 0.446553 0.641549 0.516942
O O1 0.433982 0.594384 0.887420
O O2 0.674851 0.472819 0.840799
O O3 0.175939 0.479652 0.838012
O O4 0.405252 0.418253 0.907564
O O5 0.935218 0.750000 0.573319
O O6 0.199823 0.608173 0.542871
O O7 0.702964 0.604511 0.539000
O O8 0.078394 0.659427 0.195248
O O9 0.052730 0.640421 0.111792
O O10 0.254896 0.750000 0.259253
O O11 0.730401 0.750000 0.071109
O O12 0.932600 0.605645 0.031524
O O13 0.457015 0.750000 0.516246
#
# Coordination Sequence:
#
# PCOD8252619 Si02
#       6
#     8   8   8   4   8   8
#     4  10  21  33  54  73 102 145 175 235 257 305
#     4  10  20  35  48  71 106 139 187 238 270 304
#     4  10  21  37  51  81 105 131 179 208 250 335
#     4  12  24  40  64  86 116 148 164 206 274 334
#     4   9  20  33  51  71 103 146 176 224 267 312
#     4   9  19  31  47  69 100 142 188 228 275 309
#
# _framework density 18.317720999999999
#
# number of rings (size 3 to 8) (size 9 to 14) (size 15 to 20)
#    1.091    1.091    0.909    2.182    3.818    1.455 
#    0.000    0.000    0.000    0.000    0.000    0.000 
#    0.000   14.545    0.000    0.000    0.000    0.000 
#
# Total GULP energy -545353.123837 kJ/mol
# GULP energy per Si atom -12394.389178 kJ/mol
# Density = 1.827603 g / cm^3
# Si number density = 18.317721 Si / 1000 Ang^3
#
#
#
# Elastic Constant Matrix: (Units=GPa)
#
#
# Indices 1 2 3 4 5 6 
#
# 1 131.5649 21.4769 28.9886 0.0000 0.0000 0.0000
# 2 21.4769 49.2312 22.4185 0.0000 0.0000 0.0000
# 3 28.9886 22.4185 61.4768 0.0000 0.0000 0.0000
# 4 0.0000 0.0000 0.0000 16.1408 0.0000 0.0000
# 5 0.0000 0.0000 0.0000 0.0000 24.8273 0.0000
# 6 0.0000 0.0000 0.0000 0.0000 0.0000 16.7400
#
#
#
# Elastic Compliance Matrix: (Units=1/GPa)
#
#
# Indices 1 2 3 4 5 6 
#
# 1 0.008696 -0.002310 -0.003258 0.000000 0.000000 0.000000
# 2 -0.002310 0.024971 -0.008017 0.000000 0.000000 0.000000
# 3 -0.003258 -0.008017 0.020726 0.000000 0.000000 0.000000
# 4 0.000000 0.000000 0.000000 0.061955 0.000000 0.000000
# 5 0.000000 0.000000 0.000000 0.000000 0.040278 0.000000
# 6 0.000000 0.000000 0.000000 0.000000 0.000000 0.059737
#
#
# Mechanical properties :
#
#
# Convention : Reuss Voigt Hill
#
# Bulk Modulus (GPa) = 36.73357 43.11566 39.92461
# Shear Modulus (GPa) = 19.79365 22.83421 21.31393
#
# Velocity S-wave (km/s) = 3.29077 3.53450 3.41481
# Velocity P-wave (km/s) = 5.87674 6.34395 6.11481
#
# Compressibility (1/GPa) = 0.02722306
#
# Stress axis : x y z
#
# Youngs Moduli (GPa) = 114.99877 40.04708 48.24849
#
# Poissons Ratio (x) = 0.09250 0.15720
# Poissons Ratio (y) = 0.26563 0.38680
# Poissons Ratio (z) = 0.37467 0.32105
#
# Static dielectric constant tensor:
#      x y z
#    x 3.499580 0.000000 0.000000 
#    y 0.000000 3.095030 0.000000 
#    z 0.000000 0.000000 3.063730 
# 
# 
# High freq. dielectric constant tensor:
#      x y z
#    x 1.719570 0.000000 0.000000 
#    y 0.000000 1.693270 0.000000 
#    z 0.000000 0.000000 1.671980 
# 
# From -- ./inp_files/31569.got.cif
#   From: 2010.03.12/outbox.cif.g09.slc.cpg/sg62_16_cif.got.tgz:31569.got - 2010.04.10 19:12:36.
