data_PCOD8252693
_publ_section_title
;
Structure prediction by ZEFSAII (Michael W. Deem and Ramdas Pophale) SiO2 
 PCOD8252693
Probable space group: P N M A
;
_chemical_formula_sum "Si O2"
_cell_formula_units_Z 64
_cell_length_a 19.416937
_cell_length_b 8.950318
_cell_length_c 20.032672
_cell_angle_alpha 90.000000
_cell_angle_beta 90.000000
_cell_angle_gamma 90.000000
_cell_volume 3481.433208
_symmetry_space_group_name_H-M "P N M A"
_symmetry_group_IT_number 62
_symmetry_cell_setting 'orthorhombic'
loop_
_space_group_symop_operation_xyz
x,y,z
1/2-x,-y,1/2+z
1/2+x,1/2-y,1/2-z
-x,1/2+y,-z
-x,-y,-z
1/2+x,y,1/2-z
1/2-x,1/2+y,1/2+z
x,1/2-y,z
loop_
_atom_site_type_symbol
_atom_site_label
_atom_site_fract_x
_atom_site_fract_y
_atom_site_fract_z
Si Si1 0.776480 0.574073 0.148679
Si Si2 0.752859 0.078808 0.280241
Si Si3 0.409812 0.422030 0.188787
Si Si4 0.973837 0.572151 0.932658
Si Si5 0.568655 0.426849 0.676121
Si Si6 0.063158 0.572931 0.538433
Si Si7 0.819762 0.572890 0.909064
Si Si8 0.710129 0.928299 0.013442
O O1 0.773749 0.750000 0.148528
O O2 0.738690 0.516297 0.214453
O O3 0.856185 0.521868 0.149578
O O4 0.735109 0.510028 0.085250
O O5 0.740655 0.250000 0.260987
O O6 0.827942 0.055715 0.312119
O O7 0.698366 0.019884 0.334445
O O8 0.429066 0.250000 0.202980
O O9 0.442743 0.523330 0.247095
O O10 0.438452 0.473572 0.116614
O O11 0.980626 0.750000 0.936032
O O12 0.895475 0.517446 0.926729
O O13 0.013782 0.511283 0.868876
O O14 0.000000 0.500000 0.000000
O O15 0.558415 0.250000 0.670362
O O16 0.058144 0.750000 0.531802
O O17 0.133676 0.513924 0.504194
O O18 0.000000 0.500000 0.500000
O O19 0.814551 0.750000 0.912743
O O20 0.764605 0.504799 0.960650
O O21 0.711276 0.750000 0.011795
#
# Coordination Sequence:
#
# PCOD8252693 Si02
#       8
#     8   8   8   8   8   8   8   8
#     4   9  18  32  53  79 107 138 173 216 264 314
#     4   9  16  31  55  78  99 128 174 220 259 310
#     4   9  17  33  57  80 102 137 181 223 264 317
#     4  11  22  36  55  80 112 146 181 224 271 322
#     4  10  20  35  55  81 111 146 183 221 265 320
#     4  10  20  35  56  79 105 137 177 221 269 323
#     4   9  17  32  56  79 100 136 180 220 260 312
#     4   9  16  32  56  78 101 135 177 212 257 321
#
# _framework density 18.383234000000002
#
# number of rings (size 3 to 8) (size 9 to 14) (size 15 to 20)
#    0.000    2.500    1.250    1.500    0.000    3.000 
#    2.250    1.875    0.000    2.250    0.000    0.000 
#    0.000    0.000    0.000    0.000    0.000    0.000 
#
# Total GULP energy -793512.346138 kJ/mol
# GULP energy per Si atom -12398.630408 kJ/mol
# Density = 1.834139 g / cm^3
# Si number density = 18.383234 Si / 1000 Ang^3
#
#
#
# Elastic Constant Matrix: (Units=GPa)
#
#
# Indices 1 2 3 4 5 6 
#
# 1 135.6346 33.8651 92.4427 0.0000 0.0000 0.0000
# 2 33.8651 31.0030 30.2817 0.0000 0.0000 0.0000
# 3 92.4427 30.2817 156.8234 0.0000 0.0000 0.0000
# 4 0.0000 0.0000 0.0000 32.9186 0.0000 0.0000
# 5 0.0000 0.0000 0.0000 0.0000 35.4561 0.0000
# 6 0.0000 0.0000 0.0000 0.0000 0.0000 21.2458
#
#
#
# Elastic Compliance Matrix: (Units=1/GPa)
#
#
# Indices 1 2 3 4 5 6 
#
# 1 0.014095 -0.008973 -0.006576 0.000000 0.000000 0.000000
# 2 -0.008973 0.045465 -0.003490 0.000000 0.000000 0.000000
# 3 -0.006576 -0.003490 0.010927 0.000000 0.000000 0.000000
# 4 0.000000 0.000000 0.000000 0.030378 0.000000 0.000000
# 5 0.000000 0.000000 0.000000 0.000000 0.028204 0.000000
# 6 0.000000 0.000000 0.000000 0.000000 0.000000 0.047068
#
#
# Mechanical properties :
#
#
# Convention : Reuss Voigt Hill
#
# Bulk Modulus (GPa) = 30.85538 70.73777 50.79657
# Shear Modulus (GPa) = 22.22050 29.04887 25.63468
#
# Velocity S-wave (km/s) = 3.48046 3.97946 3.73830
# Velocity P-wave (km/s) = 5.74216 7.72515 6.80626
#
# Compressibility (1/GPa) = 0.03240925
#
# Stress axis : x y z
#
# Youngs Moduli (GPa) = 70.94674 21.99489 91.51885
#
# Poissons Ratio (x) = 0.19737 0.60182
# Poissons Ratio (y) = 0.63663 0.31936
# Poissons Ratio (z) = 0.46654 0.07675
#
# Static dielectric constant tensor:
#      x y z
#    x 3.457070 0.000000 0.000000 
#    y 0.000000 3.095940 0.000000 
#    z 0.000000 0.000000 3.588370 
# 
# 
# High freq. dielectric constant tensor:
#      x y z
#    x 1.704810 0.000000 0.000000 
#    y 0.000000 1.683470 0.000000 
#    z 0.000000 0.000000 1.729670 
# 
# From -- ./inp_files/27683.got.cif
#   From: 2010.03.12/outbox.cif.g09.slc.cpg/sg62_14_cif.got.tgz:27683.got - 2010.04.10 19:12:36.
