data_PCOD8252215
_publ_section_title
;
Structure prediction by ZEFSAII (Michael W. Deem and Ramdas Pophale) SiO2 
 PCOD8252215
Probable space group: P N M A
;
_chemical_formula_sum "Si O2"
_cell_formula_units_Z 56
_cell_length_a 28.257900
_cell_length_b 9.021792
_cell_length_c 11.429169
_cell_angle_alpha 90.000000
_cell_angle_beta 90.000000
_cell_angle_gamma 90.000000
_cell_volume 2913.716871
_symmetry_space_group_name_H-M "P N M A"
_symmetry_group_IT_number 62
_symmetry_cell_setting 'orthorhombic'
loop_
_space_group_symop_operation_xyz
x,y,z
1/2-x,-y,1/2+z
1/2+x,1/2-y,1/2-z
-x,1/2+y,-z
-x,-y,-z
1/2+x,y,1/2-z
1/2-x,1/2+y,1/2+z
x,1/2-y,z
loop_
_atom_site_type_symbol
_atom_site_label
_atom_site_fract_x
_atom_site_fract_y
_atom_site_fract_z
Si Si1 0.292781 0.581058 0.380871
Si Si2 0.520198 0.925991 0.116640
Si Si3 0.305255 0.577575 0.914672
Si Si4 0.152712 0.419682 0.648579
Si Si5 0.936519 0.925598 0.221271
Si Si6 0.605960 0.423299 0.233608
Si Si7 0.886771 0.926411 0.995242
O O1 0.282424 0.750000 0.415311
O O2 0.245548 0.490090 0.394903
O O3 0.307043 0.566640 0.245977
O O4 0.335098 0.516971 0.462532
O O5 0.521672 0.750000 0.098464
O O6 0.487379 0.971284 0.228046
O O7 0.571862 0.987717 0.146173
O O8 0.500000 0.000000 0.000000
O O9 0.296801 0.750000 0.935394
O O10 0.339991 0.548422 0.805357
O O11 0.328914 0.503263 0.030025
O O12 0.141211 0.250000 0.618427
O O13 0.103918 0.494461 0.693646
O O14 0.929762 0.750000 0.219885
O O15 0.927093 0.982243 0.087830
O O16 0.592828 0.250000 0.225575
O O17 0.601005 0.486296 0.365882
O O18 0.885027 0.750000 0.992386
#
# Coordination Sequence:
#
# PCOD8252215 Si02
#       7
#     8   8   8   8   8   8   8
#     4   9  18  32  52  74  97 133 178 220 260 309
#     4  11  22  36  57  83 109 141 181 226 272 322
#     4  10  20  32  49  73 104 140 175 214 265 318
#     4   8  15  30  49  70  96 131 171 207 253 314
#     4   8  15  31  55  77 100 136 179 216 260 321
#     4  10  21  36  54  79 111 144 177 219 270 324
#     4   8  16  33  55  78 106 140 179 220 266 324
#
# _framework density 19.219436999999999
#
# number of rings (size 3 to 8) (size 9 to 14) (size 15 to 20)
#    0.000    2.857    0.000    3.000    2.000    3.429 
#    0.000    0.714    0.000    9.429    0.000    0.000 
#    0.000    0.000    0.000    0.000    0.000    0.000 
#
# Total GULP energy -694050.097677 kJ/mol
# GULP energy per Si atom -12393.751744 kJ/mol
# Density = 1.917569 g / cm^3
# Si number density = 19.219437 Si / 1000 Ang^3
#
#
#
# Elastic Constant Matrix: (Units=GPa)
#
#
# Indices 1 2 3 4 5 6 
#
# 1 90.7527 31.0809 30.6549 0.0000 0.0000 0.0000
# 2 31.0809 38.9342 28.2162 0.0000 0.0000 0.0000
# 3 30.6549 28.2162 109.9405 0.0000 0.0000 0.0000
# 4 0.0000 0.0000 0.0000 18.0594 0.0000 0.0000
# 5 0.0000 0.0000 0.0000 0.0000 21.8404 0.0000
# 6 0.0000 0.0000 0.0000 0.0000 0.0000 28.0482
#
#
#
# Elastic Compliance Matrix: (Units=1/GPa)
#
#
# Indices 1 2 3 4 5 6 
#
# 1 0.015337 -0.011234 -0.001393 0.000000 0.000000 0.000000
# 2 -0.011234 0.039781 -0.007078 0.000000 0.000000 0.000000
# 3 -0.001393 -0.007078 0.011301 0.000000 0.000000 0.000000
# 4 0.000000 0.000000 0.000000 0.055373 0.000000 0.000000
# 5 0.000000 0.000000 0.000000 0.000000 0.045787 0.000000
# 6 0.000000 0.000000 0.000000 0.000000 0.000000 0.035653
#
#
# Mechanical properties :
#
#
# Convention : Reuss Voigt Hill
#
# Bulk Modulus (GPa) = 37.02330 46.61459 41.81895
# Shear Modulus (GPa) = 19.86936 23.56795 21.71865
#
# Velocity S-wave (km/s) = 3.21879 3.50559 3.36525
# Velocity P-wave (km/s) = 5.75495 6.37904 6.07501
#
# Compressibility (1/GPa) = 0.02701002
#
# Stress axis : x y z
#
# Youngs Moduli (GPa) = 65.20237 25.13744 88.48940
#
# Poissons Ratio (x) = 0.28238 0.12329
# Poissons Ratio (y) = 0.73246 0.62629
# Poissons Ratio (z) = 0.09085 0.17791
#
# Static dielectric constant tensor:
#      x y z
#    x 3.523560 0.000000 0.000000 
#    y 0.000000 3.054040 0.000000 
#    z 0.000000 0.000000 3.947790 
# 
# 
# High freq. dielectric constant tensor:
#      x y z
#    x 1.750660 0.000000 0.000000 
#    y 0.000000 1.693130 0.000000 
#    z 0.000000 0.000000 1.762310 
# 
# From -- ./inp_files/15549.got.cif
#   From: 2010.03.12/outbox.cif.g09.slc.cpg/sg62_8_cif.got.tgz:15549.got - 2010.04.10 19:12:36.
