data_PCOD8252142
_publ_section_title
;
Structure prediction by ZEFSAII (Michael W. Deem and Ramdas Pophale) SiO2 
 PCOD8252142
Probable space group: P N M A
;
_chemical_formula_sum "Si O2"
_cell_formula_units_Z 64
_cell_length_a 9.369629
_cell_length_b 21.805968
_cell_length_c 14.494600
_cell_angle_alpha 90.000000
_cell_angle_beta 90.000000
_cell_angle_gamma 90.000000
_cell_volume 2961.447242
_symmetry_space_group_name_H-M "P N M A"
_symmetry_group_IT_number 62
_symmetry_cell_setting 'orthorhombic'
loop_
_space_group_symop_operation_xyz
x,y,z
1/2-x,-y,1/2+z
1/2+x,1/2-y,1/2-z
-x,1/2+y,-z
-x,-y,-z
1/2+x,y,1/2-z
1/2-x,1/2+y,1/2+z
x,1/2-y,z
loop_
_atom_site_type_symbol
_atom_site_label
_atom_site_fract_x
_atom_site_fract_y
_atom_site_fract_z
Si Si1 0.474049 0.494300 0.853864
Si Si2 0.419426 0.130133 0.530376
Si Si3 0.529922 0.990271 0.356759
Si Si4 0.229281 0.921134 0.651674
Si Si5 0.716930 0.927185 0.637206
Si Si6 0.762141 0.820060 0.310979
Si Si7 0.230851 0.319243 0.011022
Si Si8 0.919388 0.137503 0.647090
O O1 0.446480 0.472092 0.748949
O O2 0.631405 0.519773 0.872954
O O3 0.377239 0.551599 0.885674
O O4 0.441270 0.429391 0.902912
O O5 0.424535 0.062535 0.574098
O O6 0.340385 0.125274 0.431307
O O7 0.320466 0.173479 0.592283
O O8 0.576750 0.157986 0.523654
O O9 0.613949 0.054235 0.373610
O O10 0.366799 0.008449 0.374167
O O11 0.206170 0.901940 0.758263
O O12 0.204276 0.860105 0.593254
O O13 0.751603 0.750000 0.277731
O O14 0.686986 0.863438 0.235211
O O15 0.927555 0.837429 0.321307
O O16 0.215929 0.250000 0.047554
O O17 0.344963 0.319712 0.928520
#
# Coordination Sequence:
#
# PCOD8252142 Si02
#       8
#     8   8   8   8   8   8   8   8
#     4  10  22  38  66  99 136 165 216 277 344 400
#     4  12  23  41  72 100 132 174 225 282 341 406
#     4  10  19  39  63  99 130 162 209 273 344 402
#     4  10  23  42  65  96 139 174 220 279 341 401
#     4  10  22  38  66  99 131 167 213 279 339 400
#     4  12  26  45  66  95 135 180 229 273 327 412
#     4  12  27  46  66  94 135 186 235 277 333 408
#     4  12  26  45  68  99 137 180 222 280 343 404
#
# _framework density 21.611055
#
# number of rings (size 3 to 8) (size 9 to 14) (size 15 to 20)
#    0.000    1.000    2.500    4.125    7.000    0.500 
#    0.000    1.250    0.000    0.000    0.000    0.000 
#    0.000    0.000    0.000    0.000    0.000    0.000 
#
# Total GULP energy -793548.893955 kJ/mol
# GULP energy per Si atom -12399.201468 kJ/mol
# Density = 2.156187 g / cm^3
# Si number density = 21.611055 Si / 1000 Ang^3
#
#
#
# Elastic Constant Matrix: (Units=GPa)
#
#
# Indices 1 2 3 4 5 6 
#
# 1 94.5953 30.2136 42.0817 0.0000 0.0000 0.0000
# 2 30.2136 108.3067 41.0552 0.0000 0.0000 0.0000
# 3 42.0817 41.0552 90.1706 0.0000 0.0000 0.0000
# 4 0.0000 0.0000 0.0000 29.4642 0.0000 0.0000
# 5 0.0000 0.0000 0.0000 0.0000 32.9626 0.0000
# 6 0.0000 0.0000 0.0000 0.0000 0.0000 17.7286
#
#
#
# Elastic Compliance Matrix: (Units=1/GPa)
#
#
# Indices 1 2 3 4 5 6 
#
# 1 0.013588 -0.001676 -0.005578 0.000000 0.000000 0.000000
# 2 -0.001676 0.011366 -0.004393 0.000000 0.000000 0.000000
# 3 -0.005578 -0.004393 0.015694 0.000000 0.000000 0.000000
# 4 0.000000 0.000000 0.000000 0.033940 0.000000 0.000000
# 5 0.000000 0.000000 0.000000 0.000000 0.030337 0.000000
# 6 0.000000 0.000000 0.000000 0.000000 0.000000 0.056406
#
#
# Mechanical properties :
#
#
# Convention : Reuss Voigt Hill
#
# Bulk Modulus (GPa) = 57.62622 57.75263 57.68942
# Shear Modulus (GPa) = 26.25927 28.01256 27.13592
#
# Velocity S-wave (km/s) = 3.48959 3.60420 3.54736
# Velocity P-wave (km/s) = 6.55434 6.64094 6.59778
#
# Compressibility (1/GPa) = 0.01735321
#
# Stress axis : x y z
#
# Youngs Moduli (GPa) = 73.59276 87.98396 63.72064
#
# Poissons Ratio (x) = 0.14747 0.35546
# Poissons Ratio (y) = 0.12335 0.27990
# Poissons Ratio (z) = 0.41053 0.38649
#
# Static dielectric constant tensor:
#      x y z
#    x 3.985550 0.000000 0.000000 
#    y 0.000000 3.686330 0.000000 
#    z 0.000000 0.000000 3.887920 
# 
# 
# High freq. dielectric constant tensor:
#      x y z
#    x 1.865170 0.000000 0.000000 
#    y 0.000000 1.828090 0.000000 
#    z 0.000000 0.000000 1.846380 
# 
# From -- ./inp_files/17346.got.cif
#   From: 2010.03.12/outbox.cif.g09.slc.cpg/sg62_9_cif.got.tgz:17346.got - 2010.04.10 19:12:36.
