data_PCOD8252587
_publ_section_title
;
Structure prediction by ZEFSAII (Michael W. Deem and Ramdas Pophale) SiO2 
 PCOD8252587
Probable space group: P N M A
;
_chemical_formula_sum "Si O2"
_cell_formula_units_Z 48
_cell_length_a 16.434150
_cell_length_b 8.880874
_cell_length_c 17.843244
_cell_angle_alpha 90.000000
_cell_angle_beta 90.000000
_cell_angle_gamma 90.000000
_cell_volume 2604.214600
_symmetry_space_group_name_H-M "P N M A"
_symmetry_group_IT_number 62
_symmetry_cell_setting 'orthorhombic'
loop_
_space_group_symop_operation_xyz
x,y,z
1/2-x,-y,1/2+z
1/2+x,1/2-y,1/2-z
-x,1/2+y,-z
-x,-y,-z
1/2+x,y,1/2-z
1/2-x,1/2+y,1/2+z
x,1/2-y,z
loop_
_atom_site_type_symbol
_atom_site_label
_atom_site_fract_x
_atom_site_fract_y
_atom_site_fract_z
Si Si1 0.255654 0.077122 0.440383
Si Si2 0.668618 0.072768 0.335357
Si Si3 0.817221 0.577502 0.401788
Si Si4 0.351050 0.072279 0.823357
Si Si5 0.502043 0.424037 0.920507
Si Si6 0.916713 0.427103 0.974184
O O1 0.248566 0.250000 0.414835
O O2 0.196421 0.043693 0.510394
O O3 0.348043 0.037066 0.463523
O O4 0.228740 0.972411 0.371324
O O5 0.656751 0.250000 0.340472
O O6 0.762445 0.031014 0.351287
O O7 0.645677 0.015421 0.253888
O O8 0.608994 0.995034 0.394694
O O9 0.791646 0.750000 0.384926
O O10 0.910894 0.546203 0.381070
O O11 0.350249 0.250000 0.808655
O O12 0.431367 0.014979 0.866790
O O13 0.487990 0.250000 0.935867
O O14 0.500000 0.500000 0.000000
O O15 0.927995 0.250000 0.963774
O O16 0.000000 0.500000 0.000000
#
# Coordination Sequence:
#
# PCOD8252587 Si02
#       6
#     8   8   8   8   8   8
#     4   9  18  34  58  83 112 147 182 227 280 337
#     4  11  23  39  59  82 113 154 194 239 291 338
#     4   9  18  36  58  81 112 148 185 231 281 335
#     4  11  22  36  56  85 118 152 190 235 286 342
#     4  10  20  34  57  87 117 149 187 231 280 337
#     4  10  21  40  64  88 115 148 193 241 286 342
#
# _framework density 18.431660999999998
#
# number of rings (size 3 to 8) (size 9 to 14) (size 15 to 20)
#    0.000    2.000    1.667    3.500    0.000    4.667 
#    3.000    0.000    0.000    0.000    0.000    0.000 
#    0.000    0.000    0.000    0.000    0.000    0.000 
#
# Total GULP energy -595301.081166 kJ/mol
# GULP energy per Si atom -12402.105858 kJ/mol
# Density = 1.838971 g / cm^3
# Si number density = 18.431661 Si / 1000 Ang^3
#
#
#
# Elastic Constant Matrix: (Units=GPa)
#
#
# Indices 1 2 3 4 5 6 
#
# 1 125.8782 57.6801 69.1993 0.0000 0.0000 0.0000
# 2 57.6801 101.9079 60.2171 0.0000 0.0000 0.0000
# 3 69.1993 60.2171 120.9302 0.0000 0.0000 0.0000
# 4 0.0000 0.0000 0.0000 33.9847 0.0000 0.0000
# 5 0.0000 0.0000 0.0000 0.0000 20.9877 0.0000
# 6 0.0000 0.0000 0.0000 0.0000 0.0000 31.2997
#
#
#
# Elastic Compliance Matrix: (Units=1/GPa)
#
#
# Indices 1 2 3 4 5 6 
#
# 1 0.012693 -0.004098 -0.005223 0.000000 0.000000 0.000000
# 2 -0.004098 0.015227 -0.005237 0.000000 0.000000 0.000000
# 3 -0.005223 -0.005237 0.013866 0.000000 0.000000 0.000000
# 4 0.000000 0.000000 0.000000 0.029425 0.000000 0.000000
# 5 0.000000 0.000000 0.000000 0.000000 0.047647 0.000000
# 6 0.000000 0.000000 0.000000 0.000000 0.000000 0.031949
#
#
# Mechanical properties :
#
#
# Convention : Reuss Voigt Hill
#
# Bulk Modulus (GPa) = 78.92869 80.32325 79.62597
# Shear Modulus (GPa) = 27.15236 28.02909 27.59072
#
# Velocity S-wave (km/s) = 3.84231 3.90385 3.87320
# Velocity P-wave (km/s) = 7.91200 7.99960 7.95592
#
# Compressibility (1/GPa) = 0.01266966
#
# Stress axis : x y z
#
# Youngs Moduli (GPa) = 78.78261 65.67260 72.12129
#
# Poissons Ratio (x) = 0.26915 0.37666
# Poissons Ratio (y) = 0.32288 0.37771
# Poissons Ratio (z) = 0.41145 0.34394
#
# Static dielectric constant tensor:
#      x y z
#    x 3.689880 0.000000 0.000000 
#    y 0.000000 3.417270 0.000000 
#    z 0.000000 0.000000 3.230790 
# 
# 
# High freq. dielectric constant tensor:
#      x y z
#    x 1.721610 0.000000 0.000000 
#    y 0.000000 1.718870 0.000000 
#    z 0.000000 0.000000 1.702490 
# 
# From -- ./inp_files/23686.got.cif
#   From: 2010.03.12/outbox.cif.g09.slc.cpg/sg62_12_cif.got.tgz:23686.got - 2010.04.10 19:12:36.
