data_PCOD8252099
_publ_section_title
;
Structure prediction by ZEFSAII (Michael W. Deem and Ramdas Pophale) SiO2 
 PCOD8252099
Probable space group: P N M A
;
_chemical_formula_sum "Si O2"
_cell_formula_units_Z 48
_cell_length_a 14.424034
_cell_length_b 8.523959
_cell_length_c 20.090526
_cell_angle_alpha 90.000000
_cell_angle_beta 90.000000
_cell_angle_gamma 90.000000
_cell_volume 2470.127649
_symmetry_space_group_name_H-M "P N M A"
_symmetry_group_IT_number 62
_symmetry_cell_setting 'orthorhombic'
loop_
_space_group_symop_operation_xyz
x,y,z
1/2-x,-y,1/2+z
1/2+x,1/2-y,1/2-z
-x,1/2+y,-z
-x,-y,-z
1/2+x,y,1/2-z
1/2-x,1/2+y,1/2+z
x,1/2-y,z
loop_
_atom_site_type_symbol
_atom_site_label
_atom_site_fract_x
_atom_site_fract_y
_atom_site_fract_z
Si Si1 0.985422 0.435736 0.270875
Si Si2 0.678259 0.067021 0.172837
Si Si3 0.805683 0.569087 0.066614
Si Si4 0.509256 0.566245 0.621174
Si Si5 0.784672 0.067115 0.308497
Si Si6 0.825069 0.431567 0.929581
O O1 0.984168 0.250000 0.263945
O O2 0.073509 0.492048 0.313563
O O3 0.991973 0.502957 0.196068
O O4 0.891218 0.491321 0.306749
O O5 0.680474 0.250000 0.154646
O O6 0.740822 0.032552 0.236932
O O7 0.715703 0.968435 0.110836
O O8 0.832822 0.750000 0.074259
O O9 0.890631 0.460855 0.089501
O O10 0.781302 0.529686 0.990337
O O11 0.485562 0.750000 0.619960
O O12 0.432662 0.475847 0.578472
O O13 0.775552 0.250000 0.326505
O O14 0.731535 0.967572 0.363124
O O15 0.816984 0.250000 0.946874
#
# Coordination Sequence:
#
# PCOD8252099 Si02
#       6
#     8   8   8   8   8   8
#     4   9  18  34  61  92 119 153 195 238 290 351
#     4  10  19  37  63  89 119 157 199 241 291 355
#     4  12  25  40  58  87 122 160 200 247 300 354
#     4  11  20  38  63  90 121 157 194 240 299 360
#     4  10  19  37  63  89 119 157 199 241 291 355
#     4  12  25  40  58  87 122 160 200 247 300 354
#
# _framework density 19.432193999999999
#
# number of rings (size 3 to 8) (size 9 to 14) (size 15 to 20)
#    0.000    1.333    3.333    4.000    0.000    0.667 
#    0.000    1.667    0.000    0.000    0.000    0.000 
#    0.000    0.000    0.000    0.000    0.000    0.000 
#
# Total GULP energy -595438.310321 kJ/mol
# GULP energy per Si atom -12404.964798 kJ/mol
# Density = 1.938797 g / cm^3
# Si number density = 19.432194 Si / 1000 Ang^3
#
#
#
# Elastic Constant Matrix: (Units=GPa)
#
#
# Indices 1 2 3 4 5 6 
#
# 1 93.6089 17.1173 -3.3304 0.0000 0.0000 0.0000
# 2 17.1173 58.5521 21.8643 0.0000 0.0000 0.0000
# 3 -3.3304 21.8643 53.4309 0.0000 0.0000 0.0000
# 4 0.0000 0.0000 0.0000 26.0653 0.0000 0.0000
# 5 0.0000 0.0000 0.0000 0.0000 28.7564 0.0000
# 6 0.0000 0.0000 0.0000 0.0000 0.0000 26.5942
#
#
#
# Elastic Compliance Matrix: (Units=1/GPa)
#
#
# Indices 1 2 3 4 5 6 
#
# 1 0.011558 -0.004306 0.002483 0.000000 0.000000 0.000000
# 2 -0.004306 0.021763 -0.009174 0.000000 0.000000 0.000000
# 3 0.002483 -0.009174 0.022625 0.000000 0.000000 0.000000
# 4 0.000000 0.000000 0.000000 0.038365 0.000000 0.000000
# 5 0.000000 0.000000 0.000000 0.000000 0.034775 0.000000
# 6 0.000000 0.000000 0.000000 0.000000 0.000000 0.037602
#
#
# Mechanical properties :
#
#
# Convention : Reuss Voigt Hill
#
# Bulk Modulus (GPa) = 29.45408 30.76604 30.11006
# Shear Modulus (GPa) = 24.99984 27.61255 26.30620
#
# Velocity S-wave (km/s) = 3.59070 3.77366 3.68332
# Velocity P-wave (km/s) = 5.69044 5.90375 5.79807
#
# Compressibility (1/GPa) = 0.03395115
#
# Stress axis : x y z
#
# Youngs Moduli (GPa) = 86.51669 45.94864 44.19957
#
# Poissons Ratio (x) = 0.19786 -0.10973
# Poissons Ratio (y) = 0.37254 0.40549
# Poissons Ratio (z) = -0.21478 0.42154
#
# Static dielectric constant tensor:
#      x y z
#    x 3.715420 0.000000 0.000000 
#    y 0.000000 3.288140 0.000000 
#    z 0.000000 0.000000 3.548220 
# 
# 
# High freq. dielectric constant tensor:
#      x y z
#    x 1.758380 0.000000 0.000000 
#    y 0.000000 1.738880 0.000000 
#    z 0.000000 0.000000 1.755780 
# 
# From -- ./inp_files/23767.got.cif
#   From: 2010.03.12/outbox.cif.g09.slc.cpg/sg62_12_cif.got.tgz:23767.got - 2010.04.10 19:12:36.
