data_PCOD8252583
_publ_section_title
;
Structure prediction by ZEFSAII (Michael W. Deem and Ramdas Pophale) SiO2 
 PCOD8252583
Probable space group: P N M A
;
_chemical_formula_sum "Si O2"
_cell_formula_units_Z 64
_cell_length_a 18.895496
_cell_length_b 15.174896
_cell_length_c 11.943944
_cell_angle_alpha 90.000000
_cell_angle_beta 90.000000
_cell_angle_gamma 90.000000
_cell_volume 3424.772900
_symmetry_space_group_name_H-M "P N M A"
_symmetry_group_IT_number 62
_symmetry_cell_setting 'orthorhombic'
loop_
_space_group_symop_operation_xyz
x,y,z
1/2-x,-y,1/2+z
1/2+x,1/2-y,1/2-z
-x,1/2+y,-z
-x,-y,-z
1/2+x,y,1/2-z
1/2-x,1/2+y,1/2+z
x,1/2-y,z
loop_
_atom_site_type_symbol
_atom_site_label
_atom_site_fract_x
_atom_site_fract_y
_atom_site_fract_z
Si Si1 0.933733 0.975731 0.228699
Si Si2 0.938620 0.591380 0.812398
Si Si3 0.506300 0.349152 0.541838
Si Si4 0.212497 0.516946 0.866819
Si Si5 0.742782 0.847258 0.242751
Si Si6 0.831854 0.650527 0.638439
Si Si7 0.879568 0.848661 0.396691
Si Si8 0.859971 0.070263 0.911734
O O1 0.857816 0.021477 0.209371
O O2 0.991277 0.051800 0.245638
O O3 0.950912 0.916056 0.120180
O O4 0.935723 0.915048 0.339812
O O5 0.897113 0.651532 0.724581
O O6 0.886541 0.513660 0.845684
O O7 0.959465 0.649228 0.919357
O O8 0.512319 0.250000 0.589548
O O9 0.424729 0.378041 0.530574
O O10 0.248233 0.419811 0.855485
O O11 0.267426 0.589338 0.819936
O O12 0.195968 0.538498 0.995545
O O13 0.732820 0.750000 0.188305
O O14 0.811245 0.848097 0.319490
O O15 0.675915 0.865957 0.321745
O O16 0.802907 0.750000 0.625729
O O17 0.860229 0.615302 0.519292
O O18 0.912087 0.750000 0.404675
#
# Coordination Sequence:
#
# PCOD8252583 Si02
#       8
#     8   8   8   8   8   8   8   8
#     4  10  20  37  58  80 110 147 190 238 292 337
#     4  11  21  38  54  82 118 151 187 230 289 349
#     4  11  21  34  57  87 118 149 187 240 293 347
#     4  11  20  37  58  81 118 149 185 244 290 340
#     4  10  20  34  57  86 112 146 193 241 290 339
#     4  11  23  37  56  83 114 153 195 234 280 345
#     4   9  19  34  55  81 105 139 192 236 275 333
#     4  11  19  36  58  85 115 150 191 237 290 349
#
# _framework density 18.687370000000001
#
# number of rings (size 3 to 8) (size 9 to 14) (size 15 to 20)
#    0.000    1.500    5.000    1.875    0.000    1.500 
#    0.000    0.000    0.000    0.000    0.000    0.875 
#    0.000    0.000    0.000    0.000    0.000    0.000 
#
# Total GULP energy -793661.520634 kJ/mol
# GULP energy per Si atom -12400.961260 kJ/mol
# Density = 1.864484 g / cm^3
# Si number density = 18.687370 Si / 1000 Ang^3
#
#
#
# Elastic Constant Matrix: (Units=GPa)
#
#
# Indices 1 2 3 4 5 6 
#
# 1 83.9803 43.4232 40.3189 0.0000 0.0000 0.0000
# 2 43.4232 93.7402 29.1240 0.0000 0.0000 0.0000
# 3 40.3189 29.1240 64.3575 0.0000 0.0000 0.0000
# 4 0.0000 0.0000 0.0000 20.1853 0.0000 0.0000
# 5 0.0000 0.0000 0.0000 0.0000 25.5388 0.0000
# 6 0.0000 0.0000 0.0000 0.0000 0.0000 15.1608
#
#
#
# Elastic Compliance Matrix: (Units=1/GPa)
#
#
# Indices 1 2 3 4 5 6 
#
# 1 0.019665 -0.006146 -0.009538 0.000000 0.000000 0.000000
# 2 -0.006146 0.014334 -0.002636 0.000000 0.000000 0.000000
# 3 -0.009538 -0.002636 0.022707 0.000000 0.000000 0.000000
# 4 0.000000 0.000000 0.000000 0.049541 0.000000 0.000000
# 5 0.000000 0.000000 0.000000 0.000000 0.039156 0.000000
# 6 0.000000 0.000000 0.000000 0.000000 0.000000 0.065960
#
#
# Mechanical properties :
#
#
# Convention : Reuss Voigt Hill
#
# Bulk Modulus (GPa) = 49.83965 51.97890 50.90927
# Shear Modulus (GPa) = 19.63160 20.79110 20.21135
#
# Velocity S-wave (km/s) = 3.24470 3.33915 3.29226
# Velocity P-wave (km/s) = 6.38479 6.53773 6.46171
#
# Compressibility (1/GPa) = 0.02006435
#
# Stress axis : x y z
#
# Youngs Moduli (GPa) = 50.85241 69.76534 44.03945
#
# Poissons Ratio (x) = 0.42876 0.42007
# Poissons Ratio (y) = 0.31253 0.11610
# Poissons Ratio (z) = 0.48505 0.18392
#
# Static dielectric constant tensor:
#      x y z
#    x 3.479720 0.000000 0.000000 
#    y 0.000000 3.572380 0.000000 
#    z 0.000000 0.000000 3.308730 
# 
# 
# High freq. dielectric constant tensor:
#      x y z
#    x 1.722530 0.000000 0.000000 
#    y 0.000000 1.727940 0.000000 
#    z 0.000000 0.000000 1.708090 
# 
# From -- ./inp_files/14358.got.cif
#   From: 2010.03.12/outbox.cif.g09.slc.cpg/sg62_8_cif.got.tgz:14358.got - 2010.04.10 19:12:36.
