data_PCOD8252853
_publ_section_title
;
Structure prediction by ZEFSAII (Michael W. Deem and Ramdas Pophale) SiO2 
 PCOD8252853
Probable space group: P N M A
;
_chemical_formula_sum "Si O2"
_cell_formula_units_Z 56
_cell_length_a 21.756336
_cell_length_b 8.745394
_cell_length_c 14.649543
_cell_angle_alpha 90.000000
_cell_angle_beta 90.000000
_cell_angle_gamma 90.000000
_cell_volume 2787.335297
_symmetry_space_group_name_H-M "P N M A"
_symmetry_group_IT_number 62
_symmetry_cell_setting 'orthorhombic'
loop_
_space_group_symop_operation_xyz
x,y,z
1/2-x,-y,1/2+z
1/2+x,1/2-y,1/2-z
-x,1/2+y,-z
-x,-y,-z
1/2+x,y,1/2-z
1/2-x,1/2+y,1/2+z
x,1/2-y,z
loop_
_atom_site_type_symbol
_atom_site_label
_atom_site_fract_x
_atom_site_fract_y
_atom_site_fract_z
Si Si1 0.457898 0.569426 0.421806
Si Si2 0.673831 0.931256 0.541759
Si Si3 0.778723 0.931416 0.677733
Si Si4 0.981414 0.429413 0.269803
Si Si5 0.883598 0.071491 0.417644
Si Si6 0.254631 0.568482 0.618424
Si Si7 0.092666 0.430877 0.396493
O O1 0.500000 0.500000 0.500000
O O2 0.458587 0.750000 0.431526
O O3 0.389457 0.508443 0.431895
O O4 0.484278 0.522299 0.323661
O O5 0.665679 0.750000 0.545125
O O6 0.724369 0.991984 0.613326
O O7 0.694635 0.983609 0.441788
O O8 0.780162 0.750000 0.674928
O O9 0.766538 0.989581 0.779463
O O10 0.843406 0.998345 0.642424
O O11 0.986565 0.250000 0.247340
O O12 0.918316 0.466694 0.323260
O O13 0.037833 0.487353 0.331799
O O14 0.886846 0.250000 0.437342
O O15 0.813498 0.014609 0.410088
O O16 0.917853 0.989166 0.500943
O O17 0.262382 0.750000 0.609276
O O18 0.093900 0.250000 0.399365
#
# Coordination Sequence:
#
# PCOD8252853 Si02
#       7
#     8   8   8   8   8   8   8
#     4  12  27  46  67  92 123 160 206 256 309 371
#     4  11  22  41  65  91 124 161 202 252 308 364
#     4   9  19  36  59  87 123 164 204 252 309 365
#     4  10  22  40  63  91 125 168 210 252 309 367
#     4  10  20  36  58  89 129 169 206 254 309 367
#     4  10  20  35  58  86 119 163 209 252 306 365
#     4  10  20  36  60  90 123 163 210 257 308 367
#
# _framework density 20.090872999999998
#
# number of rings (size 3 to 8) (size 9 to 14) (size 15 to 20)
#    0.000    1.714    1.429    3.000    2.000    3.429 
#    0.000    3.571    0.000    0.000    0.000    0.000 
#    0.000    0.000    0.000    0.000    0.000    0.000 
#
# Total GULP energy -694634.238121 kJ/mol
# GULP energy per Si atom -12404.182824 kJ/mol
# Density = 2.004515 g / cm^3
# Si number density = 20.090873 Si / 1000 Ang^3
#
#
#
# Elastic Constant Matrix: (Units=GPa)
#
#
# Indices 1 2 3 4 5 6 
#
# 1 86.4031 25.8162 26.6978 0.0000 0.0000 0.0000
# 2 25.8162 62.6100 33.7670 0.0000 0.0000 0.0000
# 3 26.6978 33.7670 130.4295 0.0000 0.0000 0.0000
# 4 0.0000 0.0000 0.0000 33.8554 0.0000 0.0000
# 5 0.0000 0.0000 0.0000 0.0000 36.8022 0.0000
# 6 0.0000 0.0000 0.0000 0.0000 0.0000 26.3195
#
#
#
# Elastic Compliance Matrix: (Units=1/GPa)
#
#
# Indices 1 2 3 4 5 6 
#
# 1 0.013458 -0.004723 -0.001532 0.000000 0.000000 0.000000
# 2 -0.004723 0.020221 -0.004268 0.000000 0.000000 0.000000
# 3 -0.001532 -0.004268 0.009086 0.000000 0.000000 0.000000
# 4 0.000000 0.000000 0.000000 0.029537 0.000000 0.000000
# 5 0.000000 0.000000 0.000000 0.000000 0.027172 0.000000
# 6 0.000000 0.000000 0.000000 0.000000 0.000000 0.037995
#
#
# Mechanical properties :
#
#
# Convention : Reuss Voigt Hill
#
# Bulk Modulus (GPa) = 46.04396 50.22273 48.13335
# Shear Modulus (GPa) = 30.16485 32.27286 31.21885
#
# Velocity S-wave (km/s) = 3.87902 4.01227 3.94621
# Velocity P-wave (km/s) = 6.55973 6.82030 6.69128
#
# Compressibility (1/GPa) = 0.02171838
#
# Stress axis : x y z
#
# Youngs Moduli (GPa) = 74.30402 49.45260 110.06407
#
# Poissons Ratio (x) = 0.23356 0.16862
# Poissons Ratio (y) = 0.35094 0.46980
# Poissons Ratio (z) = 0.11384 0.21108
#
# Static dielectric constant tensor:
#      x y z
#    x 3.802400 0.000000 0.000000 
#    y 0.000000 3.387250 0.000000 
#    z 0.000000 0.000000 3.766870 
# 
# 
# High freq. dielectric constant tensor:
#      x y z
#    x 1.798600 0.000000 0.000000 
#    y 0.000000 1.760760 0.000000 
#    z 0.000000 0.000000 1.799280 
# 
# From -- ./inp_files/20300.got.cif
#   From: 2010.03.12/outbox.cif.g09.slc.cpg/sg62_11_cif.got.tgz:20300.got - 2010.04.10 19:12:36.
