data_PCOD8252955
_publ_section_title
;
Structure prediction by ZEFSAII (Michael W. Deem and Ramdas Pophale) SiO2 
 PCOD8252955
Probable space group: P N M A
;
_chemical_formula_sum "Si O2"
_cell_formula_units_Z 48
_cell_length_a 30.402635
_cell_length_b 9.270553
_cell_length_c 8.941773
_cell_angle_alpha 90.000000
_cell_angle_beta 90.000000
_cell_angle_gamma 90.000000
_cell_volume 2520.231916
_symmetry_space_group_name_H-M "P N M A"
_symmetry_group_IT_number 62
_symmetry_cell_setting 'orthorhombic'
loop_
_space_group_symop_operation_xyz
x,y,z
1/2-x,-y,1/2+z
1/2+x,1/2-y,1/2-z
-x,1/2+y,-z
-x,-y,-z
1/2+x,y,1/2-z
1/2-x,1/2+y,1/2+z
x,1/2-y,z
loop_
_atom_site_type_symbol
_atom_site_label
_atom_site_fract_x
_atom_site_fract_y
_atom_site_fract_z
Si Si1 0.284190 0.416738 0.133826
Si Si2 0.126849 0.581421 0.165196
Si Si3 0.537072 0.915765 0.180168
Si Si4 0.134017 0.578853 0.828596
Si Si5 0.200307 0.082991 0.335077
Si Si6 0.451711 0.080744 0.160181
O O1 0.292747 0.250000 0.091533
O O2 0.322465 0.474624 0.243494
O O3 0.237559 0.438272 0.211521
O O4 0.282970 0.512665 0.987102
O O5 0.138644 0.750000 0.181000
O O6 0.076035 0.553136 0.204019
O O7 0.156153 0.493990 0.281573
O O8 0.135252 0.521590 0.998480
O O9 0.522617 0.750000 0.182963
O O10 0.495108 0.008581 0.230146
O O11 0.553136 0.959322 0.014194
O O12 0.132037 0.750000 0.831343
O O13 0.091099 0.517790 0.743889
O O14 0.190322 0.250000 0.364552
O O15 0.455970 0.250000 0.186442
#
# Coordination Sequence:
#
# PCOD8252955 Si02
#       6
#     8   8   8   8   8   8
#     4  10  21  38  58  79 108 143 176 214 263 319
#     4  10  20  36  57  78 107 146 182 218 265 322
#     4   9  18  32  51  75 103 140 181 217 264 322
#     4   9  18  34  56  79 103 140 185 219 260 322
#     4  11  23  37  57  85 111 138 178 223 264 310
#     4   9  17  31  51  74 102 136 178 226 266 308
#
# _framework density 19.045866
#
# number of rings (size 3 to 8) (size 9 to 14) (size 15 to 20)
#    0.000    2.333    0.000    2.500    0.000    6.667 
#    0.000    5.833    0.000    0.000    0.000    0.000 
#    0.000    0.000    0.000    0.000    0.000    0.000 
#
# Total GULP energy -595361.285078 kJ/mol
# GULP energy per Si atom -12403.360106 kJ/mol
# Density = 1.900252 g / cm^3
# Si number density = 19.045866 Si / 1000 Ang^3
#
#
#
# Elastic Constant Matrix: (Units=GPa)
#
#
# Indices 1 2 3 4 5 6 
#
# 1 72.0925 29.1219 6.1412 0.0000 0.0000 0.0000
# 2 29.1219 54.4483 27.6985 0.0000 0.0000 0.0000
# 3 6.1412 27.6985 68.8704 0.0000 0.0000 0.0000
# 4 0.0000 0.0000 0.0000 24.9536 0.0000 0.0000
# 5 0.0000 0.0000 0.0000 0.0000 29.9112 0.0000
# 6 0.0000 0.0000 0.0000 0.0000 0.0000 29.8985
#
#
#
# Elastic Compliance Matrix: (Units=1/GPa)
#
#
# Indices 1 2 3 4 5 6 
#
# 1 0.018135 -0.011160 0.002871 0.000000 0.000000 0.000000
# 2 -0.011160 0.029958 -0.011053 0.000000 0.000000 0.000000
# 3 0.002871 -0.011053 0.018710 0.000000 0.000000 0.000000
# 4 0.000000 0.000000 0.000000 0.040074 0.000000 0.000000
# 5 0.000000 0.000000 0.000000 0.000000 0.033432 0.000000
# 6 0.000000 0.000000 0.000000 0.000000 0.000000 0.033446
#
#
# Mechanical properties :
#
#
# Convention : Reuss Voigt Hill
#
# Bulk Modulus (GPa) = 35.56473 35.70385 35.63429
# Shear Modulus (GPa) = 22.54159 25.78264 24.16211
#
# Velocity S-wave (km/s) = 3.44400 3.68328 3.56564
# Velocity P-wave (km/s) = 5.87610 6.07253 5.97512
#
# Compressibility (1/GPa) = 0.02811774
#
# Stress axis : x y z
#
# Youngs Moduli (GPa) = 55.14328 33.38001 53.44876
#
# Poissons Ratio (x) = 0.37252 -0.15347
# Poissons Ratio (y) = 0.61540 0.59079
# Poissons Ratio (z) = -0.15833 0.36897
#
# Static dielectric constant tensor:
#      x y z
#    x 3.564200 0.000000 0.000000 
#    y 0.000000 3.280750 0.000000 
#    z 0.000000 0.000000 3.548110 
# 
# 
# High freq. dielectric constant tensor:
#      x y z
#    x 1.752430 0.000000 0.000000 
#    y 0.000000 1.715800 0.000000 
#    z 0.000000 0.000000 1.744170 
# 
# From -- ./inp_files/10199.got.cif
#   From: 2010.03.12/outbox.cif.g09.slc.cpg/sg62_6_cif.got.tgz:10199.got - 2010.04.10 19:12:36.
