data_PCOD8252185
_publ_section_title
;
Structure prediction by ZEFSAII (Michael W. Deem and Ramdas Pophale) SiO2 
 PCOD8252185
Probable space group: P N M A
;
_chemical_formula_sum "Si O2"
_cell_formula_units_Z 40
_cell_length_a 12.533346
_cell_length_b 9.277727
_cell_length_c 20.355632
_cell_angle_alpha 90.000000
_cell_angle_beta 90.000000
_cell_angle_gamma 90.000000
_cell_volume 2366.972483
_symmetry_space_group_name_H-M "P N M A"
_symmetry_group_IT_number 62
_symmetry_cell_setting 'orthorhombic'
loop_
_space_group_symop_operation_xyz
x,y,z
1/2-x,-y,1/2+z
1/2+x,1/2-y,1/2-z
-x,1/2+y,-z
-x,-y,-z
1/2+x,y,1/2-z
1/2-x,1/2+y,1/2+z
x,1/2-y,z
loop_
_atom_site_type_symbol
_atom_site_label
_atom_site_fract_x
_atom_site_fract_y
_atom_site_fract_z
Si Si1 0.323947 0.916947 0.168663
Si Si2 0.890046 0.416285 0.204109
Si Si3 0.666231 0.413662 0.156621
Si Si4 0.508168 0.917603 0.067720
Si Si5 0.376401 0.914102 0.691495
O O1 0.308520 0.750000 0.184116
O O2 0.397840 0.943648 0.105852
O O3 0.379092 0.988370 0.231218
O O4 0.207641 0.984900 0.153833
O O5 0.887775 0.250000 0.227769
O O6 0.002793 0.451416 0.168688
O O7 0.793712 0.444634 0.153112
O O8 0.640446 0.250000 0.134813
O O9 0.608240 0.523373 0.108575
O O10 0.628220 0.441200 0.230654
O O11 0.528623 0.750000 0.054595
O O12 0.500000 0.000000 0.000000
O O13 0.346169 0.750000 0.674733
#
# Coordination Sequence:
#
# PCOD8252185 Si02
#       5
#     8   8   8   8   8
#     4  10  20  31  46  73 104 130 163 207 254 295
#     4   9  17  31  51  75 102 133 164 199 245 300
#     4   9  17  30  50  74 101 130 164 204 245 294
#     4  11  23  36  51  71  99 135 172 210 249 293
#     4   9  17  30  51  75 102 134 164 198 245 302
#
# _framework density 16.899225000000001
#
# number of rings (size 3 to 8) (size 9 to 14) (size 15 to 20)
#    0.000    2.400    2.000    2.400    0.000    6.400 
#    0.000    0.000    0.000    1.200    0.000    0.000 
#    0.000    0.000    0.000    0.000    0.000    0.000 
#
# Total GULP energy -495942.038173 kJ/mol
# GULP energy per Si atom -12398.550954 kJ/mol
# Density = 1.686076 g / cm^3
# Si number density = 16.899225 Si / 1000 Ang^3
#
#
#
# Elastic Constant Matrix: (Units=GPa)
#
#
# Indices 1 2 3 4 5 6 
#
# 1 156.2287 75.7574 41.6797 0.0000 0.0000 0.0000
# 2 75.7574 119.0109 57.1784 0.0000 0.0000 0.0000
# 3 41.6797 57.1784 61.3597 0.0000 0.0000 0.0000
# 4 0.0000 0.0000 0.0000 24.4879 0.0000 0.0000
# 5 0.0000 0.0000 0.0000 0.0000 16.9120 0.0000
# 6 0.0000 0.0000 0.0000 0.0000 0.0000 30.8374
#
#
#
# Elastic Compliance Matrix: (Units=1/GPa)
#
#
# Indices 1 2 3 4 5 6 
#
# 1 0.009330 -0.005240 -0.001454 0.000000 0.000000 0.000000
# 2 -0.005240 0.018157 -0.013360 0.000000 0.000000 0.000000
# 3 -0.001454 -0.013360 0.029735 0.000000 0.000000 0.000000
# 4 0.000000 0.000000 0.000000 0.040837 0.000000 0.000000
# 5 0.000000 0.000000 0.000000 0.000000 0.059130 0.000000
# 6 0.000000 0.000000 0.000000 0.000000 0.000000 0.032428
#
#
# Mechanical properties :
#
#
# Convention : Reuss Voigt Hill
#
# Bulk Modulus (GPa) = 58.43733 76.20339 67.32036
# Shear Modulus (GPa) = 21.23764 25.24638 23.24201
#
# Velocity S-wave (km/s) = 3.54887 3.86934 3.71257
# Velocity P-wave (km/s) = 7.17270 8.07175 7.63547
#
# Compressibility (1/GPa) = 0.01711235
#
# Stress axis : x y z
#
# Youngs Moduli (GPa) = 107.18129 55.07405 33.63018
#
# Poissons Ratio (x) = 0.28861 0.04891
# Poissons Ratio (y) = 0.56167 0.44931
# Poissons Ratio (z) = 0.15587 0.73581
#
# Static dielectric constant tensor:
#      x y z
#    x 3.600340 0.000000 0.000000 
#    y 0.000000 3.228530 0.000000 
#    z 0.000000 0.000000 2.760830 
# 
# 
# High freq. dielectric constant tensor:
#      x y z
#    x 1.671590 0.000000 0.000000 
#    y 0.000000 1.658000 0.000000 
#    z 0.000000 0.000000 1.598610 
# 
# From -- ./inp_files/22760.got.cif
#   From: 2010.03.12/outbox.cif.g09.slc.cpg/sg62_12_cif.got.tgz:22760.got - 2010.04.10 19:12:36.
