data_PCOD8252418
_publ_section_title
;
Structure prediction by ZEFSAII (Michael W. Deem and Ramdas Pophale) SiO2 
 PCOD8252418
Probable space group: P N M A
;
_chemical_formula_sum "Si O2"
_cell_formula_units_Z 48
_cell_length_a 29.606746
_cell_length_b 8.988295
_cell_length_c 9.647953
_cell_angle_alpha 90.000000
_cell_angle_beta 90.000000
_cell_angle_gamma 90.000000
_cell_volume 2567.456976
_symmetry_space_group_name_H-M "P N M A"
_symmetry_group_IT_number 62
_symmetry_cell_setting 'orthorhombic'
loop_
_space_group_symop_operation_xyz
x,y,z
1/2-x,-y,1/2+z
1/2+x,1/2-y,1/2-z
-x,1/2+y,-z
-x,-y,-z
1/2+x,y,1/2-z
1/2-x,1/2+y,1/2+z
x,1/2-y,z
loop_
_atom_site_type_symbol
_atom_site_label
_atom_site_fract_x
_atom_site_fract_y
_atom_site_fract_z
Si Si1 0.296455 0.424559 0.191073
Si Si2 0.956172 0.423203 0.171289
Si Si3 0.776869 0.423913 0.623792
Si Si4 0.867402 0.921576 0.671394
Si Si5 0.557738 0.077037 0.391670
Si Si6 0.387997 0.922477 0.141795
O O1 0.301323 0.250000 0.213342
O O2 0.264553 0.490246 0.308743
O O3 0.345329 0.497145 0.211219
O O4 0.276682 0.462217 0.039335
O O5 0.945886 0.250000 0.185932
O O6 0.933995 0.508944 0.299394
O O7 0.009344 0.458692 0.176264
O O8 0.934443 0.480544 0.028468
O O9 0.771486 0.250000 0.652012
O O10 0.823262 0.478582 0.693528
O O11 0.853147 0.750000 0.689228
O O12 0.904026 0.970944 0.783808
O O13 0.889353 0.949885 0.522076
O O14 0.561002 0.250000 0.431874
O O15 0.385101 0.750000 0.179997
#
# Coordination Sequence:
#
# PCOD8252418 Si02
#       6
#     8   8   8   8   8   8
#     4  10  21  37  56  78 105 137 173 213 257 307
#     4  10  20  34  53  78 107 139 175 215 260 310
#     4  10  21  36  55  80 107 136 172 214 260 309
#     4   9  19  36  56  77 103 137 175 215 260 308
#     4   9  19  36  55  76 105 139 176 218 261 307
#     4  10  20  35  55  78 105 137 173 214 260 309
#
# _framework density 18.695542
#
# number of rings (size 3 to 8) (size 9 to 14) (size 15 to 20)
#    0.000    2.333    0.000    2.000    0.000    6.000 
#    0.000    1.667    0.000    0.000    0.000    0.000 
#    0.000    0.000    0.000    0.000    0.000    0.000 
#
# Total GULP energy -595428.005294 kJ/mol
# GULP energy per Si atom -12404.750110 kJ/mol
# Density = 1.865299 g / cm^3
# Si number density = 18.695542 Si / 1000 Ang^3
#
#
#
# Elastic Constant Matrix: (Units=GPa)
#
#
# Indices 1 2 3 4 5 6 
#
# 1 31.5845 12.6903 1.4166 0.0000 0.0000 0.0000
# 2 12.6903 69.0335 11.4620 0.0000 0.0000 0.0000
# 3 1.4166 11.4620 23.8877 0.0000 0.0000 0.0000
# 4 0.0000 0.0000 0.0000 31.1861 0.0000 0.0000
# 5 0.0000 0.0000 0.0000 0.0000 39.2406 0.0000
# 6 0.0000 0.0000 0.0000 0.0000 0.0000 37.3175
#
#
#
# Elastic Compliance Matrix: (Units=1/GPa)
#
#
# Indices 1 2 3 4 5 6 
#
# 1 0.034212 -0.006467 0.001074 0.000000 0.000000 0.000000
# 2 -0.006467 0.016962 -0.007755 0.000000 0.000000 0.000000
# 3 0.001074 -0.007755 0.045520 0.000000 0.000000 0.000000
# 4 0.000000 0.000000 0.000000 0.032066 0.000000 0.000000
# 5 0.000000 0.000000 0.000000 0.000000 0.025484 0.000000
# 6 0.000000 0.000000 0.000000 0.000000 0.000000 0.026797
#
#
# Mechanical properties :
#
#
# Convention : Reuss Voigt Hill
#
# Bulk Modulus (GPa) = 14.20516 19.51594 16.86055
# Shear Modulus (GPa) = 21.66351 28.14462 24.90407
#
# Velocity S-wave (km/s) = 3.40774 3.88418 3.65373
# Velocity P-wave (km/s) = 4.80606 5.52968 5.18052
#
# Compressibility (1/GPa) = 0.07039697
#
# Stress axis : x y z
#
# Youngs Moduli (GPa) = 29.22992 58.95424 21.96836
#
# Poissons Ratio (x) = 0.38128 -0.02360
# Poissons Ratio (y) = 0.18904 0.17037
# Poissons Ratio (z) = -0.03141 0.45722
#
# Static dielectric constant tensor:
#      x y z
#    x 3.450370 0.000000 0.000000 
#    y 0.000000 3.503410 0.000000 
#    z 0.000000 0.000000 3.372870 
# 
# 
# High freq. dielectric constant tensor:
#      x y z
#    x 1.728150 0.000000 0.000000 
#    y 0.000000 1.735320 0.000000 
#    z 0.000000 0.000000 1.722020 
# 
# From -- ./inp_files/10173.got.cif
#   From: 2010.03.12/outbox.cif.g09.slc.cpg/sg62_6_cif.got.tgz:10173.got - 2010.04.10 19:12:36.
