data_PCOD8252643
_publ_section_title
;
Structure prediction by ZEFSAII (Michael W. Deem and Ramdas Pophale) SiO2 
 PCOD8252643
Probable space group: P N M A
;
_chemical_formula_sum "Si O2"
_cell_formula_units_Z 40
_cell_length_a 18.125037
_cell_length_b 9.078496
_cell_length_c 13.239413
_cell_angle_alpha 90.000000
_cell_angle_beta 90.000000
_cell_angle_gamma 90.000000
_cell_volume 2178.519935
_symmetry_space_group_name_H-M "P N M A"
_symmetry_group_IT_number 62
_symmetry_cell_setting 'orthorhombic'
loop_
_space_group_symop_operation_xyz
x,y,z
1/2-x,-y,1/2+z
1/2+x,1/2-y,1/2-z
-x,1/2+y,-z
-x,-y,-z
1/2+x,y,1/2-z
1/2-x,1/2+y,1/2+z
x,1/2-y,z
loop_
_atom_site_type_symbol
_atom_site_label
_atom_site_fract_x
_atom_site_fract_y
_atom_site_fract_z
Si Si1 0.019038 0.420574 0.191870
Si Si2 0.680953 0.076796 0.830816
Si Si3 0.617535 0.420481 0.616687
Si Si4 0.958908 0.076295 0.408617
Si Si5 0.826436 0.577427 0.900436
O O1 0.006632 0.250000 0.171998
O O2 0.101412 0.467566 0.162995
O O3 0.961151 0.500057 0.118931
O O4 0.005223 0.462176 0.308330
O O5 0.673968 0.250000 0.852056
O O6 0.666681 0.037960 0.713645
O O7 0.622747 0.991318 0.900871
O O8 0.761794 0.021455 0.856701
O O9 0.598218 0.250000 0.613338
O O10 0.662561 0.466493 0.517331
O O11 0.952559 0.250000 0.427513
O O12 0.000000 0.000000 0.500000
O O13 0.807717 0.750000 0.888056
#
# Coordination Sequence:
#
# PCOD8252643 Si02
#       5
#     8   8   8   8   8
#     4   9  19  34  54  79 105 134 173 214 258 311
#     4  10  21  36  52  76 106 137 173 213 257 308
#     4   9  19  35  54  75 103 135 170 212 260 309
#     4  10  20  36  56  78 105 140 177 215 258 307
#     4  10  20  35  54  78 106 136 170 214 262 309
#
# _framework density 18.361090000000001
#
# number of rings (size 3 to 8) (size 9 to 14) (size 15 to 20)
#    0.000    2.400    0.000    1.800    0.000    4.800 
#    0.000    4.000    0.000    0.000    0.000    0.000 
#    0.000    0.000    0.000    0.000    0.000    0.000 
#
# Total GULP energy -496121.857049 kJ/mol
# GULP energy per Si atom -12403.046426 kJ/mol
# Density = 1.831930 g / cm^3
# Si number density = 18.361090 Si / 1000 Ang^3
#
#
#
# Elastic Constant Matrix: (Units=GPa)
#
#
# Indices 1 2 3 4 5 6 
#
# 1 142.3336 59.0311 69.0694 0.0000 0.0000 0.0000
# 2 59.0311 72.7541 44.9995 0.0000 0.0000 0.0000
# 3 69.0694 44.9995 94.4476 0.0000 0.0000 0.0000
# 4 0.0000 0.0000 0.0000 25.3239 0.0000 0.0000
# 5 0.0000 0.0000 0.0000 0.0000 26.8999 0.0000
# 6 0.0000 0.0000 0.0000 0.0000 0.0000 39.6445
#
#
#
# Elastic Compliance Matrix: (Units=1/GPa)
#
#
# Indices 1 2 3 4 5 6 
#
# 1 0.012735 -0.006483 -0.006224 0.000000 0.000000 0.000000
# 2 -0.006483 0.022788 -0.006116 0.000000 0.000000 0.000000
# 3 -0.006224 -0.006116 0.018054 0.000000 0.000000 0.000000
# 4 0.000000 0.000000 0.000000 0.039488 0.000000 0.000000
# 5 0.000000 0.000000 0.000000 0.000000 0.037175 0.000000
# 6 0.000000 0.000000 0.000000 0.000000 0.000000 0.025224
#
#
# Mechanical properties :
#
#
# Convention : Reuss Voigt Hill
#
# Bulk Modulus (GPa) = 62.77600 72.85947 67.81774
# Shear Modulus (GPa) = 25.19893 27.46937 26.33415
#
# Velocity S-wave (km/s) = 3.70862 3.87210 3.79124
# Velocity P-wave (km/s) = 7.25275 7.73036 7.49536
#
# Compressibility (1/GPa) = 0.01592965
#
# Stress axis : x y z
#
# Youngs Moduli (GPa) = 78.52462 43.88229 55.39029
#
# Poissons Ratio (x) = 0.28449 0.34476
# Poissons Ratio (y) = 0.50908 0.33879
# Poissons Ratio (z) = 0.48875 0.26840
#
# Static dielectric constant tensor:
#      x y z
#    x 3.407850 0.000000 0.000000 
#    y 0.000000 3.429350 0.000000 
#    z 0.000000 0.000000 3.658690 
# 
# 
# High freq. dielectric constant tensor:
#      x y z
#    x 1.712400 0.000000 0.000000 
#    y 0.000000 1.714930 0.000000 
#    z 0.000000 0.000000 1.718220 
# 
# From -- ./inp_files/13829.got.cif
#   From: 2010.03.12/outbox.cif.g09.slc.cpg/sg62_7_cif.got.tgz:13829.got - 2010.04.10 19:12:36.
