data_PCOD8252631
_publ_section_title
;
Structure prediction by ZEFSAII (Michael W. Deem and Ramdas Pophale) SiO2 
 PCOD8252631
Probable space group: P N M A
;
_chemical_formula_sum "Si O2"
_cell_formula_units_Z 48
_cell_length_a 8.935659
_cell_length_b 11.789775
_cell_length_c 23.880199
_cell_angle_alpha 90.000000
_cell_angle_beta 90.000000
_cell_angle_gamma 90.000000
_cell_volume 2515.764854
_symmetry_space_group_name_H-M "P N M A"
_symmetry_group_IT_number 62
_symmetry_cell_setting 'orthorhombic'
loop_
_space_group_symop_operation_xyz
x,y,z
1/2-x,-y,1/2+z
1/2+x,1/2-y,1/2-z
-x,1/2+y,-z
-x,-y,-z
1/2+x,y,1/2-z
1/2-x,1/2+y,1/2+z
x,1/2-y,z
loop_
_atom_site_type_symbol
_atom_site_label
_atom_site_fract_x
_atom_site_fract_y
_atom_site_fract_z
Si Si1 0.310675 0.873894 0.579131
Si Si2 0.041642 0.382407 0.193155
Si Si3 0.182434 0.250000 0.798672
Si Si4 0.139726 0.431162 0.621221
Si Si5 0.100351 0.750000 0.400826
Si Si6 0.604447 0.750000 0.375602
Si Si7 0.383355 0.750000 0.477830
Si Si8 0.686698 0.487020 0.759273
O O1 0.239337 0.750000 0.594072
O O2 0.432785 0.904151 0.626976
O O3 0.390999 0.862438 0.518073
O O4 0.178261 0.966520 0.578499
O O5 0.046308 0.250000 0.208601
O O6 0.157311 0.452133 0.230378
O O7 0.884705 0.436787 0.210466
O O8 0.316054 0.250000 0.842418
O O9 0.206306 0.141746 0.760002
O O10 0.018263 0.250000 0.826518
O O11 0.292452 0.359942 0.629467
O O12 0.094696 0.482462 0.681906
O O13 0.004365 0.360798 0.594643
O O14 0.219689 0.750000 0.450101
O O15 0.520597 0.750000 0.435521
#
# Coordination Sequence:
#
# PCOD8252631 Si02
#       8
#     8   8   4   8   4   4   4   8
#     4   8  18  36  55  77 104 141 180 226 266 314
#     4  10  20  36  56  81 109 146 183 218 263 330
#     4  11  20  34  50  82 116 138 180 217 260 342
#     4  10  20  35  53  81 109 137 177 219 271 334
#     4  10  21  33  53  80 108 138 179 225 269 326
#     4  10  21  35  57  80 106 144 181 219 273 322
#     4   9  20  38  56  78 100 144 182 229 278 296
#     4  11  21  33  57  81 113 150 170 216 280 321
#
# _framework density 19.079685000000001
#
# number of rings (size 3 to 8) (size 9 to 14) (size 15 to 20)
#    0.500    1.667    0.000    4.500    0.000    4.000 
#    0.000    0.000    0.000    8.000    0.000    0.000 
#    0.000    0.000    0.000    0.000    0.000    0.000 
#
# Total GULP energy -594883.325274 kJ/mol
# GULP energy per Si atom -12393.402610 kJ/mol
# Density = 1.903626 g / cm^3
# Si number density = 19.079685 Si / 1000 Ang^3
#
#
#
# Elastic Constant Matrix: (Units=GPa)
#
#
# Indices 1 2 3 4 5 6 
#
# 1 62.2263 11.3143 22.6930 0.0000 0.0000 0.0000
# 2 11.3143 90.8258 15.3882 0.0000 0.0000 0.0000
# 3 22.6930 15.3882 90.7089 0.0000 0.0000 0.0000
# 4 0.0000 0.0000 0.0000 28.6586 0.0000 0.0000
# 5 0.0000 0.0000 0.0000 0.0000 21.7391 0.0000
# 6 0.0000 0.0000 0.0000 0.0000 0.0000 42.5871
#
#
#
# Elastic Compliance Matrix: (Units=1/GPa)
#
#
# Indices 1 2 3 4 5 6 
#
# 1 0.017883 -0.001513 -0.004217 0.000000 0.000000 0.000000
# 2 -0.001513 0.011464 -0.001566 0.000000 0.000000 0.000000
# 3 -0.004217 -0.001566 0.012345 0.000000 0.000000 0.000000
# 4 0.000000 0.000000 0.000000 0.034893 0.000000 0.000000
# 5 0.000000 0.000000 0.000000 0.000000 0.046000 0.000000
# 6 0.000000 0.000000 0.000000 0.000000 0.000000 0.023481
#
#
# Mechanical properties :
#
#
# Convention : Reuss Voigt Hill
#
# Bulk Modulus (GPa) = 36.90172 38.06131 37.48151
# Shear Modulus (GPa) = 29.46485 31.55468 30.50976
#
# Velocity S-wave (km/s) = 3.93403 4.07115 4.00318
# Velocity P-wave (km/s) = 6.32600 6.48775 6.40739
#
# Compressibility (1/GPa) = 0.02709901
#
# Stress axis : x y z
#
# Youngs Moduli (GPa) = 55.91752 87.22993 81.00431
#
# Poissons Ratio (x) = 0.13200 0.34162
# Poissons Ratio (y) = 0.08462 0.12687
# Poissons Ratio (z) = 0.23582 0.13662
#
# Static dielectric constant tensor:
#      x y z
#    x 3.277550 0.000000 0.000000 
#    y 0.000000 3.644820 0.000000 
#    z 0.000000 0.000000 3.528070 
# 
# 
# High freq. dielectric constant tensor:
#      x y z
#    x 1.720780 0.000000 0.000000 
#    y 0.000000 1.754030 0.000000 
#    z 0.000000 0.000000 1.738870 
# 
# From -- ./inp_files/28853.got.cif
#   From: 2010.03.12/outbox.cif.g09.slc.cpg/sg62_15_cif.got.tgz:28853.got - 2010.04.10 19:12:36.
