data_PCOD8252146
_publ_section_title
;
Structure prediction by ZEFSAII (Michael W. Deem and Ramdas Pophale) SiO2 
 PCOD8252146
Probable space group: P N M A
;
_chemical_formula_sum "Si O2"
_cell_formula_units_Z 64
_cell_length_a 30.657275
_cell_length_b 8.780155
_cell_length_c 12.137991
_cell_angle_alpha 90.000000
_cell_angle_beta 90.000000
_cell_angle_gamma 90.000000
_cell_volume 3267.251330
_symmetry_space_group_name_H-M "P N M A"
_symmetry_group_IT_number 62
_symmetry_cell_setting 'orthorhombic'
loop_
_space_group_symop_operation_xyz
x,y,z
1/2-x,-y,1/2+z
1/2+x,1/2-y,1/2-z
-x,1/2+y,-z
-x,-y,-z
1/2+x,y,1/2-z
1/2-x,1/2+y,1/2+z
x,1/2-y,z
loop_
_atom_site_type_symbol
_atom_site_label
_atom_site_fract_x
_atom_site_fract_y
_atom_site_fract_z
Si Si1 0.047520 0.071443 0.497120
Si Si2 0.572735 0.578638 0.222184
Si Si3 0.374137 0.430976 0.402667
Si Si4 0.698371 0.568740 0.001830
Si Si5 0.672378 0.921240 0.235729
Si Si6 0.455986 0.429829 0.542827
Si Si7 0.791849 0.431977 0.959360
Si Si8 0.880456 0.430812 0.348927
O O1 0.044268 0.250000 0.516054
O O2 0.067468 0.037644 0.377531
O O3 0.077335 0.002481 0.593300
O O4 0.000000 0.000000 0.500000
O O5 0.559791 0.750000 0.183448
O O6 0.621834 0.576814 0.264758
O O7 0.545373 0.525447 0.328155
O O8 0.374628 0.250000 0.405492
O O9 0.414748 0.495591 0.474049
O O10 0.328357 0.490150 0.453762
O O11 0.378218 0.488982 0.276888
O O12 0.701502 0.750000 0.999938
O O13 0.745221 0.497108 0.987027
O O14 0.663949 0.514581 0.909241
O O15 0.681686 0.500418 0.118437
O O16 0.689861 0.750000 0.225566
O O17 0.696846 0.999355 0.338293
O O18 0.500000 0.500000 0.500000
O O19 0.456981 0.250000 0.528489
O O20 0.791027 0.250000 0.959024
O O21 0.885460 0.250000 0.357016
#
# Coordination Sequence:
#
# PCOD8252146 Si02
#       8
#     8   8   8   8   8   8   8   8
#     4  12  26  42  62  89 119 152 195 243 293 350
#     4  10  19  39  65  85 113 156 200 244 293 349
#     4   9  19  37  60  85 115 155 195 235 286 348
#     4  10  21  36  56  83 117 155 191 239 295 343
#     4   9  17  35  60  80 108 152 196 236 288 344
#     4  10  21  37  60  88 119 153 196 242 293 349
#     4  10  20  36  59  84 112 152 199 240 282 345
#     4  10  21  40  62  84 118 158 195 236 291 352
#
# _framework density 19.588329000000002
#
# number of rings (size 3 to 8) (size 9 to 14) (size 15 to 20)
#    0.000    2.000    2.500    1.125    3.500    1.000 
#    0.000    1.875    0.000    0.000    0.000    0.000 
#    0.000    0.000    0.000    0.000    0.000    0.000 
#
# Total GULP energy -793439.392828 kJ/mol
# GULP energy per Si atom -12397.490513 kJ/mol
# Density = 1.954375 g / cm^3
# Si number density = 19.588329 Si / 1000 Ang^3
#
#
#
# Elastic Constant Matrix: (Units=GPa)
#
#
# Indices 1 2 3 4 5 6 
#
# 1 124.2051 22.7793 50.2159 0.0000 0.0000 0.0000
# 2 22.7793 33.1437 27.6891 0.0000 0.0000 0.0000
# 3 50.2159 27.6891 136.1666 0.0000 0.0000 0.0000
# 4 0.0000 0.0000 0.0000 11.0177 0.0000 0.0000
# 5 0.0000 0.0000 0.0000 0.0000 37.1166 0.0000
# 6 0.0000 0.0000 0.0000 0.0000 0.0000 35.1624
#
#
#
# Elastic Compliance Matrix: (Units=1/GPa)
#
#
# Indices 1 2 3 4 5 6 
#
# 1 0.010005 -0.004570 -0.002760 0.000000 0.000000 0.000000
# 2 -0.004570 0.038434 -0.006130 0.000000 0.000000 0.000000
# 3 -0.002760 -0.006130 0.009608 0.000000 0.000000 0.000000
# 4 0.000000 0.000000 0.000000 0.090763 0.000000 0.000000
# 5 0.000000 0.000000 0.000000 0.000000 0.026942 0.000000
# 6 0.000000 0.000000 0.000000 0.000000 0.000000 0.028439
#
#
# Mechanical properties :
#
#
# Convention : Reuss Voigt Hill
#
# Bulk Modulus (GPa) = 32.12727 54.98711 43.55719
# Shear Modulus (GPa) = 20.70478 29.51474 25.10976
#
# Velocity S-wave (km/s) = 3.25467 3.88590 3.58421
# Velocity P-wave (km/s) = 5.52817 6.94737 6.27800
#
# Compressibility (1/GPa) = 0.03112621
#
# Stress axis : x y z
#
# Youngs Moduli (GPa) = 99.94528 26.01860 104.07489
#
# Poissons Ratio (x) = 0.11892 0.28729
# Poissons Ratio (y) = 0.45680 0.63797
# Poissons Ratio (z) = 0.27589 0.15949
#
# Static dielectric constant tensor:
#      x y z
#    x 3.542880 0.000000 0.000000 
#    y 0.000000 3.225140 0.000000 
#    z 0.000000 0.000000 3.957230 
# 
# 
# High freq. dielectric constant tensor:
#      x y z
#    x 1.773260 0.000000 0.000000 
#    y 0.000000 1.720760 0.000000 
#    z 0.000000 0.000000 1.783470 
# 
# From -- ./inp_files/15920.got.cif
#   From: 2010.03.12/outbox.cif.g09.slc.cpg/sg62_8_cif.got.tgz:15920.got - 2010.04.10 19:12:36.
