data_PCOD8252211
_publ_section_title
;
Structure prediction by ZEFSAII (Michael W. Deem and Ramdas Pophale) SiO2 
 PCOD8252211
Probable space group: P N M A
;
_chemical_formula_sum "Si O2"
_cell_formula_units_Z 48
_cell_length_a 23.918865
_cell_length_b 9.162298
_cell_length_c 12.019071
_cell_angle_alpha 90.000000
_cell_angle_beta 90.000000
_cell_angle_gamma 90.000000
_cell_volume 2634.000671
_symmetry_space_group_name_H-M "P N M A"
_symmetry_group_IT_number 62
_symmetry_cell_setting 'orthorhombic'
loop_
_space_group_symop_operation_xyz
x,y,z
1/2-x,-y,1/2+z
1/2+x,1/2-y,1/2-z
-x,1/2+y,-z
-x,-y,-z
1/2+x,y,1/2-z
1/2-x,1/2+y,1/2+z
x,1/2-y,z
loop_
_atom_site_type_symbol
_atom_site_label
_atom_site_fract_x
_atom_site_fract_y
_atom_site_fract_z
Si Si1 0.673261 0.922693 0.389409
Si Si2 0.287906 0.077448 0.162928
Si Si3 0.606455 0.922698 0.972218
Si Si4 0.578431 0.577339 0.216169
Si Si5 0.964808 0.422968 0.265606
Si Si6 0.359625 0.422510 0.369690
O O1 0.681423 0.750000 0.394000
O O2 0.627545 0.968689 0.299013
O O3 0.653787 0.986590 0.508740
O O4 0.731077 0.993657 0.355721
O O5 0.277455 0.250000 0.156803
O O6 0.332528 0.025624 0.069545
O O7 0.311461 0.029676 0.283482
O O8 0.607179 0.750000 0.975658
O O9 0.558405 0.973375 0.886354
O O10 0.593745 0.986416 0.094252
O O11 0.569601 0.750000 0.213356
O O12 0.522199 0.503917 0.260444
O O13 0.974198 0.250000 0.261793
O O14 0.920394 0.475736 0.172370
O O15 0.361575 0.250000 0.374160
#
# Coordination Sequence:
#
# PCOD8252211 Si02
#       6
#     8   8   8   8   8   8
#     4  10  21  34  49  73 104 135 162 201 256 299
#     4   9  18  34  55  72  94 131 173 207 239 293
#     4   8  16  32  52  73  97 130 164 202 253 294
#     4  10  20  32  48  74 106 130 156 203 258 295
#     4   9  17  33  55  72  93 131 173 203 235 293
#     4   8  17  35  53  70  98 135 166 199 250 300
#
# _framework density 18.223227999999999
#
# number of rings (size 3 to 8) (size 9 to 14) (size 15 to 20)
#    0.000    3.000    0.000    2.500    2.333    1.333 
#    0.000    5.000    0.000    0.000    0.000    0.000 
#    0.000    0.000    0.000    0.000    0.000    0.000 
#
# Total GULP energy -595070.607331 kJ/mol
# GULP energy per Si atom -12397.304319 kJ/mol
# Density = 1.818175 g / cm^3
# Si number density = 18.223228 Si / 1000 Ang^3
#
#
#
# Elastic Constant Matrix: (Units=GPa)
#
#
# Indices 1 2 3 4 5 6 
#
# 1 159.3715 37.2466 56.0822 0.0000 0.0000 0.0000
# 2 37.2466 20.3789 20.2082 0.0000 0.0000 0.0000
# 3 56.0822 20.2082 95.5685 0.0000 0.0000 0.0000
# 4 0.0000 0.0000 0.0000 14.8689 0.0000 0.0000
# 5 0.0000 0.0000 0.0000 0.0000 20.9313 0.0000
# 6 0.0000 0.0000 0.0000 0.0000 0.0000 30.5309
#
#
#
# Elastic Compliance Matrix: (Units=1/GPa)
#
#
# Indices 1 2 3 4 5 6 
#
# 1 0.011569 -0.018236 -0.002933 0.000000 0.000000 0.000000
# 2 -0.018236 0.090835 -0.008506 0.000000 0.000000 0.000000
# 3 -0.002933 -0.008506 0.013983 0.000000 0.000000 0.000000
# 4 0.000000 0.000000 0.000000 0.067254 0.000000 0.000000
# 5 0.000000 0.000000 0.000000 0.000000 0.047775 0.000000
# 6 0.000000 0.000000 0.000000 0.000000 0.000000 0.032754
#
#
# Mechanical properties :
#
#
# Convention : Reuss Voigt Hill
#
# Bulk Modulus (GPa) = 17.53226 55.82141 36.67683
# Shear Modulus (GPa) = 14.59719 24.05168 19.32443
#
# Velocity S-wave (km/s) = 2.83330 3.63690 3.25996
# Velocity P-wave (km/s) = 4.51056 6.95230 5.86002
#
# Compressibility (1/GPa) = 0.05703773
#
# Stress axis : x y z
#
# Youngs Moduli (GPa) = 86.44149 11.00899 71.51373
#
# Poissons Ratio (x) = 0.20076 0.20973
# Poissons Ratio (y) = 1.57632 0.60830
# Poissons Ratio (z) = 0.25351 0.09364
#
# Static dielectric constant tensor:
#      x y z
#    x 3.350770 0.000000 0.000000 
#    y 0.000000 2.870330 0.000000 
#    z 0.000000 0.000000 3.966660 
# 
# 
# High freq. dielectric constant tensor:
#      x y z
#    x 1.715000 0.000000 0.000000 
#    y 0.000000 1.664050 0.000000 
#    z 0.000000 0.000000 1.715530 
# 
# From -- ./inp_files/14100.got.cif
#   From: 2010.03.12/outbox.cif.g09.slc.cpg/sg62_8_cif.got.tgz:14100.got - 2010.04.10 19:12:36.
