data_PCOD8252205
_publ_section_title
;
Structure prediction by ZEFSAII (Michael W. Deem and Ramdas Pophale) SiO2 
 PCOD8252205
Probable space group: P N M A
;
_chemical_formula_sum "Si O2"
_cell_formula_units_Z 56
_cell_length_a 19.431069
_cell_length_b 8.908918
_cell_length_c 18.932816
_cell_angle_alpha 90.000000
_cell_angle_beta 90.000000
_cell_angle_gamma 90.000000
_cell_volume 3277.455998
_symmetry_space_group_name_H-M "P N M A"
_symmetry_group_IT_number 62
_symmetry_cell_setting 'orthorhombic'
loop_
_space_group_symop_operation_xyz
x,y,z
1/2-x,-y,1/2+z
1/2+x,1/2-y,1/2-z
-x,1/2+y,-z
-x,-y,-z
1/2+x,y,1/2-z
1/2-x,1/2+y,1/2+z
x,1/2-y,z
loop_
_atom_site_type_symbol
_atom_site_label
_atom_site_fract_x
_atom_site_fract_y
_atom_site_fract_z
Si Si1 0.518853 0.926194 0.208960
Si Si2 0.768063 0.578515 0.376260
Si Si3 0.163527 0.576554 0.240967
Si Si4 0.207043 0.573821 0.479309
Si Si5 0.947453 0.427851 0.553621
Si Si6 0.870913 0.574106 0.250921
Si Si7 0.265118 0.072865 0.346610
O O1 0.508197 0.750000 0.201494
O O2 0.582608 0.965156 0.260861
O O3 0.534767 0.991010 0.131322
O O4 0.448064 0.992323 0.240506
O O5 0.772774 0.750000 0.402765
O O6 0.695856 0.548530 0.335994
O O7 0.770822 0.466994 0.441628
O O8 0.830539 0.541712 0.323471
O O9 0.174172 0.750000 0.263965
O O10 0.200183 0.477775 0.300186
O O11 0.214817 0.750000 0.467624
O O12 0.129132 0.519681 0.466287
O O13 0.257801 0.490208 0.425524
O O14 0.954260 0.250000 0.549600
O O15 0.000000 0.500000 0.500000
O O16 0.869451 0.750000 0.233112
O O17 0.836079 0.488093 0.186065
O O18 0.268257 0.250000 0.349243
#
# Coordination Sequence:
#
# PCOD8252205 Si02
#       7
#     8   8   8   8   8   8   8
#     4   9  16  31  54  75  98 133 172 206 247 304
#     4   9  18  31  50  75 104 134 166 210 257 304
#     4   9  17  34  55  74 101 135 174 212 253 307
#     4  11  21  34  52  72 101 138 174 213 253 303
#     4  10  20  32  48  72 104 137 167 200 246 305
#     4   9  18  33  54  76 102 135 169 208 254 308
#     4  11  21  33  51  74 102 134 173 217 255 301
#
# _framework density 17.086423
#
# number of rings (size 3 to 8) (size 9 to 14) (size 15 to 20)
#    0.000    2.286    1.429    3.429    0.000    4.571 
#    0.000    1.429    0.000    0.857    0.000    0.000 
#    0.000    0.000    0.000    0.000    0.000    0.000 
#
# Total GULP energy -694430.831600 kJ/mol
# GULP energy per Si atom -12400.550564 kJ/mol
# Density = 1.704753 g / cm^3
# Si number density = 17.086423 Si / 1000 Ang^3
#
#
#
# Elastic Constant Matrix: (Units=GPa)
#
#
# Indices 1 2 3 4 5 6 
#
# 1 148.9552 37.6086 74.3007 0.0000 0.0000 0.0000
# 2 37.6086 63.4178 41.7802 0.0000 0.0000 0.0000
# 3 74.3007 41.7802 93.4493 0.0000 0.0000 0.0000
# 4 0.0000 0.0000 0.0000 30.1611 0.0000 0.0000
# 5 0.0000 0.0000 0.0000 0.0000 26.6157 0.0000
# 6 0.0000 0.0000 0.0000 0.0000 0.0000 17.8126
#
#
#
# Elastic Compliance Matrix: (Units=1/GPa)
#
#
# Indices 1 2 3 4 5 6 
#
# 1 0.011180 -0.001097 -0.008398 0.000000 0.000000 0.000000
# 2 -0.001097 0.022460 -0.009169 0.000000 0.000000 0.000000
# 3 -0.008398 -0.009169 0.021478 0.000000 0.000000 0.000000
# 4 0.000000 0.000000 0.000000 0.033155 0.000000 0.000000
# 5 0.000000 0.000000 0.000000 0.000000 0.037572 0.000000
# 6 0.000000 0.000000 0.000000 0.000000 0.000000 0.056140
#
#
# Mechanical properties :
#
#
# Convention : Reuss Voigt Hill
#
# Bulk Modulus (GPa) = 56.21753 68.13346 62.17549
# Shear Modulus (GPa) = 22.19822 25.06008 23.62915
#
# Velocity S-wave (km/s) = 3.60831 3.83386 3.72280
# Velocity P-wave (km/s) = 7.09459 7.71754 7.41261
#
# Compressibility (1/GPa) = 0.01778805
#
# Stress axis : x y z
#
# Youngs Moduli (GPa) = 89.44878 44.52394 46.55922
#
# Poissons Ratio (x) = 0.04884 0.39102
# Poissons Ratio (y) = 0.09812 0.42692
# Poissons Ratio (z) = 0.75122 0.40826
#
# Static dielectric constant tensor:
#      x y z
#    x 3.424860 0.000000 0.000000 
#    y 0.000000 2.990850 0.000000 
#    z 0.000000 0.000000 3.124880 
# 
# 
# High freq. dielectric constant tensor:
#      x y z
#    x 1.658440 0.000000 0.000000 
#    y 0.000000 1.643460 0.000000 
#    z 0.000000 0.000000 1.648650 
# 
# From -- ./inp_files/24605.got.cif
#   From: 2010.03.12/outbox.cif.g09.slc.cpg/sg62_13_cif.got.tgz:24605.got - 2010.04.10 19:12:36.
