data_PCOD8252976
_publ_section_title
;
Structure prediction by ZEFSAII (Michael W. Deem and Ramdas Pophale) SiO2 
 PCOD8252976
Probable space group: P N M A
;
_chemical_formula_sum "Si O2"
_cell_formula_units_Z 40
_cell_length_a 18.318969
_cell_length_b 9.619435
_cell_length_c 12.228380
_cell_angle_alpha 90.000000
_cell_angle_beta 90.000000
_cell_angle_gamma 90.000000
_cell_volume 2154.862276
_symmetry_space_group_name_H-M "P N M A"
_symmetry_group_IT_number 62
_symmetry_cell_setting 'orthorhombic'
loop_
_space_group_symop_operation_xyz
x,y,z
1/2-x,-y,1/2+z
1/2+x,1/2-y,1/2-z
-x,1/2+y,-z
-x,-y,-z
1/2+x,y,1/2-z
1/2-x,1/2+y,1/2+z
x,1/2-y,z
loop_
_atom_site_type_symbol
_atom_site_label
_atom_site_fract_x
_atom_site_fract_y
_atom_site_fract_z
Si Si1 0.106281 0.410556 0.816926
Si Si2 0.828491 0.909742 0.953070
Si Si3 0.963832 0.911213 0.805140
Si Si4 0.190034 0.088635 0.599606
Si Si5 0.938752 0.590111 0.556988
O O1 0.082425 0.250000 0.808242
O O2 0.147391 0.459905 0.707978
O O3 0.034291 0.500042 0.834286
O O4 0.160500 0.434958 0.918213
O O5 0.809274 0.750000 0.927759
O O6 0.901629 0.954255 0.890250
O O7 0.763363 0.002401 0.908996
O O8 0.985006 0.750000 0.816413
O O9 0.934283 0.946118 0.684442
O O10 0.211101 0.250000 0.607007
O O11 0.139860 0.056178 0.494725
O O12 0.959630 0.750000 0.535998
O O13 0.000000 0.500000 0.500000
#
# Coordination Sequence:
#
# PCOD8252976 Si02
#       5
#     8   8   8   8   8
#     4  10  21  39  59  82 113 147 186 231 276 331
#     4  10  23  39  57  83 115 148 186 231 278 332
#     4  10  21  37  59  86 112 144 187 232 280 333
#     4  10  22  38  56  82 114 148 186 229 278 330
#     4  10  20  36  57  82 111 144 185 230 275 327
#
# _framework density 18.562671999999999
#
# number of rings (size 3 to 8) (size 9 to 14) (size 15 to 20)
#    0.000    2.000    2.000    0.600    2.800    3.200 
#    0.000    0.000    0.000    0.000    0.000    0.000 
#    0.000    0.000    0.000    0.000    0.000    0.000 
#
# Total GULP energy -496199.420169 kJ/mol
# GULP energy per Si atom -12404.985504 kJ/mol
# Density = 1.852042 g / cm^3
# Si number density = 18.562672 Si / 1000 Ang^3
#
#
#
# Elastic Constant Matrix: (Units=GPa)
#
#
# Indices 1 2 3 4 5 6 
#
# 1 112.5421 60.5447 20.2366 0.0000 0.0000 0.0000
# 2 60.5447 63.4486 20.8182 0.0000 0.0000 0.0000
# 3 20.2366 20.8182 71.0972 0.0000 0.0000 0.0000
# 4 0.0000 0.0000 0.0000 23.8699 0.0000 0.0000
# 5 0.0000 0.0000 0.0000 0.0000 27.4297 0.0000
# 6 0.0000 0.0000 0.0000 0.0000 0.0000 45.2882
#
#
#
# Elastic Compliance Matrix: (Units=1/GPa)
#
#
# Indices 1 2 3 4 5 6 
#
# 1 0.018259 -0.017389 -0.000105 0.000000 0.000000 0.000000
# 2 -0.017389 0.033996 -0.005005 0.000000 0.000000 0.000000
# 3 -0.000105 -0.005005 0.015561 0.000000 0.000000 0.000000
# 4 0.000000 0.000000 0.000000 0.041894 0.000000 0.000000
# 5 0.000000 0.000000 0.000000 0.000000 0.036457 0.000000
# 6 0.000000 0.000000 0.000000 0.000000 0.000000 0.022081
#
#
# Mechanical properties :
#
#
# Convention : Reuss Voigt Hill
#
# Bulk Modulus (GPa) = 43.82652 50.03187 46.92919
# Shear Modulus (GPa) = 22.63953 29.01680 25.82816
#
# Velocity S-wave (km/s) = 3.49610 3.95800 3.73420
# Velocity P-wave (km/s) = 6.32126 6.92092 6.62787
#
# Compressibility (1/GPa) = 0.02281724
#
# Stress axis : x y z
#
# Youngs Moduli (GPa) = 54.76634 29.41505 64.26402
#
# Poissons Ratio (x) = 0.51150 0.00678
# Poissons Ratio (y) = 0.95234 0.32164
# Poissons Ratio (z) = 0.00578 0.14722
#
# Static dielectric constant tensor:
#      x y z
#    x 3.243190 0.000000 0.000000 
#    y 0.000000 3.382730 0.000000 
#    z 0.000000 0.000000 3.808530 
# 
# 
# High freq. dielectric constant tensor:
#      x y z
#    x 1.715890 0.000000 0.000000 
#    y 0.000000 1.717000 0.000000 
#    z 0.000000 0.000000 1.739920 
# 
# From -- ./inp_files/12982.got.cif
#   From: 2010.03.12/outbox.cif.g09.slc.cpg/sg62_7_cif.got.tgz:12982.got - 2010.04.10 19:12:36.
