data_PCOD8252325
_publ_section_title
;
Structure prediction by ZEFSAII (Michael W. Deem and Ramdas Pophale) SiO2 
 PCOD8252325
Probable space group: P N M A
;
_chemical_formula_sum "Si O2"
_cell_formula_units_Z 48
_cell_length_a 9.410087
_cell_length_b 11.196376
_cell_length_c 24.406625
_cell_angle_alpha 90.000000
_cell_angle_beta 90.000000
_cell_angle_gamma 90.000000
_cell_volume 2571.454485
_symmetry_space_group_name_H-M "P N M A"
_symmetry_group_IT_number 62
_symmetry_cell_setting 'orthorhombic'
loop_
_space_group_symop_operation_xyz
x,y,z
1/2-x,-y,1/2+z
1/2+x,1/2-y,1/2-z
-x,1/2+y,-z
-x,-y,-z
1/2+x,y,1/2-z
1/2-x,1/2+y,1/2+z
x,1/2-y,z
loop_
_atom_site_type_symbol
_atom_site_label
_atom_site_fract_x
_atom_site_fract_y
_atom_site_fract_z
Si Si1 0.991628 0.389095 0.958215
Si Si2 0.721153 0.614658 0.365226
Si Si3 0.998321 0.500873 0.341209
Si Si4 0.283970 0.885714 0.365308
Si Si5 0.987690 0.496142 0.788930
Si Si6 0.081916 0.750000 0.679254
Si Si7 0.090711 0.250000 0.215700
O O1 0.977512 0.250000 0.981722
O O2 0.856264 0.424545 0.921150
O O3 0.134254 0.394571 0.922425
O O4 0.000000 0.500000 0.000000
O O5 0.682525 0.750000 0.355722
O O6 0.662704 0.550824 0.310822
O O7 0.888728 0.592718 0.368911
O O8 0.149203 0.526966 0.368728
O O9 0.006482 0.518664 0.276029
O O10 0.939586 0.368927 0.356996
O O11 0.235244 0.750000 0.353617
O O12 0.381492 0.926511 0.314924
O O13 0.987182 0.634101 0.809069
O O14 0.237884 0.750000 0.707888
O O15 0.946547 0.750000 0.719981
#
# Coordination Sequence:
#
# PCOD8252325 Si02
#       7
#     8   8   8   8   8   4   4
#     4   9  20  43  64  84 110 141 187 243 297 352
#     4  10  20  35  56  82 114 149 184 233 284 330
#     4  11  21  34  53  82 121 154 189 228 274 336
#     4  10  22  37  56  85 117 147 188 234 283 335
#     4  10  20  33  53  78 118 159 194 224 264 332
#     4  10  22  34  50  74 118 158 204 236 268 312
#     4  10  20  34  50  72 110 164 200 232 276 306
#
# _framework density 18.666478000000001
#
# number of rings (size 3 to 8) (size 9 to 14) (size 15 to 20)
#    0.000    2.000    1.667    3.000    7.000    4.000 
#    9.000    0.833    0.000    0.000    0.000    0.000 
#    0.000    0.000    0.000    0.000    0.000    0.000 
#
# Total GULP energy -594795.238636 kJ/mol
# GULP energy per Si atom -12391.567472 kJ/mol
# Density = 1.862399 g / cm^3
# Si number density = 18.666478 Si / 1000 Ang^3
#
#
#
# Elastic Constant Matrix: (Units=GPa)
#
#
# Indices 1 2 3 4 5 6 
#
# 1 96.0779 26.7413 25.1066 0.0000 0.0000 0.0000
# 2 26.7413 105.9251 51.9301 0.0000 0.0000 0.0000
# 3 25.1066 51.9301 62.1338 0.0000 0.0000 0.0000
# 4 0.0000 0.0000 0.0000 29.0031 0.0000 0.0000
# 5 0.0000 0.0000 0.0000 0.0000 8.0186 0.0000
# 6 0.0000 0.0000 0.0000 0.0000 0.0000 32.4976
#
#
#
# Elastic Compliance Matrix: (Units=1/GPa)
#
#
# Indices 1 2 3 4 5 6 
#
# 1 0.011709 -0.001078 -0.003830 0.000000 0.000000 0.000000
# 2 -0.001078 0.016093 -0.013015 0.000000 0.000000 0.000000
# 3 -0.003830 -0.013015 0.028519 0.000000 0.000000 0.000000
# 4 0.000000 0.000000 0.000000 0.034479 0.000000 0.000000
# 5 0.000000 0.000000 0.000000 0.000000 0.124710 0.000000
# 6 0.000000 0.000000 0.000000 0.000000 0.000000 0.030771
#
#
# Mechanical properties :
#
#
# Convention : Reuss Voigt Hill
#
# Bulk Modulus (GPa) = 48.83875 52.41032 50.62453
# Shear Modulus (GPa) = 17.30376 24.59444 20.94910
#
# Velocity S-wave (km/s) = 3.04796 3.63378 3.35369
# Velocity P-wave (km/s) = 6.21349 6.76343 6.49428
#
# Compressibility (1/GPa) = 0.02047554
#
# Stress axis : x y z
#
# Youngs Moduli (GPa) = 85.40277 62.13717 35.06375
#
# Poissons Ratio (x) = 0.06700 0.13430
# Poissons Ratio (y) = 0.09209 0.45635
# Poissons Ratio (z) = 0.32711 0.80871
#
# Static dielectric constant tensor:
#      x y z
#    x 3.590870 0.000000 0.000000 
#    y 0.000000 3.904000 0.000000 
#    z 0.000000 0.000000 3.050870 
# 
# 
# High freq. dielectric constant tensor:
#      x y z
#    x 1.733150 0.000000 0.000000 
#    y 0.000000 1.748350 0.000000 
#    z 0.000000 0.000000 1.673570 
# 
# From -- ./inp_files/28819.got.cif
#   From: 2010.03.12/outbox.cif.g09.slc.cpg/sg62_15_cif.got.tgz:28819.got - 2010.04.10 19:12:36.
