data_PCOD8252552
_publ_section_title
;
Structure prediction by ZEFSAII (Michael W. Deem and Ramdas Pophale) SiO2 
 PCOD8252552
Probable space group: P N M A
;
_chemical_formula_sum "Si O2"
_cell_formula_units_Z 56
_cell_length_a 14.829500
_cell_length_b 9.384768
_cell_length_c 20.982042
_cell_angle_alpha 90.000000
_cell_angle_beta 90.000000
_cell_angle_gamma 90.000000
_cell_volume 2920.100518
_symmetry_space_group_name_H-M "P N M A"
_symmetry_group_IT_number 62
_symmetry_cell_setting 'orthorhombic'
loop_
_space_group_symop_operation_xyz
x,y,z
1/2-x,-y,1/2+z
1/2+x,1/2-y,1/2-z
-x,1/2+y,-z
-x,-y,-z
1/2+x,y,1/2-z
1/2-x,1/2+y,1/2+z
x,1/2-y,z
loop_
_atom_site_type_symbol
_atom_site_label
_atom_site_fract_x
_atom_site_fract_y
_atom_site_fract_z
Si Si1 0.048830 0.914559 0.694841
Si Si2 0.237059 0.583990 0.758708
Si Si3 0.361235 0.916339 0.483948
Si Si4 0.955412 0.411481 0.915364
Si Si5 0.977839 0.911988 0.562351
Si Si6 0.775320 0.914445 0.596525
Si Si7 0.407232 0.414430 0.727156
O O1 0.025570 0.750000 0.710148
O O2 0.142242 0.959718 0.727312
O O3 0.051779 0.938695 0.618234
O O4 0.968909 0.011312 0.720717
O O5 0.258642 0.750000 0.747551
O O6 0.237795 0.546904 0.833560
O O7 0.310636 0.489511 0.722909
O O8 0.343084 0.750000 0.493040
O O9 0.444143 0.950937 0.437286
O O10 0.382380 0.984195 0.552768
O O11 0.272573 0.987527 0.455442
O O12 0.931009 0.250000 0.935173
O O13 0.955502 0.432665 0.840284
O O14 0.979654 0.750000 0.539562
O O15 0.880885 0.950246 0.592393
O O16 0.000000 0.000000 0.500000
O O17 0.755214 0.750000 0.580732
O O18 0.393969 0.250000 0.745869
#
# Coordination Sequence:
#
# PCOD8252552 Si02
#       7
#     8   8   8   8   8   8   8
#     4  10  21  40  63  86 116 154 200 249 295 355
#     4  10  21  38  62  87 115 153 196 244 297 356
#     4  10  20  34  56  83 111 148 196 239 276 343
#     4   9  20  37  53  79 119 153 183 232 296 344
#     4  10  22  40  60  84 116 153 196 244 292 350
#     4  10  20  37  58  82 116 154 189 237 300 354
#     4  11  22  36  58  86 119 152 186 241 296 349
#
# _framework density 19.177422
#
# number of rings (size 3 to 8) (size 9 to 14) (size 15 to 20)
#    0.000    2.000    1.429    1.714    0.000    5.143 
#    0.000    2.857    0.000    0.000    0.000    0.000 
#    0.000    0.000    0.000    0.000    0.000    0.000 
#
# Total GULP energy -694580.821498 kJ/mol
# GULP energy per Si atom -12403.228955 kJ/mol
# Density = 1.913377 g / cm^3
# Si number density = 19.177422 Si / 1000 Ang^3
#
#
#
# Elastic Constant Matrix: (Units=GPa)
#
#
# Indices 1 2 3 4 5 6 
#
# 1 94.9152 48.6134 45.5488 0.0000 0.0000 0.0000
# 2 48.6134 82.8702 44.2636 0.0000 0.0000 0.0000
# 3 45.5488 44.2636 98.7066 0.0000 0.0000 0.0000
# 4 0.0000 0.0000 0.0000 32.7227 0.0000 0.0000
# 5 0.0000 0.0000 0.0000 0.0000 34.5107 0.0000
# 6 0.0000 0.0000 0.0000 0.0000 0.0000 30.5954
#
#
#
# Elastic Compliance Matrix: (Units=1/GPa)
#
#
# Indices 1 2 3 4 5 6 
#
# 1 0.016316 -0.007298 -0.004257 0.000000 0.000000 0.000000
# 2 -0.007298 0.019132 -0.005212 0.000000 0.000000 0.000000
# 3 -0.004257 -0.005212 0.014432 0.000000 0.000000 0.000000
# 4 0.000000 0.000000 0.000000 0.030560 0.000000 0.000000
# 5 0.000000 0.000000 0.000000 0.000000 0.028977 0.000000
# 6 0.000000 0.000000 0.000000 0.000000 0.000000 0.032685
#
#
# Mechanical properties :
#
#
# Convention : Reuss Voigt Hill
#
# Bulk Modulus (GPa) = 61.16936 61.48263 61.32599
# Shear Modulus (GPa) = 27.61156 28.77015 28.19086
#
# Velocity S-wave (km/s) = 3.79858 3.87746 3.83822
# Velocity P-wave (km/s) = 7.15575 7.22328 7.18959
#
# Compressibility (1/GPa) = 0.01634805
#
# Stress axis : x y z
#
# Youngs Moduli (GPa) = 61.28863 52.26860 69.28834
#
# Poissons Ratio (x) = 0.38145 0.29493
# Poissons Ratio (y) = 0.44728 0.36112
# Poissons Ratio (z) = 0.26088 0.27241
#
# Static dielectric constant tensor:
#      x y z
#    x 3.482870 0.000000 0.000000 
#    y 0.000000 3.515160 0.000000 
#    z 0.000000 0.000000 3.486210 
# 
# 
# High freq. dielectric constant tensor:
#      x y z
#    x 1.742650 0.000000 0.000000 
#    y 0.000000 1.746590 0.000000 
#    z 0.000000 0.000000 1.748620 
# 
# From -- ./inp_files/27092.got.cif
#   From: 2010.03.12/outbox.cif.g09.slc.cpg/sg62_14_cif.got.tgz:27092.got - 2010.04.10 19:12:36.
