data_PCOD8252088
_publ_section_title
;
Structure prediction by ZEFSAII (Michael W. Deem and Ramdas Pophale) SiO2 
 PCOD8252088
Probable space group: P N M A
;
_chemical_formula_sum "Si O2"
_cell_formula_units_Z 48
_cell_length_a 14.329575
_cell_length_b 8.806197
_cell_length_c 20.373163
_cell_angle_alpha 90.000000
_cell_angle_beta 90.000000
_cell_angle_gamma 90.000000
_cell_volume 2570.870296
_symmetry_space_group_name_H-M "P N M A"
_symmetry_group_IT_number 62
_symmetry_cell_setting 'orthorhombic'
loop_
_space_group_symop_operation_xyz
x,y,z
1/2-x,-y,1/2+z
1/2+x,1/2-y,1/2-z
-x,1/2+y,-z
-x,-y,-z
1/2+x,y,1/2-z
1/2-x,1/2+y,1/2+z
x,1/2-y,z
loop_
_atom_site_type_symbol
_atom_site_label
_atom_site_fract_x
_atom_site_fract_y
_atom_site_fract_z
Si Si1 0.989268 0.929891 0.121432
Si Si2 0.705504 0.070095 0.566409
Si Si3 0.289867 0.925378 0.200710
Si Si4 0.814257 0.071223 0.930952
Si Si5 0.818366 0.928511 0.680724
Si Si6 0.500232 0.073541 0.769610
O O1 0.983800 0.750000 0.124463
O O2 0.079266 0.983544 0.080503
O O3 0.996500 0.991170 0.195581
O O4 0.896068 0.994931 0.087631
O O5 0.708290 0.250000 0.570317
O O6 0.727682 0.016161 0.492960
O O7 0.783782 0.004756 0.613954
O O8 0.266293 0.750000 0.216026
O O9 0.246614 0.976459 0.131778
O O10 0.400169 0.952428 0.196398
O O11 0.245658 0.023067 0.258504
O O12 0.808838 0.250000 0.943719
O O13 0.812964 0.750000 0.672483
O O14 0.924935 0.978571 0.690171
O O15 0.471196 0.250000 0.769942
#
# Coordination Sequence:
#
# PCOD8252088 Si02
#       6
#     8   8   8   8   8   8
#     4   9  17  32  59  87 115 148 188 234 285 345
#     4  11  22  38  58  84 117 159 199 233 284 351
#     4  10  20  38  64  86 114 155 197 238 286 348
#     4  10  20  36  57  87 120 151 186 238 296 343
#     4  12  24  37  57  87 120 152 191 243 291 340
#     4  10  19  37  62  87 112 149 197 239 285 345
#
# _framework density 18.670721
#
# number of rings (size 3 to 8) (size 9 to 14) (size 15 to 20)
#    0.000    1.667    3.333    2.500    0.000    1.333 
#    0.000    1.667    0.000    0.000    0.000    0.000 
#    0.000    0.000    0.000    0.000    0.000    0.000 
#
# Total GULP energy -595391.348627 kJ/mol
# GULP energy per Si atom -12403.986430 kJ/mol
# Density = 1.862823 g / cm^3
# Si number density = 18.670721 Si / 1000 Ang^3
#
#
#
# Elastic Constant Matrix: (Units=GPa)
#
#
# Indices 1 2 3 4 5 6 
#
# 1 70.5301 18.6653 24.7915 0.0000 0.0000 0.0000
# 2 18.6653 63.9397 30.9494 0.0000 0.0000 0.0000
# 3 24.7915 30.9494 99.7661 0.0000 0.0000 0.0000
# 4 0.0000 0.0000 0.0000 29.9943 0.0000 0.0000
# 5 0.0000 0.0000 0.0000 0.0000 32.4897 0.0000
# 6 0.0000 0.0000 0.0000 0.0000 0.0000 17.4794
#
#
#
# Elastic Compliance Matrix: (Units=1/GPa)
#
#
# Indices 1 2 3 4 5 6 
#
# 1 0.016089 -0.003249 -0.002990 0.000000 0.000000 0.000000
# 2 -0.003249 0.019059 -0.005105 0.000000 0.000000 0.000000
# 3 -0.002990 -0.005105 0.012350 0.000000 0.000000 0.000000
# 4 0.000000 0.000000 0.000000 0.033340 0.000000 0.000000
# 5 0.000000 0.000000 0.000000 0.000000 0.030779 0.000000
# 6 0.000000 0.000000 0.000000 0.000000 0.000000 0.057210
#
#
# Mechanical properties :
#
#
# Convention : Reuss Voigt Hill
#
# Bulk Modulus (GPa) = 40.30706 42.56091 41.43398
# Shear Modulus (GPa) = 25.02668 26.64801 25.83735
#
# Velocity S-wave (km/s) = 3.66515 3.78201 3.72404
# Velocity P-wave (km/s) = 6.28859 6.47429 6.38212
#
# Compressibility (1/GPa) = 0.02480955
#
# Stress axis : x y z
#
# Youngs Moduli (GPa) = 62.15305 52.46756 80.97049
#
# Poissons Ratio (x) = 0.17049 0.24211
# Poissons Ratio (y) = 0.20196 0.41336
# Poissons Ratio (z) = 0.18584 0.26785
#
# Static dielectric constant tensor:
#      x y z
#    x 3.570130 0.000000 0.000000 
#    y 0.000000 3.178240 0.000000 
#    z 0.000000 0.000000 3.428420 
# 
# 
# High freq. dielectric constant tensor:
#      x y z
#    x 1.729140 0.000000 0.000000 
#    y 0.000000 1.703830 0.000000 
#    z 0.000000 0.000000 1.726190 
# 
# From -- ./inp_files/23680.got.cif
#   From: 2010.03.12/outbox.cif.g09.slc.cpg/sg62_12_cif.got.tgz:23680.got - 2010.04.10 19:12:36.
