data_PCOD8252229
_publ_section_title
;
Structure prediction by ZEFSAII (Michael W. Deem and Ramdas Pophale) SiO2 
 PCOD8252229
Probable space group: P N M A
;
_chemical_formula_sum "Si O2"
_cell_formula_units_Z 64
_cell_length_a 18.901736
_cell_length_b 8.613488
_cell_length_c 23.058138
_cell_angle_alpha 90.000000
_cell_angle_beta 90.000000
_cell_angle_gamma 90.000000
_cell_volume 3754.092594
_symmetry_space_group_name_H-M "P N M A"
_symmetry_group_IT_number 62
_symmetry_cell_setting 'orthorhombic'
loop_
_space_group_symop_operation_xyz
x,y,z
1/2-x,-y,1/2+z
1/2+x,1/2-y,1/2-z
-x,1/2+y,-z
-x,-y,-z
1/2+x,y,1/2-z
1/2-x,1/2+y,1/2+z
x,1/2-y,z
loop_
_atom_site_type_symbol
_atom_site_label
_atom_site_fract_x
_atom_site_fract_y
_atom_site_fract_z
Si Si1 0.367246 0.568861 0.436284
Si Si2 0.647322 0.427994 0.779365
Si Si3 0.006594 0.430396 0.114364
Si Si4 0.503290 0.570037 0.260802
Si Si5 0.856121 0.430129 0.941326
Si Si6 0.355751 0.570402 0.770989
Si Si7 0.731592 0.070610 0.343466
Si Si8 0.767149 0.929091 0.165820
O O1 0.385657 0.750000 0.428555
O O2 0.435568 0.468773 0.420125
O O3 0.344484 0.531760 0.501379
O O4 0.301710 0.522168 0.395121
O O5 0.662288 0.250000 0.795325
O O6 0.564037 0.466763 0.780027
O O7 0.687266 0.532205 0.827134
O O8 0.675236 0.466645 0.715074
O O9 0.025038 0.250000 0.106352
O O10 0.998723 0.465954 0.182014
O O11 0.069538 0.531091 0.088119
O O12 0.503052 0.750000 0.279429
O O13 0.572688 0.528833 0.223818
O O14 0.853997 0.250000 0.957645
O O15 0.792046 0.469059 0.898037
O O16 0.375387 0.750000 0.773951
O O17 0.318118 0.525974 0.710659
O O18 0.304019 0.528038 0.824137
O O19 0.724376 0.250000 0.359681
O O20 0.745065 0.750000 0.166665
#
# Coordination Sequence:
#
# PCOD8252229 Si02
#       8
#     8   8   8   8   8   8   8   8
#     4  11  22  38  55  74 102 137 178 217 255 303
#     4   9  18  33  52  75 101 133 170 209 256 308
#     4  12  23  35  50  73 105 139 178 216 252 299
#     4  11  20  33  53  77 105 139 174 209 256 309
#     4  12  24  37  53  73 101 140 179 216 256 300
#     4  10  20  32  50  76 105 134 169 212 258 303
#     4  10  20  34  51  75 102 134 171 214 258 300
#     4   9  18  34  53  73  99 134 172 210 256 303
#
# _framework density 17.048062000000002
#
# number of rings (size 3 to 8) (size 9 to 14) (size 15 to 20)
#    0.000    1.500    2.500    4.125    0.000    3.000 
#    0.000    0.000    0.000    0.000    0.000    0.875 
#    0.000    0.000    0.000    0.000    0.000    0.000 
#
# Total GULP energy -793909.295522 kJ/mol
# GULP energy per Si atom -12404.832743 kJ/mol
# Density = 1.700926 g / cm^3
# Si number density = 17.048062 Si / 1000 Ang^3
#
#
#
# Elastic Constant Matrix: (Units=GPa)
#
#
# Indices 1 2 3 4 5 6 
#
# 1 101.9216 24.4901 35.7774 0.0000 0.0000 0.0000
# 2 24.4901 52.8619 12.0569 0.0000 0.0000 0.0000
# 3 35.7774 12.0569 64.7846 0.0000 0.0000 0.0000
# 4 0.0000 0.0000 0.0000 24.3083 0.0000 0.0000
# 5 0.0000 0.0000 0.0000 0.0000 16.9602 0.0000
# 6 0.0000 0.0000 0.0000 0.0000 0.0000 25.7156
#
#
#
# Elastic Compliance Matrix: (Units=1/GPa)
#
#
# Indices 1 2 3 4 5 6 
#
# 1 0.013178 -0.004642 -0.006414 0.000000 0.000000 0.000000
# 2 -0.004642 0.021391 -0.001417 0.000000 0.000000 0.000000
# 3 -0.006414 -0.001417 0.019242 0.000000 0.000000 0.000000
# 4 0.000000 0.000000 0.000000 0.041138 0.000000 0.000000
# 5 0.000000 0.000000 0.000000 0.000000 0.058962 0.000000
# 6 0.000000 0.000000 0.000000 0.000000 0.000000 0.038887
#
#
# Mechanical properties :
#
#
# Convention : Reuss Voigt Hill
#
# Bulk Modulus (GPa) = 34.64503 40.46853 37.55678
# Shear Modulus (GPa) = 21.99095 23.21307 22.60201
#
# Velocity S-wave (km/s) = 3.59547 3.69402 3.64508
# Velocity P-wave (km/s) = 6.13210 6.47950 6.30819
#
# Compressibility (1/GPa) = 0.02886417
#
# Stress axis : x y z
#
# Youngs Moduli (GPa) = 75.88182 46.74812 51.97081
#
# Poissons Ratio (x) = 0.21703 0.33333
# Poissons Ratio (y) = 0.35228 0.07366
# Poissons Ratio (z) = 0.48669 0.06625
#
# Static dielectric constant tensor:
#      x y z
#    x 3.228420 0.000000 0.000000 
#    y 0.000000 3.208940 0.000000 
#    z 0.000000 0.000000 3.007060 
# 
# 
# High freq. dielectric constant tensor:
#      x y z
#    x 1.652150 0.000000 0.000000 
#    y 0.000000 1.668910 0.000000 
#    z 0.000000 0.000000 1.627630 
# 
# From -- ./inp_files/27627.got.cif
#   From: 2010.03.12/outbox.cif.g09.slc.cpg/sg62_14_cif.got.tgz:27627.got - 2010.04.10 19:12:36.
