data_PCOD8252121
_publ_section_title
;
Structure prediction by ZEFSAII (Michael W. Deem and Ramdas Pophale) SiO2 
 PCOD8252121
Probable space group: P N M A
;
_chemical_formula_sum "Si O2"
_cell_formula_units_Z 64
_cell_length_a 14.577834
_cell_length_b 17.972900
_cell_length_c 12.216450
_cell_angle_alpha 90.000000
_cell_angle_beta 90.000000
_cell_angle_gamma 90.000000
_cell_volume 3200.782621
_symmetry_space_group_name_H-M "P N M A"
_symmetry_group_IT_number 62
_symmetry_cell_setting 'orthorhombic'
loop_
_space_group_symop_operation_xyz
x,y,z
1/2-x,-y,1/2+z
1/2+x,1/2-y,1/2-z
-x,1/2+y,-z
-x,-y,-z
1/2+x,y,1/2-z
1/2-x,1/2+y,1/2+z
x,1/2-y,z
loop_
_atom_site_type_symbol
_atom_site_label
_atom_site_fract_x
_atom_site_fract_y
_atom_site_fract_z
Si Si1 0.170606 0.410640 0.719645
Si Si2 0.246262 0.463380 0.932429
Si Si3 0.854887 0.566986 0.724861
Si Si4 0.913154 0.025695 0.931512
Si Si5 0.683539 0.579578 0.852166
Si Si6 0.492698 0.338162 0.116447
Si Si7 0.506932 0.835236 0.132837
Si Si8 0.858225 0.335316 0.820433
O O1 0.184806 0.415009 0.849889
O O2 0.171633 0.491746 0.666135
O O3 0.071923 0.376775 0.699087
O O4 0.252475 0.360305 0.671230
O O5 0.324741 0.509113 0.868802
O O6 0.178537 0.518220 0.997227
O O7 0.293684 0.407933 0.019533
O O8 0.908025 0.522224 0.819798
O O9 0.766076 0.608395 0.775428
O O10 0.916098 0.631077 0.672353
O O11 0.919529 0.113090 0.900513
O O12 0.000000 0.000000 0.000000
O O13 0.593821 0.626206 0.820442
O O14 0.489869 0.250000 0.128987
O O15 0.487400 0.365404 0.990723
O O16 0.477506 0.750000 0.129304
O O17 0.603717 0.845821 0.196025
O O18 0.867830 0.250000 0.858934
#
# Coordination Sequence:
#
# PCOD8252121 Si02
#       8
#     8   8   8   8   8   8   8   8
#     4  11  20  36  64  92 124 164 207 261 313 375
#     4  10  19  38  61  94 122 160 217 251 316 372
#     4  10  23  40  63  93 123 164 213 260 320 372
#     4  11  23  40  64  95 130 170 215 263 308 391
#     4  10  22  38  63  89 122 161 212 259 313 380
#     4  11  25  41  62  92 124 168 216 267 322 380
#     4  10  23  39  59  93 129 164 208 262 320 374
#     4  11  22  40  62  95 135 167 206 268 330 378
#
# _framework density 19.995108999999999
#
# number of rings (size 3 to 8) (size 9 to 14) (size 15 to 20)
#    0.000    1.500    3.750    2.625    5.250    1.500 
#    0.000    1.250    0.000    2.250    0.000    0.000 
#    0.000    0.000    0.000    0.000    0.000    0.000 
#
# Total GULP energy -793573.589194 kJ/mol
# GULP energy per Si atom -12399.587331 kJ/mol
# Density = 1.994960 g / cm^3
# Si number density = 19.995109 Si / 1000 Ang^3
#
#
#
# Elastic Constant Matrix: (Units=GPa)
#
#
# Indices 1 2 3 4 5 6 
#
# 1 111.5793 44.1095 26.4216 0.0000 0.0000 0.0000
# 2 44.1095 93.9278 28.4032 0.0000 0.0000 0.0000
# 3 26.4216 28.4032 71.6006 0.0000 0.0000 0.0000
# 4 0.0000 0.0000 0.0000 24.9963 0.0000 0.0000
# 5 0.0000 0.0000 0.0000 0.0000 34.3439 0.0000
# 6 0.0000 0.0000 0.0000 0.0000 0.0000 36.6066
#
#
#
# Elastic Compliance Matrix: (Units=1/GPa)
#
#
# Indices 1 2 3 4 5 6 
#
# 1 0.011344 -0.004615 -0.002355 0.000000 0.000000 0.000000
# 2 -0.004615 0.013975 -0.003841 0.000000 0.000000 0.000000
# 3 -0.002355 -0.003841 0.016359 0.000000 0.000000 0.000000
# 4 0.000000 0.000000 0.000000 0.040006 0.000000 0.000000
# 5 0.000000 0.000000 0.000000 0.000000 0.029117 0.000000
# 6 0.000000 0.000000 0.000000 0.000000 0.000000 0.027317
#
#
# Mechanical properties :
#
#
# Convention : Reuss Voigt Hill
#
# Bulk Modulus (GPa) = 49.86034 52.77513 51.31774
# Shear Modulus (GPa) = 30.04305 31.06757 30.55531
#
# Velocity S-wave (km/s) = 3.88044 3.94605 3.91338
# Velocity P-wave (km/s) = 6.71323 6.87118 6.79266
#
# Compressibility (1/GPa) = 0.02005602
#
# Stress axis : x y z
#
# Youngs Moduli (GPa) = 88.14857 71.55512 61.12787
#
# Poissons Ratio (x) = 0.33024 0.14398
# Poissons Ratio (y) = 0.40682 0.23478
# Poissons Ratio (z) = 0.20763 0.27483
#
# Static dielectric constant tensor:
#      x y z
#    x 3.744870 0.000000 0.000000 
#    y 0.000000 3.454300 0.000000 
#    z 0.000000 0.000000 3.876050 
# 
# 
# High freq. dielectric constant tensor:
#      x y z
#    x 1.791070 0.000000 0.000000 
#    y 0.000000 1.759810 0.000000 
#    z 0.000000 0.000000 1.786300 
# 
# From -- ./inp_files/13566.got.cif
#   From: 2010.03.12/outbox.cif.g09.slc.cpg/sg62_7_cif.got.tgz:13566.got - 2010.04.10 19:12:36.
