data_PCOD8252543
_publ_section_title
;
Structure prediction by ZEFSAII (Michael W. Deem and Ramdas Pophale) SiO2 
 PCOD8252543
Probable space group: P N M A
;
_chemical_formula_sum "Si O2"
_cell_formula_units_Z 48
_cell_length_a 18.089063
_cell_length_b 8.896829
_cell_length_c 16.327148
_cell_angle_alpha 90.000000
_cell_angle_beta 90.000000
_cell_angle_gamma 90.000000
_cell_volume 2627.614466
_symmetry_space_group_name_H-M "P N M A"
_symmetry_group_IT_number 62
_symmetry_cell_setting 'orthorhombic'
loop_
_space_group_symop_operation_xyz
x,y,z
1/2-x,-y,1/2+z
1/2+x,1/2-y,1/2-z
-x,1/2+y,-z
-x,-y,-z
1/2+x,y,1/2-z
1/2-x,1/2+y,1/2+z
x,1/2-y,z
loop_
_atom_site_type_symbol
_atom_site_label
_atom_site_fract_x
_atom_site_fract_y
_atom_site_fract_z
Si Si1 0.052360 0.074166 0.753973
Si Si2 0.167707 0.927845 0.647738
Si Si3 0.580480 0.420234 0.177915
Si Si4 0.971121 0.072675 0.917669
Si Si5 0.420921 0.923422 0.003614
Si Si6 0.335586 0.575136 0.662063
O O1 0.066478 0.250000 0.749234
O O2 0.026386 0.023775 0.844406
O O3 0.127817 0.990626 0.729242
O O4 0.989481 0.030068 0.688276
O O5 0.160718 0.750000 0.647786
O O6 0.252416 0.981235 0.649288
O O7 0.132386 0.992176 0.565531
O O8 0.551282 0.250000 0.191073
O O9 0.614492 0.438435 0.087283
O O10 0.643733 0.459352 0.243564
O O11 0.968725 0.250000 0.927737
O O12 0.888642 0.015594 0.899019
O O13 0.000000 0.000000 0.000000
O O14 0.428797 0.750000 0.030385
O O15 0.500000 0.000000 0.000000
O O16 0.344034 0.750000 0.640881
#
# Coordination Sequence:
#
# PCOD8252543 Si02
#       6
#     8   8   8   8   8   8
#     4  10  20  34  56  82 109 141 183 229 273 328
#     4  11  22  36  55  81 116 151 183 228 284 333
#     4   9  18  35  57  78 103 142 185 224 271 327
#     4  10  21  38  61  86 111 145 189 235 281 332
#     4  11  21  33  55  84 115 145 185 230 274 332
#     4   9  20  39  59  79 110 147 187 233 279 329
#
# _framework density 18.267520000000001
#
# number of rings (size 3 to 8) (size 9 to 14) (size 15 to 20)
#    0.000    2.000    1.667    2.000    0.000    4.000 
#    3.000    0.000    0.000    0.000    0.000    0.000 
#    0.000    0.000    0.000    0.000    0.000    0.000 
#
# Total GULP energy -595269.187862 kJ/mol
# GULP energy per Si atom -12401.441414 kJ/mol
# Density = 1.822594 g / cm^3
# Si number density = 18.267520 Si / 1000 Ang^3
#
#
#
# Elastic Constant Matrix: (Units=GPa)
#
#
# Indices 1 2 3 4 5 6 
#
# 1 151.7280 60.4278 76.4274 0.0000 0.0000 0.0000
# 2 60.4278 82.3358 45.9318 0.0000 0.0000 0.0000
# 3 76.4274 45.9318 120.9133 0.0000 0.0000 0.0000
# 4 0.0000 0.0000 0.0000 32.1876 0.0000 0.0000
# 5 0.0000 0.0000 0.0000 0.0000 25.8928 0.0000
# 6 0.0000 0.0000 0.0000 0.0000 0.0000 28.6992
#
#
#
# Elastic Compliance Matrix: (Units=1/GPa)
#
#
# Indices 1 2 3 4 5 6 
#
# 1 0.011334 -0.005484 -0.005081 0.000000 0.000000 0.000000
# 2 -0.005484 0.018065 -0.003396 0.000000 0.000000 0.000000
# 3 -0.005081 -0.003396 0.012772 0.000000 0.000000 0.000000
# 4 0.000000 0.000000 0.000000 0.031068 0.000000 0.000000
# 5 0.000000 0.000000 0.000000 0.000000 0.038621 0.000000
# 6 0.000000 0.000000 0.000000 0.000000 0.000000 0.034844
#
#
# Mechanical properties :
#
#
# Convention : Reuss Voigt Hill
#
# Bulk Modulus (GPa) = 70.17982 80.06124 75.12053
# Shear Modulus (GPa) = 27.87459 28.83525 28.35492
#
# Velocity S-wave (km/s) = 3.91053 3.97734 3.94408
# Velocity P-wave (km/s) = 7.67404 8.06316 7.87100
#
# Compressibility (1/GPa) = 0.01424911
#
# Stress axis : x y z
#
# Youngs Moduli (GPa) = 88.22934 55.35695 78.29626
#
# Poissons Ratio (x) = 0.30357 0.39782
# Poissons Ratio (y) = 0.48384 0.26589
# Poissons Ratio (z) = 0.44829 0.18799
#
# Static dielectric constant tensor:
#      x y z
#    x 3.316660 0.000000 0.000000 
#    y 0.000000 3.466150 0.000000 
#    z 0.000000 0.000000 3.570730 
# 
# 
# High freq. dielectric constant tensor:
#      x y z
#    x 1.691830 0.000000 0.000000 
#    y 0.000000 1.717800 0.000000 
#    z 0.000000 0.000000 1.716020 
# 
# From -- ./inp_files/19643.got.cif
#   From: 2010.03.12/outbox.cif.g09.slc.cpg/sg62_10_cif.got.tgz:19643.got - 2010.04.10 19:12:36.
