data_PCOD8252546
_publ_section_title
;
Structure prediction by ZEFSAII (Michael W. Deem and Ramdas Pophale) SiO2 
 PCOD8252546
Probable space group: P N M A
;
_chemical_formula_sum "Si O2"
_cell_formula_units_Z 48
_cell_length_a 12.197682
_cell_length_b 9.885891
_cell_length_c 21.136848
_cell_angle_alpha 90.000000
_cell_angle_beta 90.000000
_cell_angle_gamma 90.000000
_cell_volume 2548.785859
_symmetry_space_group_name_H-M "P N M A"
_symmetry_group_IT_number 62
_symmetry_cell_setting 'orthorhombic'
loop_
_space_group_symop_operation_xyz
x,y,z
1/2-x,-y,1/2+z
1/2+x,1/2-y,1/2-z
-x,1/2+y,-z
-x,-y,-z
1/2+x,y,1/2-z
1/2-x,1/2+y,1/2+z
x,1/2-y,z
loop_
_atom_site_type_symbol
_atom_site_label
_atom_site_fract_x
_atom_site_fract_y
_atom_site_fract_z
Si Si1 0.912420 0.905065 0.035394
Si Si2 0.817325 0.001085 0.489064
Si Si3 0.518935 0.099587 0.088501
Si Si4 0.947888 0.587675 0.304904
Si Si5 0.000831 0.090374 0.834210
Si Si6 0.768435 0.400896 0.864824
O O1 0.952744 0.750000 0.026736
O O2 0.913771 0.946072 0.110080
O O3 0.786846 0.913095 0.012902
O O4 0.000000 0.000000 0.000000
O O5 0.872607 0.920342 0.546238
O O6 0.768859 0.897645 0.437672
O O7 0.909833 0.092485 0.455134
O O8 0.522960 0.250000 0.117761
O O9 0.525652 0.988326 0.144519
O O10 0.963458 0.750000 0.313388
O O11 0.967473 0.532288 0.234328
O O12 0.825358 0.536070 0.320577
O O13 0.993391 0.250000 0.826687
O O14 0.883861 0.023488 0.854204
O O15 0.786542 0.250000 0.841219
#
# Coordination Sequence:
#
# PCOD8252546 Si02
#       6
#     8   8   8   8   8   8
#     4  11  22  36  57  85 113 144 185 232 280 334
#     4  10  20  34  56  82 113 145 185 229 281 334
#     4  10  21  36  57  83 113 147 185 233 283 330
#     4   9  19  34  54  79 106 143 187 227 271 327
#     4   9  18  33  54  79 108 143 184 226 274 330
#     4   9  16  30  53  77 106 143 181 225 274 326
#
# _framework density 18.832497
#
# number of rings (size 3 to 8) (size 9 to 14) (size 15 to 20)
#    0.000    2.333    1.667    1.000    0.000    6.667 
#    0.000    4.167    0.000    4.000    0.000    0.000 
#    0.000    0.000    0.000    0.000    0.000    0.000 
#
# Total GULP energy -594691.846208 kJ/mol
# GULP energy per Si atom -12389.413463 kJ/mol
# Density = 1.878963 g / cm^3
# Si number density = 18.832497 Si / 1000 Ang^3
#
#
#
# Elastic Constant Matrix: (Units=GPa)
#
#
# Indices 1 2 3 4 5 6 
#
# 1 103.8546 19.3143 60.5617 0.0000 0.0000 0.0000
# 2 19.3143 68.6917 32.1762 0.0000 0.0000 0.0000
# 3 60.5617 32.1762 152.1767 0.0000 0.0000 0.0000
# 4 0.0000 0.0000 0.0000 24.6843 0.0000 0.0000
# 5 0.0000 0.0000 0.0000 0.0000 30.9977 0.0000
# 6 0.0000 0.0000 0.0000 0.0000 0.0000 18.0353
#
#
#
# Elastic Compliance Matrix: (Units=1/GPa)
#
#
# Indices 1 2 3 4 5 6 
#
# 1 0.012647 -0.001330 -0.004752 0.000000 0.000000 0.000000
# 2 -0.001330 0.016298 -0.002917 0.000000 0.000000 0.000000
# 3 -0.004752 -0.002917 0.009079 0.000000 0.000000 0.000000
# 4 0.000000 0.000000 0.000000 0.040512 0.000000 0.000000
# 5 0.000000 0.000000 0.000000 0.000000 0.032260 0.000000
# 6 0.000000 0.000000 0.000000 0.000000 0.000000 0.055447
#
#
# Mechanical properties :
#
#
# Convention : Reuss Voigt Hill
#
# Bulk Modulus (GPa) = 49.93313 60.98082 55.45698
# Shear Modulus (GPa) = 26.18942 28.92150 27.55546
#
# Velocity S-wave (km/s) = 3.73319 3.92308 3.82931
# Velocity P-wave (km/s) = 6.71968 7.27817 7.00449
#
# Compressibility (1/GPa) = 0.02002678
#
# Stress axis : x y z
#
# Youngs Moduli (GPa) = 79.06830 61.35708 110.14251
#
# Poissons Ratio (x) = 0.08162 0.52339
# Poissons Ratio (y) = 0.10518 0.32125
# Poissons Ratio (z) = 0.37573 0.17896
#
# Static dielectric constant tensor:
#      x y z
#    x 3.696360 0.000000 0.000000 
#    y 0.000000 3.081250 0.000000 
#    z 0.000000 0.000000 3.652980 
# 
# 
# High freq. dielectric constant tensor:
#      x y z
#    x 1.736770 0.000000 0.000000 
#    y 0.000000 1.691690 0.000000 
#    z 0.000000 0.000000 1.734180 
# 
# From -- ./inp_files/26558.got.cif
#   From: 2010.03.12/outbox.cif.g09.slc.cpg/sg62_14_cif.got.tgz:26558.got - 2010.04.10 19:12:36.
