data_PCOD8252884
_publ_section_title
;
Structure prediction by ZEFSAII (Michael W. Deem and Ramdas Pophale) SiO2 
 PCOD8252884
Probable space group: P N M A
;
_chemical_formula_sum "Si O2"
_cell_formula_units_Z 56
_cell_length_a 14.467113
_cell_length_b 20.175994
_cell_length_c 9.484820
_cell_angle_alpha 90.000000
_cell_angle_beta 90.000000
_cell_angle_gamma 90.000000
_cell_volume 2768.508793
_symmetry_space_group_name_H-M "P N M A"
_symmetry_group_IT_number 62
_symmetry_cell_setting 'orthorhombic'
loop_
_space_group_symop_operation_xyz
x,y,z
1/2-x,-y,1/2+z
1/2+x,1/2-y,1/2-z
-x,1/2+y,-z
-x,-y,-z
1/2+x,y,1/2-z
1/2-x,1/2+y,1/2+z
x,1/2-y,z
loop_
_atom_site_type_symbol
_atom_site_label
_atom_site_fract_x
_atom_site_fract_y
_atom_site_fract_z
Si Si1 0.941165 0.943119 0.925389
Si Si2 0.997725 0.077821 0.369486
Si Si3 0.023600 0.323658 0.595935
Si Si4 0.172263 0.677086 0.270670
Si Si5 0.874256 0.673688 0.125379
Si Si6 0.347807 0.487940 0.979806
Si Si7 0.708495 0.958185 0.317744
O O1 0.001363 0.911830 0.798263
O O2 0.849372 0.979666 0.872591
O O3 0.913487 0.878968 0.014916
O O4 0.000000 0.000000 0.000000
O O5 0.045943 0.137833 0.452631
O O6 0.061768 0.014242 0.398901
O O7 0.891434 0.070028 0.422242
O O8 0.056087 0.250000 0.564257
O O9 0.915009 0.329233 0.627955
O O10 0.083400 0.350747 0.726262
O O11 0.171677 0.750000 0.195181
O O12 0.263656 0.670049 0.366607
O O13 0.167371 0.616298 0.157453
O O14 0.905767 0.750000 0.090304
O O15 0.277897 0.464359 0.854053
O O16 0.302021 0.539111 0.090321
#
# Coordination Sequence:
#
# PCOD8252884 Si02
#       7
#     8   8   8   8   8   8   8
#     4  11  25  37  58  90 122 163 204 253 311 370
#     4  10  22  38  54  86 119 151 195 249 302 355
#     4  10  20  38  64  87 114 160 205 249 311 370
#     4  10  20  35  59  88 117 154 203 251 300 369
#     4  10  22  40  63  90 124 164 207 257 313 378
#     4  10  22  35  57  83 117 152 191 246 300 358
#     4  11  21  37  58  88 118 154 203 249 305 362
#
# _framework density 20.227495000000001
#
# number of rings (size 3 to 8) (size 9 to 14) (size 15 to 20)
#    0.000    1.714    1.429    2.571    8.000    0.571 
#    0.000    0.000    0.000    0.857    0.000    0.000 
#    0.000    0.000    0.000    0.000    0.000    0.000 
#
# Total GULP energy -693732.576454 kJ/mol
# GULP energy per Si atom -12388.081722 kJ/mol
# Density = 2.018146 g / cm^3
# Si number density = 20.227495 Si / 1000 Ang^3
#
#
#
# Elastic Constant Matrix: (Units=GPa)
#
#
# Indices 1 2 3 4 5 6 
#
# 1 43.2295 -3.1974 18.8356 0.0000 0.0000 0.0000
# 2 -3.1974 115.8207 45.6508 0.0000 0.0000 0.0000
# 3 18.8356 45.6508 113.5967 0.0000 0.0000 0.0000
# 4 0.0000 0.0000 0.0000 39.5180 0.0000 0.0000
# 5 0.0000 0.0000 0.0000 0.0000 22.9692 0.0000
# 6 0.0000 0.0000 0.0000 0.0000 0.0000 24.0554
#
#
#
# Elastic Compliance Matrix: (Units=1/GPa)
#
#
# Indices 1 2 3 4 5 6 
#
# 1 0.025696 0.002838 -0.005401 0.000000 0.000000 0.000000
# 2 0.002838 0.010573 -0.004719 0.000000 0.000000 0.000000
# 3 -0.005401 -0.004719 0.011595 0.000000 0.000000 0.000000
# 4 0.000000 0.000000 0.000000 0.025305 0.000000 0.000000
# 5 0.000000 0.000000 0.000000 0.000000 0.043537 0.000000
# 6 0.000000 0.000000 0.000000 0.000000 0.000000 0.041571
#
#
# Mechanical properties :
#
#
# Convention : Reuss Voigt Hill
#
# Bulk Modulus (GPa) = 30.03116 43.91387 36.97251
# Shear Modulus (GPa) = 27.18281 31.39906 29.29093
#
# Velocity S-wave (km/s) = 3.66984 3.94419 3.80949
# Velocity P-wave (km/s) = 5.73026 6.51915 6.13739
#
# Compressibility (1/GPa) = 0.03329875
#
# Stress axis : x y z
#
# Youngs Moduli (GPa) = 38.91705 94.58471 86.24242
#
# Poissons Ratio (x) = -0.26846 0.46582
# Poissons Ratio (y) = -0.11046 0.40701
# Poissons Ratio (z) = 0.21020 0.44638
#
# Static dielectric constant tensor:
#      x y z
#    x 3.686030 0.000000 0.000000 
#    y 0.000000 3.915330 0.000000 
#    z 0.000000 0.000000 3.714600 
# 
# 
# High freq. dielectric constant tensor:
#      x y z
#    x 1.790490 0.000000 0.000000 
#    y 0.000000 1.797670 0.000000 
#    z 0.000000 0.000000 1.766970 
# 
# From -- ./inp_files/6754.got.cif
#   From: 2010.03.12/outbox.cif.g09.slc.cpg/sg62_4_cif.got.tgz:6754.got - 2010.04.10 19:12:36.
