data_PCOD8252136
_publ_section_title
;
Structure prediction by ZEFSAII (Michael W. Deem and Ramdas Pophale) SiO2 
 PCOD8252136
Probable space group: P N M A
;
_chemical_formula_sum "Si O2"
_cell_formula_units_Z 64
_cell_length_a 17.433293
_cell_length_b 18.436079
_cell_length_c 11.068966
_cell_angle_alpha 90.000000
_cell_angle_beta 90.000000
_cell_angle_gamma 90.000000
_cell_volume 3557.583017
_symmetry_space_group_name_H-M "P N M A"
_symmetry_group_IT_number 62
_symmetry_cell_setting 'orthorhombic'
loop_
_space_group_symop_operation_xyz
x,y,z
1/2-x,-y,1/2+z
1/2+x,1/2-y,1/2-z
-x,1/2+y,-z
-x,-y,-z
1/2+x,y,1/2-z
1/2-x,1/2+y,1/2+z
x,1/2-y,z
loop_
_atom_site_type_symbol
_atom_site_label
_atom_site_fract_x
_atom_site_fract_y
_atom_site_fract_z
Si Si1 0.586841 0.663380 0.091654
Si Si2 0.350262 0.403265 0.685897
Si Si3 0.141717 0.062588 0.101214
Si Si4 0.659323 0.667563 0.556313
Si Si5 0.224290 0.927475 0.417910
Si Si6 0.508215 0.165768 0.353769
Si Si7 0.304717 0.914036 0.865626
Si Si8 0.452693 0.833492 0.919060
O O1 0.594696 0.750000 0.096341
O O2 0.582103 0.627803 0.226325
O O3 0.662946 0.629883 0.025716
O O4 0.511887 0.637537 0.019432
O O5 0.376865 0.477057 0.617597
O O6 0.332448 0.342592 0.587273
O O7 0.273713 0.414081 0.770770
O O8 0.066331 0.111135 0.078799
O O9 0.182597 0.088452 0.222702
O O10 0.194493 0.078736 0.984298
O O11 0.676286 0.750000 0.590525
O O12 0.575370 0.644217 0.599809
O O13 0.720807 0.618718 0.623008
O O14 0.191805 0.008578 0.431041
O O15 0.528413 0.250000 0.383582
O O16 0.510483 0.151158 0.211144
O O17 0.370596 0.870560 0.935466
O O18 0.437180 0.750000 0.940579
#
# Coordination Sequence:
#
# PCOD8252136 Si02
#       8
#     8   8   8   8   8   8   8   8
#     4   9  19  35  56  79 108 148 186 225 272 328
#     4   9  20  36  55  81 111 148 180 228 270 330
#     4  10  19  39  57  81 116 143 184 233 277 326
#     4  11  21  36  57  80 111 150 185 225 281 332
#     4   9  20  35  55  80 109 144 183 224 275 328
#     4   9  21  36  54  82 113 143 182 231 279 330
#     4  10  20  35  56  82 112 143 182 232 280 325
#     4   9  18  36  55  79 110 139 183 231 273 324
#
# _framework density 17.989742
#
# number of rings (size 3 to 8) (size 9 to 14) (size 15 to 20)
#    0.750    1.750    1.250    0.750    1.750    2.000 
#    0.000    1.250    0.000    1.500    0.000    0.000 
#    0.000    0.000    0.000    0.000    0.000    0.000 
#
# Total GULP energy -793037.015345 kJ/mol
# GULP energy per Si atom -12391.203365 kJ/mol
# Density = 1.794880 g / cm^3
# Si number density = 17.989742 Si / 1000 Ang^3
#
#
#
# Elastic Constant Matrix: (Units=GPa)
#
#
# Indices 1 2 3 4 5 6 
#
# 1 110.2733 53.4234 38.3378 0.0000 0.0000 0.0000
# 2 53.4234 72.2516 22.2458 0.0000 0.0000 0.0000
# 3 38.3378 22.2458 52.8973 0.0000 0.0000 0.0000
# 4 0.0000 0.0000 0.0000 20.5316 0.0000 0.0000
# 5 0.0000 0.0000 0.0000 0.0000 26.2315 0.0000
# 6 0.0000 0.0000 0.0000 0.0000 0.0000 29.7305
#
#
#
# Elastic Compliance Matrix: (Units=1/GPa)
#
#
# Indices 1 2 3 4 5 6 
#
# 1 0.016565 -0.009824 -0.007874 0.000000 0.000000 0.000000
# 2 -0.009824 0.021725 -0.002016 0.000000 0.000000 0.000000
# 3 -0.007874 -0.002016 0.025460 0.000000 0.000000 0.000000
# 4 0.000000 0.000000 0.000000 0.048705 0.000000 0.000000
# 5 0.000000 0.000000 0.000000 0.000000 0.038122 0.000000
# 6 0.000000 0.000000 0.000000 0.000000 0.000000 0.033635
#
#
# Mechanical properties :
#
#
# Convention : Reuss Voigt Hill
#
# Bulk Modulus (GPa) = 41.11760 51.49290 46.30525
# Shear Modulus (GPa) = 21.57494 23.39308 22.48401
#
# Velocity S-wave (km/s) = 3.46684 3.60996 3.53912
# Velocity P-wave (km/s) = 6.23947 6.78685 6.51891
#
# Compressibility (1/GPa) = 0.02432049
#
# Stress axis : x y z
#
# Youngs Moduli (GPa) = 60.36650 46.02903 39.27786
#
# Poissons Ratio (x) = 0.45220 0.30929
# Poissons Ratio (y) = 0.59305 0.07920
# Poissons Ratio (z) = 0.47535 0.09281
#
# Static dielectric constant tensor:
#      x y z
#    x 3.213610 0.000000 0.000000 
#    y 0.000000 3.423800 0.000000 
#    z 0.000000 0.000000 3.230830 
# 
# 
# High freq. dielectric constant tensor:
#      x y z
#    x 1.679490 0.000000 0.000000 
#    y 0.000000 1.707280 0.000000 
#    z 0.000000 0.000000 1.686810 
# 
# From -- ./inp_files/14435.got.cif
#   From: 2010.03.12/outbox.cif.g09.slc.cpg/sg62_8_cif.got.tgz:14435.got - 2010.04.10 19:12:36.
