data_PCOD8252404
_publ_section_title
;
Structure prediction by ZEFSAII (Michael W. Deem and Ramdas Pophale) SiO2 
 PCOD8252404
Probable space group: P N M A
;
_chemical_formula_sum "Si O2"
_cell_formula_units_Z 64
_cell_length_a 23.234471
_cell_length_b 8.777152
_cell_length_c 18.824647
_cell_angle_alpha 90.000000
_cell_angle_beta 90.000000
_cell_angle_gamma 90.000000
_cell_volume 3838.957016
_symmetry_space_group_name_H-M "P N M A"
_symmetry_group_IT_number 62
_symmetry_cell_setting 'orthorhombic'
loop_
_space_group_symop_operation_xyz
x,y,z
1/2-x,-y,1/2+z
1/2+x,1/2-y,1/2-z
-x,1/2+y,-z
-x,-y,-z
1/2+x,y,1/2-z
1/2-x,1/2+y,1/2+z
x,1/2-y,z
loop_
_atom_site_type_symbol
_atom_site_label
_atom_site_fract_x
_atom_site_fract_y
_atom_site_fract_z
Si Si1 0.158542 0.927292 0.762994
Si Si2 0.773567 0.929829 0.360376
Si Si3 0.618930 0.928847 0.506234
Si Si4 0.831168 0.572857 0.782168
Si Si5 0.934804 0.928497 0.144272
Si Si6 0.067531 0.925964 0.145084
Si Si7 0.731417 0.075976 0.142468
Si Si8 0.244523 0.071279 0.998354
O O1 0.151008 0.750000 0.746783
O O2 0.206579 0.956340 0.822740
O O3 0.176026 0.009504 0.690220
O O4 0.099109 0.997343 0.790252
O O5 0.777569 0.750000 0.366283
O O6 0.710636 0.975216 0.332049
O O7 0.782445 0.003030 0.437819
O O8 0.624315 0.750000 0.519769
O O9 0.584491 0.969051 0.435008
O O10 0.583361 0.000975 0.569840
O O11 0.682131 0.996387 0.501830
O O12 0.819315 0.750000 0.798368
O O13 0.896433 0.527212 0.799259
O O14 0.818352 0.538180 0.699530
O O15 0.922120 0.750000 0.141805
O O16 0.001317 0.965563 0.157595
O O17 0.080871 0.750000 0.160364
O O18 0.727519 0.250000 0.116698
O O19 0.722961 0.966441 0.075235
O O20 0.238131 0.250000 0.007914
#
# Coordination Sequence:
#
# PCOD8252404 Si02
#       8
#     8   8   8   8   8   8   8   8
#     4  10  20  35  53  74 101 133 172 216 258 304
#     4  11  21  34  53  74 103 135 167 211 262 309
#     4  11  21  34  49  70 103 143 179 217 255 295
#     4  10  20  34  53  75 100 132 173 214 256 305
#     4  11  22  35  51  74 102 139 181 217 254 303
#     4  10  22  36  51  72 103 140 179 216 256 302
#     4   9  19  34  51  73 102 132 166 211 260 306
#     4  12  22  32  51  78 104 136 174 210 254 313
#
# _framework density 16.671194
#
# number of rings (size 3 to 8) (size 9 to 14) (size 15 to 20)
#    0.000    1.500    2.500    4.875    0.000    4.000 
#    0.000    0.000    0.000    0.000    0.000    0.875 
#    0.000    0.000    0.000    0.000    0.000    0.000 
#
# Total GULP energy -793894.891015 kJ/mol
# GULP energy per Si atom -12404.607672 kJ/mol
# Density = 1.663325 g / cm^3
# Si number density = 16.671194 Si / 1000 Ang^3
#
#
#
# Elastic Constant Matrix: (Units=GPa)
#
#
# Indices 1 2 3 4 5 6 
#
# 1 87.9860 51.2444 56.5565 0.0000 0.0000 0.0000
# 2 51.2444 131.5838 72.0748 0.0000 0.0000 0.0000
# 3 56.5565 72.0748 116.9739 0.0000 0.0000 0.0000
# 4 0.0000 0.0000 0.0000 31.2271 0.0000 0.0000
# 5 0.0000 0.0000 0.0000 0.0000 24.4325 0.0000
# 6 0.0000 0.0000 0.0000 0.0000 0.0000 24.2845
#
#
#
# Elastic Compliance Matrix: (Units=1/GPa)
#
#
# Indices 1 2 3 4 5 6 
#
# 1 0.017374 -0.003268 -0.006387 0.000000 0.000000 0.000000
# 2 -0.003268 0.012086 -0.005867 0.000000 0.000000 0.000000
# 3 -0.006387 -0.005867 0.015252 0.000000 0.000000 0.000000
# 4 0.000000 0.000000 0.000000 0.032023 0.000000 0.000000
# 5 0.000000 0.000000 0.000000 0.000000 0.040929 0.000000
# 6 0.000000 0.000000 0.000000 0.000000 0.000000 0.041179
#
#
# Mechanical properties :
#
#
# Convention : Reuss Voigt Hill
#
# Bulk Modulus (GPa) = 73.15931 77.36614 75.26272
# Shear Modulus (GPa) = 25.71456 26.43333 26.07395
#
# Velocity S-wave (km/s) = 3.93167 3.98624 3.95905
# Velocity P-wave (km/s) = 8.03677 8.22768 8.13278
#
# Compressibility (1/GPa) = 0.01366880
#
# Stress axis : x y z
#
# Youngs Moduli (GPa) = 57.55704 82.74074 65.56575
#
# Poissons Ratio (x) = 0.27039 0.41875
# Poissons Ratio (y) = 0.18809 0.38467
# Poissons Ratio (z) = 0.36760 0.48543
#
# Static dielectric constant tensor:
#      x y z
#    x 2.974310 0.000000 0.000000 
#    y 0.000000 3.229710 0.000000 
#    z 0.000000 0.000000 3.283850 
# 
# 
# High freq. dielectric constant tensor:
#      x y z
#    x 1.614390 0.000000 0.000000 
#    y 0.000000 1.658690 0.000000 
#    z 0.000000 0.000000 1.640760 
# 
# From -- ./inp_files/24797.got.cif
#   From: 2010.03.12/outbox.cif.g09.slc.cpg/sg62_13_cif.got.tgz:24797.got - 2010.04.10 19:12:36.
