data_PCOD8252909
_publ_section_title
;
Structure prediction by ZEFSAII (Michael W. Deem and Ramdas Pophale) SiO2 
 PCOD8252909
Probable space group: P N M A
;
_chemical_formula_sum "Si O2"
_cell_formula_units_Z 64
_cell_length_a 11.876278
_cell_length_b 17.386914
_cell_length_c 14.963364
_cell_angle_alpha 90.000000
_cell_angle_beta 90.000000
_cell_angle_gamma 90.000000
_cell_volume 3089.812329
_symmetry_space_group_name_H-M "P N M A"
_symmetry_group_IT_number 62
_symmetry_cell_setting 'orthorhombic'
loop_
_space_group_symop_operation_xyz
x,y,z
1/2-x,-y,1/2+z
1/2+x,1/2-y,1/2-z
-x,1/2+y,-z
-x,-y,-z
1/2+x,y,1/2-z
1/2-x,1/2+y,1/2+z
x,1/2-y,z
loop_
_atom_site_type_symbol
_atom_site_label
_atom_site_fract_x
_atom_site_fract_y
_atom_site_fract_z
Si Si1 0.356328 0.899561 0.221388
Si Si2 0.052428 0.972970 0.358324
Si Si3 0.575094 0.560460 0.444303
Si Si4 0.370875 0.840486 0.412417
Si Si5 0.307019 0.971671 0.706609
Si Si6 0.787500 0.838618 0.461630
Si Si7 0.028732 0.606782 0.529702
Si Si8 0.748290 0.835566 0.910878
O O1 0.489477 0.914725 0.210582
O O2 0.318593 0.870196 0.318785
O O3 0.308879 0.842307 0.145214
O O4 0.310107 0.984700 0.203977
O O5 0.093967 0.917500 0.438236
O O6 0.147711 0.022410 0.308158
O O7 0.969378 0.033429 0.405570
O O8 0.500000 0.500000 0.500000
O O9 0.499441 0.633171 0.418308
O O10 0.603783 0.513308 0.356440
O O11 0.687705 0.600137 0.489066
O O12 0.365925 0.750000 0.410029
O O13 0.303772 0.871444 0.499121
O O14 0.286912 0.884420 0.675214
O O15 0.755494 0.750000 0.485730
O O16 0.902799 0.860997 0.513441
O O17 0.112730 0.667590 0.576398
O O18 0.792809 0.750000 0.892461
#
# Coordination Sequence:
#
# PCOD8252909 Si02
#       8
#     8   8   8   8   8   8   8   8
#     4  10  20  36  59  89 119 156 203 252 312 381
#     4  10  20  35  61  90 113 155 209 257 300 362
#     4  11  22  37  61  89 121 166 204 249 310 380
#     4  11  22  37  61  94 128 160 203 259 324 383
#     4  11  21  38  61  87 118 160 209 252 304 377
#     4  10  22  39  60  89 126 162 204 261 319 378
#     4  10  21  40  63  91 122 162 211 263 317 372
#     4  11  23  39  61  89 126 166 206 261 319 376
#
# _framework density 20.713232999999999
#
# number of rings (size 3 to 8) (size 9 to 14) (size 15 to 20)
#    0.000    1.500    3.750    1.875    1.750    1.000 
#    0.000    1.250    0.000    0.000    0.000    0.000 
#    0.000    0.000    0.000    0.000    0.000    0.000 
#
# Total GULP energy -792862.633311 kJ/mol
# GULP energy per Si atom -12388.478645 kJ/mol
# Density = 2.066609 g / cm^3
# Si number density = 20.713233 Si / 1000 Ang^3
#
#
#
# Elastic Constant Matrix: (Units=GPa)
#
#
# Indices 1 2 3 4 5 6 
#
# 1 91.6215 27.4786 23.9888 0.0000 0.0000 0.0000
# 2 27.4786 94.7463 31.1053 0.0000 0.0000 0.0000
# 3 23.9888 31.1053 61.8846 0.0000 0.0000 0.0000
# 4 0.0000 0.0000 0.0000 26.5801 0.0000 0.0000
# 5 0.0000 0.0000 0.0000 0.0000 24.2513 0.0000
# 6 0.0000 0.0000 0.0000 0.0000 0.0000 24.9674
#
#
#
# Elastic Compliance Matrix: (Units=1/GPa)
#
#
# Indices 1 2 3 4 5 6 
#
# 1 0.012608 -0.002458 -0.003652 0.000000 0.000000 0.000000
# 2 -0.002458 0.013119 -0.005642 0.000000 0.000000 0.000000
# 3 -0.003652 -0.005642 0.020410 0.000000 0.000000 0.000000
# 4 0.000000 0.000000 0.000000 0.037622 0.000000 0.000000
# 5 0.000000 0.000000 0.000000 0.000000 0.041235 0.000000
# 6 0.000000 0.000000 0.000000 0.000000 0.000000 0.040052
#
#
# Mechanical properties :
#
#
# Convention : Reuss Voigt Hill
#
# Bulk Modulus (GPa) = 44.17893 45.93309 45.05601
# Shear Modulus (GPa) = 25.49795 26.20507 25.85151
#
# Velocity S-wave (km/s) = 3.51236 3.56073 3.53663
# Velocity P-wave (km/s) = 6.15013 6.25532 6.20295
#
# Compressibility (1/GPa) = 0.02263523
#
# Stress axis : x y z
#
# Youngs Moduli (GPa) = 79.31654 76.22297 48.99454
#
# Poissons Ratio (x) = 0.18732 0.17893
# Poissons Ratio (y) = 0.19493 0.27641
# Poissons Ratio (z) = 0.28966 0.43002
#
# Static dielectric constant tensor:
#      x y z
#    x 3.693440 0.000000 0.000000 
#    y 0.000000 3.566260 0.000000 
#    z 0.000000 0.000000 3.804450 
# 
# 
# High freq. dielectric constant tensor:
#      x y z
#    x 1.810570 0.000000 0.000000 
#    y 0.000000 1.803000 0.000000 
#    z 0.000000 0.000000 1.798240 
# 
# From -- ./inp_files/18287.got.cif
#   From: 2010.03.12/outbox.cif.g09.slc.cpg/sg62_10_cif.got.tgz:18287.got - 2010.04.10 19:12:36.
