data_PCOD8252914
_publ_section_title
;
Structure prediction by ZEFSAII (Michael W. Deem and Ramdas Pophale) SiO2 
 PCOD8252914
Probable space group: P N M A
;
_chemical_formula_sum "Si O2"
_cell_formula_units_Z 56
_cell_length_a 9.273183
_cell_length_b 18.680006
_cell_length_c 15.841862
_cell_angle_alpha 90.000000
_cell_angle_beta 90.000000
_cell_angle_gamma 90.000000
_cell_volume 2744.176668
_symmetry_space_group_name_H-M "P N M A"
_symmetry_group_IT_number 62
_symmetry_cell_setting 'orthorhombic'
loop_
_space_group_symop_operation_xyz
x,y,z
1/2-x,-y,1/2+z
1/2+x,1/2-y,1/2-z
-x,1/2+y,-z
-x,-y,-z
1/2+x,y,1/2-z
1/2-x,1/2+y,1/2+z
x,1/2-y,z
loop_
_atom_site_type_symbol
_atom_site_label
_atom_site_fract_x
_atom_site_fract_y
_atom_site_fract_z
Si Si1 0.995506 0.387060 0.993167
Si Si2 0.486455 0.939993 0.071433
Si Si3 0.697046 0.168966 0.023607
Si Si4 0.207606 0.828674 0.466202
Si Si5 0.144154 0.971662 0.718559
Si Si6 0.944936 0.996641 0.863528
Si Si7 0.447920 0.170631 0.142330
O O1 0.866744 0.342898 0.036698
O O2 0.935863 0.427393 0.910238
O O3 0.120212 0.334115 0.962073
O O4 0.065749 0.438444 0.062704
O O5 0.359721 0.884947 0.047797
O O6 0.633025 0.893821 0.085042
O O7 0.451014 0.978939 0.157807
O O8 0.500000 0.000000 0.000000
O O9 0.666375 0.250000 0.993247
O O10 0.612553 0.155362 0.111817
O O11 0.165367 0.750000 0.429988
O O12 0.155458 0.835427 0.562048
O O13 0.313138 0.985289 0.702003
O O14 0.102745 0.888043 0.709206
O O15 0.097307 0.991813 0.813726
O O16 0.436420 0.250000 0.183515
#
# Coordination Sequence:
#
# PCOD8252914 Si02
#       7
#     8   8   8   8   8   8   8
#     4  11  22  42  61  92 123 163 207 260 301 363
#     4  11  19  35  64  90 123 159 203 250 305 358
#     4  10  20  35  62  93 120 161 206 249 301 368
#     4  10  20  36  63  93 120 162 205 246 302 368
#     4  12  23  42  59  93 125 162 203 261 306 367
#     4  11  27  38  64  91 125 157 212 254 309 360
#     4   9  19  37  60  89 126 161 200 244 304 373
#
# _framework density 20.406849999999999
#
# number of rings (size 3 to 8) (size 9 to 14) (size 15 to 20)
#    0.000    1.429    5.714    1.714    6.000    0.000 
#    0.000    2.143    0.000    5.143    0.000    0.000 
#    0.000    0.000    0.000    0.000    0.000    0.000 
#
# Total GULP energy -694275.899858 kJ/mol
# GULP energy per Si atom -12397.783926 kJ/mol
# Density = 2.036040 g / cm^3
# Si number density = 20.406850 Si / 1000 Ang^3
#
#
#
# Elastic Constant Matrix: (Units=GPa)
#
#
# Indices 1 2 3 4 5 6 
#
# 1 130.8605 28.7347 2.9915 0.0000 0.0000 0.0000
# 2 28.7347 111.5053 13.7286 0.0000 0.0000 0.0000
# 3 2.9915 13.7286 45.8168 0.0000 0.0000 0.0000
# 4 0.0000 0.0000 0.0000 11.3074 0.0000 0.0000
# 5 0.0000 0.0000 0.0000 0.0000 25.1146 0.0000
# 6 0.0000 0.0000 0.0000 0.0000 0.0000 25.3781
#
#
#
# Elastic Compliance Matrix: (Units=1/GPa)
#
#
# Indices 1 2 3 4 5 6 
#
# 1 0.008101 -0.002100 0.000100 0.000000 0.000000 0.000000
# 2 -0.002100 0.009856 -0.002816 0.000000 0.000000 0.000000
# 3 0.000100 -0.002816 0.022663 0.000000 0.000000 0.000000
# 4 0.000000 0.000000 0.000000 0.088438 0.000000 0.000000
# 5 0.000000 0.000000 0.000000 0.000000 0.039817 0.000000
# 6 0.000000 0.000000 0.000000 0.000000 0.000000 0.039404
#
#
# Mechanical properties :
#
#
# Convention : Reuss Voigt Hill
#
# Bulk Modulus (GPa) = 32.27005 42.12134 37.19569
# Shear Modulus (GPa) = 21.90674 28.54187 25.22431
#
# Velocity S-wave (km/s) = 3.27998 3.74390 3.51959
# Velocity P-wave (km/s) = 5.49473 6.27492 5.89774
#
# Compressibility (1/GPa) = 0.03098849
#
# Stress axis : x y z
#
# Youngs Moduli (GPa) = 123.44892 101.46065 44.12408
#
# Poissons Ratio (x) = 0.21305 -0.00443
# Poissons Ratio (y) = 0.25922 0.12426
# Poissons Ratio (z) = -0.01238 0.28573
#
# Static dielectric constant tensor:
#      x y z
#    x 3.851670 0.000000 0.000000 
#    y 0.000000 4.105950 0.000000 
#    z 0.000000 0.000000 3.258740 
# 
# 
# High freq. dielectric constant tensor:
#      x y z
#    x 1.809830 0.000000 0.000000 
#    y 0.000000 1.809340 0.000000 
#    z 0.000000 0.000000 1.747640 
# 
# From -- ./inp_files/17212.got.cif
#   From: 2010.03.12/outbox.cif.g09.slc.cpg/sg62_9_cif.got.tgz:17212.got - 2010.04.10 19:12:36.
