data_PCOD8252839
_publ_section_title
;
Structure prediction by ZEFSAII (Michael W. Deem and Ramdas Pophale) SiO2 
 PCOD8252839
Probable space group: P N M A
;
_chemical_formula_sum "Si O2"
_cell_formula_units_Z 56
_cell_length_a 14.619423
_cell_length_b 9.164902
_cell_length_c 21.749671
_cell_angle_alpha 90.000000
_cell_angle_beta 90.000000
_cell_angle_gamma 90.000000
_cell_volume 2914.142264
_symmetry_space_group_name_H-M "P N M A"
_symmetry_group_IT_number 62
_symmetry_cell_setting 'orthorhombic'
loop_
_space_group_symop_operation_xyz
x,y,z
1/2-x,-y,1/2+z
1/2+x,1/2-y,1/2-z
-x,1/2+y,-z
-x,-y,-z
1/2+x,y,1/2-z
1/2-x,1/2+y,1/2+z
x,1/2-y,z
loop_
_atom_site_type_symbol
_atom_site_label
_atom_site_fract_x
_atom_site_fract_y
_atom_site_fract_z
Si Si1 0.949960 0.418938 0.177073
Si Si2 0.621464 0.418551 0.245124
Si Si3 0.677779 0.922432 0.783453
Si Si4 0.716226 0.420515 0.024145
Si Si5 0.904056 0.080433 0.620274
Si Si6 0.575186 0.578206 0.540864
Si Si7 0.890494 0.581126 0.403318
O O1 0.924511 0.250000 0.172374
O O2 0.882558 0.488767 0.227844
O O3 0.934056 0.487286 0.109863
O O4 0.053775 0.445237 0.197894
O O5 0.620832 0.250000 0.224004
O O6 0.719100 0.468453 0.269733
O O7 0.589872 0.515187 0.188233
O O8 0.664481 0.750000 0.789372
O O9 0.647069 0.990011 0.847019
O O10 0.701349 0.250000 0.036474
O O11 0.676753 0.503949 0.082890
O O12 0.823332 0.457418 0.016018
O O13 0.662374 0.473600 0.963838
O O14 0.880786 0.250000 0.625235
O O15 0.001489 0.053677 0.587203
O O16 0.500000 0.500000 0.500000
O O17 0.554895 0.750000 0.539375
O O18 0.869733 0.750000 0.390435
#
# Coordination Sequence:
#
# PCOD8252839 Si02
#       7
#     8   8   8   8   8   8   8
#     4   9  18  35  56  81 112 144 185 232 277 336
#     4  10  20  35  58  84 112 149 189 233 289 347
#     4  10  20  35  59  86 110 149 196 236 282 342
#     4  10  22  40  60  81 116 162 197 234 290 351
#     4  11  22  37  58  88 118 148 192 244 293 344
#     4  10  22  40  61  86 116 153 197 242 288 344
#     4  10  22  38  56  84 120 153 189 240 298 347
#
# _framework density 19.216632000000001
#
# number of rings (size 3 to 8) (size 9 to 14) (size 15 to 20)
#    0.000    2.000    1.429    1.714    2.000    4.571 
#    0.000    1.429    0.000    0.000    0.000    0.000 
#    0.000    0.000    0.000    0.000    0.000    0.000 
#
# Total GULP energy -694552.633077 kJ/mol
# GULP energy per Si atom -12402.725591 kJ/mol
# Density = 1.917289 g / cm^3
# Si number density = 19.216632 Si / 1000 Ang^3
#
#
#
# Elastic Constant Matrix: (Units=GPa)
#
#
# Indices 1 2 3 4 5 6 
#
# 1 120.9011 34.9811 37.6071 0.0000 0.0000 0.0000
# 2 34.9811 48.0251 34.4022 0.0000 0.0000 0.0000
# 3 37.6071 34.4022 106.5887 0.0000 0.0000 0.0000
# 4 0.0000 0.0000 0.0000 31.2809 0.0000 0.0000
# 5 0.0000 0.0000 0.0000 0.0000 36.7906 0.0000
# 6 0.0000 0.0000 0.0000 0.0000 0.0000 13.8553
#
#
#
# Elastic Compliance Matrix: (Units=1/GPa)
#
#
# Indices 1 2 3 4 5 6 
#
# 1 0.010695 -0.006617 -0.001638 0.000000 0.000000 0.000000
# 2 -0.006617 0.031178 -0.007728 0.000000 0.000000 0.000000
# 3 -0.001638 -0.007728 0.012454 0.000000 0.000000 0.000000
# 4 0.000000 0.000000 0.000000 0.031968 0.000000 0.000000
# 5 0.000000 0.000000 0.000000 0.000000 0.027181 0.000000
# 6 0.000000 0.000000 0.000000 0.000000 0.000000 0.072175
#
#
# Mechanical properties :
#
#
# Convention : Reuss Voigt Hill
#
# Bulk Modulus (GPa) = 44.72035 54.38841 49.55438
# Shear Modulus (GPa) = 22.21510 27.62032 24.91771
#
# Velocity S-wave (km/s) = 3.40374 3.79530 3.60484
# Velocity P-wave (km/s) = 6.22651 6.89710 6.57037
#
# Compressibility (1/GPa) = 0.02236119
#
# Stress axis : x y z
#
# Youngs Moduli (GPa) = 93.49943 32.07341 80.29472
#
# Poissons Ratio (x) = 0.21223 0.13151
# Poissons Ratio (y) = 0.61870 0.62055
# Poissons Ratio (z) = 0.15314 0.24788
#
# Static dielectric constant tensor:
#      x y z
#    x 3.709760 0.000000 0.000000 
#    y 0.000000 3.283840 0.000000 
#    z 0.000000 0.000000 3.622440 
# 
# 
# High freq. dielectric constant tensor:
#      x y z
#    x 1.764190 0.000000 0.000000 
#    y 0.000000 1.722370 0.000000 
#    z 0.000000 0.000000 1.755080 
# 
# From -- ./inp_files/27088.got.cif
#   From: 2010.03.12/outbox.cif.g09.slc.cpg/sg62_14_cif.got.tgz:27088.got - 2010.04.10 19:12:36.
