data_PCOD8252828
_publ_section_title
;
Structure prediction by ZEFSAII (Michael W. Deem and Ramdas Pophale) SiO2 
 PCOD8252828
Probable space group: P N M A
;
_chemical_formula_sum "Si O2"
_cell_formula_units_Z 48
_cell_length_a 23.569285
_cell_length_b 8.844520
_cell_length_c 11.932641
_cell_angle_alpha 90.000000
_cell_angle_beta 90.000000
_cell_angle_gamma 90.000000
_cell_volume 2487.466560
_symmetry_space_group_name_H-M "P N M A"
_symmetry_group_IT_number 62
_symmetry_cell_setting 'orthorhombic'
loop_
_space_group_symop_operation_xyz
x,y,z
1/2-x,-y,1/2+z
1/2+x,1/2-y,1/2-z
-x,1/2+y,-z
-x,-y,-z
1/2+x,y,1/2-z
1/2-x,1/2+y,1/2+z
x,1/2-y,z
loop_
_atom_site_type_symbol
_atom_site_label
_atom_site_fract_x
_atom_site_fract_y
_atom_site_fract_z
Si Si1 0.626938 0.574630 0.483184
Si Si2 0.160164 0.429019 0.600601
Si Si3 0.357217 0.572157 0.852376
Si Si4 0.081640 0.925059 0.774405
Si Si5 0.546626 0.428264 0.311297
Si Si6 0.277961 0.570777 0.654277
O O1 0.633801 0.750000 0.453975
O O2 0.618659 0.548409 0.614808
O O3 0.571870 0.511448 0.419491
O O4 0.684467 0.488988 0.449144
O O5 0.167082 0.250000 0.599247
O O6 0.150462 0.497540 0.475913
O O7 0.106386 0.474592 0.674734
O O8 0.215804 0.502225 0.653304
O O9 0.354400 0.750000 0.864045
O O10 0.417591 0.524213 0.799055
O O11 0.306907 0.517018 0.770428
O O12 0.082382 0.750000 0.738573
O O13 0.017600 0.981069 0.794528
O O14 0.551441 0.250000 0.334050
O O15 0.274451 0.750000 0.645799
#
# Coordination Sequence:
#
# PCOD8252828 Si02
#       6
#     8   8   8   8   8   8
#     4  10  20  35  57  86 116 146 184 236 287 326
#     4  11  23  37  55  83 113 146 188 234 281 333
#     4   8  18  37  58  78 107 144 181 229 283 329
#     4  10  22  37  55  83 118 152 187 230 281 337
#     4   9  18  37  61  82 110 152 193 228 280 339
#     4  10  21  39  60  80 108 148 188 229 285 344
#
# _framework density 19.296741000000001
#
# number of rings (size 3 to 8) (size 9 to 14) (size 15 to 20)
#    0.000    2.333    0.000    3.000    2.333    2.667 
#    0.000    7.500    0.000    0.000    0.000    0.000 
#    0.000    0.000    0.000    0.000    0.000    0.000 
#
# Total GULP energy -595285.527541 kJ/mol
# GULP energy per Si atom -12401.781824 kJ/mol
# Density = 1.925282 g / cm^3
# Si number density = 19.296741 Si / 1000 Ang^3
#
#
#
# Elastic Constant Matrix: (Units=GPa)
#
#
# Indices 1 2 3 4 5 6 
#
# 1 67.1718 20.3333 14.9038 0.0000 0.0000 0.0000
# 2 20.3333 61.6372 28.9766 0.0000 0.0000 0.0000
# 3 14.9038 28.9766 97.2600 0.0000 0.0000 0.0000
# 4 0.0000 0.0000 0.0000 25.6617 0.0000 0.0000
# 5 0.0000 0.0000 0.0000 0.0000 21.2448 0.0000
# 6 0.0000 0.0000 0.0000 0.0000 0.0000 33.8335
#
#
#
# Elastic Compliance Matrix: (Units=1/GPa)
#
#
# Indices 1 2 3 4 5 6 
#
# 1 0.016633 -0.004987 -0.001063 0.000000 0.000000 0.000000
# 2 -0.004987 0.020362 -0.005302 0.000000 0.000000 0.000000
# 3 -0.001063 -0.005302 0.012024 0.000000 0.000000 0.000000
# 4 0.000000 0.000000 0.000000 0.038969 0.000000 0.000000
# 5 0.000000 0.000000 0.000000 0.000000 0.047070 0.000000
# 6 0.000000 0.000000 0.000000 0.000000 0.000000 0.029557
#
#
# Mechanical properties :
#
#
# Convention : Reuss Voigt Hill
#
# Bulk Modulus (GPa) = 38.00227 39.38849 38.69538
# Shear Modulus (GPa) = 25.49846 26.93833 26.21840
#
# Velocity S-wave (km/s) = 3.63903 3.74037 3.69005
# Velocity P-wave (km/s) = 6.11499 6.25381 6.18479
#
# Compressibility (1/GPa) = 0.02631422
#
# Stress axis : x y z
#
# Youngs Moduli (GPa) = 60.12251 49.11145 83.16513
#
# Poissons Ratio (x) = 0.24493 0.08840
# Poissons Ratio (y) = 0.29985 0.44096
# Poissons Ratio (z) = 0.06390 0.26040
#
# Static dielectric constant tensor:
#      x y z
#    x 3.596360 0.000000 0.000000 
#    y 0.000000 3.371140 0.000000 
#    z 0.000000 0.000000 3.717490 
# 
# 
# High freq. dielectric constant tensor:
#      x y z
#    x 1.758170 0.000000 0.000000 
#    y 0.000000 1.738160 0.000000 
#    z 0.000000 0.000000 1.753660 
# 
# From -- ./inp_files/15088.got.cif
#   From: 2010.03.12/outbox.cif.g09.slc.cpg/sg62_8_cif.got.tgz:15088.got - 2010.04.10 19:12:36.
