data_PCOD8252567
_publ_section_title
;
Structure prediction by ZEFSAII (Michael W. Deem and Ramdas Pophale) SiO2 
 PCOD8252567
Probable space group: P N M A
;
_chemical_formula_sum "Si O2"
_cell_formula_units_Z 48
_cell_length_a 7.766881
_cell_length_b 13.768959
_cell_length_c 21.943015
_cell_angle_alpha 90.000000
_cell_angle_beta 90.000000
_cell_angle_gamma 90.000000
_cell_volume 2346.626971
_symmetry_space_group_name_H-M "P N M A"
_symmetry_group_IT_number 62
_symmetry_cell_setting 'orthorhombic'
loop_
_space_group_symop_operation_xyz
x,y,z
1/2-x,-y,1/2+z
1/2+x,1/2-y,1/2-z
-x,1/2+y,-z
-x,-y,-z
1/2+x,y,1/2-z
1/2-x,1/2+y,1/2+z
x,1/2-y,z
loop_
_atom_site_type_symbol
_atom_site_label
_atom_site_fract_x
_atom_site_fract_y
_atom_site_fract_z
Si Si1 0.228303 0.504247 0.374188
Si Si2 0.741846 0.639144 0.012112
Si Si3 0.920313 0.139515 0.715238
Si Si4 0.400409 0.960074 0.592735
Si Si5 0.427990 0.358057 0.108127
Si Si6 0.789461 0.359380 0.842794
O O1 0.190530 0.581057 0.427949
O O2 0.222588 0.567249 0.312637
O O3 0.408494 0.447777 0.380899
O O4 0.083033 0.423183 0.369377
O O5 0.800062 0.750000 0.027502
O O6 0.894865 0.578354 0.977551
O O7 0.577851 0.641691 0.966247
O O8 0.861741 0.250000 0.701981
O O9 0.926740 0.124195 0.788165
O O10 0.102378 0.116096 0.684297
O O11 0.341908 0.072832 0.600191
O O12 0.259472 0.897419 0.631511
O O13 0.455251 0.250000 0.133979
O O14 0.795884 0.250000 0.868080
#
# Coordination Sequence:
#
# PCOD8252567 Si02
#       6
#     8   8   8   8   8   8
#     4  12  20  35  62  85 114 155 190 228 294 341
#     4   9  20  38  56  82 119 150 188 240 280 334
#     4  10  20  34  56  87 120 150 183 231 284 342
#     4  10  21  37  55  82 113 153 190 231 281 332
#     4   9  21  38  56  80 113 147 192 238 275 331
#     4  10  20  36  56  86 121 151 188 231 283 341
#
# _framework density 20.454889999999999
#
# number of rings (size 3 to 8) (size 9 to 14) (size 15 to 20)
#    1.000    1.000    1.667    2.500    0.000    4.000 
#    0.000    0.833    0.000    2.000    0.000    0.000 
#    0.000    0.000    0.000    0.000    0.000    0.000 
#
# Total GULP energy -594724.954852 kJ/mol
# GULP energy per Si atom -12390.103226 kJ/mol
# Density = 2.040833 g / cm^3
# Si number density = 20.454890 Si / 1000 Ang^3
#
#
#
# Elastic Constant Matrix: (Units=GPa)
#
#
# Indices 1 2 3 4 5 6 
#
# 1 83.6782 37.8134 0.3528 0.0000 0.0000 0.0000
# 2 37.8134 136.9928 32.8001 0.0000 0.0000 0.0000
# 3 0.3528 32.8001 31.5953 0.0000 0.0000 0.0000
# 4 0.0000 0.0000 0.0000 26.7231 0.0000 0.0000
# 5 0.0000 0.0000 0.0000 0.0000 17.8442 0.0000
# 6 0.0000 0.0000 0.0000 0.0000 0.0000 16.1730
#
#
#
# Elastic Compliance Matrix: (Units=1/GPa)
#
#
# Indices 1 2 3 4 5 6 
#
# 1 0.014275 -0.005193 0.005231 0.000000 0.000000 0.000000
# 2 -0.005193 0.011603 -0.011988 0.000000 0.000000 0.000000
# 3 0.005231 -0.011988 0.044037 0.000000 0.000000 0.000000
# 4 0.000000 0.000000 0.000000 0.037421 0.000000 0.000000
# 5 0.000000 0.000000 0.000000 0.000000 0.056041 0.000000
# 6 0.000000 0.000000 0.000000 0.000000 0.000000 0.061831
#
#
# Mechanical properties :
#
#
# Convention : Reuss Voigt Hill
#
# Bulk Modulus (GPa) = 21.73115 43.79987 32.76551
# Shear Modulus (GPa) = 18.90753 24.23474 21.57114
#
# Velocity S-wave (km/s) = 3.04361 3.44581 3.25094
# Velocity P-wave (km/s) = 4.79567 6.10663 5.49042
#
# Compressibility (1/GPa) = 0.04601690
#
# Stress axis : x y z
#
# Youngs Moduli (GPa) = 70.05212 86.18296 22.70830
#
# Poissons Ratio (x) = 0.44753 -0.11880
# Poissons Ratio (y) = 0.36377 0.27222
# Poissons Ratio (z) = -0.36648 1.03314
#
# Static dielectric constant tensor:
#      x y z
#    x 3.608240 0.000000 0.000000 
#    y 0.000000 3.740240 0.000000 
#    z 0.000000 0.000000 3.400790 
# 
# 
# High freq. dielectric constant tensor:
#      x y z
#    x 1.794740 0.000000 0.000000 
#    y 0.000000 1.802330 0.000000 
#    z 0.000000 0.000000 1.766340 
# 
# From -- ./inp_files/28800.got.cif
#   From: 2010.03.12/outbox.cif.g09.slc.cpg/sg62_15_cif.got.tgz:28800.got - 2010.04.10 19:12:36.
