data_PCOD8252632
_publ_section_title
;
Structure prediction by ZEFSAII (Michael W. Deem and Ramdas Pophale) SiO2 
 PCOD8252632
Probable space group: P N M A
;
_chemical_formula_sum "Si O2"
_cell_formula_units_Z 48
_cell_length_a 9.475940
_cell_length_b 18.907471
_cell_length_c 15.049875
_cell_angle_alpha 90.000000
_cell_angle_beta 90.000000
_cell_angle_gamma 90.000000
_cell_volume 2696.426818
_symmetry_space_group_name_H-M "P N M A"
_symmetry_group_IT_number 62
_symmetry_cell_setting 'orthorhombic'
loop_
_space_group_symop_operation_xyz
x,y,z
1/2-x,-y,1/2+z
1/2+x,1/2-y,1/2-z
-x,1/2+y,-z
-x,-y,-z
1/2+x,y,1/2-z
1/2-x,1/2+y,1/2+z
x,1/2-y,z
loop_
_atom_site_type_symbol
_atom_site_label
_atom_site_fract_x
_atom_site_fract_y
_atom_site_fract_z
Si Si1 0.094656 0.459202 0.429044
Si Si2 0.258186 0.671136 0.391050
Si Si3 0.950897 0.472063 0.754847
Si Si4 0.107131 0.023868 0.926782
Si Si5 0.946800 0.830005 0.461747
Si Si6 0.807094 0.879317 0.294595
O O1 0.252043 0.482802 0.447553
O O2 0.079387 0.376279 0.450170
O O3 0.000000 0.500000 0.500000
O O4 0.057264 0.472167 0.325962
O O5 0.302950 0.750000 0.425127
O O6 0.364503 0.609245 0.424850
O O7 0.261149 0.674050 0.283460
O O8 0.100729 0.651758 0.421786
O O9 0.042046 0.504885 0.834617
O O10 0.032294 0.403433 0.720240
O O11 0.797948 0.447200 0.791570
O O12 0.000000 0.000000 0.000000
O O13 0.940523 0.750000 0.494234
O O14 0.818337 0.842424 0.390921
#
# Coordination Sequence:
#
# PCOD8252632 Si02
#       6
#     8   8   8   8   8   8
#     4  12  20  39  58  82 120 154 195 244 287 353
#     4  10  20  35  53  83 122 152 187 236 302 366
#     4  11  21  34  59  85 114 152 196 235 293 343
#     4  11  23  37  58  90 114 152 201 246 295 347
#     4  11  22  35  59  87 118 161 197 241 305 366
#     4  11  17  36  52  87 117 149 188 233 298 351
#
# _framework density 17.801335999999999
#
# number of rings (size 3 to 8) (size 9 to 14) (size 15 to 20)
#    0.000    1.000    8.333    1.500    0.000    0.000 
#    0.000    5.000    0.000    2.000    0.000    0.000 
#    0.000    0.000    0.000    0.000    0.000    0.000 
#
# Total GULP energy -594771.860728 kJ/mol
# GULP energy per Si atom -12391.080432 kJ/mol
# Density = 1.776082 g / cm^3
# Si number density = 17.801336 Si / 1000 Ang^3
#
#
#
# Elastic Constant Matrix: (Units=GPa)
#
#
# Indices 1 2 3 4 5 6 
#
# 1 100.3218 51.0382 59.9855 0.0000 0.0000 0.0000
# 2 51.0382 113.8768 70.5608 0.0000 0.0000 0.0000
# 3 59.9855 70.5608 103.2287 0.0000 0.0000 0.0000
# 4 0.0000 0.0000 0.0000 28.1363 0.0000 0.0000
# 5 0.0000 0.0000 0.0000 0.0000 33.2214 0.0000
# 6 0.0000 0.0000 0.0000 0.0000 0.0000 24.9702
#
#
#
# Elastic Compliance Matrix: (Units=1/GPa)
#
#
# Indices 1 2 3 4 5 6 
#
# 1 0.015642 -0.002391 -0.007455 0.000000 0.000000 0.000000
# 2 -0.002391 0.015599 -0.009273 0.000000 0.000000 0.000000
# 3 -0.007455 -0.009273 0.020358 0.000000 0.000000 0.000000
# 4 0.000000 0.000000 0.000000 0.035541 0.000000 0.000000
# 5 0.000000 0.000000 0.000000 0.000000 0.030101 0.000000
# 6 0.000000 0.000000 0.000000 0.000000 0.000000 0.040048
#
#
# Mechanical properties :
#
#
# Convention : Reuss Voigt Hill
#
# Bulk Modulus (GPa) = 74.84862 75.62182 75.23522
# Shear Modulus (GPa) = 25.00248 26.32176 25.66212
#
# Velocity S-wave (km/s) = 3.75177 3.84948 3.80094
# Velocity P-wave (km/s) = 7.80420 7.89501 7.84974
#
# Compressibility (1/GPa) = 0.01336030
#
# Stress axis : x y z
#
# Youngs Moduli (GPa) = 63.93045 64.10724 49.12178
#
# Poissons Ratio (x) = 0.15330 0.36620
# Poissons Ratio (y) = 0.15288 0.45550
# Poissons Ratio (z) = 0.47660 0.59446
#
# Static dielectric constant tensor:
#      x y z
#    x 3.334870 0.000000 0.000000 
#    y 0.000000 3.057700 0.000000 
#    z 0.000000 0.000000 3.099070 
# 
# 
# High freq. dielectric constant tensor:
#      x y z
#    x 1.701830 0.000000 0.000000 
#    y 0.000000 1.664580 0.000000 
#    z 0.000000 0.000000 1.675500 
# 
# From -- ./inp_files/16964.got.cif
#   From: 2010.03.12/outbox.cif.g09.slc.cpg/sg62_9_cif.got.tgz:16964.got - 2010.04.10 19:12:36.
