data_PCOD8252639
_publ_section_title
;
Structure prediction by ZEFSAII (Michael W. Deem and Ramdas Pophale) SiO2 
 PCOD8252639
Probable space group: P N M A
;
_chemical_formula_sum "Si O2"
_cell_formula_units_Z 64
_cell_length_a 16.636245
_cell_length_b 9.226238
_cell_length_c 21.849600
_cell_angle_alpha 90.000000
_cell_angle_beta 90.000000
_cell_angle_gamma 90.000000
_cell_volume 3353.694138
_symmetry_space_group_name_H-M "P N M A"
_symmetry_group_IT_number 62
_symmetry_cell_setting 'orthorhombic'
loop_
_space_group_symop_operation_xyz
x,y,z
1/2-x,-y,1/2+z
1/2+x,1/2-y,1/2-z
-x,1/2+y,-z
-x,-y,-z
1/2+x,y,1/2-z
1/2-x,1/2+y,1/2+z
x,1/2-y,z
loop_
_atom_site_type_symbol
_atom_site_label
_atom_site_fract_x
_atom_site_fract_y
_atom_site_fract_z
Si Si1 0.095930 0.079913 0.677414
Si Si2 0.324055 0.909938 0.791646
Si Si3 0.544203 0.078245 0.686035
Si Si4 0.615487 0.087683 0.338439
Si Si5 0.067138 0.918633 0.375052
Si Si6 0.298784 0.078931 0.966578
Si Si7 0.683165 0.579697 0.623307
Si Si8 0.774336 0.418553 0.395938
O O1 0.112301 0.250000 0.677924
O O2 0.068521 0.029070 0.745326
O O3 0.026595 0.036209 0.627651
O O4 0.177115 0.003284 0.656303
O O5 0.345795 0.750000 0.816618
O O6 0.323828 0.915556 0.719000
O O7 0.236335 0.952528 0.816394
O O8 0.391759 0.016899 0.815276
O O9 0.549930 0.250000 0.678295
O O10 0.454299 0.028878 0.668991
O O11 0.599644 0.001027 0.635464
O O12 0.578741 0.250000 0.346544
O O13 0.678063 0.048623 0.392779
O O14 0.074177 0.750000 0.365153
O O15 0.114845 0.965749 0.436523
O O16 0.281462 0.250000 0.958793
O O17 0.226947 0.989765 0.935315
O O18 0.303734 0.032400 0.037055
O O19 0.668429 0.750000 0.611641
O O20 0.791138 0.250000 0.385050
#
# Coordination Sequence:
#
# PCOD8252639 Si02
#       8
#     8   8   8   8   8   8   8   8
#     4  10  21  35  53  82 116 145 178 222 274 330
#     4   9  17  30  51  78 105 136 174 217 270 325
#     4  11  22  36  55  83 113 142 179 223 276 334
#     4  10  20  35  54  77 108 141 177 225 276 325
#     4   9  17  32  53  78 110 145 178 219 267 321
#     4   9  19  37  58  79 109 149 191 230 270 320
#     4  10  20  35  57  83 109 141 182 228 276 326
#     4  10  22  38  56  80 110 148 189 229 274 325
#
# _framework density 19.083434
#
# number of rings (size 3 to 8) (size 9 to 14) (size 15 to 20)
#    0.000    2.250    1.250    1.500    0.000    4.500 
#    0.000    0.625    0.000    0.000    0.000    0.000 
#    0.000    0.000    0.000    0.000    0.000    0.000 
#
# Total GULP energy -793362.150214 kJ/mol
# GULP energy per Si atom -12396.283597 kJ/mol
# Density = 1.904000 g / cm^3
# Si number density = 19.083434 Si / 1000 Ang^3
#
#
#
# Elastic Constant Matrix: (Units=GPa)
#
#
# Indices 1 2 3 4 5 6 
#
# 1 97.6571 42.1486 29.2014 0.0000 0.0000 0.0000
# 2 42.1486 48.4346 25.5574 0.0000 0.0000 0.0000
# 3 29.2014 25.5574 51.1824 0.0000 0.0000 0.0000
# 4 0.0000 0.0000 0.0000 20.5147 0.0000 0.0000
# 5 0.0000 0.0000 0.0000 0.0000 19.9064 0.0000
# 6 0.0000 0.0000 0.0000 0.0000 0.0000 32.0555
#
#
#
# Elastic Compliance Matrix: (Units=1/GPa)
#
#
# Indices 1 2 3 4 5 6 
#
# 1 0.016752 -0.012946 -0.003093 0.000000 0.000000 0.000000
# 2 -0.012946 0.038037 -0.011607 0.000000 0.000000 0.000000
# 3 -0.003093 -0.011607 0.027099 0.000000 0.000000 0.000000
# 4 0.000000 0.000000 0.000000 0.048745 0.000000 0.000000
# 5 0.000000 0.000000 0.000000 0.000000 0.050235 0.000000
# 6 0.000000 0.000000 0.000000 0.000000 0.000000 0.031196
#
#
# Mechanical properties :
#
#
# Convention : Reuss Voigt Hill
#
# Bulk Modulus (GPa) = 37.60107 43.45432 40.52770
# Shear Modulus (GPa) = 18.10137 21.18644 19.64391
#
# Velocity S-wave (km/s) = 3.08318 3.33558 3.21186
# Velocity P-wave (km/s) = 5.69394 6.13636 5.91929
#
# Compressibility (1/GPa) = 0.02659498
#
# Stress axis : x y z
#
# Youngs Moduli (GPa) = 59.69338 26.29037 36.90200
#
# Poissons Ratio (x) = 0.34035 0.11415
# Poissons Ratio (y) = 0.77278 0.42833
# Poissons Ratio (z) = 0.18466 0.30516
#
# Static dielectric constant tensor:
#      x y z
#    x 3.476370 0.000000 0.000000 
#    y 0.000000 3.430480 0.000000 
#    z 0.000000 0.000000 3.412480 
# 
# 
# High freq. dielectric constant tensor:
#      x y z
#    x 1.741960 0.000000 0.000000 
#    y 0.000000 1.739080 0.000000 
#    z 0.000000 0.000000 1.725190 
# 
# From -- ./inp_files/27730.got.cif
#   From: 2010.03.12/outbox.cif.g09.slc.cpg/sg62_14_cif.got.tgz:27730.got - 2010.04.10 19:12:36.
