data_PCOD8252655
_publ_section_title
;
Structure prediction by ZEFSAII (Michael W. Deem and Ramdas Pophale) SiO2 
 PCOD8252655
Probable space group: P N M A
;
_chemical_formula_sum "Si O2"
_cell_formula_units_Z 56
_cell_length_a 9.428474
_cell_length_b 13.487476
_cell_length_c 22.138657
_cell_angle_alpha 90.000000
_cell_angle_beta 90.000000
_cell_angle_gamma 90.000000
_cell_volume 2815.291469
_symmetry_space_group_name_H-M "P N M A"
_symmetry_group_IT_number 62
_symmetry_cell_setting 'orthorhombic'
loop_
_space_group_symop_operation_xyz
x,y,z
1/2-x,-y,1/2+z
1/2+x,1/2-y,1/2-z
-x,1/2+y,-z
-x,-y,-z
1/2+x,y,1/2-z
1/2-x,1/2+y,1/2+z
x,1/2-y,z
loop_
_atom_site_type_symbol
_atom_site_label
_atom_site_fract_x
_atom_site_fract_y
_atom_site_fract_z
Si Si1 0.994586 0.359308 0.518709
Si Si2 0.996465 0.471807 0.069311
Si Si3 0.650259 0.363311 0.776584
Si Si4 0.954523 0.135369 0.830823
Si Si5 0.980483 0.000618 0.368564
Si Si6 0.770928 0.360772 0.417981
Si Si7 0.293942 0.635660 0.909907
O O1 0.997054 0.250000 0.548845
O O2 0.848455 0.374078 0.482418
O O3 0.001178 0.442890 0.568641
O O4 0.129252 0.368986 0.474593
O O5 0.106240 0.382719 0.077011
O O6 0.036837 0.567350 0.109835
O O7 0.849461 0.425168 0.088651
O O8 0.000000 0.500000 0.000000
O O9 0.624312 0.250000 0.794557
O O10 0.600192 0.380880 0.707370
O O11 0.534363 0.424987 0.814179
O O12 0.814134 0.391793 0.790516
O O13 0.944087 0.250000 0.852120
O O14 0.836475 0.064090 0.369565
O O15 0.110075 0.077817 0.360319
O O16 0.793783 0.250000 0.393709
O O17 0.271288 0.750000 0.889841
#
# Coordination Sequence:
#
# PCOD8252655 Si02
#       7
#     8   8   8   8   8   8   8
#     4   9  18  33  53  84 120 156 200 253 307 371
#     4  12  23  39  60  91 123 166 207 259 320 371
#     4  10  22  41  66  93 123 158 200 253 312 373
#     4  10  24  44  65  94 126 161 204 256 315 374
#     4  11  18  35  60  87 112 159 206 249 304 364
#     4  10  20  35  54  80 118 159 204 252 303 359
#     4  10  22  35  54  84 125 163 201 253 307 363
#
# _framework density 19.891368
#
# number of rings (size 3 to 8) (size 9 to 14) (size 15 to 20)
#    0.000    1.714    1.429    5.571    2.000    1.143 
#    0.000    0.714    0.000    5.143    0.000    0.000 
#    0.000    0.000    0.000    0.000    0.000    0.000 
#
# Total GULP energy -694132.745923 kJ/mol
# GULP energy per Si atom -12395.227606 kJ/mol
# Density = 1.984609 g / cm^3
# Si number density = 19.891368 Si / 1000 Ang^3
#
#
#
# Elastic Constant Matrix: (Units=GPa)
#
#
# Indices 1 2 3 4 5 6 
#
# 1 110.0256 36.4899 25.9004 0.0000 0.0000 0.0000
# 2 36.4899 119.1976 41.3061 0.0000 0.0000 0.0000
# 3 25.9004 41.3061 72.8490 0.0000 0.0000 0.0000
# 4 0.0000 0.0000 0.0000 28.0406 0.0000 0.0000
# 5 0.0000 0.0000 0.0000 0.0000 12.8536 0.0000
# 6 0.0000 0.0000 0.0000 0.0000 0.0000 37.4562
#
#
#
# Elastic Compliance Matrix: (Units=1/GPa)
#
#
# Indices 1 2 3 4 5 6 
#
# 1 0.010433 -0.002375 -0.002362 0.000000 0.000000 0.000000
# 2 -0.002375 0.010982 -0.005382 0.000000 0.000000 0.000000
# 3 -0.002362 -0.005382 0.017619 0.000000 0.000000 0.000000
# 4 0.000000 0.000000 0.000000 0.035663 0.000000 0.000000
# 5 0.000000 0.000000 0.000000 0.000000 0.077799 0.000000
# 6 0.000000 0.000000 0.000000 0.000000 0.000000 0.026698
#
#
# Mechanical properties :
#
#
# Convention : Reuss Voigt Hill
#
# Bulk Modulus (GPa) = 53.21016 56.60721 54.90869
# Shear Modulus (GPa) = 24.30761 28.89513 26.60137
#
# Velocity S-wave (km/s) = 3.49953 3.81550 3.66092
# Velocity P-wave (km/s) = 6.56791 6.92320 6.74789
#
# Compressibility (1/GPa) = 0.01879340
#
# Stress axis : x y z
#
# Youngs Moduli (GPa) = 95.85322 91.06090 56.75758
#
# Poissons Ratio (x) = 0.21627 0.13409
# Poissons Ratio (y) = 0.22766 0.30549
# Poissons Ratio (z) = 0.22645 0.49012
#
# Static dielectric constant tensor:
#      x y z
#    x 3.770490 0.000000 0.000000 
#    y 0.000000 3.949780 0.000000 
#    z 0.000000 0.000000 3.213490 
# 
# 
# High freq. dielectric constant tensor:
#      x y z
#    x 1.786030 0.000000 0.000000 
#    y 0.000000 1.797230 0.000000 
#    z 0.000000 0.000000 1.731680 
# 
# From -- ./inp_files/26013.got.cif
#   From: 2010.03.12/outbox.cif.g09.slc.cpg/sg62_14_cif.got.tgz:26013.got - 2010.04.10 19:12:36.
