data_PCOD8252513
_publ_section_title
;
Structure prediction by ZEFSAII (Michael W. Deem and Ramdas Pophale) SiO2 
 PCOD8252513
Probable space group: P N M A
;
_chemical_formula_sum "Si O2"
_cell_formula_units_Z 56
_cell_length_a 20.832253
_cell_length_b 8.916946
_cell_length_c 15.213352
_cell_angle_alpha 90.000000
_cell_angle_beta 90.000000
_cell_angle_gamma 90.000000
_cell_volume 2826.033409
_symmetry_space_group_name_H-M "P N M A"
_symmetry_group_IT_number 62
_symmetry_cell_setting 'orthorhombic'
loop_
_space_group_symop_operation_xyz
x,y,z
1/2-x,-y,1/2+z
1/2+x,1/2-y,1/2-z
-x,1/2+y,-z
-x,-y,-z
1/2+x,y,1/2-z
1/2-x,1/2+y,1/2+z
x,1/2-y,z
loop_
_atom_site_type_symbol
_atom_site_label
_atom_site_fract_x
_atom_site_fract_y
_atom_site_fract_z
Si Si1 0.469846 0.921264 0.722570
Si Si2 0.029718 0.413848 0.617951
Si Si3 0.688520 0.572814 0.503939
Si Si4 0.335441 0.072381 0.693368
Si Si5 0.198519 0.071125 0.370030
Si Si6 0.403546 0.085559 0.983751
Si Si7 0.551899 0.920477 0.557621
O O1 0.445778 0.750000 0.730849
O O2 0.530075 0.935799 0.657550
O O3 0.499578 0.974945 0.812485
O O4 0.409516 0.020648 0.692688
O O5 0.049184 0.250000 0.657276
O O6 0.093233 0.490181 0.574552
O O7 0.976372 0.386432 0.544339
O O8 0.688963 0.750000 0.513442
O O9 0.696059 0.528047 0.400949
O O10 0.745660 0.509279 0.565121
O O11 0.621996 0.506187 0.542794
O O12 0.334263 0.250000 0.708863
O O13 0.294514 0.992956 0.770863
O O14 0.196873 0.250000 0.365587
O O15 0.132297 0.008710 0.408661
O O16 0.371083 0.250000 0.998468
O O17 0.554957 0.750000 0.525407
O O18 0.500000 0.000000 0.500000
#
# Coordination Sequence:
#
# PCOD8252513 Si02
#       7
#     8   8   8   8   8   8   8
#     4  11  21  33  57  89 119 149 192 241 292 351
#     4  10  20  34  55  82 117 155 194 238 294 347
#     4   9  21  41  62  83 118 159 194 242 300 355
#     4  11  21  38  63  86 113 153 199 241 293 354
#     4  11  22  39  62  86 118 159 202 244 296 359
#     4  10  20  35  56  83 115 151 193 243 293 345
#     4  10  20  37  60  87 117 150 190 240 297 350
#
# _framework density 19.815760999999998
#
# number of rings (size 3 to 8) (size 9 to 14) (size 15 to 20)
#    0.000    1.714    2.857    2.143    0.000    1.714 
#    2.571    4.286    0.000    0.000    0.000    0.000 
#    0.000    0.000    0.000    0.000    0.000    0.000 
#
# Total GULP energy -694147.443539 kJ/mol
# GULP energy per Si atom -12395.490063 kJ/mol
# Density = 1.977066 g / cm^3
# Si number density = 19.815761 Si / 1000 Ang^3
#
#
#
# Elastic Constant Matrix: (Units=GPa)
#
#
# Indices 1 2 3 4 5 6 
#
# 1 69.7063 35.1210 56.9771 0.0000 0.0000 0.0000
# 2 35.1210 95.0864 46.3954 0.0000 0.0000 0.0000
# 3 56.9771 46.3954 117.8896 0.0000 0.0000 0.0000
# 4 0.0000 0.0000 0.0000 28.8225 0.0000 0.0000
# 5 0.0000 0.0000 0.0000 0.0000 36.7446 0.0000
# 6 0.0000 0.0000 0.0000 0.0000 0.0000 20.9685
#
#
#
# Elastic Compliance Matrix: (Units=1/GPa)
#
#
# Indices 1 2 3 4 5 6 
#
# 1 0.024956 -0.004125 -0.010438 0.000000 0.000000 0.000000
# 2 -0.004125 0.013698 -0.003397 0.000000 0.000000 0.000000
# 3 -0.010438 -0.003397 0.014864 0.000000 0.000000 0.000000
# 4 0.000000 0.000000 0.000000 0.034695 0.000000 0.000000
# 5 0.000000 0.000000 0.000000 0.000000 0.027215 0.000000
# 6 0.000000 0.000000 0.000000 0.000000 0.000000 0.047691
#
#
# Mechanical properties :
#
#
# Convention : Reuss Voigt Hill
#
# Bulk Modulus (GPa) = 56.82464 62.18549 59.50506
# Shear Modulus (GPa) = 24.40146 26.91969 25.66057
#
# Velocity S-wave (km/s) = 3.51296 3.68978 3.60246
# Velocity P-wave (km/s) = 6.72259 7.04291 6.88462
#
# Compressibility (1/GPa) = 0.01759800
#
# Stress axis : x y z
#
# Youngs Moduli (GPa) = 40.07018 73.00396 67.27459
#
# Poissons Ratio (x) = 0.30112 0.70223
# Poissons Ratio (y) = 0.16528 0.22855
# Poissons Ratio (z) = 0.41826 0.24802
#
# Static dielectric constant tensor:
#      x y z
#    x 4.334360 0.000000 0.000000 
#    y 0.000000 3.792010 0.000000 
#    z 0.000000 0.000000 3.172030 
# 
# 
# High freq. dielectric constant tensor:
#      x y z
#    x 1.749320 0.000000 0.000000 
#    y 0.000000 1.774370 0.000000 
#    z 0.000000 0.000000 1.777070 
# 
# From -- ./inp_files/20288.got.cif
#   From: 2010.03.12/outbox.cif.g09.slc.cpg/sg62_11_cif.got.tgz:20288.got - 2010.04.10 19:12:36.
