data_PCOD8252664
_publ_section_title
;
Structure prediction by ZEFSAII (Michael W. Deem and Ramdas Pophale) SiO2 
 PCOD8252664
Probable space group: P N M A
;
_chemical_formula_sum "Si O2"
_cell_formula_units_Z 48
_cell_length_a 15.453499
_cell_length_b 8.780834
_cell_length_c 19.523573
_cell_angle_alpha 90.000000
_cell_angle_beta 90.000000
_cell_angle_gamma 90.000000
_cell_volume 2649.243613
_symmetry_space_group_name_H-M "P N M A"
_symmetry_group_IT_number 62
_symmetry_cell_setting 'orthorhombic'
loop_
_space_group_symop_operation_xyz
x,y,z
1/2-x,-y,1/2+z
1/2+x,1/2-y,1/2-z
-x,1/2+y,-z
-x,-y,-z
1/2+x,y,1/2-z
1/2-x,1/2+y,1/2+z
x,1/2-y,z
loop_
_atom_site_type_symbol
_atom_site_label
_atom_site_fract_x
_atom_site_fract_y
_atom_site_fract_z
Si Si1 0.573430 0.571084 0.300892
Si Si2 0.569732 0.069300 0.449761
Si Si3 0.931831 0.928789 0.448943
Si Si4 0.935414 0.069405 0.300238
Si Si5 0.740634 0.582509 0.955937
Si Si6 0.745972 0.417687 0.293918
O O1 0.559696 0.750000 0.302569
O O2 0.556983 0.503747 0.375597
O O3 0.506168 0.495957 0.250018
O O4 0.670199 0.534179 0.273030
O O5 0.558608 0.250000 0.442808
O O6 0.664479 0.028124 0.481439
O O7 0.500000 0.000000 0.500000
O O8 0.944247 0.750000 0.446163
O O9 0.948604 0.996792 0.374413
O O10 0.835096 0.966306 0.476923
O O11 0.000000 0.000000 0.500000
O O12 0.944663 0.250000 0.307799
O O13 0.840698 0.026851 0.268600
O O14 0.718151 0.750000 0.985962
O O15 0.747638 0.594510 0.874941
O O16 0.723709 0.250000 0.263854
#
# Coordination Sequence:
#
# PCOD8252664 Si02
#       6
#     8   8   8   8   8   8
#     4  11  21  33  53  80 108 137 171 212 257 308
#     4  10  20  35  55  78 106 138 173 214 257 304
#     4  11  21  34  54  79 106 136 172 213 257 307
#     4  10  20  36  56  77 104 137 174 215 257 303
#     4   8  16  32  52  74 101 135 173 210 251 303
#     4   8  16  32  53  74  99 135 174 210 251 303
#
# _framework density 18.118378
#
# number of rings (size 3 to 8) (size 9 to 14) (size 15 to 20)
#    0.000    2.333    0.000    6.000    0.000    7.333 
#    0.000    1.667    0.000    8.000    0.000    0.000 
#    0.000    0.000    0.000    0.000    0.000    0.000 
#
# Total GULP energy -594957.356901 kJ/mol
# GULP energy per Si atom -12394.944935 kJ/mol
# Density = 1.807714 g / cm^3
# Si number density = 18.118378 Si / 1000 Ang^3
#
#
#
# Elastic Constant Matrix: (Units=GPa)
#
#
# Indices 1 2 3 4 5 6 
#
# 1 161.8928 65.5054 56.6691 0.0000 0.0000 0.0000
# 2 65.5054 109.7198 31.9169 0.0000 0.0000 0.0000
# 3 56.6691 31.9169 51.8216 0.0000 0.0000 0.0000
# 4 0.0000 0.0000 0.0000 27.8883 0.0000 0.0000
# 5 0.0000 0.0000 0.0000 0.0000 27.8660 0.0000
# 6 0.0000 0.0000 0.0000 0.0000 0.0000 31.9617
#
#
#
# Elastic Compliance Matrix: (Units=1/GPa)
#
#
# Indices 1 2 3 4 5 6 
#
# 1 0.011170 -0.003796 -0.009877 0.000000 0.000000 0.000000
# 2 -0.003796 0.012393 -0.003482 0.000000 0.000000 0.000000
# 3 -0.009877 -0.003482 0.032243 0.000000 0.000000 0.000000
# 4 0.000000 0.000000 0.000000 0.035857 0.000000 0.000000
# 5 0.000000 0.000000 0.000000 0.000000 0.035886 0.000000
# 6 0.000000 0.000000 0.000000 0.000000 0.000000 0.031287
#
#
# Mechanical properties :
#
#
# Convention : Reuss Voigt Hill
#
# Bulk Modulus (GPa) = 46.52058 70.17970 58.35014
# Shear Modulus (GPa) = 24.96093 28.83272 26.89682
#
# Velocity S-wave (km/s) = 3.71571 3.99350 3.85711
# Velocity P-wave (km/s) = 6.64382 7.75127 7.21881
#
# Compressibility (1/GPa) = 0.02149586
#
# Stress axis : x y z
#
# Youngs Moduli (GPa) = 89.52392 80.68948 31.01444
#
# Poissons Ratio (x) = 0.30627 0.30634
# Poissons Ratio (y) = 0.33980 0.10800
# Poissons Ratio (z) = 0.88426 0.28099
#
# Static dielectric constant tensor:
#      x y z
#    x 3.958060 0.000000 0.000000 
#    y 0.000000 3.369120 0.000000 
#    z 0.000000 0.000000 2.410820 
# 
# 
# High freq. dielectric constant tensor:
#      x y z
#    x 1.723170 0.000000 0.000000 
#    y 0.000000 1.710740 0.000000 
#    z 0.000000 0.000000 1.659910 
# 
# From -- ./inp_files/26886.got.cif
#   From: 2010.03.12/outbox.cif.g09.slc.cpg/sg62_14_cif.got.tgz:26886.got - 2010.04.10 19:12:36.
