data_PCOD8252654
_publ_section_title
;
Structure prediction by ZEFSAII (Michael W. Deem and Ramdas Pophale) SiO2 
 PCOD8252654
Probable space group: P N M A
;
_chemical_formula_sum "Si O2"
_cell_formula_units_Z 64
_cell_length_a 11.888219
_cell_length_b 9.389756
_cell_length_c 30.384335
_cell_angle_alpha 90.000000
_cell_angle_beta 90.000000
_cell_angle_gamma 90.000000
_cell_volume 3391.726616
_symmetry_space_group_name_H-M "P N M A"
_symmetry_group_IT_number 62
_symmetry_cell_setting 'orthorhombic'
loop_
_space_group_symop_operation_xyz
x,y,z
1/2-x,-y,1/2+z
1/2+x,1/2-y,1/2-z
-x,1/2+y,-z
-x,-y,-z
1/2+x,y,1/2-z
1/2-x,1/2+y,1/2+z
x,1/2-y,z
loop_
_atom_site_type_symbol
_atom_site_label
_atom_site_fract_x
_atom_site_fract_y
_atom_site_fract_z
Si Si1 0.282815 0.412824 0.702854
Si Si2 0.224264 0.585082 0.053826
Si Si3 0.612976 0.083661 0.870982
Si Si4 0.739765 0.913662 0.544933
Si Si5 0.504467 0.086120 0.325023
Si Si6 0.504849 0.412101 0.427263
Si Si7 0.638344 0.580762 0.119698
Si Si8 0.204463 0.085800 0.800124
O O1 0.319060 0.250000 0.692994
O O2 0.168100 0.448857 0.676468
O O3 0.376260 0.518912 0.685732
O O4 0.267885 0.437364 0.754393
O O5 0.201335 0.750000 0.064056
O O6 0.309943 0.518538 0.089792
O O7 0.104432 0.510227 0.056128
O O8 0.278086 0.564319 0.005532
O O9 0.602273 0.250000 0.879655
O O10 0.487314 0.019651 0.872106
O O11 0.754798 0.750000 0.560141
O O12 0.608837 0.957514 0.547852
O O13 0.816084 0.013322 0.574939
O O14 0.505925 0.250000 0.310610
O O15 0.479454 0.066015 0.376102
O O16 0.407785 0.006759 0.298053
O O17 0.538451 0.250000 0.437754
O O18 0.639924 0.750000 0.114569
O O19 0.713867 0.532658 0.161032
O O20 0.170170 0.250000 0.806720
#
# Coordination Sequence:
#
# PCOD8252654 Si02
#       8
#     8   8   8   8   8   8   8   8
#     4  10  21  38  62  86 113 147 190 238 279 329
#     4  10  20  35  58  83 109 146 189 230 279 337
#     4   9  19  36  56  81 111 142 180 235 285 323
#     4  10  21  37  55  80 113 148 185 228 282 337
#     4  11  22  37  59  85 119 152 181 227 285 341
#     4  10  20  35  54  80 116 148 180 228 280 329
#     4  10  21  37  56  80 110 144 187 233 279 331
#     4  10  22  37  60  87 110 146 192 234 276 330
#
# _framework density 18.869446
#
# number of rings (size 3 to 8) (size 9 to 14) (size 15 to 20)
#    0.000    2.000    2.500    0.750    1.750    2.500 
#    0.000    1.250    0.000    0.000    0.000    0.000 
#    0.000    0.000    0.000    0.000    0.000    0.000 
#
# Total GULP energy -793761.770325 kJ/mol
# GULP energy per Si atom -12402.527661 kJ/mol
# Density = 1.882650 g / cm^3
# Si number density = 18.869446 Si / 1000 Ang^3
#
#
#
# Elastic Constant Matrix: (Units=GPa)
#
#
# Indices 1 2 3 4 5 6 
#
# 1 100.0470 33.3136 23.8553 0.0000 0.0000 0.0000
# 2 33.3136 53.1044 22.2143 0.0000 0.0000 0.0000
# 3 23.8553 22.2143 80.6501 0.0000 0.0000 0.0000
# 4 0.0000 0.0000 0.0000 24.5450 0.0000 0.0000
# 5 0.0000 0.0000 0.0000 0.0000 22.3607 0.0000
# 6 0.0000 0.0000 0.0000 0.0000 0.0000 24.7438
#
#
#
# Elastic Compliance Matrix: (Units=1/GPa)
#
#
# Indices 1 2 3 4 5 6 
#
# 1 0.012858 -0.007319 -0.001788 0.000000 0.000000 0.000000
# 2 -0.007319 0.025449 -0.004845 0.000000 0.000000 0.000000
# 3 -0.001788 -0.004845 0.014262 0.000000 0.000000 0.000000
# 4 0.000000 0.000000 0.000000 0.040742 0.000000 0.000000
# 5 0.000000 0.000000 0.000000 0.000000 0.044721 0.000000
# 6 0.000000 0.000000 0.000000 0.000000 0.000000 0.040414
#
#
# Mechanical properties :
#
#
# Convention : Reuss Voigt Hill
#
# Bulk Modulus (GPa) = 40.53911 43.61866 42.07888
# Shear Modulus (GPa) = 23.30228 24.62444 23.96336
#
# Velocity S-wave (km/s) = 3.51796 3.61638 3.56751
# Velocity P-wave (km/s) = 6.16701 6.37211 6.27040
#
# Compressibility (1/GPa) = 0.02466754
#
# Stress axis : x y z
#
# Youngs Moduli (GPa) = 77.76963 39.29476 70.11425
#
# Poissons Ratio (x) = 0.28759 0.12533
# Poissons Ratio (y) = 0.56917 0.33969
# Poissons Ratio (z) = 0.13901 0.19038
#
# Static dielectric constant tensor:
#      x y z
#    x 3.476480 0.000000 0.000000 
#    y 0.000000 3.300170 0.000000 
#    z 0.000000 0.000000 3.619440 
# 
# 
# High freq. dielectric constant tensor:
#      x y z
#    x 1.733790 0.000000 0.000000 
#    y 0.000000 1.712870 0.000000 
#    z 0.000000 0.000000 1.743890 
# 
# From -- ./inp_files/32597.got.cif
#   From: 2010.03.12/outbox.cif.g09.slc.cpg/sg62_17_cif.got.tgz:32597.got - 2010.04.10 19:12:36.
