data_PCOD8252366
_publ_section_title
;
Structure prediction by ZEFSAII (Michael W. Deem and Ramdas Pophale) SiO2 
 PCOD8252366
Probable space group: P N M A
;
_chemical_formula_sum "Si O2"
_cell_formula_units_Z 32
_cell_length_a 5.002496
_cell_length_b 25.909269
_cell_length_c 12.676890
_cell_angle_alpha 90.000000
_cell_angle_beta 90.000000
_cell_angle_gamma 90.000000
_cell_volume 1643.064574
_symmetry_space_group_name_H-M "P N M A"
_symmetry_group_IT_number 62
_symmetry_cell_setting 'orthorhombic'
loop_
_space_group_symop_operation_xyz
x,y,z
1/2-x,-y,1/2+z
1/2+x,1/2-y,1/2-z
-x,1/2+y,-z
-x,-y,-z
1/2+x,y,1/2-z
1/2-x,1/2+y,1/2+z
x,1/2-y,z
loop_
_atom_site_type_symbol
_atom_site_label
_atom_site_fract_x
_atom_site_fract_y
_atom_site_fract_z
Si Si1 0.659049 0.095814 0.548401
Si Si2 0.198891 0.571578 0.685680
Si Si3 0.457918 0.808316 0.319591
Si Si4 0.630467 0.467368 0.906600
O O1 0.758271 0.097429 0.428014
O O2 0.592728 0.153698 0.583041
O O3 0.399300 0.060108 0.555551
O O4 0.899124 0.074074 0.624432
O O5 0.418250 0.590948 0.768785
O O6 0.203673 0.508622 0.683587
O O7 0.753491 0.818543 0.275879
O O8 0.425897 0.750000 0.362581
O O9 0.500000 0.500000 0.000000
#
# Coordination Sequence:
#
# PCOD8252366 Si02
#       4
#     8   8   8   8
#     4  11  21  36  56  78 108 144 182 221 268 323
#     4  11  21  33  50  76 111 145 175 210 254 311
#     4  10  22  39  59  83 107 135 178 232 285 327
#     4  10  20  34  50  75 108 144 182 217 253 307
#
# _framework density 19.475801000000001
#
# number of rings (size 3 to 8) (size 9 to 14) (size 15 to 20)
#    0.000    1.500    0.000    9.000    0.000    6.000 
#    0.000    0.000    0.000    1.500    0.000    0.000 
#    0.000    0.000    0.000    0.000    0.000    0.000 
#
# Total GULP energy -396745.487939 kJ/mol
# GULP energy per Si atom -12398.296498 kJ/mol
# Density = 1.943147 g / cm^3
# Si number density = 19.475801 Si / 1000 Ang^3
#
#
#
# Elastic Constant Matrix: (Units=GPa)
#
#
# Indices 1 2 3 4 5 6 
#
# 1 113.1442 15.7934 18.8836 0.0000 0.0000 0.0000
# 2 15.7934 85.6302 39.5499 0.0000 0.0000 0.0000
# 3 18.8836 39.5499 58.1243 0.0000 0.0000 0.0000
# 4 0.0000 0.0000 0.0000 29.2885 0.0000 0.0000
# 5 0.0000 0.0000 0.0000 0.0000 26.1756 0.0000
# 6 0.0000 0.0000 0.0000 0.0000 0.0000 24.5967
#
#
#
# Elastic Compliance Matrix: (Units=1/GPa)
#
#
# Indices 1 2 3 4 5 6 
#
# 1 0.009358 -0.000469 -0.002721 0.000000 0.000000 0.000000
# 2 -0.000469 0.017054 -0.011452 0.000000 0.000000 0.000000
# 3 -0.002721 -0.011452 0.025881 0.000000 0.000000 0.000000
# 4 0.000000 0.000000 0.000000 0.034143 0.000000 0.000000
# 5 0.000000 0.000000 0.000000 0.000000 0.038204 0.000000
# 6 0.000000 0.000000 0.000000 0.000000 0.000000 0.040656
#
#
# Mechanical properties :
#
#
# Convention : Reuss Voigt Hill
#
# Bulk Modulus (GPa) = 43.46170 45.03916 44.25043
# Shear Modulus (GPa) = 24.72214 28.19028 26.45621
#
# Velocity S-wave (km/s) = 3.56670 3.80867 3.68967
# Velocity P-wave (km/s) = 6.27104 6.52052 6.39700
#
# Compressibility (1/GPa) = 0.02300876
#
# Stress axis : x y z
#
# Youngs Moduli (GPa) = 106.86161 58.63799 38.63901
#
# Poissons Ratio (x) = 0.02751 0.10513
# Poissons Ratio (y) = 0.05014 0.44248
# Poissons Ratio (z) = 0.29077 0.67150
#
# Static dielectric constant tensor:
#      x y z
#    x 4.027230 0.000000 0.000000 
#    y 0.000000 3.616770 0.000000 
#    z 0.000000 0.000000 3.297920 
# 
# 
# High freq. dielectric constant tensor:
#      x y z
#    x 1.791380 0.000000 0.000000 
#    y 0.000000 1.728170 0.000000 
#    z 0.000000 0.000000 1.737650 
# 
# From -- ./inp_files/10666.got.cif
#   From: 2010.03.12/outbox.cif.g09.slc.cpg/sg62_6_cif.got.tgz:10666.got - 2010.04.10 19:12:36.
