data_PCOD8252373
_publ_section_title
;
Structure prediction by ZEFSAII (Michael W. Deem and Ramdas Pophale) SiO2 
 PCOD8252373
Probable space group: P N M A
;
_chemical_formula_sum "Si O2"
_cell_formula_units_Z 40
_cell_length_a 5.058190
_cell_length_b 10.897447
_cell_length_c 37.358547
_cell_angle_alpha 90.000000
_cell_angle_beta 90.000000
_cell_angle_gamma 90.000000
_cell_volume 2059.253823
_symmetry_space_group_name_H-M "P N M A"
_symmetry_group_IT_number 62
_symmetry_cell_setting 'orthorhombic'
loop_
_space_group_symop_operation_xyz
x,y,z
1/2-x,-y,1/2+z
1/2+x,1/2-y,1/2-z
-x,1/2+y,-z
-x,-y,-z
1/2+x,y,1/2-z
1/2-x,1/2+y,1/2+z
x,1/2-y,z
loop_
_atom_site_type_symbol
_atom_site_label
_atom_site_fract_x
_atom_site_fract_y
_atom_site_fract_z
Si Si1 0.284469 0.888330 0.624519
Si Si2 0.781641 0.111598 0.726279
Si Si3 0.709716 0.107723 0.171091
Si Si4 0.208518 0.381734 0.976749
Si Si5 0.216543 0.503340 0.548076
O O1 0.227691 0.750000 0.612750
O O2 0.577119 0.905325 0.639709
O O3 0.075530 0.925930 0.655033
O O4 0.251975 0.968186 0.589416
O O5 0.576714 0.098252 0.758767
O O6 0.749664 0.250000 0.708922
O O7 0.726403 0.997113 0.700073
O O8 0.715481 0.250000 0.186278
O O9 0.320963 0.250000 0.966439
O O10 0.407945 0.478350 0.958983
O O11 0.913664 0.391502 0.960780
O O12 0.194874 0.391277 0.020082
#
# Coordination Sequence:
#
# PCOD8252373 Si02
#       5
#     8   8   8   8   8
#     4  10  20  36  55  77 107 140 177 218 266 319
#     4  10  21  38  59  82 111 145 178 213 259 317
#     4  10  21  36  57  84 111 139 178 225 263 311
#     4  10  20  34  51  75 103 132 178 228 267 314
#     4  10  20  34  54  74 100 140 176 216 271 321
#
# _framework density 19.424510999999999
#
# number of rings (size 3 to 8) (size 9 to 14) (size 15 to 20)
#    0.000    2.000    0.000    3.600    0.000    0.800 
#    0.000   12.000    0.000    0.000    0.000    0.000 
#    0.000    0.000    0.000    0.000    0.000    0.000 
#
# Total GULP energy -495711.481649 kJ/mol
# GULP energy per Si atom -12392.787041 kJ/mol
# Density = 1.938030 g / cm^3
# Si number density = 19.424511 Si / 1000 Ang^3
#
#
#
# Elastic Constant Matrix: (Units=GPa)
#
#
# Indices 1 2 3 4 5 6 
#
# 1 80.1159 13.8781 4.9093 0.0000 0.0000 0.0000
# 2 13.8781 114.4798 55.8266 0.0000 0.0000 0.0000
# 3 4.9093 55.8266 75.9653 0.0000 0.0000 0.0000
# 4 0.0000 0.0000 0.0000 0.7760 0.0000 0.0000
# 5 0.0000 0.0000 0.0000 0.0000 23.7652 0.0000
# 6 0.0000 0.0000 0.0000 0.0000 0.0000 -75.0690
#
#
#
# Elastic Compliance Matrix: (Units=1/GPa)
#
#
# Indices 1 2 3 4 5 6 
#
# 1 0.012761 -0.001784 0.000487 0.000000 0.000000 0.000000
# 2 -0.001784 0.013864 -0.010073 0.000000 0.000000 0.000000
# 3 0.000487 -0.010073 0.020535 0.000000 0.000000 0.000000
# 4 0.000000 0.000000 0.000000 1.288691 0.000000 0.000000
# 5 0.000000 0.000000 0.000000 0.000000 0.042078 0.000000
# 6 0.000000 0.000000 0.000000 0.000000 0.000000 -0.013321
#
#
# Mechanical properties :
#
#
# Convention : Reuss Voigt Hill
#
# Bulk Modulus (GPa) = 40.95267 46.64321 43.79794
# Shear Modulus (GPa) = 3.58297 2.95759 3.27028
#
# Velocity S-wave (km/s) = 1.35962 1.23528 1.29894
# Velocity P-wave (km/s) = 4.85732 5.10874 4.98461
#
# Compressibility (1/GPa) = 0.02441843
#
# Stress axis : x y z
#
# Youngs Moduli (GPa) = 78.36265 72.13120 48.69716
#
# Poissons Ratio (x) = 0.12870 -0.02369
# Poissons Ratio (y) = 0.13982 0.49053
# Poissons Ratio (z) = -0.03813 0.72658
#
# Static dielectric constant tensor:
#      x y z
#    x 3.683800 0.000000 0.000000 
#    y 0.000000 3.562570 0.000000 
#    z 0.000000 0.000000 3.201330 
# 
# 
# High freq. dielectric constant tensor:
#      x y z
#    x 1.779440 0.000000 0.000000 
#    y 0.000000 1.750020 0.000000 
#    z 0.000000 0.000000 1.732820 
# 
# From -- ./inp_files/30241.got.cif
#   From: 2010.03.12/outbox.cif.g09.slc.cpg/sg62_16_cif.got.tgz:30241.got - 2010.04.10 19:12:36.
