data_PCOD8252251
_publ_section_title
;
Structure prediction by ZEFSAII (Michael W. Deem and Ramdas Pophale) SiO2 
 PCOD8252251
Probable space group: P N M A
;
_chemical_formula_sum "Si O2"
_cell_formula_units_Z 48
_cell_length_a 5.218002
_cell_length_b 17.270492
_cell_length_c 30.659306
_cell_angle_alpha 90.000000
_cell_angle_beta 90.000000
_cell_angle_gamma 90.000000
_cell_volume 2762.938837
_symmetry_space_group_name_H-M "P N M A"
_symmetry_group_IT_number 62
_symmetry_cell_setting 'orthorhombic'
loop_
_space_group_symop_operation_xyz
x,y,z
1/2-x,-y,1/2+z
1/2+x,1/2-y,1/2-z
-x,1/2+y,-z
-x,-y,-z
1/2+x,y,1/2-z
1/2-x,1/2+y,1/2+z
x,1/2-y,z
loop_
_atom_site_type_symbol
_atom_site_label
_atom_site_fract_x
_atom_site_fract_y
_atom_site_fract_z
Si Si1 0.166077 0.583973 0.587277
Si Si2 0.624178 0.402744 0.917461
Si Si3 0.376929 0.840502 0.373486
Si Si4 0.671064 0.663289 0.596531
Si Si5 0.636575 0.342182 0.725531
Si Si6 0.433987 0.837127 0.988902
O O1 0.179938 0.492414 0.588802
O O2 0.417581 0.617688 0.610694
O O3 0.920196 0.616477 0.614204
O O4 0.154886 0.615190 0.537085
O O5 0.338520 0.384216 0.901252
O O6 0.838391 0.354898 0.891524
O O7 0.646921 0.382189 0.968056
O O8 0.316044 0.750000 0.375794
O O9 0.365075 0.871618 0.324097
O O10 0.666816 0.750000 0.616241
O O11 0.688861 0.667042 0.543514
O O12 0.387877 0.375156 0.750446
O O13 0.631839 0.250000 0.726802
O O14 0.531104 0.750000 0.000095
#
# Coordination Sequence:
#
# PCOD8252251 Si02
#       6
#     8   8   8   8   8   8
#     4  10  20  33  48  67  90 123 168 208 248 290
#     4  12  23  33  48  70 100 128 157 207 259 287
#     4  11  23  36  49  72 100 127 160 197 246 291
#     4   9  18  32  50  66  84 116 170 213 241 280
#     4   9  17  32  54  72  89 118 158 196 223 270
#     4   9  20  33  49  65  87 127 176 212 242 282
#
# _framework density 17.372807999999999
#
# number of rings (size 3 to 8) (size 9 to 14) (size 15 to 20)
#    1.000    1.000    0.000    5.000    2.333    3.333 
#    0.000    0.000    0.000    0.000    0.000    0.000 
#    0.000    0.000    0.000    0.000    0.000  343.333 
#
# Total GULP energy -594919.979941 kJ/mol
# GULP energy per Si atom -12394.166249 kJ/mol
# Density = 1.733327 g / cm^3
# Si number density = 17.372808 Si / 1000 Ang^3
#
#
#
# Elastic Constant Matrix: (Units=GPa)
#
#
# Indices 1 2 3 4 5 6 
#
# 1 109.9215 12.9000 9.4977 0.0000 0.0000 0.0000
# 2 12.9000 66.3339 -3.5173 0.0000 0.0000 0.0000
# 3 9.4977 -3.5173 23.6826 0.0000 0.0000 0.0000
# 4 0.0000 0.0000 0.0000 13.9242 0.0000 0.0000
# 5 0.0000 0.0000 0.0000 0.0000 13.0674 0.0000
# 6 0.0000 0.0000 0.0000 0.0000 0.0000 27.9444
#
#
#
# Elastic Compliance Matrix: (Units=1/GPa)
#
#
# Indices 1 2 3 4 5 6 
#
# 1 0.009709 -0.002111 -0.004207 0.000000 0.000000 0.000000
# 2 -0.002111 0.015654 0.003172 0.000000 0.000000 0.000000
# 3 -0.004207 0.003172 0.044383 0.000000 0.000000 0.000000
# 4 0.000000 0.000000 0.000000 0.071817 0.000000 0.000000
# 5 0.000000 0.000000 0.000000 0.000000 0.076526 0.000000
# 6 0.000000 0.000000 0.000000 0.000000 0.000000 0.035785
#
#
# Mechanical properties :
#
#
# Convention : Reuss Voigt Hill
#
# Bulk Modulus (GPa) = 15.75981 26.41099 21.08540
# Shear Modulus (GPa) = 17.77341 23.05772 20.41556
#
# Velocity S-wave (km/s) = 3.20200 3.64707 3.43176
# Velocity P-wave (km/s) = 4.77092 5.74198 5.27882
#
# Compressibility (1/GPa) = 0.06345256
#
# Stress axis : x y z
#
# Youngs Moduli (GPa) = 103.00071 63.88152 22.53098
#
# Poissons Ratio (x) = 0.13486 0.09479
# Poissons Ratio (y) = 0.21745 -0.07146
# Poissons Ratio (z) = 0.43334 -0.20260
#
# Static dielectric constant tensor:
#      x y z
#    x 3.261220 0.000000 0.000000 
#    y 0.000000 3.078660 0.000000 
#    z 0.000000 0.000000 2.886040 
# 
# 
# High freq. dielectric constant tensor:
#      x y z
#    x 1.683330 0.000000 0.000000 
#    y 0.000000 1.659390 0.000000 
#    z 0.000000 0.000000 1.621890 
# 
# From -- ./inp_files/30416.got.cif
#   From: 2010.03.12/outbox.cif.g09.slc.cpg/sg62_16_cif.got.tgz:30416.got - 2010.04.10 19:12:36.
