data_PCOD8252187
_publ_section_title
;
Structure prediction by ZEFSAII (Michael W. Deem and Ramdas Pophale) SiO2 
 PCOD8252187
Probable space group: P N M A
;
_chemical_formula_sum "Si O2"
_cell_formula_units_Z 64
_cell_length_a 11.467616
_cell_length_b 25.168153
_cell_length_c 13.367555
_cell_angle_alpha 90.000000
_cell_angle_beta 90.000000
_cell_angle_gamma 90.000000
_cell_volume 3858.126534
_symmetry_space_group_name_H-M "P N M A"
_symmetry_group_IT_number 62
_symmetry_cell_setting 'orthorhombic'
loop_
_space_group_symop_operation_xyz
x,y,z
1/2-x,-y,1/2+z
1/2+x,1/2-y,1/2-z
-x,1/2+y,-z
-x,-y,-z
1/2+x,y,1/2-z
1/2-x,1/2+y,1/2+z
x,1/2-y,z
loop_
_atom_site_type_symbol
_atom_site_label
_atom_site_fract_x
_atom_site_fract_y
_atom_site_fract_z
Si Si1 0.948845 0.810176 0.163382
Si Si2 0.831249 0.029538 0.947803
Si Si3 0.960028 0.085378 0.540188
Si Si4 0.905787 0.010479 0.369345
Si Si5 0.262237 0.608247 0.340713
Si Si6 0.923269 0.989715 0.151517
Si Si7 0.185341 0.859629 0.127832
Si Si8 0.424305 0.809757 0.105540
O O1 0.931657 0.750000 0.131038
O O2 0.830579 0.838601 0.126748
O O3 0.971089 0.816407 0.281914
O O4 0.061036 0.833128 0.106652
O O5 0.797129 0.091289 0.947022
O O6 0.943778 0.018642 0.880027
O O7 0.728111 0.993763 0.903451
O O8 0.851043 0.017282 0.063772
O O9 0.965356 0.058933 0.430090
O O10 0.825527 0.089983 0.573142
O O11 0.016008 0.144475 0.538056
O O12 0.028826 0.045883 0.614293
O O13 0.916787 0.025226 0.252139
O O14 0.363587 0.565813 0.320948
O O15 0.189998 0.617554 0.240055
O O16 0.284811 0.816408 0.106063
O O17 0.453226 0.750000 0.065632
#
# Coordination Sequence:
#
# PCOD8252187 Si02
#       8
#     8   8   8   8   8   8   8   8
#     4  10  20  31  48  72 101 140 172 207 258 314
#     4  11  21  34  54  76 108 140 172 213 263 309
#     4  11  21  34  51  77 103 142 173 208 258 313
#     4  11  22  35  54  76 108 141 176 214 254 320
#     4  11  19  30  50  69 106 139 166 207 254 307
#     4  11  22  34  51  80 106 140 174 213 258 308
#     4  11  18  32  50  72 102 139 169 209 258 313
#     4  10  20  32  48  73 103 134 174 215 254 305
#
# _framework density 16.588362
#
# number of rings (size 3 to 8) (size 9 to 14) (size 15 to 20)
#    0.000    1.250    6.250    1.875    0.000    1.000 
#    0.000    0.000    0.000    0.000    0.000    1.750 
#    0.000    0.000    0.000    0.000    0.000    0.000 
#
# Total GULP energy -793661.687391 kJ/mol
# GULP energy per Si atom -12400.963865 kJ/mol
# Density = 1.655061 g / cm^3
# Si number density = 16.588362 Si / 1000 Ang^3
#
#
#
# Elastic Constant Matrix: (Units=GPa)
#
#
# Indices 1 2 3 4 5 6 
#
# 1 81.1295 28.7156 30.7087 0.0000 0.0000 0.0000
# 2 28.7156 94.8239 28.0578 0.0000 0.0000 0.0000
# 3 30.7087 28.0578 83.0510 0.0000 0.0000 0.0000
# 4 0.0000 0.0000 0.0000 16.9452 0.0000 0.0000
# 5 0.0000 0.0000 0.0000 0.0000 16.4724 0.0000
# 6 0.0000 0.0000 0.0000 0.0000 0.0000 28.2809
#
#
#
# Elastic Compliance Matrix: (Units=1/GPa)
#
#
# Indices 1 2 3 4 5 6 
#
# 1 0.015190 -0.003264 -0.004514 0.000000 0.000000 0.000000
# 2 -0.003264 0.012419 -0.002988 0.000000 0.000000 0.000000
# 3 -0.004514 -0.002988 0.014719 0.000000 0.000000 0.000000
# 4 0.000000 0.000000 0.000000 0.059014 0.000000 0.000000
# 5 0.000000 0.000000 0.000000 0.000000 0.060708 0.000000
# 6 0.000000 0.000000 0.000000 0.000000 0.000000 0.035360
#
#
# Mechanical properties :
#
#
# Convention : Reuss Voigt Hill
#
# Bulk Modulus (GPa) = 48.08894 48.21872 48.15383
# Shear Modulus (GPa) = 22.13625 23.77452 22.95539
#
# Velocity S-wave (km/s) = 3.65697 3.78988 3.72402
# Velocity P-wave (km/s) = 6.84717 6.94851 6.89803
#
# Compressibility (1/GPa) = 0.02079480
#
# Stress axis : x y z
#
# Youngs Moduli (GPa) = 65.83313 80.52374 67.93747
#
# Poissons Ratio (x) = 0.26286 0.30665
# Poissons Ratio (y) = 0.21490 0.20303
# Poissons Ratio (z) = 0.29715 0.24064
#
# Static dielectric constant tensor:
#      x y z
#    x 3.228090 0.000000 0.000000 
#    y 0.000000 3.124420 0.000000 
#    z 0.000000 0.000000 2.863830 
# 
# 
# High freq. dielectric constant tensor:
#      x y z
#    x 1.660450 0.000000 0.000000 
#    y 0.000000 1.631170 0.000000 
#    z 0.000000 0.000000 1.595770 
# 
# From -- ./inp_files/12538.got.cif
#   From: 2010.03.12/outbox.cif.g09.slc.cpg/sg62_7_cif.got.tgz:12538.got - 2010.04.10 19:12:36.
