data_PCOD8252696
_publ_section_title
;
Structure prediction by ZEFSAII (Michael W. Deem and Ramdas Pophale) SiO2 
 PCOD8252696
Probable space group: P N M A
;
_chemical_formula_sum "Si O2"
_cell_formula_units_Z 56
_cell_length_a 19.404223
_cell_length_b 8.988535
_cell_length_c 15.880391
_cell_angle_alpha 90.000000
_cell_angle_beta 90.000000
_cell_angle_gamma 90.000000
_cell_volume 2769.786933
_symmetry_space_group_name_H-M "P N M A"
_symmetry_group_IT_number 62
_symmetry_cell_setting 'orthorhombic'
loop_
_space_group_symop_operation_xyz
x,y,z
1/2-x,-y,1/2+z
1/2+x,1/2-y,1/2-z
-x,1/2+y,-z
-x,-y,-z
1/2+x,y,1/2-z
1/2-x,1/2+y,1/2+z
x,1/2-y,z
loop_
_atom_site_type_symbol
_atom_site_label
_atom_site_fract_x
_atom_site_fract_y
_atom_site_fract_z
Si Si1 0.293503 0.923714 0.869421
Si Si2 0.198706 0.925997 0.711123
Si Si3 0.768343 0.074974 0.950510
Si Si4 0.409079 0.075180 0.788783
Si Si5 0.475840 0.088114 0.419580
Si Si6 0.874473 0.911727 0.869431
Si Si7 0.437336 0.925784 0.261456
O O1 0.308880 0.750000 0.863262
O O2 0.240238 0.972514 0.795801
O O3 0.368053 0.007668 0.868592
O O4 0.262307 0.967562 0.959717
O O5 0.187338 0.750000 0.707846
O O6 0.235543 0.983450 0.626794
O O7 0.124007 0.003845 0.708088
O O8 0.764853 0.250000 0.933239
O O9 0.847180 0.011246 0.948844
O O10 0.400984 0.250000 0.786518
O O11 0.489971 0.031834 0.783814
O O12 0.362055 0.007007 0.714323
O O13 0.440610 0.250000 0.439797
O O14 0.545704 0.121329 0.371384
O O15 0.500000 0.000000 0.500000
O O16 0.429836 0.990159 0.356613
O O17 0.836169 0.750000 0.863047
O O18 0.429035 0.750000 0.267417
#
# Coordination Sequence:
#
# PCOD8252696 Si02
#       7
#     8   8   8   8   8   8   8
#     4  10  23  40  61  89 123 158 200 249 305 363
#     4  11  23  41  63  91 123 160 201 251 305 362
#     4  11  23  39  60  89 121 157 198 249 303 357
#     4  10  20  37  62  88 115 155 202 244 294 355
#     4  10  21  35  53  81 117 156 199 245 297 360
#     4  10  20  35  55  81 115 154 193 238 291 350
#     4  10  22  39  59  86 118 157 202 250 306 365
#
# _framework density 20.218162
#
# number of rings (size 3 to 8) (size 9 to 14) (size 15 to 20)
#    0.000    1.714    1.429    2.571    2.000    5.143 
#    0.000    0.714    0.000    0.000    0.000    0.000 
#    0.000    0.000    0.000    0.000    0.000    0.000 
#
# Total GULP energy -693860.351311 kJ/mol
# GULP energy per Si atom -12390.363416 kJ/mol
# Density = 2.017214 g / cm^3
# Si number density = 20.218162 Si / 1000 Ang^3
#
#
#
# Elastic Constant Matrix: (Units=GPa)
#
#
# Indices 1 2 3 4 5 6 
#
# 1 61.2149 35.1732 16.7292 0.0000 0.0000 0.0000
# 2 35.1732 101.8877 33.4591 0.0000 0.0000 0.0000
# 3 16.7292 33.4591 87.4311 0.0000 0.0000 0.0000
# 4 0.0000 0.0000 0.0000 33.5501 0.0000 0.0000
# 5 0.0000 0.0000 0.0000 0.0000 17.2240 0.0000
# 6 0.0000 0.0000 0.0000 0.0000 0.0000 32.3816
#
#
#
# Elastic Compliance Matrix: (Units=1/GPa)
#
#
# Indices 1 2 3 4 5 6 
#
# 1 0.020525 -0.006629 -0.001390 0.000000 0.000000 0.000000
# 2 -0.006629 0.013366 -0.003847 0.000000 0.000000 0.000000
# 3 -0.001390 -0.003847 0.013176 0.000000 0.000000 0.000000
# 4 0.000000 0.000000 0.000000 0.029806 0.000000 0.000000
# 5 0.000000 0.000000 0.000000 0.000000 0.058059 0.000000
# 6 0.000000 0.000000 0.000000 0.000000 0.000000 0.030882
#
#
# Mechanical properties :
#
#
# Convention : Reuss Voigt Hill
#
# Bulk Modulus (GPa) = 42.85469 46.80631 44.83050
# Shear Modulus (GPa) = 25.33907 27.64262 26.49084
#
# Velocity S-wave (km/s) = 3.54401 3.70160 3.62366
# Velocity P-wave (km/s) = 6.16351 6.43972 6.30313
#
# Compressibility (1/GPa) = 0.02333467
#
# Stress axis : x y z
#
# Youngs Moduli (GPa) = 48.72174 74.81461 75.89692
#
# Poissons Ratio (x) = 0.49593 0.10553
# Poissons Ratio (y) = 0.32297 0.29196
# Poissons Ratio (z) = 0.06774 0.28780
#
# Static dielectric constant tensor:
#      x y z
#    x 4.269530 0.000000 0.000000 
#    y 0.000000 6.665280 0.000000 
#    z 0.000000 0.000000 3.616040 
# 
# 
# High freq. dielectric constant tensor:
#      x y z
#    x 1.794920 0.000000 0.000000 
#    y 0.000000 1.805660 0.000000 
#    z 0.000000 0.000000 1.768960 
# 
# From -- ./inp_files/20405.got.cif
#   From: 2010.03.12/outbox.cif.g09.slc.cpg/sg62_11_cif.got.tgz:20405.got - 2010.04.10 19:12:36.
