data_PCOD8252190
_publ_section_title
;
Structure prediction by ZEFSAII (Michael W. Deem and Ramdas Pophale) SiO2 
 PCOD8252190
Probable space group: P N M A
;
_chemical_formula_sum "Si O2"
_cell_formula_units_Z 56
_cell_length_a 20.103396
_cell_length_b 8.883071
_cell_length_c 16.748265
_cell_angle_alpha 90.000000
_cell_angle_beta 90.000000
_cell_angle_gamma 90.000000
_cell_volume 2990.903389
_symmetry_space_group_name_H-M "P N M A"
_symmetry_group_IT_number 62
_symmetry_cell_setting 'orthorhombic'
loop_
_space_group_symop_operation_xyz
x,y,z
1/2-x,-y,1/2+z
1/2+x,1/2-y,1/2-z
-x,1/2+y,-z
-x,-y,-z
1/2+x,y,1/2-z
1/2-x,1/2+y,1/2+z
x,1/2-y,z
loop_
_atom_site_type_symbol
_atom_site_label
_atom_site_fract_x
_atom_site_fract_y
_atom_site_fract_z
Si Si1 0.950201 0.428552 0.936977
Si Si2 0.881123 0.929711 0.315955
Si Si3 0.244144 0.578839 0.241897
Si Si4 0.333709 0.072759 0.027531
Si Si5 0.517314 0.570842 0.259641
Si Si6 0.199404 0.921340 0.065742
Si Si7 0.133618 0.929179 0.352312
O O1 0.958078 0.250000 0.938930
O O2 0.968002 0.490354 0.848482
O O3 0.874497 0.474985 0.960055
O O4 0.000000 0.500000 0.000000
O O5 0.878686 0.750000 0.322828
O O6 0.816780 0.996276 0.268902
O O7 0.945542 0.988329 0.269345
O O8 0.878201 0.992457 0.405697
O O9 0.257609 0.750000 0.265647
O O10 0.201395 0.567136 0.161263
O O11 0.200735 0.502178 0.311844
O O12 0.336320 0.250000 0.040540
O O13 0.256247 0.024173 0.026585
O O14 0.367932 0.023262 0.944447
O O15 0.519020 0.750000 0.259877
O O16 0.570155 0.506369 0.195470
O O17 0.212605 0.750000 0.038614
O O18 0.134993 0.750000 0.342787
#
# Coordination Sequence:
#
# PCOD8252190 Si02
#       7
#     8   8   8   8   8   8   8
#     4  10  20  34  55  81 107 137 173 216 266 316
#     4   9  18  32  52  75 101 134 173 213 253 307
#     4   8  13  26  48  69  90 123 167 210 245 284
#     4  10  20  31  49  78 106 133 168 218 269 304
#     4   9  17  32  53  76 100 135 181 216 247 304
#     4   9  17  33  54  72  97 134 173 212 256 307
#     4   9  16  28  49  75 100 129 174 219 252 294
#
# _framework density 18.723438999999999
#
# number of rings (size 3 to 8) (size 9 to 14) (size 15 to 20)
#    0.000    2.857    1.429    1.286    0.000    2.286 
#    0.000    3.571    0.000   11.143    0.000    0.000 
#    0.000    0.000    0.000    0.000    0.000    0.000 
#
# Total GULP energy -694061.917633 kJ/mol
# GULP energy per Si atom -12393.962815 kJ/mol
# Density = 1.868082 g / cm^3
# Si number density = 18.723439 Si / 1000 Ang^3
#
#
#
# Elastic Constant Matrix: (Units=GPa)
#
#
# Indices 1 2 3 4 5 6 
#
# 1 129.5246 18.0117 66.9572 0.0000 0.0000 0.0000
# 2 18.0117 24.2124 17.7584 0.0000 0.0000 0.0000
# 3 66.9572 17.7584 101.2759 0.0000 0.0000 0.0000
# 4 0.0000 0.0000 0.0000 24.1728 0.0000 0.0000
# 5 0.0000 0.0000 0.0000 0.0000 32.4703 0.0000
# 6 0.0000 0.0000 0.0000 0.0000 0.0000 19.2705
#
#
#
# Elastic Compliance Matrix: (Units=1/GPa)
#
#
# Indices 1 2 3 4 5 6 
#
# 1 0.011991 -0.003564 -0.007303 0.000000 0.000000 0.000000
# 2 -0.003564 0.048456 -0.006140 0.000000 0.000000 0.000000
# 3 -0.007303 -0.006140 0.015779 0.000000 0.000000 0.000000
# 4 0.000000 0.000000 0.000000 0.041369 0.000000 0.000000
# 5 0.000000 0.000000 0.000000 0.000000 0.030797 0.000000
# 6 0.000000 0.000000 0.000000 0.000000 0.000000 0.051893
#
#
# Mechanical properties :
#
#
# Convention : Reuss Voigt Hill
#
# Bulk Modulus (GPa) = 23.69010 51.16305 37.42657
# Shear Modulus (GPa) = 20.13120 25.33511 22.73315
#
# Velocity S-wave (km/s) = 3.28256 3.68247 3.48825
# Velocity P-wave (km/s) = 5.20068 6.74283 6.02133
#
# Compressibility (1/GPa) = 0.04221173
#
# Stress axis : x y z
#
# Youngs Moduli (GPa) = 83.39293 20.63723 63.37546
#
# Poissons Ratio (x) = 0.07355 0.46283
# Poissons Ratio (y) = 0.29722 0.38914
# Poissons Ratio (z) = 0.60902 0.12672
#
# Static dielectric constant tensor:
#      x y z
#    x 3.721970 0.000000 0.000000 
#    y 0.000000 2.934950 0.000000 
#    z 0.000000 0.000000 3.461710 
# 
# 
# High freq. dielectric constant tensor:
#      x y z
#    x 1.740060 0.000000 0.000000 
#    y 0.000000 1.673550 0.000000 
#    z 0.000000 0.000000 1.724360 
# 
# From -- ./inp_files/24583.got.cif
#   From: 2010.03.12/outbox.cif.g09.slc.cpg/sg62_13_cif.got.tgz:24583.got - 2010.04.10 19:12:36.
