data_PCOD8252966
_publ_section_title
;
Structure prediction by ZEFSAII (Michael W. Deem and Ramdas Pophale) SiO2 
 PCOD8252966
Probable space group: P N M A
;
_chemical_formula_sum "Si O2"
_cell_formula_units_Z 48
_cell_length_a 9.923388
_cell_length_b 9.586777
_cell_length_c 26.712613
_cell_angle_alpha 90.000000
_cell_angle_beta 90.000000
_cell_angle_gamma 90.000000
_cell_volume 2541.259236
_symmetry_space_group_name_H-M "P N M A"
_symmetry_group_IT_number 62
_symmetry_cell_setting 'orthorhombic'
loop_
_space_group_symop_operation_xyz
x,y,z
1/2-x,-y,1/2+z
1/2+x,1/2-y,1/2-z
-x,1/2+y,-z
-x,-y,-z
1/2+x,y,1/2-z
1/2-x,1/2+y,1/2+z
x,1/2-y,z
loop_
_atom_site_type_symbol
_atom_site_label
_atom_site_fract_x
_atom_site_fract_y
_atom_site_fract_z
Si Si1 0.907461 0.911040 0.302368
Si Si2 0.102968 0.911098 0.214634
Si Si3 0.971871 0.089336 0.397935
Si Si4 0.256649 0.409990 0.437869
Si Si5 0.723295 0.089860 0.465576
Si Si6 0.977167 0.909719 0.879366
O O1 0.925330 0.750000 0.317430
O O2 0.761775 0.937032 0.277000
O O3 0.024084 0.959319 0.264347
O O4 0.916002 0.000967 0.352160
O O5 0.071620 0.750000 0.203140
O O6 0.046172 0.998315 0.168912
O O7 0.977803 0.250000 0.380703
O O8 0.117684 0.033507 0.414557
O O9 0.874243 0.070062 0.445276
O O10 0.240977 0.250000 0.455241
O O11 0.299710 0.498609 0.485569
O O12 0.368069 0.425912 0.395068
O O13 0.693674 0.250000 0.479663
O O14 0.618285 0.036869 0.423974
O O15 0.940662 0.750000 0.866375
#
# Coordination Sequence:
#
# PCOD8252966 Si02
#       6
#     8   8   8   8   8   8
#     4  10  22  39  59  84 112 143 182 228 277 330
#     4  10  22  39  59  84 112 143 182 228 277 330
#     4  10  21  38  57  82 115 147 184 229 274 325
#     4  10  22  36  55  84 115 147 186 229 271 324
#     4  10  20  36  57  80 111 149 188 229 273 324
#     4  10  21  38  57  82 115 147 184 229 274 325
#
# _framework density 18.888273999999999
#
# number of rings (size 3 to 8) (size 9 to 14) (size 15 to 20)
#    0.000    2.000    1.667    1.000    2.333    3.333 
#    0.000    0.000    0.000    0.000    0.000    0.000 
#    0.000    0.000    0.000    0.000    0.000    0.000 
#
# Total GULP energy -595438.883323 kJ/mol
# GULP energy per Si atom -12404.976736 kJ/mol
# Density = 1.884528 g / cm^3
# Si number density = 18.888274 Si / 1000 Ang^3
#
#
#
# Elastic Constant Matrix: (Units=GPa)
#
#
# Indices 1 2 3 4 5 6 
#
# 1 71.3163 4.9672 -1.5737 0.0000 0.0000 0.0000
# 2 4.9672 51.9275 35.2395 0.0000 0.0000 0.0000
# 3 -1.5737 35.2395 65.1653 0.0000 0.0000 0.0000
# 4 0.0000 0.0000 0.0000 33.8371 0.0000 0.0000
# 5 0.0000 0.0000 0.0000 0.0000 31.6540 0.0000
# 6 0.0000 0.0000 0.0000 0.0000 0.0000 23.1876
#
#
#
# Elastic Compliance Matrix: (Units=1/GPa)
#
#
# Indices 1 2 3 4 5 6 
#
# 1 0.014235 -0.002520 0.001706 0.000000 0.000000 0.000000
# 2 -0.002520 0.030868 -0.016753 0.000000 0.000000 0.000000
# 3 0.001706 -0.016753 0.024446 0.000000 0.000000 0.000000
# 4 0.000000 0.000000 0.000000 0.029553 0.000000 0.000000
# 5 0.000000 0.000000 0.000000 0.000000 0.031592 0.000000
# 6 0.000000 0.000000 0.000000 0.000000 0.000000 0.043127
#
#
# Mechanical properties :
#
#
# Convention : Reuss Voigt Hill
#
# Bulk Modulus (GPa) = 29.05599 29.51946 29.28773
# Shear Modulus (GPa) = 22.68330 27.72081 25.20206
#
# Velocity S-wave (km/s) = 3.46919 3.83511 3.65673
# Velocity P-wave (km/s) = 5.60923 5.93912 5.77653
#
# Compressibility (1/GPa) = 0.03441631
#
# Stress axis : x y z
#
# Youngs Moduli (GPa) = 70.24848 32.39609 40.90566
#
# Poissons Ratio (x) = 0.08163 -0.06980
# Poissons Ratio (y) = 0.17700 0.68531
# Poissons Ratio (z) = -0.11987 0.54274
#
# Static dielectric constant tensor:
#      x y z
#    x 3.780790 0.000000 0.000000 
#    y 0.000000 3.412360 0.000000 
#    z 0.000000 0.000000 3.239640 
# 
# 
# High freq. dielectric constant tensor:
#      x y z
#    x 1.755060 0.000000 0.000000 
#    y 0.000000 1.728250 0.000000 
#    z 0.000000 0.000000 1.724750 
# 
# From -- ./inp_files/31989.got.cif
#   From: 2010.03.12/outbox.cif.g09.slc.cpg/sg62_16_cif.got.tgz:31989.got - 2010.04.10 19:12:36.
