data_PCOD8252923
_publ_section_title
;
Structure prediction by ZEFSAII (Michael W. Deem and Ramdas Pophale) SiO2 
 PCOD8252923
Probable space group: P N M A
;
_chemical_formula_sum "Si O2"
_cell_formula_units_Z 56
_cell_length_a 7.936292
_cell_length_b 20.032853
_cell_length_c 16.559946
_cell_angle_alpha 90.000000
_cell_angle_beta 90.000000
_cell_angle_gamma 90.000000
_cell_volume 2632.809031
_symmetry_space_group_name_H-M "P N M A"
_symmetry_group_IT_number 62
_symmetry_cell_setting 'orthorhombic'
loop_
_space_group_symop_operation_xyz
x,y,z
1/2-x,-y,1/2+z
1/2+x,1/2-y,1/2-z
-x,1/2+y,-z
-x,-y,-z
1/2+x,y,1/2-z
1/2-x,1/2+y,1/2+z
x,1/2-y,z
loop_
_atom_site_type_symbol
_atom_site_label
_atom_site_fract_x
_atom_site_fract_y
_atom_site_fract_z
Si Si1 0.606997 0.386471 0.358754
Si Si2 0.877256 0.560275 0.020085
Si Si3 0.272876 0.611773 0.817028
Si Si4 0.812555 0.750000 0.853013
Si Si5 0.083283 0.250000 0.329038
Si Si6 0.378439 0.472207 0.843921
Si Si7 0.020181 0.671288 0.136266
Si Si8 0.676708 0.392452 0.781794
O O1 0.693111 0.428140 0.429746
O O2 0.416013 0.409824 0.341252
O O3 0.725131 0.382748 0.280135
O O4 0.610051 0.312996 0.398381
O O5 0.718047 0.543055 0.073929
O O6 0.971752 0.624113 0.060361
O O7 0.000000 0.500000 0.000000
O O8 0.327327 0.681366 0.860201
O O9 0.401049 0.552353 0.841297
O O10 0.903200 0.750000 0.766236
O O11 0.610435 0.750000 0.853614
O O12 0.550715 0.430742 0.842428
O O13 0.278479 0.451152 0.762927
O O14 0.001770 0.750000 0.114418
O O15 0.907000 0.654948 0.214668
O O16 0.211502 0.654495 0.161027
#
# Coordination Sequence:
#
# PCOD8252923 Si02
#       8
#     8   8   8   4   4   8   8   8
#     4  11  22  37  64  84 119 157 205 255 307 364
#     4  11  24  42  58  91 128 166 202 253 312 380
#     4  11  20  36  62  88 113 159 206 255 302 362
#     4  10  20  36  56  84 114 152 189 252 303 352
#     4  10  20  36  54  90 114 142 209 256 293 352
#     4  10  20  38  63  92 125 159 201 254 315 367
#     4  10  21  40  67  94 126 163 205 257 316 372
#     4   9  20  37  66  98 120 155 211 255 301 379
#
# _framework density 21.270057000000001
#
# number of rings (size 3 to 8) (size 9 to 14) (size 15 to 20)
#    0.000    1.714    1.429    5.143    5.000    0.000 
#    0.000    4.286    0.000    0.000    0.000    0.000 
#    0.000    0.000    0.000    0.000    0.000    0.000 
#
# Total GULP energy -693798.955768 kJ/mol
# GULP energy per Si atom -12389.267067 kJ/mol
# Density = 2.122165 g / cm^3
# Si number density = 21.270057 Si / 1000 Ang^3
#
#
#
# Elastic Constant Matrix: (Units=GPa)
#
#
# Indices 1 2 3 4 5 6 
#
# 1 61.7325 15.2295 19.1401 0.0000 0.0000 0.0000
# 2 15.2295 150.9672 31.4125 0.0000 0.0000 0.0000
# 3 19.1401 31.4125 76.0074 0.0000 0.0000 0.0000
# 4 0.0000 0.0000 0.0000 26.0827 0.0000 0.0000
# 5 0.0000 0.0000 0.0000 0.0000 21.8420 0.0000
# 6 0.0000 0.0000 0.0000 0.0000 0.0000 29.0137
#
#
#
# Elastic Compliance Matrix: (Units=1/GPa)
#
#
# Indices 1 2 3 4 5 6 
#
# 1 0.017691 -0.000938 -0.004067 0.000000 0.000000 0.000000
# 2 -0.000938 0.007297 -0.002779 0.000000 0.000000 0.000000
# 3 -0.004067 -0.002779 0.015329 0.000000 0.000000 0.000000
# 4 0.000000 0.000000 0.000000 0.038340 0.000000 0.000000
# 5 0.000000 0.000000 0.000000 0.000000 0.045783 0.000000
# 6 0.000000 0.000000 0.000000 0.000000 0.000000 0.034466
#
#
# Mechanical properties :
#
#
# Convention : Reuss Voigt Hill
#
# Bulk Modulus (GPa) = 40.40754 46.69682 43.55218
# Shear Modulus (GPa) = 27.36326 30.24933 28.80630
#
# Velocity S-wave (km/s) = 3.59063 3.77524 3.68409
# Velocity P-wave (km/s) = 6.01903 6.40353 6.21425
#
# Compressibility (1/GPa) = 0.02474785
#
# Stress axis : x y z
#
# Youngs Moduli (GPa) = 56.52439 137.04364 65.23377
#
# Poissons Ratio (x) = 0.12860 0.26532
# Poissons Ratio (y) = 0.05304 0.18131
# Poissons Ratio (z) = 0.22990 0.38090
#
# Static dielectric constant tensor:
#      x y z
#    x 3.766110 0.000000 0.000000 
#    y 0.000000 4.512920 0.000000 
#    z 0.000000 0.000000 3.742120 
# 
# 
# High freq. dielectric constant tensor:
#      x y z
#    x 1.825660 0.000000 0.000000 
#    y 0.000000 1.854840 0.000000 
#    z 0.000000 0.000000 1.807470 
# 
# From -- ./inp_files/17230.got.cif
#   From: 2010.03.12/outbox.cif.g09.slc.cpg/sg62_9_cif.got.tgz:17230.got - 2010.04.10 19:12:36.
