data_PCOD8252037
_publ_section_title
;
Structure prediction by ZEFSAII (Michael W. Deem and Ramdas Pophale) SiO2 
 PCOD8252037
Probable space group: P N M A
;
_chemical_formula_sum "Si O2"
_cell_formula_units_Z 56
_cell_length_a 13.533488
_cell_length_b 22.792569
_cell_length_c 9.103090
_cell_angle_alpha 90.000000
_cell_angle_beta 90.000000
_cell_angle_gamma 90.000000
_cell_volume 2807.966078
_symmetry_space_group_name_H-M "P N M A"
_symmetry_group_IT_number 62
_symmetry_cell_setting 'orthorhombic'
loop_
_space_group_symop_operation_xyz
x,y,z
1/2-x,-y,1/2+z
1/2+x,1/2-y,1/2-z
-x,1/2+y,-z
-x,-y,-z
1/2+x,y,1/2-z
1/2-x,1/2+y,1/2+z
x,1/2-y,z
loop_
_atom_site_type_symbol
_atom_site_label
_atom_site_fract_x
_atom_site_fract_y
_atom_site_fract_z
Si Si1 0.546275 0.318717 0.451965
Si Si2 0.650068 0.880940 0.648647
Si Si3 0.533678 0.317538 0.799334
Si Si4 0.272223 0.900155 0.572627
Si Si5 0.360987 0.107761 0.798444
Si Si6 0.393813 0.016966 0.561806
Si Si7 0.241216 0.181633 0.578938
O O1 0.546015 0.250000 0.409809
O O2 0.458827 0.351797 0.363652
O O3 0.532587 0.328089 0.625112
O O4 0.652113 0.345997 0.408710
O O5 0.680228 0.893627 0.816052
O O6 0.657484 0.941787 0.559172
O O7 0.734680 0.836665 0.587948
O O8 0.514534 0.250000 0.839934
O O9 0.451796 0.358472 0.876271
O O10 0.634707 0.340473 0.870341
O O11 0.226657 0.903934 0.410753
O O12 0.329699 0.960211 0.596042
O O13 0.400890 0.048968 0.719952
O O14 0.325931 0.152509 0.674497
O O15 0.500000 0.000000 0.500000
O O16 0.251633 0.250000 0.602479
#
# Coordination Sequence:
#
# PCOD8252037 Si02
#       7
#     8   8   8   8   8   8   8
#     4  11  22  40  66  91 125 173 212 255 321 387
#     4  11  24  42  65  91 132 169 206 265 324 389
#     4  10  19  36  63  95 123 158 213 262 305 373
#     4  12  25  42  62  98 128 160 215 263 324 379
#     4  11  22  37  65  93 121 163 214 266 310 375
#     4  11  22  45  69  86 120 169 212 261 317 380
#     4  10  20  37  63  92 123 166 213 253 307 376
#
# _framework density 19.943259999999999
#
# number of rings (size 3 to 8) (size 9 to 14) (size 15 to 20)
#    0.000    1.143    5.714    1.714    0.000    2.857 
#    0.000    2.143    0.000    0.000    0.000    0.000 
#    0.000    0.000    0.000    0.000    0.000    0.000 
#
# Total GULP energy -694401.968636 kJ/mol
# GULP energy per Si atom -12400.035154 kJ/mol
# Density = 1.989787 g / cm^3
# Si number density = 19.943260 Si / 1000 Ang^3
#
#
#
# Elastic Constant Matrix: (Units=GPa)
#
#
# Indices 1 2 3 4 5 6 
#
# 1 125.8487 55.5767 37.4692 0.0000 0.0000 0.0000
# 2 55.5767 95.3334 25.9523 0.0000 0.0000 0.0000
# 3 37.4692 25.9523 69.3341 0.0000 0.0000 0.0000
# 4 0.0000 0.0000 0.0000 21.3312 0.0000 0.0000
# 5 0.0000 0.0000 0.0000 0.0000 36.5318 0.0000
# 6 0.0000 0.0000 0.0000 0.0000 0.0000 37.3270
#
#
#
# Elastic Compliance Matrix: (Units=1/GPa)
#
#
# Indices 1 2 3 4 5 6 
#
# 1 0.011705 -0.005680 -0.004199 0.000000 0.000000 0.000000
# 2 -0.005680 0.014436 -0.002334 0.000000 0.000000 0.000000
# 3 -0.004199 -0.002334 0.017566 0.000000 0.000000 0.000000
# 4 0.000000 0.000000 0.000000 0.046880 0.000000 0.000000
# 5 0.000000 0.000000 0.000000 0.000000 0.027373 0.000000
# 6 0.000000 0.000000 0.000000 0.000000 0.000000 0.026790
#
#
# Mechanical properties :
#
#
# Convention : Reuss Voigt Hill
#
# Bulk Modulus (GPa) = 51.86724 58.72360 55.29542
# Shear Modulus (GPa) = 28.47312 30.47254 29.47283
#
# Velocity S-wave (km/s) = 3.78260 3.91316 3.84843
# Velocity P-wave (km/s) = 6.71873 7.06586 6.89448
#
# Compressibility (1/GPa) = 0.01927999
#
# Stress axis : x y z
#
# Youngs Moduli (GPa) = 85.43440 69.26935 56.92867
#
# Poissons Ratio (x) = 0.39348 0.23906
# Poissons Ratio (y) = 0.48531 0.13286
# Poissons Ratio (z) = 0.35876 0.16166
#
# Static dielectric constant tensor:
#      x y z
#    x 3.802590 0.000000 0.000000 
#    y 0.000000 3.827450 0.000000 
#    z 0.000000 0.000000 3.455250 
# 
# 
# High freq. dielectric constant tensor:
#      x y z
#    x 1.789920 0.000000 0.000000 
#    y 0.000000 1.787400 0.000000 
#    z 0.000000 0.000000 1.755060 
# 
# From -- ./inp_files/6747.got.cif
#   From: 2010.03.12/outbox.cif.g09.slc.cpg/sg62_4_cif.got.tgz:6747.got - 2010.04.10 19:12:36.
