data_PCOD8252783
_publ_section_title
;
Structure prediction by ZEFSAII (Michael W. Deem and Ramdas Pophale) SiO2 
 PCOD8252783
Probable space group: P N M A
;
_chemical_formula_sum "Si O2"
_cell_formula_units_Z 56
_cell_length_a 9.760254
_cell_length_b 12.906857
_cell_length_c 22.748043
_cell_angle_alpha 90.000000
_cell_angle_beta 90.000000
_cell_angle_gamma 90.000000
_cell_volume 2865.666579
_symmetry_space_group_name_H-M "P N M A"
_symmetry_group_IT_number 62
_symmetry_cell_setting 'orthorhombic'
loop_
_space_group_symop_operation_xyz
x,y,z
1/2-x,-y,1/2+z
1/2+x,1/2-y,1/2-z
-x,1/2+y,-z
-x,-y,-z
1/2+x,y,1/2-z
1/2-x,1/2+y,1/2+z
x,1/2-y,z
loop_
_atom_site_type_symbol
_atom_site_label
_atom_site_fract_x
_atom_site_fract_y
_atom_site_fract_z
Si Si1 0.760129 0.370273 0.617438
Si Si2 0.802701 0.628611 0.897552
Si Si3 0.834925 0.867331 0.564573
Si Si4 0.360121 0.370619 0.220022
Si Si5 0.401959 0.127698 0.002987
Si Si6 0.859011 0.553463 0.689477
Si Si7 0.942369 0.012541 0.064313
O O1 0.754845 0.250000 0.634581
O O2 0.865783 0.395281 0.564476
O O3 0.817461 0.435223 0.672797
O O4 0.607719 0.406348 0.596474
O O5 0.836613 0.750000 0.901420
O O6 0.718566 0.600850 0.839501
O O7 0.718861 0.587611 0.954207
O O8 0.946195 0.567499 0.894297
O O9 0.817060 0.750000 0.546013
O O10 0.884212 0.877295 0.631670
O O11 0.690335 0.918548 0.556079
O O12 0.949399 0.920309 0.521410
O O13 0.400517 0.250000 0.222539
O O14 0.498590 0.439610 0.225280
O O15 0.265848 0.398004 0.274881
O O16 0.412568 0.250000 0.014924
O O17 0.000000 0.000000 0.000000
#
# Coordination Sequence:
#
# PCOD8252783 Si02
#       7
#     8   8   8   8   8   8   8
#     4  10  23  42  62  84 122 169 216 261 302 358
#     4  10  20  36  59  89 127 159 188 236 310 380
#     4  10  20  35  56  88 122 152 195 246 302 372
#     4  11  23  40  63  92 125 151 188 250 316 385
#     4   9  17  35  62  87 117 160 197 241 304 365
#     4  11  24  39  62  90 118 160 204 246 307 373
#     4  11  22  33  55  91 123 160 195 242 302 365
#
# _framework density 19.541701
#
# number of rings (size 3 to 8) (size 9 to 14) (size 15 to 20)
#    0.000    1.714    2.857    1.714    4.000    4.000 
#    0.000    0.714    0.000    0.857    0.000    0.000 
#    0.000    0.000    0.000    0.000    0.000    0.000 
#
# Total GULP energy -694381.790425 kJ/mol
# GULP energy per Si atom -12399.674829 kJ/mol
# Density = 1.949722 g / cm^3
# Si number density = 19.541701 Si / 1000 Ang^3
#
#
#
# Elastic Constant Matrix: (Units=GPa)
#
#
# Indices 1 2 3 4 5 6 
#
# 1 143.2328 42.1523 30.1624 0.0000 0.0000 0.0000
# 2 42.1523 76.5785 19.9871 0.0000 0.0000 0.0000
# 3 30.1624 19.9871 63.2073 0.0000 0.0000 0.0000
# 4 0.0000 0.0000 0.0000 31.9356 0.0000 0.0000
# 5 0.0000 0.0000 0.0000 0.0000 37.8360 0.0000
# 6 0.0000 0.0000 0.0000 0.0000 0.0000 3.1740
#
#
#
# Elastic Compliance Matrix: (Units=1/GPa)
#
#
# Indices 1 2 3 4 5 6 
#
# 1 0.008795 -0.004083 -0.002906 0.000000 0.000000 0.000000
# 2 -0.004083 0.016128 -0.003152 0.000000 0.000000 0.000000
# 3 -0.002906 -0.003152 0.018204 0.000000 0.000000 0.000000
# 4 0.000000 0.000000 0.000000 0.031313 0.000000 0.000000
# 5 0.000000 0.000000 0.000000 0.000000 0.026430 0.000000
# 6 0.000000 0.000000 0.000000 0.000000 0.000000 0.315064
#
#
# Mechanical properties :
#
#
# Convention : Reuss Voigt Hill
#
# Bulk Modulus (GPa) = 43.76970 51.95802 47.86386
# Shear Modulus (GPa) = 11.26553 27.30355 19.28454
#
# Velocity S-wave (km/s) = 2.40362 3.74196 3.14481
# Velocity P-wave (km/s) = 5.49089 6.73169 6.14270
#
# Compressibility (1/GPa) = 0.02284686
#
# Stress axis : x y z
#
# Youngs Moduli (GPa) = 113.69945 62.00218 54.93197
#
# Poissons Ratio (x) = 0.25314 0.15963
# Poissons Ratio (y) = 0.46421 0.17313
# Poissons Ratio (z) = 0.33041 0.19542
#
# Static dielectric constant tensor:
#      x y z
#    x 8.934600 0.000000 0.000000 
#    y 0.000000 3.606850 0.000000 
#    z 0.000000 0.000000 4.884990 
# 
# 
# High freq. dielectric constant tensor:
#      x y z
#    x 1.775890 0.000000 0.000000 
#    y 0.000000 1.753960 0.000000 
#    z 0.000000 0.000000 1.750800 
# 
# From -- ./inp_files/26004.got.cif
#   From: 2010.03.12/outbox.cif.g09.slc.cpg/sg62_14_cif.got.tgz:26004.got - 2010.04.10 19:12:36.
