data_PCOD8252707
_publ_section_title
;
Structure prediction by ZEFSAII (Michael W. Deem and Ramdas Pophale) SiO2 
 PCOD8252707
Probable space group: P N M A
;
_chemical_formula_sum "Si O2"
_cell_formula_units_Z 56
_cell_length_a 19.074974
_cell_length_b 8.534394
_cell_length_c 18.994775
_cell_angle_alpha 90.000000
_cell_angle_beta 90.000000
_cell_angle_gamma 90.000000
_cell_volume 3092.222934
_symmetry_space_group_name_H-M "P N M A"
_symmetry_group_IT_number 62
_symmetry_cell_setting 'orthorhombic'
loop_
_space_group_symop_operation_xyz
x,y,z
1/2-x,-y,1/2+z
1/2+x,1/2-y,1/2-z
-x,1/2+y,-z
-x,-y,-z
1/2+x,y,1/2-z
1/2-x,1/2+y,1/2+z
x,1/2-y,z
loop_
_atom_site_type_symbol
_atom_site_label
_atom_site_fract_x
_atom_site_fract_y
_atom_site_fract_z
Si Si1 0.334507 0.429612 0.757079
Si Si2 0.983993 0.069708 0.791213
Si Si3 0.948350 0.566505 0.941787
Si Si4 0.270797 0.569558 0.375655
Si Si5 0.198377 0.570158 0.020747
Si Si6 0.628694 0.931936 0.735245
Si Si7 0.764989 0.430246 0.351535
O O1 0.317761 0.250000 0.735598
O O2 0.417693 0.458663 0.760171
O O3 0.300406 0.468024 0.832686
O O4 0.302464 0.541987 0.697812
O O5 0.007143 0.250000 0.791373
O O6 0.964099 0.021631 0.869723
O O7 0.046527 0.966400 0.759647
O O8 0.961721 0.750000 0.931650
O O9 0.868777 0.538378 0.965587
O O10 0.000000 0.500000 0.000000
O O11 0.274961 0.750000 0.398334
O O12 0.269383 0.462741 0.444456
O O13 0.338636 0.530679 0.328577
O O14 0.175233 0.750000 0.026183
O O15 0.258628 0.533086 0.078000
O O16 0.642478 0.750000 0.719708
O O17 0.665083 0.980360 0.809003
O O18 0.767371 0.250000 0.373947
#
# Coordination Sequence:
#
# PCOD8252707 Si02
#       7
#     8   8   8   8   8   8   8
#     4   9  19  35  56  79 106 139 180 225 269 323
#     4  11  21  35  55  81 110 143 179 221 270 324
#     4  12  24  37  53  77 111 149 182 219 268 327
#     4  10  20  36  56  79 107 142 181 224 271 322
#     4  12  23  36  54  79 110 143 180 225 273 325
#     4  10  21  36  54  80 111 143 181 224 269 321
#     4  10  20  35  56  79 105 141 184 226 268 321
#
# _framework density 18.109949
#
# number of rings (size 3 to 8) (size 9 to 14) (size 15 to 20)
#    0.000    1.429    1.429    5.143    0.000    2.857 
#    0.000    0.000    0.000    0.857    0.000    0.000 
#    0.000    0.000    0.000    0.000    0.000    0.000 
#
# Total GULP energy -694662.259586 kJ/mol
# GULP energy per Si atom -12404.683207 kJ/mol
# Density = 1.806873 g / cm^3
# Si number density = 18.109949 Si / 1000 Ang^3
#
#
#
# Elastic Constant Matrix: (Units=GPa)
#
#
# Indices 1 2 3 4 5 6 
#
# 1 101.9882 15.2808 57.8607 0.0000 0.0000 0.0000
# 2 15.2808 52.9391 20.0454 0.0000 0.0000 0.0000
# 3 57.8607 20.0454 87.5869 0.0000 0.0000 0.0000
# 4 0.0000 0.0000 0.0000 29.2944 0.0000 0.0000
# 5 0.0000 0.0000 0.0000 0.0000 25.2025 0.0000
# 6 0.0000 0.0000 0.0000 0.0000 0.0000 21.7375
#
#
#
# Elastic Compliance Matrix: (Units=1/GPa)
#
#
# Indices 1 2 3 4 5 6 
#
# 1 0.015704 -0.000662 -0.010223 0.000000 0.000000 0.000000
# 2 -0.000662 0.020710 -0.004302 0.000000 0.000000 0.000000
# 3 -0.010223 -0.004302 0.019155 0.000000 0.000000 0.000000
# 4 0.000000 0.000000 0.000000 0.034136 0.000000 0.000000
# 5 0.000000 0.000000 0.000000 0.000000 0.039679 0.000000
# 6 0.000000 0.000000 0.000000 0.000000 0.000000 0.046004
#
#
# Mechanical properties :
#
#
# Convention : Reuss Voigt Hill
#
# Bulk Modulus (GPa) = 39.69094 47.65421 43.67257
# Shear Modulus (GPa) = 23.34713 25.20203 24.27458
#
# Velocity S-wave (km/s) = 3.59442 3.73448 3.66512
# Velocity P-wave (km/s) = 6.26025 6.70567 6.48679
#
# Compressibility (1/GPa) = 0.02519467
#
# Stress axis : x y z
#
# Youngs Moduli (GPa) = 63.67889 48.28628 52.20574
#
# Poissons Ratio (x) = 0.03197 0.53368
# Poissons Ratio (y) = 0.04216 0.22460
# Poissons Ratio (z) = 0.65096 0.20774
#
# Static dielectric constant tensor:
#      x y z
#    x 3.351550 0.000000 0.000000 
#    y 0.000000 3.423410 0.000000 
#    z 0.000000 0.000000 3.305140 
# 
# 
# High freq. dielectric constant tensor:
#      x y z
#    x 1.690650 0.000000 0.000000 
#    y 0.000000 1.715690 0.000000 
#    z 0.000000 0.000000 1.690520 
# 
# From -- ./inp_files/27549.got.cif
#   From: 2010.03.12/outbox.cif.g09.slc.cpg/sg62_14_cif.got.tgz:27549.got - 2010.04.10 19:12:36.
