data_PCOD8252608
_publ_section_title
;
Structure prediction by ZEFSAII (Michael W. Deem and Ramdas Pophale) SiO2 
 PCOD8252608
Probable space group: P N M A
;
_chemical_formula_sum "Si O2"
_cell_formula_units_Z 48
_cell_length_a 9.430216
_cell_length_b 17.949683
_cell_length_c 14.034584
_cell_angle_alpha 90.000000
_cell_angle_beta 90.000000
_cell_angle_gamma 90.000000
_cell_volume 2375.625442
_symmetry_space_group_name_H-M "P N M A"
_symmetry_group_IT_number 62
_symmetry_cell_setting 'orthorhombic'
loop_
_space_group_symop_operation_xyz
x,y,z
1/2-x,-y,1/2+z
1/2+x,1/2-y,1/2-z
-x,1/2+y,-z
-x,-y,-z
1/2+x,y,1/2-z
1/2-x,1/2+y,1/2+z
x,1/2-y,z
loop_
_atom_site_type_symbol
_atom_site_label
_atom_site_fract_x
_atom_site_fract_y
_atom_site_fract_z
Si Si1 0.787029 0.575521 0.843485
Si Si2 0.318519 0.101173 0.646107
Si Si3 0.571990 0.163980 0.974428
Si Si4 0.537581 0.077309 0.159609
Si Si5 0.146488 0.583483 0.357671
Si Si6 0.076120 0.425367 0.968444
O O1 0.788945 0.486835 0.857575
O O2 0.625683 0.602348 0.830393
O O3 0.876536 0.602512 0.752858
O O4 0.856847 0.613539 0.937545
O O5 0.187645 0.147609 0.606259
O O6 0.342423 0.124164 0.755786
O O7 0.457455 0.124490 0.584482
O O8 0.570103 0.250000 0.001882
O O9 0.418634 0.141041 0.933237
O O10 0.608244 0.117160 0.068930
O O11 0.544758 0.988390 0.147369
O O12 0.300972 0.556691 0.392114
O O13 0.000000 0.500000 0.000000
#
# Coordination Sequence:
#
# PCOD8252608 Si02
#       6
#     8   8   8   8   8   8
#     4  10  21  35  64  94 121 152 202 269 310 361
#     4  10  22  36  61  93 121 156 202 260 316 373
#     4  12  25  42  61  88 130 174 208 252 320 388
#     4  11  22  38  64  95 120 159 211 263 318 364
#     4  11  21  40  65  92 125 160 210 265 315 374
#     4  10  20  34  59  93 123 153 199 261 320 362
#
# _framework density 20.205204999999999
#
# number of rings (size 3 to 8) (size 9 to 14) (size 15 to 20)
#    0.000    1.333    3.333    3.500   14.000    0.667 
#    0.000    1.667    0.000    0.000    0.000    0.000 
#    0.000    0.000    0.000    0.000    0.000    0.000 
#
# Total GULP energy -595270.633240 kJ/mol
# GULP energy per Si atom -12401.471526 kJ/mol
# Density = 2.015922 g / cm^3
# Si number density = 20.205205 Si / 1000 Ang^3
#
#
#
# Elastic Constant Matrix: (Units=GPa)
#
#
# Indices 1 2 3 4 5 6 
#
# 1 127.9456 15.9891 51.0375 0.0000 0.0000 0.0000
# 2 15.9891 41.5039 30.5803 0.0000 0.0000 0.0000
# 3 51.0375 30.5803 150.1571 0.0000 0.0000 0.0000
# 4 0.0000 0.0000 0.0000 9.8290 0.0000 0.0000
# 5 0.0000 0.0000 0.0000 0.0000 44.5532 0.0000
# 6 0.0000 0.0000 0.0000 0.0000 0.0000 12.1753
#
#
#
# Elastic Compliance Matrix: (Units=1/GPa)
#
#
# Indices 1 2 3 4 5 6 
#
# 1 0.009115 -0.001446 -0.002804 0.000000 0.000000 0.000000
# 2 -0.001446 0.028577 -0.005329 0.000000 0.000000 0.000000
# 3 -0.002804 -0.005329 0.008698 0.000000 0.000000 0.000000
# 4 0.000000 0.000000 0.000000 0.101740 0.000000 0.000000
# 5 0.000000 0.000000 0.000000 0.000000 0.022445 0.000000
# 6 0.000000 0.000000 0.000000 0.000000 0.000000 0.082134
#
#
# Mechanical properties :
#
#
# Convention : Reuss Voigt Hill
#
# Bulk Modulus (GPa) = 36.71864 57.20228 46.96046
# Shear Modulus (GPa) = 17.79725 28.11147 22.95436
#
# Velocity S-wave (km/s) = 2.97109 3.73406 3.37421
# Velocity P-wave (km/s) = 5.47560 6.85296 6.20263
#
# Compressibility (1/GPa) = 0.02723412
#
# Stress axis : x y z
#
# Youngs Moduli (GPa) = 109.71087 34.99295 114.97122
#
# Poissons Ratio (x) = 0.05059 0.32234
# Poissons Ratio (y) = 0.15861 0.61263
# Poissons Ratio (z) = 0.30759 0.18646
#
# Static dielectric constant tensor:
#      x y z
#    x 3.911580 0.000000 0.000000 
#    y 0.000000 2.997790 0.000000 
#    z 0.000000 0.000000 4.146320 
# 
# 
# High freq. dielectric constant tensor:
#      x y z
#    x 1.808070 0.000000 0.000000 
#    y 0.000000 1.713520 0.000000 
#    z 0.000000 0.000000 1.813630 
# 
# From -- ./inp_files/16916.got.cif
#   From: 2010.03.12/outbox.cif.g09.slc.cpg/sg62_9_cif.got.tgz:16916.got - 2010.04.10 19:12:36.
