data_PCOD8252500
_publ_section_title
;
Structure prediction by ZEFSAII (Michael W. Deem and Ramdas Pophale) SiO2 
 PCOD8252500
Probable space group: P N M A
;
_chemical_formula_sum "Si O2"
_cell_formula_units_Z 64
_cell_length_a 14.882883
_cell_length_b 9.168196
_cell_length_c 24.505108
_cell_angle_alpha 90.000000
_cell_angle_beta 90.000000
_cell_angle_gamma 90.000000
_cell_volume 3343.702098
_symmetry_space_group_name_H-M "P N M A"
_symmetry_group_IT_number 62
_symmetry_cell_setting 'orthorhombic'
loop_
_space_group_symop_operation_xyz
x,y,z
1/2-x,-y,1/2+z
1/2+x,1/2-y,1/2-z
-x,1/2+y,-z
-x,-y,-z
1/2+x,y,1/2-z
1/2-x,1/2+y,1/2+z
x,1/2-y,z
loop_
_atom_site_type_symbol
_atom_site_label
_atom_site_fract_x
_atom_site_fract_y
_atom_site_fract_z
Si Si1 0.835467 0.417244 0.366014
Si Si2 0.805959 0.083601 0.938027
Si Si3 0.777146 0.581814 0.760898
Si Si4 0.674673 0.582463 0.563957
Si Si5 0.048296 0.916197 0.215976
Si Si6 0.497548 0.582073 0.402646
Si Si7 0.997646 0.083333 0.665260
Si Si8 0.209374 0.920850 0.348235
O O1 0.842407 0.250000 0.382755
O O2 0.770081 0.490332 0.409293
O O3 0.802076 0.438430 0.304252
O O4 0.934759 0.485455 0.369803
O O5 0.796060 0.250000 0.918290
O O6 0.904441 0.026621 0.920958
O O7 0.791762 0.068508 0.002351
O O8 0.791456 0.750000 0.744985
O O9 0.867161 0.522563 0.789208
O O10 0.751799 0.491710 0.706934
O O11 0.673284 0.750000 0.583302
O O12 0.574502 0.519009 0.567873
O O13 0.743140 0.490604 0.600000
O O14 0.085254 0.750000 0.220156
O O15 0.986213 0.935807 0.162801
O O16 0.991635 0.952596 0.270240
O O17 0.482616 0.750000 0.420321
O O18 0.022204 0.250000 0.653161
O O19 0.896480 0.047541 0.646707
O O20 0.231038 0.750000 0.346533
#
# Coordination Sequence:
#
# PCOD8252500 Si02
#       8
#     8   8   8   8   8   8   8   8
#     4  11  23  36  57  89 119 152 193 239 297 349
#     4  10  22  41  62  84 117 158 199 242 289 347
#     4  10  20  34  54  85 120 152 185 236 296 344
#     4  11  24  39  59  88 118 153 196 247 302 346
#     4   9  18  34  56  84 115 154 196 231 278 345
#     4  10  20  36  59  87 118 158 200 236 283 348
#     4   9  20  37  58  84 115 151 194 241 289 346
#     4  10  22  41  62  84 113 156 202 243 290 350
#
# _framework density 19.140460000000001
#
# number of rings (size 3 to 8) (size 9 to 14) (size 15 to 20)
#    0.000    2.000    1.250    2.625    1.750    6.000 
#    0.000    0.625    0.000    0.000    0.000    0.000 
#    0.000    0.000    0.000    0.000    0.000    0.000 
#
# Total GULP energy -793813.317379 kJ/mol
# GULP energy per Si atom -12403.333084 kJ/mol
# Density = 1.909690 g / cm^3
# Si number density = 19.140460 Si / 1000 Ang^3
#
#
#
# Elastic Constant Matrix: (Units=GPa)
#
#
# Indices 1 2 3 4 5 6 
#
# 1 64.2698 45.2475 29.9267 0.0000 0.0000 0.0000
# 2 45.2475 109.8418 44.3391 0.0000 0.0000 0.0000
# 3 29.9267 44.3391 73.7756 0.0000 0.0000 0.0000
# 4 0.0000 0.0000 0.0000 29.8209 0.0000 0.0000
# 5 0.0000 0.0000 0.0000 0.0000 27.4442 0.0000
# 6 0.0000 0.0000 0.0000 0.0000 0.0000 33.0988
#
#
#
# Elastic Compliance Matrix: (Units=1/GPa)
#
#
# Indices 1 2 3 4 5 6 
#
# 1 0.023150 -0.007586 -0.004831 0.000000 0.000000 0.000000
# 2 -0.007586 0.014506 -0.005641 0.000000 0.000000 0.000000
# 3 -0.004831 -0.005641 0.018905 0.000000 0.000000 0.000000
# 4 0.000000 0.000000 0.000000 0.033534 0.000000 0.000000
# 5 0.000000 0.000000 0.000000 0.000000 0.036438 0.000000
# 6 0.000000 0.000000 0.000000 0.000000 0.000000 0.030213
#
#
# Mechanical properties :
#
#
# Convention : Reuss Voigt Hill
#
# Bulk Modulus (GPa) = 48.91443 54.10155 51.50799
# Shear Modulus (GPa) = 25.04068 26.63103 25.83586
#
# Velocity S-wave (km/s) = 3.62091 3.73412 3.67795
# Velocity P-wave (km/s) = 6.56447 6.84971 6.70861
#
# Compressibility (1/GPa) = 0.02044386
#
# Stress axis : x y z
#
# Youngs Moduli (GPa) = 43.19696 68.93756 52.89710
#
# Poissons Ratio (x) = 0.52295 0.25557
# Poissons Ratio (y) = 0.32769 0.29838
# Poissons Ratio (z) = 0.20871 0.38887
#
# Static dielectric constant tensor:
#      x y z
#    x 3.317860 0.000000 0.000000 
#    y 0.000000 3.568750 0.000000 
#    z 0.000000 0.000000 3.450180 
# 
# 
# High freq. dielectric constant tensor:
#      x y z
#    x 1.737040 0.000000 0.000000 
#    y 0.000000 1.749430 0.000000 
#    z 0.000000 0.000000 1.739800 
# 
# From -- ./inp_files/29892.got.cif
#   From: 2010.03.12/outbox.cif.g09.slc.cpg/sg62_15_cif.got.tgz:29892.got - 2010.04.10 19:12:36.
