data_PCOD8252331
_publ_section_title
;
Structure prediction by ZEFSAII (Michael W. Deem and Ramdas Pophale) SiO2 
 PCOD8252331
Probable space group: P N M A
;
_chemical_formula_sum "Si O2"
_cell_formula_units_Z 64
_cell_length_a 32.198550
_cell_length_b 9.393367
_cell_length_c 10.222462
_cell_angle_alpha 90.000000
_cell_angle_beta 90.000000
_cell_angle_gamma 90.000000
_cell_volume 3091.812224
_symmetry_space_group_name_H-M "P N M A"
_symmetry_group_IT_number 62
_symmetry_cell_setting 'orthorhombic'
loop_
_space_group_symop_operation_xyz
x,y,z
1/2-x,-y,1/2+z
1/2+x,1/2-y,1/2-z
-x,1/2+y,-z
-x,-y,-z
1/2+x,y,1/2-z
1/2-x,1/2+y,1/2+z
x,1/2-y,z
loop_
_atom_site_type_symbol
_atom_site_label
_atom_site_fract_x
_atom_site_fract_y
_atom_site_fract_z
Si Si1 0.530100 0.411569 0.294854
Si Si2 0.715427 0.917211 0.719072
Si Si3 0.732844 0.911474 0.010565
Si Si4 0.453421 0.913176 0.267629
Si Si5 0.358427 0.086644 0.884643
Si Si6 0.620724 0.086848 0.359866
Si Si7 0.636933 0.414430 0.652178
Si Si8 0.567797 0.410785 0.019368
O O1 0.518269 0.250000 0.326187
O O2 0.490915 0.505571 0.340059
O O3 0.571981 0.456775 0.372170
O O4 0.537490 0.436997 0.140782
O O5 0.709309 0.750000 0.695473
O O6 0.741033 0.980922 0.598377
O O7 0.670441 0.990567 0.726906
O O8 0.739147 0.945708 0.856391
O O9 0.747672 0.750000 0.040918
O O10 0.684628 0.929393 0.041147
O O11 0.457402 0.750000 0.310534
O O12 0.408710 0.972233 0.312130
O O13 0.458013 0.936947 0.112333
O O14 0.370425 0.250000 0.860701
O O15 0.355457 0.010152 0.744124
O O16 0.393094 0.015930 0.976064
O O17 0.622511 0.250000 0.310235
O O18 0.643896 0.068679 0.496932
O O19 0.641800 0.250000 0.695784
O O20 0.585526 0.250000 0.021620
#
# Coordination Sequence:
#
# PCOD8252331 Si02
#       8
#     8   8   8   8   8   8   8   8
#     4   9  18  32  50  76 110 150 194 242 292 345
#     4  11  25  43  66  94 123 158 201 245 298 361
#     4  10  24  44  63  92 129 159 194 247 302 357
#     4  10  20  33  53  80 110 150 195 239 291 352
#     4  10  20  35  59  86 114 146 191 245 292 345
#     4   9  20  38  57  80 115 157 196 239 297 355
#     4  10  22  40  60  82 116 156 195 245 299 354
#     4   9  18  33  52  78 113 149 188 234 293 360
#
# _framework density 20.699833999999999
#
# number of rings (size 3 to 8) (size 9 to 14) (size 15 to 20)
#    0.000    2.250    0.000    2.625    1.750    6.000 
#    0.000    0.000    0.000    0.000    0.000    0.000 
#    0.000    0.000    0.000    0.000    0.000    0.000 
#
# Total GULP energy -793677.891687 kJ/mol
# GULP energy per Si atom -12401.217058 kJ/mol
# Density = 2.065272 g / cm^3
# Si number density = 20.699834 Si / 1000 Ang^3
#
#
#
# Elastic Constant Matrix: (Units=GPa)
#
#
# Indices 1 2 3 4 5 6 
#
# 1 66.2892 47.6774 24.4409 0.0000 0.0000 0.0000
# 2 47.6774 101.2721 38.5505 0.0000 0.0000 0.0000
# 3 24.4409 38.5505 64.7371 0.0000 0.0000 0.0000
# 4 0.0000 0.0000 0.0000 25.2470 0.0000 0.0000
# 5 0.0000 0.0000 0.0000 0.0000 24.8388 0.0000
# 6 0.0000 0.0000 0.0000 0.0000 0.0000 38.3779
#
#
#
# Elastic Compliance Matrix: (Units=1/GPa)
#
#
# Indices 1 2 3 4 5 6 
#
# 1 0.023227 -0.009824 -0.002919 0.000000 0.000000 0.000000
# 2 -0.009824 0.016924 -0.006369 0.000000 0.000000 0.000000
# 3 -0.002919 -0.006369 0.020342 0.000000 0.000000 0.000000
# 4 0.000000 0.000000 0.000000 0.039609 0.000000 0.000000
# 5 0.000000 0.000000 0.000000 0.000000 0.040260 0.000000
# 6 0.000000 0.000000 0.000000 0.000000 0.000000 0.026057
#
#
# Mechanical properties :
#
#
# Convention : Reuss Voigt Hill
#
# Bulk Modulus (GPa) = 44.90594 50.40399 47.65497
# Shear Modulus (GPa) = 23.57762 25.80138 24.68950
#
# Velocity S-wave (km/s) = 3.37861 3.53434 3.45735
# Velocity P-wave (km/s) = 6.07955 6.40767 6.24577
#
# Compressibility (1/GPa) = 0.02226877
#
# Stress axis : x y z
#
# Youngs Moduli (GPa) = 43.05257 59.08834 49.15945
#
# Poissons Ratio (x) = 0.58048 0.14351
# Poissons Ratio (y) = 0.42294 0.31310
# Poissons Ratio (z) = 0.12568 0.37634
#
# Static dielectric constant tensor:
#      x y z
#    x 3.594050 0.000000 0.000000 
#    y 0.000000 3.681060 0.000000 
#    z 0.000000 0.000000 3.844750 
# 
# 
# High freq. dielectric constant tensor:
#      x y z
#    x 1.807160 0.000000 0.000000 
#    y 0.000000 1.800960 0.000000 
#    z 0.000000 0.000000 1.813960 
# 
# From -- ./inp_files/15852.got.cif
#   From: 2010.03.12/outbox.cif.g09.slc.cpg/sg62_8_cif.got.tgz:15852.got - 2010.04.10 19:12:36.
