data_PCOD8252538
_publ_section_title
;
Structure prediction by ZEFSAII (Michael W. Deem and Ramdas Pophale) SiO2 
 PCOD8252538
Probable space group: P N M A
;
_chemical_formula_sum "Si O2"
_cell_formula_units_Z 64
_cell_length_a 8.981078
_cell_length_b 17.942329
_cell_length_c 21.189449
_cell_angle_alpha 90.000000
_cell_angle_beta 90.000000
_cell_angle_gamma 90.000000
_cell_volume 3414.498669
_symmetry_space_group_name_H-M "P N M A"
_symmetry_group_IT_number 62
_symmetry_cell_setting 'orthorhombic'
loop_
_space_group_symop_operation_xyz
x,y,z
1/2-x,-y,1/2+z
1/2+x,1/2-y,1/2-z
-x,1/2+y,-z
-x,-y,-z
1/2+x,y,1/2-z
1/2-x,1/2+y,1/2+z
x,1/2-y,z
loop_
_atom_site_type_symbol
_atom_site_label
_atom_site_fract_x
_atom_site_fract_y
_atom_site_fract_z
Si Si1 0.758237 0.161716 0.927116
Si Si2 0.711119 0.963494 0.331827
Si Si3 0.264697 0.396769 0.089550
Si Si4 0.037557 0.416474 0.487435
Si Si5 0.773191 0.611222 0.628311
Si Si6 0.532923 0.666955 0.543197
Si Si7 0.403646 0.476455 0.277408
Si Si8 0.554199 0.833207 0.802544
O O1 0.746533 0.250000 0.914322
O O2 0.792557 0.119861 0.860938
O O3 0.600425 0.131842 0.954232
O O4 0.887020 0.142873 0.978031
O O5 0.764875 0.017202 0.388392
O O6 0.831685 0.969703 0.275356
O O7 0.548105 0.984046 0.306025
O O8 0.387341 0.377213 0.036970
O O9 0.304992 0.346818 0.150812
O O10 0.106248 0.384829 0.057732
O O11 0.000000 0.500000 0.500000
O O12 0.158132 0.425253 0.433107
O O13 0.640147 0.663852 0.604220
O O14 0.718194 0.540318 0.668977
O O15 0.894933 0.661626 0.663328
O O16 0.472376 0.750000 0.535959
O O17 0.445980 0.394223 0.252345
O O18 0.571057 0.750000 0.774231
#
# Coordination Sequence:
#
# PCOD8252538 Si02
#       8
#     8   8   8   8   8   8   8   8
#     4  10  23  41  62  87 118 154 193 245 303 352
#     4  11  22  40  60  81 117 151 203 248 286 346
#     4  10  20  34  57  88 115 155 190 228 289 350
#     4  10  20  36  62  87 115 148 186 229 291 364
#     4  10  20  35  53  80 115 150 194 228 290 341
#     4  10  20  34  55  88 123 150 185 234 292 355
#     4  11  22  38  55  82 110 158 200 244 286 336
#     4  10  21  35  51  77 118 158 194 230 278 345
#
# _framework density 18.743601000000002
#
# number of rings (size 3 to 8) (size 9 to 14) (size 15 to 20)
#    0.000    1.750    3.750    0.750    0.000    6.000 
#    0.000    0.625    0.000    0.000    0.000    0.000 
#    0.000    0.000    0.000    0.000    0.000    0.000 
#
# Total GULP energy -793346.378182 kJ/mol
# GULP energy per Si atom -12396.037159 kJ/mol
# Density = 1.870094 g / cm^3
# Si number density = 18.743601 Si / 1000 Ang^3
#
#
#
# Elastic Constant Matrix: (Units=GPa)
#
#
# Indices 1 2 3 4 5 6 
#
# 1 98.6622 42.5156 34.7389 0.0000 0.0000 0.0000
# 2 42.5156 110.5114 52.3757 0.0000 0.0000 0.0000
# 3 34.7389 52.3757 79.9329 0.0000 0.0000 0.0000
# 4 0.0000 0.0000 0.0000 25.1896 0.0000 0.0000
# 5 0.0000 0.0000 0.0000 0.0000 25.0600 0.0000
# 6 0.0000 0.0000 0.0000 0.0000 0.0000 17.0558
#
#
#
# Elastic Compliance Matrix: (Units=1/GPa)
#
#
# Indices 1 2 3 4 5 6 
#
# 1 0.012748 -0.003305 -0.003375 0.000000 0.000000 0.000000
# 2 -0.003305 0.013981 -0.007725 0.000000 0.000000 0.000000
# 3 -0.003375 -0.007725 0.019039 0.000000 0.000000 0.000000
# 4 0.000000 0.000000 0.000000 0.039699 0.000000 0.000000
# 5 0.000000 0.000000 0.000000 0.000000 0.039904 0.000000
# 6 0.000000 0.000000 0.000000 0.000000 0.000000 0.058631
#
#
# Mechanical properties :
#
#
# Convention : Reuss Voigt Hill
#
# Bulk Modulus (GPa) = 58.96546 60.92965 59.94756
# Shear Modulus (GPa) = 22.88697 24.09284 23.48991
#
# Velocity S-wave (km/s) = 3.49815 3.58912 3.54393
# Velocity P-wave (km/s) = 6.91689 7.05360 6.98558
#
# Compressibility (1/GPa) = 0.01695908
#
# Stress axis : x y z
#
# Youngs Moduli (GPa) = 78.44364 71.52318 52.52403
#
# Poissons Ratio (x) = 0.23638 0.17725
# Poissons Ratio (y) = 0.25925 0.40575
# Poissons Ratio (z) = 0.26473 0.55251
#
# Static dielectric constant tensor:
#      x y z
#    x 3.624960 0.000000 0.000000 
#    y 0.000000 3.179330 0.000000 
#    z 0.000000 0.000000 3.459630 
# 
# 
# High freq. dielectric constant tensor:
#      x y z
#    x 1.738860 0.000000 0.000000 
#    y 0.000000 1.703190 0.000000 
#    z 0.000000 0.000000 1.720910 
# 
# From -- ./inp_files/29056.got.cif
#   From: 2010.03.12/outbox.cif.g09.slc.cpg/sg62_15_cif.got.tgz:29056.got - 2010.04.10 19:12:36.
