data_PCOD8252315
_publ_section_title
;
Structure prediction by ZEFSAII (Michael W. Deem and Ramdas Pophale) SiO2 
 PCOD8252315
Probable space group: P N M A
;
_chemical_formula_sum "Si O2"
_cell_formula_units_Z 48
_cell_length_a 15.513184
_cell_length_b 8.849952
_cell_length_c 18.788282
_cell_angle_alpha 90.000000
_cell_angle_beta 90.000000
_cell_angle_gamma 90.000000
_cell_volume 2579.460780
_symmetry_space_group_name_H-M "P N M A"
_symmetry_group_IT_number 62
_symmetry_cell_setting 'orthorhombic'
loop_
_space_group_symop_operation_xyz
x,y,z
1/2-x,-y,1/2+z
1/2+x,1/2-y,1/2-z
-x,1/2+y,-z
-x,-y,-z
1/2+x,y,1/2-z
1/2-x,1/2+y,1/2+z
x,1/2-y,z
loop_
_atom_site_type_symbol
_atom_site_label
_atom_site_fract_x
_atom_site_fract_y
_atom_site_fract_z
Si Si1 0.421002 0.424428 0.460821
Si Si2 0.069744 0.572346 0.298722
Si Si3 0.927777 0.929159 0.549036
Si Si4 0.572653 0.922454 0.706956
Si Si5 0.751829 0.419123 0.541412
Si Si6 0.741630 0.083051 0.710234
O O1 0.500000 0.500000 0.500000
O O2 0.417155 0.250000 0.481420
O O3 0.432444 0.448191 0.376953
O O4 0.333306 0.500656 0.489360
O O5 0.066113 0.750000 0.316850
O O6 0.054223 0.479466 0.370419
O O7 0.163180 0.531262 0.264019
O O8 0.998060 0.529986 0.241561
O O9 0.930677 0.750000 0.544386
O O10 0.835796 0.985972 0.519412
O O11 0.000000 0.000000 0.500000
O O12 0.555276 0.750000 0.728520
O O13 0.667697 0.967978 0.735972
O O14 0.758442 0.250000 0.509584
O O15 0.745813 0.412544 0.625667
O O16 0.719070 0.250000 0.739777
#
# Coordination Sequence:
#
# PCOD8252315 Si02
#       6
#     8   8   8   8   8   8
#     4  10  20  34  53  78 106 138 177 218 262 310
#     4  10  20  35  55  78 104 136 174 213 256 306
#     4  11  21  35  55  79 107 137 172 213 257 306
#     4  10  20  33  52  78 105 134 170 214 260 307
#     4   9  17  32  53  76 102 135 175 213 254 308
#     4   8  16  31  51  73  98 132 171 209 250 303
#
# _framework density 18.608540999999999
#
# number of rings (size 3 to 8) (size 9 to 14) (size 15 to 20)
#    0.000    2.333    0.000    4.500    0.000    6.667 
#    0.000    1.667    0.000    4.000    0.000    0.000 
#    0.000    0.000    0.000    0.000    0.000    0.000 
#
# Total GULP energy -595156.429482 kJ/mol
# GULP energy per Si atom -12399.092281 kJ/mol
# Density = 1.856619 g / cm^3
# Si number density = 18.608541 Si / 1000 Ang^3
#
#
#
# Elastic Constant Matrix: (Units=GPa)
#
#
# Indices 1 2 3 4 5 6 
#
# 1 172.5831 81.5986 39.1026 0.0000 0.0000 0.0000
# 2 81.5986 150.0407 35.5960 0.0000 0.0000 0.0000
# 3 39.1026 35.5960 27.8696 0.0000 0.0000 0.0000
# 4 0.0000 0.0000 0.0000 25.8392 0.0000 0.0000
# 5 0.0000 0.0000 0.0000 0.0000 29.8276 0.0000
# 6 0.0000 0.0000 0.0000 0.0000 0.0000 39.0815
#
#
#
# Elastic Compliance Matrix: (Units=1/GPa)
#
#
# Indices 1 2 3 4 5 6 
#
# 1 0.009247 -0.002799 -0.009399 0.000000 0.000000 0.000000
# 2 -0.002799 0.010410 -0.009368 0.000000 0.000000 0.000000
# 3 -0.009399 -0.009368 0.061035 0.000000 0.000000 0.000000
# 4 0.000000 0.000000 0.000000 0.038701 0.000000 0.000000
# 5 0.000000 0.000000 0.000000 0.000000 0.033526 0.000000
# 6 0.000000 0.000000 0.000000 0.000000 0.000000 0.025588
#
#
# Mechanical properties :
#
#
# Convention : Reuss Voigt Hill
#
# Bulk Modulus (GPa) = 26.62531 73.67643 50.15087
# Shear Modulus (GPa) = 21.35296 31.89608 26.62452
#
# Velocity S-wave (km/s) = 3.39112 4.14461 3.78665
# Velocity P-wave (km/s) = 5.44721 7.91091 6.79171
#
# Compressibility (1/GPa) = 0.03755825
#
# Stress axis : x y z
#
# Youngs Moduli (GPa) = 108.13786 96.06393 16.38408
#
# Poissons Ratio (x) = 0.26890 0.15400
# Poissons Ratio (y) = 0.30270 0.15349
# Poissons Ratio (z) = 1.01644 0.89995
#
# Static dielectric constant tensor:
#      x y z
#    x 3.827420 0.000000 0.000000 
#    y 0.000000 3.627470 0.000000 
#    z 0.000000 0.000000 2.986410 
# 
# 
# High freq. dielectric constant tensor:
#      x y z
#    x 1.742660 0.000000 0.000000 
#    y 0.000000 1.737770 0.000000 
#    z 0.000000 0.000000 1.673860 
# 
# From -- ./inp_files/23757.got.cif
#   From: 2010.03.12/outbox.cif.g09.slc.cpg/sg62_12_cif.got.tgz:23757.got - 2010.04.10 19:12:36.
