data_PCOD8252306
_publ_section_title
;
Structure prediction by ZEFSAII (Michael W. Deem and Ramdas Pophale) SiO2 
 PCOD8252306
Probable space group: P N M A
;
_chemical_formula_sum "Si O2"
_cell_formula_units_Z 48
_cell_length_a 16.445121
_cell_length_b 8.828613
_cell_length_c 18.221665
_cell_angle_alpha 90.000000
_cell_angle_beta 90.000000
_cell_angle_gamma 90.000000
_cell_volume 2645.559974
_symmetry_space_group_name_H-M "P N M A"
_symmetry_group_IT_number 62
_symmetry_cell_setting 'orthorhombic'
loop_
_space_group_symop_operation_xyz
x,y,z
1/2-x,-y,1/2+z
1/2+x,1/2-y,1/2-z
-x,1/2+y,-z
-x,-y,-z
1/2+x,y,1/2-z
1/2-x,1/2+y,1/2+z
x,1/2-y,z
loop_
_atom_site_type_symbol
_atom_site_label
_atom_site_fract_x
_atom_site_fract_y
_atom_site_fract_z
Si Si1 0.919937 0.580024 0.796735
Si Si2 0.080033 0.916691 0.699699
Si Si3 0.665929 0.929949 0.658856
Si Si4 0.833929 0.071082 0.669667
Si Si5 0.492117 0.074230 0.921679
Si Si6 0.985789 0.930435 0.078920
O O1 0.889779 0.750000 0.816436
O O2 0.850566 0.492736 0.751213
O O3 0.999894 0.589332 0.748346
O O4 0.939899 0.487229 0.870260
O O5 0.099893 0.750000 0.668279
O O6 0.150983 0.971912 0.754979
O O7 0.067603 0.026718 0.630543
O O8 0.659098 0.750000 0.646530
O O9 0.754235 0.991387 0.636732
O O10 0.600977 0.012551 0.607671
O O11 0.821622 0.250000 0.674352
O O12 0.907099 0.026213 0.615151
O O13 0.497879 0.250000 0.933727
O O14 0.500000 0.000000 0.000000
O O15 0.986334 0.750000 0.076115
O O16 0.000000 0.000000 0.000000
#
# Coordination Sequence:
#
# PCOD8252306 Si02
#       6
#     8   8   8   8   8   8
#     4   9  17  32  53  76 101 133 171 210 253 307
#     4   8  16  31  51  73  98 128 166 206 247 299
#     4  10  20  35  55  79 105 137 175 218 266 314
#     4  10  20  34  53  79 106 136 175 220 266 312
#     4  10  20  33  52  76 104 137 173 211 256 308
#     4  11  21  35  55  79 108 141 176 217 263 318
#
# _framework density 18.143606999999999
#
# number of rings (size 3 to 8) (size 9 to 14) (size 15 to 20)
#    0.000    2.333    0.000    4.500    0.000    6.667 
#    0.000    1.667    0.000    6.000    0.000    0.000 
#    0.000    0.000    0.000    0.000    0.000    0.000 
#
# Total GULP energy -595100.725983 kJ/mol
# GULP energy per Si atom -12397.931791 kJ/mol
# Density = 1.810231 g / cm^3
# Si number density = 18.143607 Si / 1000 Ang^3
#
#
#
# Elastic Constant Matrix: (Units=GPa)
#
#
# Indices 1 2 3 4 5 6 
#
# 1 71.1495 44.0395 43.1732 0.0000 0.0000 0.0000
# 2 44.0395 125.2409 72.4427 0.0000 0.0000 0.0000
# 3 43.1732 72.4427 135.7736 0.0000 0.0000 0.0000
# 4 0.0000 0.0000 0.0000 35.5978 0.0000 0.0000
# 5 0.0000 0.0000 0.0000 0.0000 17.5779 0.0000
# 6 0.0000 0.0000 0.0000 0.0000 0.0000 29.0712
#
#
#
# Elastic Compliance Matrix: (Units=1/GPa)
#
#
# Indices 1 2 3 4 5 6 
#
# 1 0.019111 -0.004636 -0.003603 0.000000 0.000000 0.000000
# 2 -0.004636 0.012673 -0.005288 0.000000 0.000000 0.000000
# 3 -0.003603 -0.005288 0.011332 0.000000 0.000000 0.000000
# 4 0.000000 0.000000 0.000000 0.028092 0.000000 0.000000
# 5 0.000000 0.000000 0.000000 0.000000 0.056890 0.000000
# 6 0.000000 0.000000 0.000000 0.000000 0.000000 0.034398
#
#
# Mechanical properties :
#
#
# Convention : Reuss Voigt Hill
#
# Bulk Modulus (GPa) = 62.25685 72.38609 67.32147
# Shear Modulus (GPa) = 25.65359 27.94995 26.80177
#
# Velocity S-wave (km/s) = 3.76429 3.92916 3.84761
# Velocity P-wave (km/s) = 7.29939 7.78249 7.54481
#
# Compressibility (1/GPa) = 0.01606249
#
# Stress axis : x y z
#
# Youngs Moduli (GPa) = 52.32622 78.90559 88.24278
#
# Poissons Ratio (x) = 0.36579 0.31797
# Poissons Ratio (y) = 0.24257 0.46661
# Poissons Ratio (z) = 0.18855 0.41724
#
# Static dielectric constant tensor:
#      x y z
#    x 3.351350 0.000000 0.000000 
#    y 0.000000 3.521900 0.000000 
#    z 0.000000 0.000000 3.394240 
# 
# 
# High freq. dielectric constant tensor:
#      x y z
#    x 1.683020 0.000000 0.000000 
#    y 0.000000 1.718300 0.000000 
#    z 0.000000 0.000000 1.694190 
# 
# From -- ./inp_files/23725.got.cif
#   From: 2010.03.12/outbox.cif.g09.slc.cpg/sg62_12_cif.got.tgz:23725.got - 2010.04.10 19:12:36.
