data_PCOD8252451
_publ_section_title
;
Structure prediction by ZEFSAII (Michael W. Deem and Ramdas Pophale) SiO2 
 PCOD8252451
Probable space group: P N M A
;
_chemical_formula_sum "Si O2"
_cell_formula_units_Z 64
_cell_length_a 18.576111
_cell_length_b 8.858719
_cell_length_c 20.581015
_cell_angle_alpha 90.000000
_cell_angle_beta 90.000000
_cell_angle_gamma 90.000000
_cell_volume 3386.823096
_symmetry_space_group_name_H-M "P N M A"
_symmetry_group_IT_number 62
_symmetry_cell_setting 'orthorhombic'
loop_
_space_group_symop_operation_xyz
x,y,z
1/2-x,-y,1/2+z
1/2+x,1/2-y,1/2-z
-x,1/2+y,-z
-x,-y,-z
1/2+x,y,1/2-z
1/2-x,1/2+y,1/2+z
x,1/2-y,z
loop_
_atom_site_type_symbol
_atom_site_label
_atom_site_fract_x
_atom_site_fract_y
_atom_site_fract_z
Si Si1 0.705328 0.429281 0.940675
Si Si2 0.544630 0.572334 0.320977
Si Si3 0.544328 0.429635 0.558449
Si Si4 0.552296 0.928213 0.177276
Si Si5 0.207188 0.928798 0.182277
Si Si6 0.300936 0.073129 0.439060
Si Si7 0.456385 0.571561 0.057901
Si Si8 0.296615 0.926538 0.817226
O O1 0.703888 0.250000 0.938950
O O2 0.741969 0.490576 0.874890
O O3 0.624449 0.493475 0.943739
O O4 0.749095 0.484991 0.003377
O O5 0.538564 0.750000 0.324676
O O6 0.490513 0.505198 0.374646
O O7 0.524459 0.517004 0.248210
O O8 0.626229 0.521838 0.336305
O O9 0.500000 0.500000 0.500000
O O10 0.539245 0.250000 0.554072
O O11 0.626372 0.479751 0.555840
O O12 0.566092 0.750000 0.177434
O O13 0.492264 0.977435 0.125787
O O14 0.627867 0.004443 0.159316
O O15 0.213048 0.750000 0.190977
O O16 0.231308 0.003133 0.249894
O O17 0.318053 0.250000 0.446967
O O18 0.263249 0.036704 0.370914
O O19 0.457093 0.750000 0.049285
O O20 0.500000 0.500000 0.000000
O O21 0.308013 0.750000 0.808419
#
# Coordination Sequence:
#
# PCOD8252451 Si02
#       8
#     8   8   8   8   8   8   8   8
#     4   9  18  34  56  77 100 138 182 217 253 306
#     4   8  16  32  53  76 101 132 169 209 253 301
#     4  11  22  36  56  80 106 136 174 219 264 310
#     4   9  18  34  55  77 103 136 176 216 252 304
#     4   9  17  33  57  78  99 132 174 215 252 301
#     4  10  21  37  54  74 105 141 176 214 258 310
#     4  10  20  34  54  79 105 136 175 218 264 311
#     4  10  20  34  54  79 108 139 169 210 265 315
#
# _framework density 18.896766
#
# number of rings (size 3 to 8) (size 9 to 14) (size 15 to 20)
#    0.000    2.500    0.000    3.000    0.000    5.500 
#    0.000   11.875    0.000    0.000    0.000    0.000 
#    0.000    0.000    0.000    0.000    0.000    0.000 
#
# Total GULP energy -793573.777933 kJ/mol
# GULP energy per Si atom -12399.590280 kJ/mol
# Density = 1.885376 g / cm^3
# Si number density = 18.896766 Si / 1000 Ang^3
#
#
#
# Elastic Constant Matrix: (Units=GPa)
#
#
# Indices 1 2 3 4 5 6 
#
# 1 156.8120 37.2802 103.5702 0.0000 0.0000 0.0000
# 2 37.2802 41.0708 41.7103 0.0000 0.0000 0.0000
# 3 103.5702 41.7103 161.4490 0.0000 0.0000 0.0000
# 4 0.0000 0.0000 0.0000 28.0496 0.0000 0.0000
# 5 0.0000 0.0000 0.0000 0.0000 40.7558 0.0000
# 6 0.0000 0.0000 0.0000 0.0000 0.0000 27.2845
#
#
#
# Elastic Compliance Matrix: (Units=1/GPa)
#
#
# Indices 1 2 3 4 5 6 
#
# 1 0.011532 -0.004006 -0.006363 0.000000 0.000000 0.000000
# 2 -0.004006 0.034400 -0.006318 0.000000 0.000000 0.000000
# 3 -0.006363 -0.006318 0.011908 0.000000 0.000000 0.000000
# 4 0.000000 0.000000 0.000000 0.035651 0.000000 0.000000
# 5 0.000000 0.000000 0.000000 0.000000 0.024536 0.000000
# 6 0.000000 0.000000 0.000000 0.000000 0.000000 0.036651
#
#
# Mechanical properties :
#
#
# Convention : Reuss Voigt Hill
#
# Bulk Modulus (GPa) = 40.87038 80.49481 60.68260
# Shear Modulus (GPa) = 25.48336 31.00270 28.24303
#
# Velocity S-wave (km/s) = 3.67625 4.05487 3.87019
# Velocity P-wave (km/s) = 6.30040 8.03817 7.22175
#
# Compressibility (1/GPa) = 0.02446760
#
# Stress axis : x y z
#
# Youngs Moduli (GPa) = 86.71621 29.06967 83.97791
#
# Poissons Ratio (x) = 0.11644 0.53434
# Poissons Ratio (y) = 0.34735 0.53054
# Poissons Ratio (z) = 0.55177 0.18365
#
# Static dielectric constant tensor:
#      x y z
#    x 3.612120 0.000000 0.000000 
#    y 0.000000 3.185050 0.000000 
#    z 0.000000 0.000000 3.704050 
# 
# 
# High freq. dielectric constant tensor:
#      x y z
#    x 1.736800 0.000000 0.000000 
#    y 0.000000 1.704350 0.000000 
#    z 0.000000 0.000000 1.752840 
# 
# From -- ./inp_files/27764.got.cif
#   From: 2010.03.12/outbox.cif.g09.slc.cpg/sg62_14_cif.got.tgz:27764.got - 2010.04.10 19:12:36.
