data_PCOD8252355
_publ_section_title
;
Structure prediction by ZEFSAII (Michael W. Deem and Ramdas Pophale) SiO2 
 PCOD8252355
Probable space group: P N M A
;
_chemical_formula_sum "Si O2"
_cell_formula_units_Z 56
_cell_length_a 15.428117
_cell_length_b 8.646054
_cell_length_c 20.101202
_cell_angle_alpha 90.000000
_cell_angle_beta 90.000000
_cell_angle_gamma 90.000000
_cell_volume 2681.346225
_symmetry_space_group_name_H-M "P N M A"
_symmetry_group_IT_number 62
_symmetry_cell_setting 'orthorhombic'
loop_
_space_group_symop_operation_xyz
x,y,z
1/2-x,-y,1/2+z
1/2+x,1/2-y,1/2-z
-x,1/2+y,-z
-x,-y,-z
1/2+x,y,1/2-z
1/2-x,1/2+y,1/2+z
x,1/2-y,z
loop_
_atom_site_type_symbol
_atom_site_label
_atom_site_fract_x
_atom_site_fract_y
_atom_site_fract_z
Si Si1 0.325626 0.427207 0.435067
Si Si2 0.408000 0.072299 0.005335
Si Si3 0.496385 0.068635 0.217518
Si Si4 0.502452 0.566005 0.633519
Si Si5 0.839297 0.570302 0.367129
Si Si6 0.851093 0.925790 0.621171
Si Si7 0.320299 0.567287 0.577722
O O1 0.340123 0.250000 0.456053
O O2 0.414118 0.499716 0.405711
O O3 0.253970 0.436371 0.374649
O O4 0.297085 0.515504 0.502364
O O5 0.408289 0.250000 0.029387
O O6 0.368561 0.056955 0.932850
O O7 0.500000 0.000000 0.000000
O O8 0.357930 0.964239 0.056185
O O9 0.482167 0.250000 0.219105
O O10 0.497765 0.998358 0.291554
O O11 0.590882 0.028816 0.185235
O O12 0.413667 0.002508 0.178538
O O13 0.506140 0.750000 0.637072
O O14 0.416999 0.509766 0.594918
O O15 0.836209 0.750000 0.351234
O O16 0.742158 0.499174 0.363062
O O17 0.876935 0.750000 0.599428
O O18 0.310894 0.750000 0.580576
#
# Coordination Sequence:
#
# PCOD8252355 Si02
#       7
#     8   8   8   8   8   8   8
#     4  10  20  37  61  89 120 155 200 253 306 355
#     4  12  22  34  56  86 121 156 193 240 298 357
#     4  10  21  39  61  87 121 160 200 241 294 365
#     4   9  21  40  62  88 119 159 206 251 297 357
#     4  12  24  38  58  88 123 158 198 247 302 357
#     4  10  20  33  56  87 119 154 195 241 298 356
#     4  11  22  38  62  91 120 155 203 254 302 354
#
# _framework density 20.885031000000001
#
# number of rings (size 3 to 8) (size 9 to 14) (size 15 to 20)
#    0.000    1.429    2.857    3.429    0.000    1.143 
#    0.000    7.143    0.000    1.714    0.000    0.000 
#    0.000    0.000    0.000    0.000    0.000    0.000 
#
# Total GULP energy -693828.998867 kJ/mol
# GULP energy per Si atom -12389.803551 kJ/mol
# Density = 2.083750 g / cm^3
# Si number density = 20.885031 Si / 1000 Ang^3
#
#
#
# Elastic Constant Matrix: (Units=GPa)
#
#
# Indices 1 2 3 4 5 6 
#
# 1 156.2177 25.4040 42.1850 0.0000 0.0000 0.0000
# 2 25.4040 51.7120 16.3648 0.0000 0.0000 0.0000
# 3 42.1850 16.3648 93.2094 0.0000 0.0000 0.0000
# 4 0.0000 0.0000 0.0000 19.6831 0.0000 0.0000
# 5 0.0000 0.0000 0.0000 0.0000 25.1692 0.0000
# 6 0.0000 0.0000 0.0000 0.0000 0.0000 24.4445
#
#
#
# Elastic Compliance Matrix: (Units=1/GPa)
#
#
# Indices 1 2 3 4 5 6 
#
# 1 0.007663 -0.002824 -0.002972 0.000000 0.000000 0.000000
# 2 -0.002824 0.021516 -0.002500 0.000000 0.000000 0.000000
# 3 -0.002972 -0.002500 0.012513 0.000000 0.000000 0.000000
# 4 0.000000 0.000000 0.000000 0.050805 0.000000 0.000000
# 5 0.000000 0.000000 0.000000 0.000000 0.039731 0.000000
# 6 0.000000 0.000000 0.000000 0.000000 0.000000 0.040909
#
#
# Mechanical properties :
#
#
# Convention : Reuss Voigt Hill
#
# Bulk Modulus (GPa) = 39.84037 52.11630 45.97834
# Shear Modulus (GPa) = 25.24034 28.33840 26.78937
#
# Velocity S-wave (km/s) = 3.48017 3.68758 3.58537
# Velocity P-wave (km/s) = 5.93854 6.56803 6.26120
#
# Compressibility (1/GPa) = 0.02510017
#
# Stress axis : x y z
#
# Youngs Moduli (GPa) = 130.49325 46.47671 79.91910
#
# Poissons Ratio (x) = 0.13125 0.23756
# Poissons Ratio (y) = 0.36851 0.19976
# Poissons Ratio (z) = 0.38788 0.11617
#
# Static dielectric constant tensor:
#      x y z
#    x 4.185090 0.000000 0.000000 
#    y 0.000000 3.319860 0.000000 
#    z 0.000000 0.000000 3.730290 
# 
# 
# High freq. dielectric constant tensor:
#      x y z
#    x 1.844800 0.000000 0.000000 
#    y 0.000000 1.794820 0.000000 
#    z 0.000000 0.000000 1.796720 
# 
# From -- ./inp_files/27171.got.cif
#   From: 2010.03.12/outbox.cif.g09.slc.cpg/sg62_14_cif.got.tgz:27171.got - 2010.04.10 19:12:36.
