data_PCOD8252856
_publ_section_title
;
Structure prediction by ZEFSAII (Michael W. Deem and Ramdas Pophale) SiO2 
 PCOD8252856
Probable space group: P N M A
;
_chemical_formula_sum "Si O2"
_cell_formula_units_Z 48
_cell_length_a 14.729387
_cell_length_b 8.853994
_cell_length_c 19.615754
_cell_angle_alpha 90.000000
_cell_angle_beta 90.000000
_cell_angle_gamma 90.000000
_cell_volume 2558.167061
_symmetry_space_group_name_H-M "P N M A"
_symmetry_group_IT_number 62
_symmetry_cell_setting 'orthorhombic'
loop_
_space_group_symop_operation_xyz
x,y,z
1/2-x,-y,1/2+z
1/2+x,1/2-y,1/2-z
-x,1/2+y,-z
-x,-y,-z
1/2+x,y,1/2-z
1/2-x,1/2+y,1/2+z
x,1/2-y,z
loop_
_atom_site_type_symbol
_atom_site_label
_atom_site_fract_x
_atom_site_fract_y
_atom_site_fract_z
Si Si1 0.005335 0.572522 0.804136
Si Si2 0.611635 0.577344 0.192127
Si Si3 0.814141 0.927287 0.163615
Si Si4 0.942597 0.076905 0.941215
Si Si5 0.229695 0.577333 0.975291
Si Si6 0.914197 0.424751 0.534067
O O1 0.015225 0.750000 0.812538
O O2 0.105229 0.501931 0.792932
O O3 0.945082 0.535415 0.738536
O O4 0.956324 0.506678 0.870264
O O5 0.593800 0.750000 0.214640
O O6 0.718185 0.537139 0.199534
O O7 0.580623 0.551136 0.114852
O O8 0.830192 0.750000 0.158081
O O9 0.817798 0.992599 0.087485
O O10 0.974055 0.250000 0.933851
O O11 0.836206 0.066682 0.959672
O O12 0.000000 0.000000 0.000000
O O13 0.246927 0.750000 0.953612
O O14 0.324221 0.501338 0.996397
O O15 0.911019 0.250000 0.514644
O O16 0.000000 0.500000 0.500000
#
# Coordination Sequence:
#
# PCOD8252856 Si02
#       6
#     8   8   8   8   8   8
#     4  12  24  37  58  87 119 155 194 242 292 346
#     4   9  21  41  61  84 113 153 196 237 290 347
#     4  10  20  37  62  84 111 153 193 236 289 349
#     4  11  22  36  58  87 120 155 193 238 288 346
#     4  10  20  35  58  87 116 149 191 240 288 343
#     4  10  21  39  64  89 116 153 195 241 293 349
#
# _framework density 18.763432999999999
#
# number of rings (size 3 to 8) (size 9 to 14) (size 15 to 20)
#    0.000    1.667    1.667    4.500    0.000    6.000 
#    3.000    0.000    0.000    0.000    0.000    0.000 
#    0.000    0.000    0.000    0.000    0.000    0.000 
#
# Total GULP energy -595391.222241 kJ/mol
# GULP energy per Si atom -12403.983797 kJ/mol
# Density = 1.872073 g / cm^3
# Si number density = 18.763433 Si / 1000 Ang^3
#
#
#
# Elastic Constant Matrix: (Units=GPa)
#
#
# Indices 1 2 3 4 5 6 
#
# 1 143.4996 76.4063 56.5517 0.0000 0.0000 0.0000
# 2 76.4063 159.6442 48.1247 0.0000 0.0000 0.0000
# 3 56.5517 48.1247 62.1912 0.0000 0.0000 0.0000
# 4 0.0000 0.0000 0.0000 33.4747 0.0000 0.0000
# 5 0.0000 0.0000 0.0000 0.0000 32.5885 0.0000
# 6 0.0000 0.0000 0.0000 0.0000 0.0000 37.2346
#
#
#
# Elastic Compliance Matrix: (Units=1/GPa)
#
#
# Indices 1 2 3 4 5 6 
#
# 1 0.011995 -0.003199 -0.008432 0.000000 0.000000 0.000000
# 2 -0.003199 0.009023 -0.004073 0.000000 0.000000 0.000000
# 3 -0.008432 -0.004073 0.026898 0.000000 0.000000 0.000000
# 4 0.000000 0.000000 0.000000 0.029873 0.000000 0.000000
# 5 0.000000 0.000000 0.000000 0.000000 0.030686 0.000000
# 6 0.000000 0.000000 0.000000 0.000000 0.000000 0.026857
#
#
# Mechanical properties :
#
#
# Convention : Reuss Voigt Hill
#
# Bulk Modulus (GPa) = 60.57510 80.83338 70.70424
# Shear Modulus (GPa) = 29.02892 32.94304 30.98598
#
# Velocity S-wave (km/s) = 3.93759 4.19466 4.06815
# Velocity P-wave (km/s) = 7.28193 8.16297 7.73500
#
# Compressibility (1/GPa) = 0.01650843
#
# Stress axis : x y z
#
# Youngs Moduli (GPa) = 83.36939 110.82990 37.17704
#
# Poissons Ratio (x) = 0.35455 0.31346
# Poissons Ratio (y) = 0.26670 0.15143
# Poissons Ratio (z) = 0.70294 0.45142
#
# Static dielectric constant tensor:
#      x y z
#    x 3.506150 0.000000 0.000000 
#    y 0.000000 3.646560 0.000000 
#    z 0.000000 0.000000 3.666450 
# 
# 
# High freq. dielectric constant tensor:
#      x y z
#    x 1.742390 0.000000 0.000000 
#    y 0.000000 1.745950 0.000000 
#    z 0.000000 0.000000 1.706500 
# 
# From -- ./inp_files/23664.got.cif
#   From: 2010.03.12/outbox.cif.g09.slc.cpg/sg62_12_cif.got.tgz:23664.got - 2010.04.10 19:12:36.
