data_PCOD8252318
_publ_section_title
;
Structure prediction by ZEFSAII (Michael W. Deem and Ramdas Pophale) SiO2 
 PCOD8252318
Probable space group: P N M A
;
_chemical_formula_sum "Si O2"
_cell_formula_units_Z 48
_cell_length_a 9.982752
_cell_length_b 8.795823
_cell_length_c 29.103879
_cell_angle_alpha 90.000000
_cell_angle_beta 90.000000
_cell_angle_gamma 90.000000
_cell_volume 2555.510323
_symmetry_space_group_name_H-M "P N M A"
_symmetry_group_IT_number 62
_symmetry_cell_setting 'orthorhombic'
loop_
_space_group_symop_operation_xyz
x,y,z
1/2-x,-y,1/2+z
1/2+x,1/2-y,1/2-z
-x,1/2+y,-z
-x,-y,-z
1/2+x,y,1/2-z
1/2-x,1/2+y,1/2+z
x,1/2-y,z
loop_
_atom_site_type_symbol
_atom_site_label
_atom_site_fract_x
_atom_site_fract_y
_atom_site_fract_z
Si Si1 0.605065 0.929279 0.276605
Si Si2 0.321941 0.427005 0.286338
Si Si3 0.360148 0.422533 0.392015
Si Si4 0.620283 0.570450 0.942562
Si Si5 0.340785 0.571873 0.628737
Si Si6 0.651583 0.572297 0.045763
O O1 0.581047 0.750000 0.275884
O O2 0.703261 0.976900 0.235814
O O3 0.464561 0.013333 0.268453
O O4 0.672674 0.977990 0.324490
O O5 0.309922 0.250000 0.273177
O O6 0.309066 0.452844 0.340650
O O7 0.330312 0.250000 0.406679
O O8 0.517327 0.458932 0.395569
O O9 0.286384 0.532732 0.427346
O O10 0.614276 0.750000 0.940541
O O11 0.727153 0.510514 0.905588
O O12 0.474758 0.506200 0.929458
O O13 0.663846 0.513672 0.993245
O O14 0.326020 0.750000 0.640692
O O15 0.627129 0.750000 0.046956
#
# Coordination Sequence:
#
# PCOD8252318 Si02
#       6
#     8   8   8   8   8   8
#     4  11  22  36  56  84 112 136 173 228 277 310
#     4  10  21  39  59  78 106 147 185 213 258 327
#     4   9  19  35  55  77 102 136 176 215 256 311
#     4   9  19  36  55  75 103 140 179 216 256 311
#     4   9  19  37  57  76 103 141 181 215 257 320
#     4  10  20  33  52  79 108 137 172 217 266 310
#
# _framework density 18.782941000000001
#
# number of rings (size 3 to 8) (size 9 to 14) (size 15 to 20)
#    0.000    2.333    0.000    3.500    0.000    6.667 
#    0.000    1.667    0.000    0.000    0.000    0.000 
#    0.000    0.000    0.000    0.000    0.000    0.000 
#
# Total GULP energy -595361.034969 kJ/mol
# GULP energy per Si atom -12403.354895 kJ/mol
# Density = 1.874019 g / cm^3
# Si number density = 18.782941 Si / 1000 Ang^3
#
#
#
# Elastic Constant Matrix: (Units=GPa)
#
#
# Indices 1 2 3 4 5 6 
#
# 1 38.4698 8.5949 6.7431 0.0000 0.0000 0.0000
# 2 8.5949 43.0439 15.2783 0.0000 0.0000 0.0000
# 3 6.7431 15.2783 27.5649 0.0000 0.0000 0.0000
# 4 0.0000 0.0000 0.0000 30.1980 0.0000 0.0000
# 5 0.0000 0.0000 0.0000 0.0000 39.6054 0.0000
# 6 0.0000 0.0000 0.0000 0.0000 0.0000 31.5505
#
#
#
# Elastic Compliance Matrix: (Units=1/GPa)
#
#
# Indices 1 2 3 4 5 6 
#
# 1 0.027672 -0.003888 -0.004614 0.000000 0.000000 0.000000
# 2 -0.003888 0.029468 -0.015382 0.000000 0.000000 0.000000
# 3 -0.004614 -0.015382 0.045933 0.000000 0.000000 0.000000
# 4 0.000000 0.000000 0.000000 0.033115 0.000000 0.000000
# 5 0.000000 0.000000 0.000000 0.000000 0.025249 0.000000
# 6 0.000000 0.000000 0.000000 0.000000 0.000000 0.031695
#
#
# Mechanical properties :
#
#
# Convention : Reuss Voigt Hill
#
# Bulk Modulus (GPa) = 18.08183 18.92347 18.50265
# Shear Modulus (GPa) = 19.28008 25.50163 22.39085
#
# Velocity S-wave (km/s) = 3.20733 3.68870 3.45640
# Velocity P-wave (km/s) = 4.83359 5.31401 5.07948
#
# Compressibility (1/GPa) = 0.05530413
#
# Stress axis : x y z
#
# Youngs Moduli (GPa) = 36.13791 33.93478 21.77100
#
# Poissons Ratio (x) = 0.13192 0.10046
# Poissons Ratio (y) = 0.14049 0.33489
# Poissons Ratio (z) = 0.16676 0.52200
#
# Static dielectric constant tensor:
#      x y z
#    x 3.460970 0.000000 0.000000 
#    y 0.000000 3.374740 0.000000 
#    z 0.000000 0.000000 3.462900 
# 
# 
# High freq. dielectric constant tensor:
#      x y z
#    x 1.734020 0.000000 0.000000 
#    y 0.000000 1.728060 0.000000 
#    z 0.000000 0.000000 1.725400 
# 
# From -- ./inp_files/31933.got.cif
#   From: 2010.03.12/outbox.cif.g09.slc.cpg/sg62_16_cif.got.tgz:31933.got - 2010.04.10 19:12:36.
