data_PCOD8252773
_publ_section_title
;
Structure prediction by ZEFSAII (Michael W. Deem and Ramdas Pophale) SiO2 
 PCOD8252773
Probable space group: P N M A
;
_chemical_formula_sum "Si O2"
_cell_formula_units_Z 64
_cell_length_a 24.441845
_cell_length_b 13.534597
_cell_length_c 9.808973
_cell_angle_alpha 90.000000
_cell_angle_beta 90.000000
_cell_angle_gamma 90.000000
_cell_volume 3244.911479
_symmetry_space_group_name_H-M "P N M A"
_symmetry_group_IT_number 62
_symmetry_cell_setting 'orthorhombic'
loop_
_space_group_symop_operation_xyz
x,y,z
1/2-x,-y,1/2+z
1/2+x,1/2-y,1/2-z
-x,1/2+y,-z
-x,-y,-z
1/2+x,y,1/2-z
1/2-x,1/2+y,1/2+z
x,1/2-y,z
loop_
_atom_site_type_symbol
_atom_site_label
_atom_site_fract_x
_atom_site_fract_y
_atom_site_fract_z
Si Si1 0.437622 0.137258 0.283358
Si Si2 0.280150 0.636391 0.084865
Si Si3 0.563843 0.863605 0.403800
Si Si4 0.845644 0.637254 0.691098
Si Si5 0.328731 0.484597 0.583267
Si Si6 0.639723 0.033919 0.711178
Si Si7 0.535708 0.132154 0.094965
Si Si8 0.968326 0.866236 0.288857
O O1 0.424401 0.250000 0.245095
O O2 0.456033 0.125706 0.440097
O O3 0.486788 0.093038 0.191670
O O4 0.382109 0.076478 0.253972
O O5 0.280039 0.750000 0.136600
O O6 0.219188 0.595370 0.081238
O O7 0.314648 0.566712 0.183463
O O8 0.305593 0.629950 0.936161
O O9 0.576746 0.750000 0.369541
O O10 0.617318 0.926238 0.374720
O O11 0.517190 0.907196 0.304939
O O12 0.849626 0.750000 0.743454
O O13 0.818560 0.571030 0.808171
O O14 0.905726 0.596311 0.651374
O O15 0.333883 0.537426 0.437750
O O16 0.588396 0.107201 0.716701
O O17 0.535212 0.250000 0.093289
O O18 0.527095 0.089903 0.942034
O O19 0.971488 0.750000 0.296765
#
# Coordination Sequence:
#
# PCOD8252773 Si02
#       8
#     8   8   8   8   8   8   8   8
#     4   9  20  36  56  85 124 159 193 236 290 354
#     4  11  23  45  66  83 113 156 202 247 293 351
#     4   9  20  37  57  85 120 161 199 239 297 354
#     4  10  22  39  61  88 119 153 197 243 292 352
#     4  11  24  39  61  88 120 151 202 246 297 346
#     4  11  23  37  62  90 119 154 199 240 303 349
#     4   9  18  35  56  83 118 160 196 233 286 346
#     4  10  20  35  56  85 121 155 197 245 293 352
#
# _framework density 19.723188
#
# number of rings (size 3 to 8) (size 9 to 14) (size 15 to 20)
#    0.000    2.000    1.250    1.500    3.500    4.000 
#    0.000    0.625    0.000    0.750    0.000    0.000 
#    0.000    0.000    0.000    0.000    0.000    0.000 
#
# Total GULP energy -793738.149129 kJ/mol
# GULP energy per Si atom -12402.158580 kJ/mol
# Density = 1.967830 g / cm^3
# Si number density = 19.723188 Si / 1000 Ang^3
#
#
#
# Elastic Constant Matrix: (Units=GPa)
#
#
# Indices 1 2 3 4 5 6 
#
# 1 114.7591 52.5067 32.0917 0.0000 0.0000 0.0000
# 2 52.5067 137.8882 -4.3005 0.0000 0.0000 0.0000
# 3 32.0917 -4.3005 148.6375 0.0000 0.0000 0.0000
# 4 0.0000 0.0000 0.0000 28.0862 0.0000 0.0000
# 5 0.0000 0.0000 0.0000 0.0000 -11.2814 0.0000
# 6 0.0000 0.0000 0.0000 0.0000 0.0000 37.8689
#
#
#
# Elastic Compliance Matrix: (Units=1/GPa)
#
#
# Indices 1 2 3 4 5 6 
#
# 1 0.011481 -0.004453 -0.002608 0.000000 0.000000 0.000000
# 2 -0.004453 0.008986 0.001221 0.000000 0.000000 0.000000
# 3 -0.002608 0.001221 0.007326 0.000000 0.000000 0.000000
# 4 0.000000 0.000000 0.000000 0.035605 0.000000 0.000000
# 5 0.000000 0.000000 0.000000 0.000000 -0.088641 0.000000
# 6 0.000000 0.000000 0.000000 0.000000 0.000000 0.026407
#
#
# Mechanical properties :
#
#
# Convention : Reuss Voigt Hill
#
# Bulk Modulus (GPa) = 62.05646 62.43118 62.24382
# Shear Modulus (GPa) = 274.53573 32.33387 153.43480
#
# Velocity S-wave (km/s) = 11.81087 4.05332 8.82967
# Velocity P-wave (km/s) = 14.74881 7.32314 11.64379
#
# Compressibility (1/GPa) = 0.01611436
#
# Stress axis : x y z
#
# Youngs Moduli (GPa) = 87.10412 111.28404 136.49822
#
# Poissons Ratio (x) = 0.49555 0.35593
# Poissons Ratio (y) = 0.38788 -0.16672
# Poissons Ratio (z) = 0.22713 -0.13592
#
# Static dielectric constant tensor:
#      x y z
#    x 3.568730 0.000000 0.000000 
#    y 0.000000 3.629550 0.000000 
#    z 0.000000 0.000000 3.721180 
# 
# 
# High freq. dielectric constant tensor:
#      x y z
#    x 1.764180 0.000000 0.000000 
#    y 0.000000 1.776970 0.000000 
#    z 0.000000 0.000000 1.771520 
# 
# From -- ./inp_files/9472.got.cif
#   From: 2010.03.12/outbox.cif.g09.slc.cpg/sg62_5_cif.got.tgz:9472.got - 2010.04.10 19:12:36.
