data_PCOD8252556
_publ_section_title
;
Structure prediction by ZEFSAII (Michael W. Deem and Ramdas Pophale) SiO2 
 PCOD8252556
Probable space group: P N M A
;
_chemical_formula_sum "Si O2"
_cell_formula_units_Z 48
_cell_length_a 30.529704
_cell_length_b 8.830740
_cell_length_c 9.326661
_cell_angle_alpha 90.000000
_cell_angle_beta 90.000000
_cell_angle_gamma 90.000000
_cell_volume 2514.466671
_symmetry_space_group_name_H-M "P N M A"
_symmetry_group_IT_number 62
_symmetry_cell_setting 'orthorhombic'
loop_
_space_group_symop_operation_xyz
x,y,z
1/2-x,-y,1/2+z
1/2+x,1/2-y,1/2-z
-x,1/2+y,-z
-x,-y,-z
1/2+x,y,1/2-z
1/2-x,1/2+y,1/2+z
x,1/2-y,z
loop_
_atom_site_type_symbol
_atom_site_label
_atom_site_fract_x
_atom_site_fract_y
_atom_site_fract_z
Si Si1 0.787861 0.575951 0.095347
Si Si2 0.120875 0.426971 0.592090
Si Si3 0.613137 0.076075 0.582367
Si Si4 0.461343 0.429182 0.592151
Si Si5 0.962078 0.929524 0.594704
Si Si6 0.710205 0.572960 0.894902
O O1 0.779938 0.750000 0.139631
O O2 0.836672 0.557758 0.031328
O O3 0.781944 0.472729 0.232677
O O4 0.752640 0.516841 0.981507
O O5 0.129654 0.250000 0.596541
O O6 0.107727 0.479256 0.752846
O O7 0.083598 0.472946 0.480313
O O8 0.165984 0.501969 0.540142
O O9 0.597334 0.250000 0.565732
O O10 0.584659 0.968592 0.481494
O O11 0.500000 0.500000 0.500000
O O12 0.467417 0.250000 0.601725
O O13 0.463012 0.498053 0.749714
O O14 0.968376 0.750000 0.605584
O O15 0.000000 0.000000 0.500000
O O16 0.704820 0.750000 0.906377
#
# Coordination Sequence:
#
# PCOD8252556 Si02
#       6
#     8   8   8   8   8   8
#     4   9  20  37  55  79 113 149 184 228 281 331
#     4   9  20  38  59  82 112 148 182 225 283 337
#     4   9  18  37  60  81 110 147 187 231 281 335
#     4  12  25  40  59  85 115 148 188 233 281 333
#     4  11  23  40  62  87 115 149 187 228 279 336
#     4  10  20  34  56  84 111 145 189 231 272 326
#
# _framework density 19.089535000000001
#
# number of rings (size 3 to 8) (size 9 to 14) (size 15 to 20)
#    0.000    2.000    0.000    4.500    0.000    8.000 
#    0.000    5.000    0.000    0.000    0.000    0.000 
#    0.000    0.000    0.000    0.000    0.000    0.000 
#
# Total GULP energy -595308.749643 kJ/mol
# GULP energy per Si atom -12402.265618 kJ/mol
# Density = 1.904609 g / cm^3
# Si number density = 19.089535 Si / 1000 Ang^3
#
#
#
# Elastic Constant Matrix: (Units=GPa)
#
#
# Indices 1 2 3 4 5 6 
#
# 1 149.8769 64.6929 88.7304 0.0000 0.0000 0.0000
# 2 64.6929 79.8676 51.2055 0.0000 0.0000 0.0000
# 3 88.7304 51.2055 125.9868 0.0000 0.0000 0.0000
# 4 0.0000 0.0000 0.0000 32.9612 0.0000 0.0000
# 5 0.0000 0.0000 0.0000 0.0000 40.5701 0.0000
# 6 0.0000 0.0000 0.0000 0.0000 0.0000 33.8949
#
#
#
# Elastic Compliance Matrix: (Units=1/GPa)
#
#
# Indices 1 2 3 4 5 6 
#
# 1 0.013604 -0.006595 -0.006901 0.000000 0.000000 0.000000
# 2 -0.006595 0.020130 -0.003537 0.000000 0.000000 0.000000
# 3 -0.006901 -0.003537 0.014235 0.000000 0.000000 0.000000
# 4 0.000000 0.000000 0.000000 0.030339 0.000000 0.000000
# 5 0.000000 0.000000 0.000000 0.000000 0.024649 0.000000
# 6 0.000000 0.000000 0.000000 0.000000 0.000000 0.029503
#
#
# Mechanical properties :
#
#
# Convention : Reuss Voigt Hill
#
# Bulk Modulus (GPa) = 71.92146 84.99877 78.46011
# Shear Modulus (GPa) = 29.21240 31.55874 30.38557
#
# Velocity S-wave (km/s) = 3.91613 4.07036 3.99399
# Velocity P-wave (km/s) = 7.62927 8.16783 7.90314
#
# Compressibility (1/GPa) = 0.01390406
#
# Stress axis : x y z
#
# Youngs Moduli (GPa) = 73.50615 49.67605 70.24991
#
# Poissons Ratio (x) = 0.32763 0.48478
# Poissons Ratio (y) = 0.48479 0.24846
# Poissons Ratio (z) = 0.50725 0.17569
#
# Static dielectric constant tensor:
#      x y z
#    x 3.838070 0.000000 0.000000 
#    y 0.000000 3.512240 0.000000 
#    z 0.000000 0.000000 3.285050 
# 
# 
# High freq. dielectric constant tensor:
#      x y z
#    x 1.758100 0.000000 0.000000 
#    y 0.000000 1.743670 0.000000 
#    z 0.000000 0.000000 1.740050 
# 
# From -- ./inp_files/10160.got.cif
#   From: 2010.03.12/outbox.cif.g09.slc.cpg/sg62_6_cif.got.tgz:10160.got - 2010.04.10 19:12:36.
