data_PCOD8252646
_publ_section_title
;
Structure prediction by ZEFSAII (Michael W. Deem and Ramdas Pophale) SiO2 
 PCOD8252646
Probable space group: P N M A
;
_chemical_formula_sum "Si O2"
_cell_formula_units_Z 60
_cell_length_a 5.059154
_cell_length_b 24.987958
_cell_length_c 23.784564
_cell_angle_alpha 90.000000
_cell_angle_beta 90.000000
_cell_angle_gamma 90.000000
_cell_volume 3006.795291
_symmetry_space_group_name_H-M "P N M A"
_symmetry_group_IT_number 62
_symmetry_cell_setting 'orthorhombic'
loop_
_space_group_symop_operation_xyz
x,y,z
1/2-x,-y,1/2+z
1/2+x,1/2-y,1/2-z
-x,1/2+y,-z
-x,-y,-z
1/2+x,y,1/2-z
1/2-x,1/2+y,1/2+z
x,1/2-y,z
loop_
_atom_site_type_symbol
_atom_site_label
_atom_site_fract_x
_atom_site_fract_y
_atom_site_fract_z
Si Si1 0.107594 0.750000 0.714353
Si Si2 0.290732 0.364908 0.212287
Si Si3 0.621925 0.464809 0.950278
Si Si4 0.626612 0.688521 0.213023
Si Si5 0.898838 0.141070 0.596138
Si Si6 0.368508 0.069806 0.104023
Si Si7 0.887659 0.312031 0.958864
Si Si8 0.123159 0.899222 0.961697
O O1 0.298510 0.750000 0.769445
O O2 0.172662 0.693957 0.682308
O O3 0.496941 0.370710 0.263331
O O4 0.335076 0.412008 0.167913
O O5 0.427610 0.421008 0.922334
O O6 0.702415 0.506349 0.900862
O O7 0.500000 0.500000 0.000000
O O8 0.868478 0.435040 0.980584
O O9 0.341956 0.676912 0.239369
O O10 0.650781 0.750000 0.191524
O O11 0.673687 0.647517 0.161700
O O12 0.674604 0.167381 0.558511
O O13 0.172469 0.173196 0.588198
O O14 0.667128 0.081504 0.084661
O O15 0.168756 0.101103 0.063503
O O16 0.897740 0.250000 0.969604
O O17 0.809610 0.339079 0.018551
#
# Coordination Sequence:
#
# PCOD8252646 Si02
#       8
#     4   8   8   8   8   8   8   8
#     4   8  16  32  54  74 102 140 180 220 266 326
#     4  10  20  37  57  82 111 146 189 233 279 338
#     4   9  20  38  60  82 111 149 192 235 277 340
#     4  10  20  35  54  78 110 146 186 231 276 329
#     4  11  22  36  58  84 110 152 195 229 282 341
#     4  11  21  37  59  83 111 147 192 233 282 336
#     4  11  21  36  56  82 117 146 182 232 286 344
#     4  10  21  37  55  84 112 147 186 232 282 345
#
# _framework density 19.954801
#
# number of rings (size 3 to 8) (size 9 to 14) (size 15 to 20)
#    0.000    1.867    0.000    5.600    0.000    4.267 
#    2.400    1.333    0.000    0.000    0.000    0.000 
#    0.000    0.000    0.000    0.000    0.000    0.000 
#
# Total GULP energy -743721.421635 kJ/mol
# GULP energy per Si atom -12395.357027 kJ/mol
# Density = 1.990938 g / cm^3
# Si number density = 19.954801 Si / 1000 Ang^3
#
#
#
# Elastic Constant Matrix: (Units=GPa)
#
#
# Indices 1 2 3 4 5 6 
#
# 1 72.3512 21.3333 7.1175 0.0000 0.0000 0.0000
# 2 21.3333 121.6083 59.9335 0.0000 0.0000 0.0000
# 3 7.1175 59.9335 67.6533 0.0000 0.0000 0.0000
# 4 0.0000 0.0000 0.0000 35.1234 0.0000 0.0000
# 5 0.0000 0.0000 0.0000 0.0000 25.5926 0.0000
# 6 0.0000 0.0000 0.0000 0.0000 0.0000 21.0947
#
#
#
# Elastic Compliance Matrix: (Units=1/GPa)
#
#
# Indices 1 2 3 4 5 6 
#
# 1 0.014640 -0.003211 0.001305 0.000000 0.000000 0.000000
# 2 -0.003211 0.015300 -0.013216 0.000000 0.000000 0.000000
# 3 0.001305 -0.013216 0.026352 0.000000 0.000000 0.000000
# 4 0.000000 0.000000 0.000000 0.028471 0.000000 0.000000
# 5 0.000000 0.000000 0.000000 0.000000 0.039074 0.000000
# 6 0.000000 0.000000 0.000000 0.000000 0.000000 0.047405
#
#
# Mechanical properties :
#
#
# Convention : Reuss Voigt Hill
#
# Bulk Modulus (GPa) = 38.39314 48.70906 43.55110
# Shear Modulus (GPa) = 23.79024 27.91070 25.85047
#
# Velocity S-wave (km/s) = 3.45658 3.74397 3.60314
# Velocity P-wave (km/s) = 5.93400 6.56905 6.25959
#
# Compressibility (1/GPa) = 0.02604632
#
# Stress axis : x y z
#
# Youngs Moduli (GPa) = 68.30607 65.35955 37.94748
#
# Poissons Ratio (x) = 0.20988 -0.04950
# Poissons Ratio (y) = 0.21934 0.50153
# Poissons Ratio (z) = -0.08911 0.86381
#
# Static dielectric constant tensor:
#      x y z
#    x 3.682050 0.000000 0.000000 
#    y 0.000000 4.087220 0.000000 
#    z 0.000000 0.000000 3.349790 
# 
# 
# High freq. dielectric constant tensor:
#      x y z
#    x 1.791330 0.000000 0.000000 
#    y 0.000000 1.779210 0.000000 
#    z 0.000000 0.000000 1.746640 
# 
# From -- ./inp_files/25421.got.cif
#   From: 2010.03.12/outbox.cif.g09.slc.cpg/sg62_13_cif.got.tgz:25421.got - 2010.04.10 19:12:36.
