data_PCOD8252321
_publ_section_title
;
Structure prediction by ZEFSAII (Michael W. Deem and Ramdas Pophale) SiO2 
 PCOD8252321
Probable space group: P N M A
;
_chemical_formula_sum "Si O2"
_cell_formula_units_Z 64
_cell_length_a 15.837340
_cell_length_b 13.943358
_cell_length_c 14.394824
_cell_angle_alpha 90.000000
_cell_angle_beta 90.000000
_cell_angle_gamma 90.000000
_cell_volume 3178.747106
_symmetry_space_group_name_H-M "P N M A"
_symmetry_group_IT_number 62
_symmetry_cell_setting 'orthorhombic'
loop_
_space_group_symop_operation_xyz
x,y,z
1/2-x,-y,1/2+z
1/2+x,1/2-y,1/2-z
-x,1/2+y,-z
-x,-y,-z
1/2+x,y,1/2-z
1/2-x,1/2+y,1/2+z
x,1/2-y,z
loop_
_atom_site_type_symbol
_atom_site_label
_atom_site_fract_x
_atom_site_fract_y
_atom_site_fract_z
Si Si1 0.413005 0.861170 0.285753
Si Si2 0.666211 0.642634 0.788943
Si Si3 0.934074 0.861282 0.998398
Si Si4 0.293046 0.497489 0.521809
Si Si5 0.650065 0.641983 0.994964
Si Si6 0.580791 0.639239 0.185422
Si Si7 0.740861 0.957411 0.279575
Si Si8 0.606868 0.859259 0.594897
O O1 0.399023 0.750000 0.266444
O O2 0.434562 0.882802 0.392185
O O3 0.492130 0.899853 0.225047
O O4 0.326932 0.912246 0.258175
O O5 0.703429 0.750000 0.783824
O O6 0.618900 0.625601 0.888422
O O7 0.746760 0.572920 0.775952
O O8 0.598232 0.626716 0.706314
O O9 0.915123 0.750000 0.976748
O O10 0.023012 0.893852 0.956238
O O11 0.866289 0.928317 0.948370
O O12 0.219176 0.562745 0.479874
O O13 0.269685 0.432909 0.611227
O O14 0.316571 0.424907 0.439876
O O15 0.688398 0.750000 0.004554
O O16 0.576893 0.629992 0.072642
O O17 0.594243 0.750000 0.216273
O O18 0.659468 0.577891 0.223658
O O19 0.627439 0.750000 0.568583
#
# Coordination Sequence:
#
# PCOD8252321 Si02
#       8
#     8   8   8   8   8   8   8   8
#     4  10  21  37  59  89 120 145 179 232 287 339
#     4   9  19  35  53  76 108 148 193 237 278 323
#     4  10  20  35  57  84 110 140 184 233 280 332
#     4  11  21  33  53  80 108 146 185 226 275 332
#     4   9  18  34  56  78 101 139 190 232 270 326
#     4  10  20  36  60  87 114 146 184 230 286 344
#     4  11  22  35  56  84 114 149 186 231 282 334
#     4  10  20  33  52  80 114 147 180 227 284 336
#
# _framework density 20.133717000000001
#
# number of rings (size 3 to 8) (size 9 to 14) (size 15 to 20)
#    0.000    2.000    0.000    4.125    0.000    5.500 
#    0.000    2.500    0.000    5.250    0.000    8.750 
#    0.000    0.000    0.000    0.000    0.000    0.000 
#
# Total GULP energy -793302.612479 kJ/mol
# GULP energy per Si atom -12395.353320 kJ/mol
# Density = 2.008789 g / cm^3
# Si number density = 20.133717 Si / 1000 Ang^3
#
#
#
# Elastic Constant Matrix: (Units=GPa)
#
#
# Indices 1 2 3 4 5 6 
#
# 1 88.3888 33.7435 42.3776 0.0000 0.0000 0.0000
# 2 33.7435 57.6118 36.3674 0.0000 0.0000 0.0000
# 3 42.3776 36.3674 91.9673 0.0000 0.0000 0.0000
# 4 0.0000 0.0000 0.0000 24.6808 0.0000 0.0000
# 5 0.0000 0.0000 0.0000 0.0000 28.3491 0.0000
# 6 0.0000 0.0000 0.0000 0.0000 0.0000 16.2322
#
#
#
# Elastic Compliance Matrix: (Units=1/GPa)
#
#
# Indices 1 2 3 4 5 6 
#
# 1 0.016080 -0.006318 -0.004911 0.000000 0.000000 0.000000
# 2 -0.006318 0.025614 -0.007217 0.000000 0.000000 0.000000
# 3 -0.004911 -0.007217 0.015991 0.000000 0.000000 0.000000
# 4 0.000000 0.000000 0.000000 0.040517 0.000000 0.000000
# 5 0.000000 0.000000 0.000000 0.000000 0.035275 0.000000
# 6 0.000000 0.000000 0.000000 0.000000 0.000000 0.061606
#
#
# Mechanical properties :
#
#
# Convention : Reuss Voigt Hill
#
# Bulk Modulus (GPa) = 48.09691 51.43832 49.76761
# Shear Modulus (GPa) = 20.92865 22.21771 21.57318
#
# Velocity S-wave (km/s) = 3.22760 3.32551 3.27692
# Velocity P-wave (km/s) = 6.15065 6.35210 6.25219
#
# Compressibility (1/GPa) = 0.02079136
#
# Stress axis : x y z
#
# Youngs Moduli (GPa) = 62.18778 39.04092 62.53701
#
# Poissons Ratio (x) = 0.24667 0.30713
# Poissons Ratio (y) = 0.39291 0.45136
# Poissons Ratio (z) = 0.30542 0.28178
#
# Static dielectric constant tensor:
#      x y z
#    x 3.449180 0.000000 0.000000 
#    y 0.000000 3.892570 0.000000 
#    z 0.000000 0.000000 3.913760 
# 
# 
# High freq. dielectric constant tensor:
#      x y z
#    x 1.750820 0.000000 0.000000 
#    y 0.000000 1.797770 0.000000 
#    z 0.000000 0.000000 1.800820 
# 
# From -- ./inp_files/19961.got.cif
#   From: 2010.03.12/outbox.cif.g09.slc.cpg/sg62_10_cif.got.tgz:19961.got - 2010.04.10 19:12:36.
