data_PCOD8252613
_publ_section_title
;
Structure prediction by ZEFSAII (Michael W. Deem and Ramdas Pophale) SiO2 
 PCOD8252613
Probable space group: P N M A
;
_chemical_formula_sum "Si O2"
_cell_formula_units_Z 64
_cell_length_a 15.417529
_cell_length_b 17.823720
_cell_length_c 11.122398
_cell_angle_alpha 90.000000
_cell_angle_beta 90.000000
_cell_angle_gamma 90.000000
_cell_volume 3056.409611
_symmetry_space_group_name_H-M "P N M A"
_symmetry_group_IT_number 62
_symmetry_cell_setting 'orthorhombic'
loop_
_space_group_symop_operation_xyz
x,y,z
1/2-x,-y,1/2+z
1/2+x,1/2-y,1/2-z
-x,1/2+y,-z
-x,-y,-z
1/2+x,y,1/2-z
1/2-x,1/2+y,1/2+z
x,1/2-y,z
loop_
_atom_site_type_symbol
_atom_site_label
_atom_site_fract_x
_atom_site_fract_y
_atom_site_fract_z
Si Si1 0.502836 0.666156 0.757299
Si Si2 0.897062 0.494314 0.000000
Si Si3 0.839020 0.927010 0.242867
Si Si4 0.574666 0.831453 0.500001
Si Si5 0.339019 0.572989 0.742867
Si Si6 0.834938 0.079794 0.361350
Si Si7 0.997163 0.333844 0.742703
Si Si8 0.665063 0.920206 0.138652
O O1 0.509949 0.750000 0.810263
O O2 0.511755 0.665404 0.614213
O O3 0.407591 0.634578 0.786156
O O4 0.575352 0.614972 0.817923
O O5 0.861526 0.532928 0.882048
O O6 0.861527 0.532929 0.117951
O O7 0.865696 0.406185 0.000002
O O8 0.000000 0.500000 0.000000
O O9 0.744798 0.888377 0.220457
O O10 0.907593 0.865422 0.286156
O O11 0.836688 0.989753 0.346712
O O12 0.625453 0.750000 0.500001
O O13 0.511756 0.834596 0.385789
O O14 0.244797 0.611623 0.720455
O O15 0.336686 0.510247 0.846712
O O16 0.820098 0.100268 0.500001
O O17 0.990048 0.250000 0.689739
O O18 0.924646 0.385028 0.682081
#
# Coordination Sequence:
#
# PCOD8252613 Si02
#       8
#     8   8   8   8   8   8   8   8
#     4  11  23  40  62  90 126 165 204 257 318 373
#     4  12  16  34  66  92 118 153 208 265 308 356
#     4  11  22  39  64  94 122 163 210 261 311 376
#     4  10  20  34  60  92 121 154 200 256 317 367
#     4  11  22  39  64  94 122 163 210 261 311 376
#     4  11  24  40  63  94 127 160 209 260 314 374
#     4  11  23  40  62  90 126 165 204 257 318 373
#     4  11  24  40  63  94 127 160 209 260 314 374
#
# _framework density 20.939601
#
# number of rings (size 3 to 8) (size 9 to 14) (size 15 to 20)
#    0.000    1.000    6.250    0.750    0.000    3.500 
#    0.000    0.000    0.000    0.000    0.000    0.000 
#    0.000    0.000    0.000    0.000    0.000    0.000 
#
# Total GULP energy -793382.047200 kJ/mol
# GULP energy per Si atom -12396.594488 kJ/mol
# Density = 2.089194 g / cm^3
# Si number density = 20.939601 Si / 1000 Ang^3
#
#
#
# Elastic Constant Matrix: (Units=GPa)
#
#
# Indices 1 2 3 4 5 6 
#
# 1 118.4962 29.2680 30.7169 0.0000 0.0000 0.0000
# 2 29.2680 77.2937 15.1017 0.0000 0.0000 0.0000
# 3 30.7169 15.1017 54.5619 0.0000 0.0000 0.0000
# 4 0.0000 0.0000 0.0000 19.8000 0.0000 0.0000
# 5 0.0000 0.0000 0.0000 0.0000 17.3436 0.0000
# 6 0.0000 0.0000 0.0000 0.0000 0.0000 15.7202
#
#
#
# Elastic Compliance Matrix: (Units=1/GPa)
#
#
# Indices 1 2 3 4 5 6 
#
# 1 0.010493 -0.002980 -0.005082 0.000000 0.000000 0.000000
# 2 -0.002980 0.014524 -0.002342 0.000000 0.000000 0.000000
# 3 -0.005082 -0.002342 0.021837 0.000000 0.000000 0.000000
# 4 0.000000 0.000000 0.000000 0.050505 0.000000 0.000000
# 5 0.000000 0.000000 0.000000 0.000000 0.057658 0.000000
# 6 0.000000 0.000000 0.000000 0.000000 0.000000 0.063612
#
#
# Mechanical properties :
#
#
# Convention : Reuss Voigt Hill
#
# Bulk Modulus (GPa) = 38.39576 44.50277 41.44927
# Shear Modulus (GPa) = 20.15158 22.25712 21.20435
#
# Velocity S-wave (km/s) = 3.10557 3.26378 3.18566
# Velocity P-wave (km/s) = 5.58889 5.95836 5.77658
#
# Compressibility (1/GPa) = 0.02604454
#
# Stress axis : x y z
#
# Youngs Moduli (GPa) = 95.30533 68.85276 45.79344
#
# Poissons Ratio (x) = 0.20519 0.23273
# Poissons Ratio (y) = 0.28403 0.10725
# Poissons Ratio (z) = 0.48436 0.16126
#
# Static dielectric constant tensor:
#      x y z
#    x 4.036100 0.000000 0.000000 
#    y 0.000000 4.086520 0.000000 
#    z 0.000000 0.000000 3.761510 
# 
# 
# High freq. dielectric constant tensor:
#      x y z
#    x 1.816630 0.000000 0.000000 
#    y 0.000000 1.809710 0.000000 
#    z 0.000000 0.000000 1.815060 
# 
# From -- ./inp_files/13574.got.cif
#   From: 2010.03.12/outbox.cif.g09.slc.cpg/sg62_7_cif.got.tgz:13574.got - 2010.04.10 19:12:36.
