data_PCOD8252511
_publ_section_title
;
Structure prediction by ZEFSAII (Michael W. Deem and Ramdas Pophale) SiO2 
 PCOD8252511
Probable space group: P N M A
;
_chemical_formula_sum "Si O2"
_cell_formula_units_Z 48
_cell_length_a 29.924115
_cell_length_b 13.269785
_cell_length_c 6.101435
_cell_angle_alpha 90.000000
_cell_angle_beta 90.000000
_cell_angle_gamma 90.000000
_cell_volume 2422.797911
_symmetry_space_group_name_H-M "P N M A"
_symmetry_group_IT_number 62
_symmetry_cell_setting 'orthorhombic'
loop_
_space_group_symop_operation_xyz
x,y,z
1/2-x,-y,1/2+z
1/2+x,1/2-y,1/2-z
-x,1/2+y,-z
-x,-y,-z
1/2+x,y,1/2-z
1/2-x,1/2+y,1/2+z
x,1/2-y,z
loop_
_atom_site_type_symbol
_atom_site_label
_atom_site_fract_x
_atom_site_fract_y
_atom_site_fract_z
Si Si1 0.243886 0.864377 0.411023
Si Si2 0.163866 0.639036 0.721807
Si Si3 0.034227 0.019572 0.690374
Si Si4 0.463686 0.131267 0.569750
Si Si5 0.106700 0.527632 0.392515
Si Si6 0.814773 0.499723 0.897115
O O1 0.249002 0.750000 0.323576
O O2 0.213831 0.868341 0.627636
O O3 0.223665 0.932187 0.216330
O O4 0.292444 0.904815 0.484665
O O5 0.153709 0.750000 0.812739
O O6 0.129451 0.617727 0.526789
O O7 0.158332 0.564426 0.923944
O O8 0.081043 0.045695 0.566589
O O9 0.040996 0.916991 0.829449
O O10 0.000000 0.000000 0.500000
O O11 0.014411 0.109012 0.842166
O O12 0.455807 0.250000 0.553672
O O13 0.427454 0.078950 0.725074
O O14 0.146363 0.464921 0.272048
#
# Coordination Sequence:
#
# PCOD8252511 Si02
#       6
#     8   8   8   8   8   8
#     4  10  21  36  55  80 108 149 199 238 289 347
#     4  10  20  34  55  82 113 146 188 241 291 338
#     4   9  20  37  55  84 115 148 182 229 286 345
#     4  10  20  37  61  85 114 150 189 233 287 347
#     4  10  21  34  56  85 119 147 188 235 291 342
#     4  11  20  36  56  81 114 154 190 242 289 339
#
# _framework density 19.811805
#
# number of rings (size 3 to 8) (size 9 to 14) (size 15 to 20)
#    0.000    2.000    1.667    2.000    0.000    6.667 
#    0.000    0.833    0.000   11.000    0.000    0.000 
#    0.000    0.000    0.000    0.000    0.000    0.000 
#
# Total GULP energy -594925.082870 kJ/mol
# GULP energy per Si atom -12394.272560 kJ/mol
# Density = 1.976671 g / cm^3
# Si number density = 19.811805 Si / 1000 Ang^3
#
#
#
# Elastic Constant Matrix: (Units=GPa)
#
#
# Indices 1 2 3 4 5 6 
#
# 1 100.0181 29.0973 40.7788 0.0000 0.0000 0.0000
# 2 29.0973 50.3567 19.5530 0.0000 0.0000 0.0000
# 3 40.7788 19.5530 97.2256 0.0000 0.0000 0.0000
# 4 0.0000 0.0000 0.0000 20.4920 0.0000 0.0000
# 5 0.0000 0.0000 0.0000 0.0000 39.2346 0.0000
# 6 0.0000 0.0000 0.0000 0.0000 0.0000 15.5689
#
#
#
# Elastic Compliance Matrix: (Units=1/GPa)
#
#
# Indices 1 2 3 4 5 6 
#
# 1 0.013604 -0.006123 -0.004474 0.000000 0.000000 0.000000
# 2 -0.006123 0.024297 -0.002318 0.000000 0.000000 0.000000
# 3 -0.004474 -0.002318 0.012628 0.000000 0.000000 0.000000
# 4 0.000000 0.000000 0.000000 0.048799 0.000000 0.000000
# 5 0.000000 0.000000 0.000000 0.000000 0.025488 0.000000
# 6 0.000000 0.000000 0.000000 0.000000 0.000000 0.064231
#
#
# Mechanical properties :
#
#
# Convention : Reuss Voigt Hill
#
# Bulk Modulus (GPa) = 40.49022 47.38427 43.93725
# Shear Modulus (GPa) = 22.41047 25.60386 24.00717
#
# Velocity S-wave (km/s) = 3.36693 3.59883 3.48481
# Velocity P-wave (km/s) = 5.96630 6.42167 6.19817
#
# Compressibility (1/GPa) = 0.02469732
#
# Stress axis : x y z
#
# Youngs Moduli (GPa) = 73.50878 41.15810 79.18795
#
# Poissons Ratio (x) = 0.25202 0.35431
# Poissons Ratio (y) = 0.45011 0.18356
# Poissons Ratio (z) = 0.32890 0.09541
#
# Static dielectric constant tensor:
#      x y z
#    x 4.017850 0.000000 0.000000 
#    y 0.000000 3.319050 0.000000 
#    z 0.000000 0.000000 3.846470 
# 
# 
# High freq. dielectric constant tensor:
#      x y z
#    x 1.781050 0.000000 0.000000 
#    y 0.000000 1.725210 0.000000 
#    z 0.000000 0.000000 1.791320 
# 
# From -- ./inp_files/3558.got.cif
#   From: 2010.03.12/outbox.cif.g09.slc.cpg/sg62_2_cif.got.tgz:3558.got - 2010.04.10 19:12:36.
