data_PCOD8252565
_publ_section_title
;
Structure prediction by ZEFSAII (Michael W. Deem and Ramdas Pophale) SiO2 
 PCOD8252565
Probable space group: P N M A
;
_chemical_formula_sum "Si O2"
_cell_formula_units_Z 64
_cell_length_a 24.606912
_cell_length_b 8.875587
_cell_length_c 14.989013
_cell_angle_alpha 90.000000
_cell_angle_beta 90.000000
_cell_angle_gamma 90.000000
_cell_volume 3273.612254
_symmetry_space_group_name_H-M "P N M A"
_symmetry_group_IT_number 62
_symmetry_cell_setting 'orthorhombic'
loop_
_space_group_symop_operation_xyz
x,y,z
1/2-x,-y,1/2+z
1/2+x,1/2-y,1/2-z
-x,1/2+y,-z
-x,-y,-z
1/2+x,y,1/2-z
1/2-x,1/2+y,1/2+z
x,1/2-y,z
loop_
_atom_site_type_symbol
_atom_site_label
_atom_site_fract_x
_atom_site_fract_y
_atom_site_fract_z
Si Si1 0.866908 0.923177 0.345828
Si Si2 0.832343 0.425812 0.513797
Si Si3 0.446428 0.929145 0.310975
Si Si4 0.354810 0.422847 0.784938
Si Si5 0.559508 0.427685 0.337745
Si Si6 0.898022 0.426029 0.014323
Si Si7 0.723298 0.922630 0.545405
Si Si8 0.267650 0.921118 0.273298
O O1 0.876921 0.750000 0.366991
O O2 0.910417 0.979718 0.273628
O O3 0.805934 0.953639 0.310571
O O4 0.873269 0.010535 0.439124
O O5 0.829829 0.250000 0.503510
O O6 0.854299 0.471372 0.611295
O O7 0.771106 0.484577 0.498517
O O8 0.454762 0.750000 0.314318
O O9 0.503017 0.014092 0.298196
O O10 0.416098 0.980883 0.399873
O O11 0.374443 0.250000 0.773322
O O12 0.394228 0.534939 0.733707
O O13 0.294678 0.443382 0.743683
O O14 0.557709 0.250000 0.354891
O O15 0.569055 0.513207 0.430251
O O16 0.911549 0.250000 0.028679
O O17 0.833970 0.450928 0.995888
O O18 0.740692 0.750000 0.539844
O O19 0.715668 0.966820 0.648329
O O20 0.276220 0.750000 0.308677
#
# Coordination Sequence:
#
# PCOD8252565 Si02
#       8
#     8   8   8   8   8   8   8   8
#     4  10  21  37  61  91 121 157 198 243 298 356
#     4  10  22  38  60  88 123 161 197 246 299 355
#     4  11  23  42  65  88 120 158 199 247 298 356
#     4   9  20  40  61  84 119 158 198 246 300 350
#     4  12  26  41  61  87 117 156 204 253 298 354
#     4  11  23  39  60  88 122 160 199 243 295 353
#     4  10  20  34  56  86 121 158 195 238 290 350
#     4   9  18  35  58  85 119 155 192 239 296 352
#
# _framework density 19.550267999999999
#
# number of rings (size 3 to 8) (size 9 to 14) (size 15 to 20)
#    0.000    1.750    1.250    3.750    1.750    5.500 
#    0.000    0.625    0.000    0.000    0.000    0.000 
#    0.000    0.000    0.000    0.000    0.000    0.000 
#
# Total GULP energy -793770.972644 kJ/mol
# GULP energy per Si atom -12402.671448 kJ/mol
# Density = 1.950577 g / cm^3
# Si number density = 19.550268 Si / 1000 Ang^3
#
#
#
# Elastic Constant Matrix: (Units=GPa)
#
#
# Indices 1 2 3 4 5 6 
#
# 1 78.3043 28.6686 22.7772 0.0000 0.0000 0.0000
# 2 28.6686 56.3344 26.5700 0.0000 0.0000 0.0000
# 3 22.7772 26.5700 53.3829 0.0000 0.0000 0.0000
# 4 0.0000 0.0000 0.0000 35.3701 0.0000 0.0000
# 5 0.0000 0.0000 0.0000 0.0000 27.3745 0.0000
# 6 0.0000 0.0000 0.0000 0.0000 0.0000 32.1522
#
#
#
# Elastic Compliance Matrix: (Units=1/GPa)
#
#
# Indices 1 2 3 4 5 6 
#
# 1 0.016229 -0.006525 -0.003677 0.000000 0.000000 0.000000
# 2 -0.006525 0.025820 -0.010067 0.000000 0.000000 0.000000
# 3 -0.003677 -0.010067 0.025312 0.000000 0.000000 0.000000
# 4 0.000000 0.000000 0.000000 0.028272 0.000000 0.000000
# 5 0.000000 0.000000 0.000000 0.000000 0.036530 0.000000
# 6 0.000000 0.000000 0.000000 0.000000 0.000000 0.031102
#
#
# Mechanical properties :
#
#
# Convention : Reuss Voigt Hill
#
# Bulk Modulus (GPa) = 37.28127 38.22813 37.75470
# Shear Modulus (GPa) = 23.50234 26.31310 24.90772
#
# Velocity S-wave (km/s) = 3.47096 3.67266 3.57323
# Velocity P-wave (km/s) = 5.93079 6.13032 6.03138
#
# Compressibility (1/GPa) = 0.02682312
#
# Stress axis : x y z
#
# Youngs Moduli (GPa) = 61.61776 38.73004 39.50661
#
# Poissons Ratio (x) = 0.25270 0.14527
# Poissons Ratio (y) = 0.40204 0.39772
# Poissons Ratio (z) = 0.22657 0.38990
#
# Static dielectric constant tensor:
#      x y z
#    x 3.640520 0.000000 0.000000 
#    y 0.000000 3.570710 0.000000 
#    z 0.000000 0.000000 3.634120 
# 
# 
# High freq. dielectric constant tensor:
#      x y z
#    x 1.758350 0.000000 0.000000 
#    y 0.000000 1.765080 0.000000 
#    z 0.000000 0.000000 1.758540 
# 
# From -- ./inp_files/20762.got.cif
#   From: 2010.03.12/outbox.cif.g09.slc.cpg/sg62_11_cif.got.tgz:20762.got - 2010.04.10 19:12:36.
