data_PCOD8252288
_publ_section_title
;
Structure prediction by ZEFSAII (Michael W. Deem and Ramdas Pophale) SiO2 
 PCOD8252288
Probable space group: P N M A
;
_chemical_formula_sum "Si O2"
_cell_formula_units_Z 64
_cell_length_a 18.876698
_cell_length_b 8.546161
_cell_length_c 23.011268
_cell_angle_alpha 90.000000
_cell_angle_beta 90.000000
_cell_angle_gamma 90.000000
_cell_volume 3712.253697
_symmetry_space_group_name_H-M "P N M A"
_symmetry_group_IT_number 62
_symmetry_cell_setting 'orthorhombic'
loop_
_space_group_symop_operation_xyz
x,y,z
1/2-x,-y,1/2+z
1/2+x,1/2-y,1/2-z
-x,1/2+y,-z
-x,-y,-z
1/2+x,y,1/2-z
1/2-x,1/2+y,1/2+z
x,1/2-y,z
loop_
_atom_site_type_symbol
_atom_site_label
_atom_site_fract_x
_atom_site_fract_y
_atom_site_fract_z
Si Si1 0.853676 0.069232 0.943161
Si Si2 0.734680 0.433435 0.345890
Si Si3 0.005204 0.572075 0.239253
Si Si4 0.988358 0.930411 0.884220
Si Si5 0.128167 0.068857 0.934055
Si Si6 0.161882 0.930965 0.264420
Si Si7 0.630665 0.930359 0.777045
Si Si8 0.279262 0.432415 0.336998
O O1 0.850791 0.250000 0.960874
O O2 0.785916 0.027912 0.903503
O O3 0.925119 0.037287 0.907415
O O4 0.849580 0.963150 0.000068
O O5 0.726316 0.250000 0.357489
O O6 0.681860 0.477093 0.293876
O O7 0.815238 0.477335 0.328500
O O8 0.998917 0.750000 0.217420
O O9 0.999227 0.460263 0.183662
O O10 0.078029 0.546430 0.274308
O O11 0.940672 0.531769 0.282742
O O12 0.968444 0.750000 0.894093
O O13 0.059596 0.966245 0.919361
O O14 0.109507 0.250000 0.925703
O O15 0.194012 0.023161 0.893496
O O16 0.182820 0.750000 0.256794
O O17 0.201750 0.003031 0.320049
O O18 0.609939 0.750000 0.781847
O O19 0.667270 0.966675 0.715554
O O20 0.273798 0.250000 0.351168
#
# Coordination Sequence:
#
# PCOD8252288 Si02
#       8
#     8   8   8   8   8   8   8   8
#     4  12  24  38  54  75 104 139 181 220 261 310
#     4  10  20  35  53  75 102 136 177 219 262 310
#     4  11  21  32  51  79 108 139 176 213 259 312
#     4  12  23  36  52  73 106 142 180 218 256 304
#     4  12  24  38  55  75 103 140 180 219 262 308
#     4  10  20  33  51  76 106 138 174 216 261 312
#     4   9  19  33  52  75 104 136 172 213 261 311
#     4  10  20  35  53  76 103 136 176 218 262 309
#
# _framework density 17.240200999999999
#
# number of rings (size 3 to 8) (size 9 to 14) (size 15 to 20)
#    0.000    1.250    2.500    6.000    0.000    4.000 
#    0.000    0.000    0.000    0.000    0.000    0.875 
#    0.000    0.000    0.000    0.000    0.000    0.000 
#
# Total GULP energy -793919.098678 kJ/mol
# GULP energy per Si atom -12404.985917 kJ/mol
# Density = 1.720096 g / cm^3
# Si number density = 17.240201 Si / 1000 Ang^3
#
#
#
# Elastic Constant Matrix: (Units=GPa)
#
#
# Indices 1 2 3 4 5 6 
#
# 1 99.0843 32.2716 34.9779 0.0000 0.0000 0.0000
# 2 32.2716 76.8941 12.3774 0.0000 0.0000 0.0000
# 3 34.9779 12.3774 59.8408 0.0000 0.0000 0.0000
# 4 0.0000 0.0000 0.0000 25.3185 0.0000 0.0000
# 5 0.0000 0.0000 0.0000 0.0000 22.6732 0.0000
# 6 0.0000 0.0000 0.0000 0.0000 0.0000 29.6274
#
#
#
# Elastic Compliance Matrix: (Units=1/GPa)
#
#
# Indices 1 2 3 4 5 6 
#
# 1 0.014244 -0.004798 -0.007333 0.000000 0.000000 0.000000
# 2 -0.004798 0.015069 -0.000313 0.000000 0.000000 0.000000
# 3 -0.007333 -0.000313 0.021062 0.000000 0.000000 0.000000
# 4 0.000000 0.000000 0.000000 0.039497 0.000000 0.000000
# 5 0.000000 0.000000 0.000000 0.000000 0.044105 0.000000
# 6 0.000000 0.000000 0.000000 0.000000 0.000000 0.033752
#
#
# Mechanical properties :
#
#
# Convention : Reuss Voigt Hill
#
# Bulk Modulus (GPa) = 39.23473 43.89702 41.56587
# Shear Modulus (GPa) = 24.86182 25.93665 25.39923
#
# Velocity S-wave (km/s) = 3.80160 3.88290 3.84247
# Velocity P-wave (km/s) = 6.48665 6.75425 6.62180
#
# Compressibility (1/GPa) = 0.02548762
#
# Stress axis : x y z
#
# Youngs Moduli (GPa) = 70.20634 66.36283 47.47857
#
# Poissons Ratio (x) = 0.31838 0.34818
# Poissons Ratio (y) = 0.33682 0.01484
# Poissons Ratio (z) = 0.51485 0.02074
#
# Static dielectric constant tensor:
#      x y z
#    x 3.298400 0.000000 0.000000 
#    y 0.000000 3.291840 0.000000 
#    z 0.000000 0.000000 3.039290 
# 
# 
# High freq. dielectric constant tensor:
#      x y z
#    x 1.660380 0.000000 0.000000 
#    y 0.000000 1.683280 0.000000 
#    z 0.000000 0.000000 1.633630 
# 
# From -- ./inp_files/30056.got.cif
#   From: 2010.03.12/outbox.cif.g09.slc.cpg/sg62_16_cif.got.tgz:30056.got - 2010.04.10 19:12:36.
