data_PCOD8252963
_publ_section_title
;
Structure prediction by ZEFSAII (Michael W. Deem and Ramdas Pophale) SiO2 
 PCOD8252963
Probable space group: P N M A
;
_chemical_formula_sum "Si O2"
_cell_formula_units_Z 40
_cell_length_a 22.653377
_cell_length_b 9.630461
_cell_length_c 10.078062
_cell_angle_alpha 90.000000
_cell_angle_beta 90.000000
_cell_angle_gamma 90.000000
_cell_volume 2198.654835
_symmetry_space_group_name_H-M "P N M A"
_symmetry_group_IT_number 62
_symmetry_cell_setting 'orthorhombic'
loop_
_space_group_symop_operation_xyz
x,y,z
1/2-x,-y,1/2+z
1/2+x,1/2-y,1/2-z
-x,1/2+y,-z
-x,-y,-z
1/2+x,y,1/2-z
1/2-x,1/2+y,1/2+z
x,1/2-y,z
loop_
_atom_site_type_symbol
_atom_site_label
_atom_site_fract_x
_atom_site_fract_y
_atom_site_fract_z
Si Si1 0.375908 0.410605 0.728864
Si Si2 0.827126 0.590940 0.533871
Si Si3 0.309776 0.410264 0.464345
Si Si4 0.627068 0.411317 0.749533
Si Si5 0.497428 0.590453 0.369345
O O1 0.360979 0.250000 0.754205
O O2 0.346585 0.460970 0.591683
O O3 0.445850 0.438278 0.722265
O O4 0.349156 0.496558 0.847873
O O5 0.838843 0.750000 0.573648
O O6 0.758555 0.564572 0.505207
O O7 0.862961 0.549604 0.402397
O O8 0.323679 0.250000 0.432307
O O9 0.328135 0.500572 0.338582
O O10 0.641121 0.250000 0.723666
O O11 0.559698 0.449605 0.716186
O O12 0.500000 0.500000 0.500000
O O13 0.495911 0.750000 0.415453
#
# Coordination Sequence:
#
# PCOD8252963 Si02
#       5
#     8   8   8   8   8
#     4  10  21  37  57  82 112 145 183 229 276 324
#     4  10  22  37  53  80 115 147 182 224 273 328
#     4  10  20  36  57  80 110 147 185 225 270 325
#     4  10  21  37  58  83 111 144 183 228 275 326
#     4  10  20  36  59  83 108 141 185 229 274 329
#
# _framework density 18.192941999999999
#
# number of rings (size 3 to 8) (size 9 to 14) (size 15 to 20)
#    0.000    2.000    2.000    1.200    0.000    5.600 
#    0.000    0.000    0.000    0.000    0.000    0.000 
#    0.000    0.000    0.000    0.000    0.000    0.000 
#
# Total GULP energy -496190.687607 kJ/mol
# GULP energy per Si atom -12404.767190 kJ/mol
# Density = 1.815153 g / cm^3
# Si number density = 18.192942 Si / 1000 Ang^3
#
#
#
# Elastic Constant Matrix: (Units=GPa)
#
#
# Indices 1 2 3 4 5 6 
#
# 1 73.4364 26.6634 21.1254 0.0000 0.0000 0.0000
# 2 26.6634 59.0240 49.7030 0.0000 0.0000 0.0000
# 3 21.1254 49.7030 93.3133 0.0000 0.0000 0.0000
# 4 0.0000 0.0000 0.0000 36.4823 0.0000 0.0000
# 5 0.0000 0.0000 0.0000 0.0000 28.2532 0.0000
# 6 0.0000 0.0000 0.0000 0.0000 0.0000 28.4130
#
#
#
# Elastic Compliance Matrix: (Units=1/GPa)
#
#
# Indices 1 2 3 4 5 6 
#
# 1 0.016298 -0.007716 0.000420 0.000000 0.000000 0.000000
# 2 -0.007716 0.034375 -0.016563 0.000000 0.000000 0.000000
# 3 0.000420 -0.016563 0.019444 0.000000 0.000000 0.000000
# 4 0.000000 0.000000 0.000000 0.027411 0.000000 0.000000
# 5 0.000000 0.000000 0.000000 0.000000 0.035394 0.000000
# 6 0.000000 0.000000 0.000000 0.000000 0.000000 0.035195
#
#
# Mechanical properties :
#
#
# Convention : Reuss Voigt Hill
#
# Bulk Modulus (GPa) = 44.64490 46.75080 45.69785
# Shear Modulus (GPa) = 22.39126 27.18181 24.78653
#
# Velocity S-wave (km/s) = 3.51203 3.86953 3.69511
# Velocity P-wave (km/s) = 6.40615 6.76146 6.58620
#
# Compressibility (1/GPa) = 0.02239898
#
# Stress axis : x y z
#
# Youngs Moduli (GPa) = 61.35727 29.09056 51.43071
#
# Poissons Ratio (x) = 0.22447 -0.02162
# Poissons Ratio (y) = 0.47346 0.85185
# Poissons Ratio (z) = -0.02579 0.48183
#
# Static dielectric constant tensor:
#      x y z
#    x 3.673620 0.000000 0.000000 
#    y 0.000000 3.300190 0.000000 
#    z 0.000000 0.000000 3.327820 
# 
# 
# High freq. dielectric constant tensor:
#      x y z
#    x 1.721950 0.000000 0.000000 
#    y 0.000000 1.702790 0.000000 
#    z 0.000000 0.000000 1.701790 
# 
# From -- ./inp_files/8455.got.cif
#   From: 2010.03.12/outbox.cif.g09.slc.cpg/sg62_5_cif.got.tgz:8455.got - 2010.04.10 19:12:36.
