data_PCOD8252710
_publ_section_title
;
Structure prediction by ZEFSAII (Michael W. Deem and Ramdas Pophale) SiO2 
 PCOD8252710
Probable space group: P N M A
;
_chemical_formula_sum "Si O2"
_cell_formula_units_Z 64
_cell_length_a 22.579217
_cell_length_b 8.684743
_cell_length_c 16.462207
_cell_angle_alpha 90.000000
_cell_angle_beta 90.000000
_cell_angle_gamma 90.000000
_cell_volume 3228.151490
_symmetry_space_group_name_H-M "P N M A"
_symmetry_group_IT_number 62
_symmetry_cell_setting 'orthorhombic'
loop_
_space_group_symop_operation_xyz
x,y,z
1/2-x,-y,1/2+z
1/2+x,1/2-y,1/2-z
-x,1/2+y,-z
-x,-y,-z
1/2+x,y,1/2-z
1/2-x,1/2+y,1/2+z
x,1/2-y,z
loop_
_atom_site_type_symbol
_atom_site_label
_atom_site_fract_x
_atom_site_fract_y
_atom_site_fract_z
Si Si1 0.515657 0.429707 0.253125
Si Si2 0.340446 0.574710 0.050797
Si Si3 0.163773 0.429167 0.951361
Si Si4 0.711625 0.570233 0.102583
Si Si5 0.027784 0.068948 0.583044
Si Si6 0.137462 0.925151 0.253003
Si Si7 0.215465 0.919725 0.099668
Si Si8 0.537333 0.568644 0.575522
O O1 0.504230 0.250000 0.242351
O O2 0.499140 0.509030 0.167665
O O3 0.583811 0.465415 0.271082
O O4 0.482458 0.491497 0.334707
O O5 0.345314 0.750000 0.018927
O O6 0.402851 0.524621 0.089135
O O7 0.286079 0.554516 0.113923
O O8 0.324588 0.462254 0.978163
O O9 0.149695 0.250000 0.936805
O O10 0.220239 0.490340 0.898589
O O11 0.106128 0.527523 0.931596
O O12 0.183869 0.452576 0.044309
O O13 0.715453 0.750000 0.117759
O O14 0.671510 0.495818 0.172107
O O15 0.016772 0.250000 0.579125
O O16 0.000000 0.000000 0.500000
O O17 0.114821 0.750000 0.269514
O O18 0.187172 0.927129 0.186139
O O19 0.205679 0.750000 0.059751
O O20 0.500000 0.500000 0.500000
O O21 0.528144 0.750000 0.570181
#
# Coordination Sequence:
#
# PCOD8252710 Si02
#       8
#     8   8   8   8   8   8   8   8
#     4  11  25  41  57  83 117 151 193 241 286 342
#     4   9  19  35  55  80 108 142 184 227 275 332
#     4  10  20  35  56  82 112 145 183 226 277 337
#     4   9  19  34  54  81 110 141 179 226 277 333
#     4  11  23  39  61  87 118 156 195 237 286 339
#     4  10  20  35  56  80 106 140 182 228 281 336
#     4   9  18  34  56  80 108 141 180 228 280 336
#     4  11  24  41  61  85 116 154 195 241 291 343
#
# _framework density 19.825588
#
# number of rings (size 3 to 8) (size 9 to 14) (size 15 to 20)
#    0.000    2.000    0.000    3.000    0.000    9.500 
#    0.000    2.500    0.000    0.000    0.000    0.000 
#    0.000    0.000    0.000    0.000    0.000    0.000 
#
# Total GULP energy -793064.353861 kJ/mol
# GULP energy per Si atom -12391.630529 kJ/mol
# Density = 1.978046 g / cm^3
# Si number density = 19.825588 Si / 1000 Ang^3
#
#
#
# Elastic Constant Matrix: (Units=GPa)
#
#
# Indices 1 2 3 4 5 6 
#
# 1 125.6805 28.6350 49.4299 0.0000 0.0000 0.0000
# 2 28.6350 47.2169 28.9551 0.0000 0.0000 0.0000
# 3 49.4299 28.9551 102.4900 0.0000 0.0000 0.0000
# 4 0.0000 0.0000 0.0000 27.9477 0.0000 0.0000
# 5 0.0000 0.0000 0.0000 0.0000 27.5394 0.0000
# 6 0.0000 0.0000 0.0000 0.0000 0.0000 30.4673
#
#
#
# Elastic Compliance Matrix: (Units=1/GPa)
#
#
# Indices 1 2 3 4 5 6 
#
# 1 0.010381 -0.003901 -0.003905 0.000000 0.000000 0.000000
# 2 -0.003901 0.027083 -0.005770 0.000000 0.000000 0.000000
# 3 -0.003905 -0.005770 0.013270 0.000000 0.000000 0.000000
# 4 0.000000 0.000000 0.000000 0.035781 0.000000 0.000000
# 5 0.000000 0.000000 0.000000 0.000000 0.036312 0.000000
# 6 0.000000 0.000000 0.000000 0.000000 0.000000 0.032822
#
#
# Mechanical properties :
#
#
# Convention : Reuss Voigt Hill
#
# Bulk Modulus (GPa) = 42.40326 54.38082 48.39204
# Shear Modulus (GPa) = 26.22443 28.41537 27.31990
#
# Velocity S-wave (km/s) = 3.64092 3.78996 3.71619
# Velocity P-wave (km/s) = 6.25377 6.82941 6.54792
#
# Compressibility (1/GPa) = 0.02358309
#
# Stress axis : x y z
#
# Youngs Moduli (GPa) = 96.32768 36.92340 75.35650
#
# Poissons Ratio (x) = 0.14405 0.29424
# Poissons Ratio (y) = 0.37581 0.43479
# Poissons Ratio (z) = 0.37612 0.21304
#
# Static dielectric constant tensor:
#      x y z
#    x 3.904040 0.000000 0.000000 
#    y 0.000000 3.797140 0.000000 
#    z 0.000000 0.000000 3.669860 
# 
# 
# High freq. dielectric constant tensor:
#      x y z
#    x 1.792120 0.000000 0.000000 
#    y 0.000000 1.766400 0.000000 
#    z 0.000000 0.000000 1.767490 
# 
# From -- ./inp_files/20881.got.cif
#   From: 2010.03.12/outbox.cif.g09.slc.cpg/sg62_11_cif.got.tgz:20881.got - 2010.04.10 19:12:36.
