data_PCOD8252123
_publ_section_title
;
Structure prediction by ZEFSAII (Michael W. Deem and Ramdas Pophale) SiO2 
 PCOD8252123
Probable space group: P N M A
;
_chemical_formula_sum "Si O2"
_cell_formula_units_Z 48
_cell_length_a 9.709957
_cell_length_b 29.821609
_cell_length_c 8.343385
_cell_angle_alpha 90.000000
_cell_angle_beta 90.000000
_cell_angle_gamma 90.000000
_cell_volume 2415.965135
_symmetry_space_group_name_H-M "P N M A"
_symmetry_group_IT_number 62
_symmetry_cell_setting 'orthorhombic'
loop_
_space_group_symop_operation_xyz
x,y,z
1/2-x,-y,1/2+z
1/2+x,1/2-y,1/2-z
-x,1/2+y,-z
-x,-y,-z
1/2+x,y,1/2-z
1/2-x,1/2+y,1/2+z
x,1/2-y,z
loop_
_atom_site_type_symbol
_atom_site_label
_atom_site_fract_x
_atom_site_fract_y
_atom_site_fract_z
Si Si1 0.124025 0.700612 0.590751
Si Si2 0.920034 0.587196 0.876783
Si Si3 0.831083 0.831542 0.660483
Si Si4 0.940631 0.953164 0.555643
Si Si5 0.670815 0.890523 0.072465
Si Si6 0.300788 0.401139 0.558849
O O1 0.158562 0.750000 0.519797
O O2 0.205725 0.695710 0.759018
O O3 0.173958 0.662398 0.467246
O O4 0.959269 0.699908 0.616497
O O5 0.887824 0.632776 0.786093
O O6 0.910329 0.546499 0.747406
O O7 0.808554 0.582865 0.019055
O O8 0.070985 0.587736 0.947807
O O9 0.773531 0.855819 0.500949
O O10 0.801570 0.943511 0.456926
O O11 0.045083 0.912347 0.523143
O O12 0.000000 0.000000 0.500000
O O13 0.649262 0.895689 0.260610
#
# Coordination Sequence:
#
# PCOD8252123 Si02
#       6
#     8   8   8   8   8   8
#     4  11  21  38  63  91 121 159 211 258 306 372
#     4  10  20  39  65  85 120 163 200 248 299 367
#     4  10  19  38  62  89 118 159 207 250 307 365
#     4  11  23  41  64  92 121 159 209 256 307 369
#     4  11  23  39  62  90 127 163 203 253 312 368
#     4  11  21  39  64  89 126 163 200 249 314 365
#
# _framework density 19.867837000000002
#
# number of rings (size 3 to 8) (size 9 to 14) (size 15 to 20)
#    0.000    1.333    5.000    3.500    0.000    2.667 
#    0.000    4.167    0.000    0.000    0.000    0.000 
#    0.000    0.000    0.000    0.000    0.000    0.000 
#
# Total GULP energy -595175.398401 kJ/mol
# GULP energy per Si atom -12399.487467 kJ/mol
# Density = 1.982262 g / cm^3
# Si number density = 19.867837 Si / 1000 Ang^3
#
#
#
# Elastic Constant Matrix: (Units=GPa)
#
#
# Indices 1 2 3 4 5 6 
#
# 1 96.3508 2.4843 10.7225 0.0000 0.0000 0.0000
# 2 2.4843 72.3196 22.9602 0.0000 0.0000 0.0000
# 3 10.7225 22.9602 88.8109 0.0000 0.0000 0.0000
# 4 0.0000 0.0000 0.0000 16.8345 0.0000 0.0000
# 5 0.0000 0.0000 0.0000 0.0000 26.2812 0.0000
# 6 0.0000 0.0000 0.0000 0.0000 0.0000 14.7773
#
#
#
# Elastic Compliance Matrix: (Units=1/GPa)
#
#
# Indices 1 2 3 4 5 6 
#
# 1 0.010520 0.000046 -0.001282 0.000000 0.000000 0.000000
# 2 0.000046 0.015064 -0.003900 0.000000 0.000000 0.000000
# 3 -0.001282 -0.003900 0.012423 0.000000 0.000000 0.000000
# 4 0.000000 0.000000 0.000000 0.059402 0.000000 0.000000
# 5 0.000000 0.000000 0.000000 0.000000 0.038050 0.000000
# 6 0.000000 0.000000 0.000000 0.000000 0.000000 0.067671
#
#
# Mechanical properties :
#
#
# Convention : Reuss Voigt Hill
#
# Bulk Modulus (GPa) = 36.05610 36.64615 36.35113
# Shear Modulus (GPa) = 22.45698 26.33289 24.39493
#
# Velocity S-wave (km/s) = 3.36567 3.64456 3.50789
# Velocity P-wave (km/s) = 5.76984 6.01626 5.89434
#
# Compressibility (1/GPa) = 0.02773456
#
# Stress axis : x y z
#
# Youngs Moduli (GPa) = 95.05494 66.38287 80.49635
#
# Poissons Ratio (x) = -0.00303 0.10319
# Poissons Ratio (y) = -0.00434 0.31394
# Poissons Ratio (z) = 0.12185 0.25890
#
# Static dielectric constant tensor:
#      x y z
#    x 3.970850 0.000000 0.000000 
#    y 0.000000 3.429740 0.000000 
#    z 0.000000 0.000000 3.567230 
# 
# 
# High freq. dielectric constant tensor:
#      x y z
#    x 1.796650 0.000000 0.000000 
#    y 0.000000 1.753620 0.000000 
#    z 0.000000 0.000000 1.764090 
# 
# From -- ./inp_files/4536.got.cif
#   From: 2010.03.12/outbox.cif.g09.slc.cpg/sg62_3_cif.got.tgz:4536.got - 2010.04.10 19:12:36.
