data_PCOD8252995
_publ_section_title
;
Structure prediction by ZEFSAII (Michael W. Deem and Ramdas Pophale) SiO2 
 PCOD8252995
Probable space group: P N M A
;
_chemical_formula_sum "Si O2"
_cell_formula_units_Z 64
_cell_length_a 29.107550
_cell_length_b 8.739059
_cell_length_c 12.818385
_cell_angle_alpha 90.000000
_cell_angle_beta 90.000000
_cell_angle_gamma 90.000000
_cell_volume 3260.645879
_symmetry_space_group_name_H-M "P N M A"
_symmetry_group_IT_number 62
_symmetry_cell_setting 'orthorhombic'
loop_
_space_group_symop_operation_xyz
x,y,z
1/2-x,-y,1/2+z
1/2+x,1/2-y,1/2-z
-x,1/2+y,-z
-x,-y,-z
1/2+x,y,1/2-z
1/2-x,1/2+y,1/2+z
x,1/2-y,z
loop_
_atom_site_type_symbol
_atom_site_label
_atom_site_fract_x
_atom_site_fract_y
_atom_site_fract_z
Si Si1 0.616288 0.931718 0.114228
Si Si2 0.793543 0.928845 0.537308
Si Si3 0.894161 0.569687 0.033937
Si Si4 0.420641 0.079129 0.103347
Si Si5 0.933254 0.069246 0.826287
Si Si6 0.464346 0.569405 0.292503
Si Si7 0.703966 0.427133 0.619976
Si Si8 0.682192 0.578060 0.827271
O O1 0.624723 0.750000 0.106721
O O2 0.590968 0.982620 0.219278
O O3 0.665454 0.015345 0.112778
O O4 0.585299 0.984941 0.014770
O O5 0.799450 0.750000 0.514176
O O6 0.744824 0.960551 0.589471
O O7 0.793152 0.026189 0.432203
O O8 0.900612 0.750000 0.030239
O O9 0.927394 0.501798 0.124832
O O10 0.841622 0.524699 0.056676
O O11 0.906498 0.502113 0.922450
O O12 0.440790 0.250000 0.099087
O O13 0.372067 0.075803 0.160240
O O14 0.454959 0.978950 0.173016
O O15 0.931612 0.250000 0.837395
O O16 0.985518 0.008463 0.825718
O O17 0.463112 0.750000 0.294300
O O18 0.716745 0.250000 0.601375
O O19 0.695197 0.453880 0.741437
O O20 0.698897 0.750000 0.798812
#
# Coordination Sequence:
#
# PCOD8252995 Si02
#       8
#     8   8   8   8   8   8   8   8
#     4   9  20  40  58  81 117 155 195 244 298 349
#     4  11  23  38  59  87 116 152 194 239 294 356
#     4  10  22  38  57  83 118 152 192 243 291 345
#     4   9  18  33  57  83 111 147 189 238 288 344
#     4  10  22  38  59  83 117 159 196 239 293 350
#     4  10  20  36  57  86 117 151 194 242 292 346
#     4  11  22  38  60  86 116 153 193 243 297 348
#     4  10  20  37  59  84 114 148 189 240 291 347
#
# _framework density 19.628014
#
# number of rings (size 3 to 8) (size 9 to 14) (size 15 to 20)
#    0.000    2.000    1.250    3.000    0.000    6.000 
#    0.000    2.500    0.000    0.000    0.000    0.000 
#    0.000    0.000    0.000    0.000    0.000    0.000 
#
# Total GULP energy -793662.875685 kJ/mol
# GULP energy per Si atom -12400.982433 kJ/mol
# Density = 1.958334 g / cm^3
# Si number density = 19.628014 Si / 1000 Ang^3
#
#
#
# Elastic Constant Matrix: (Units=GPa)
#
#
# Indices 1 2 3 4 5 6 
#
# 1 79.8598 28.0707 54.0042 0.0000 0.0000 0.0000
# 2 28.0707 42.3844 20.7566 0.0000 0.0000 0.0000
# 3 54.0042 20.7566 119.2287 0.0000 0.0000 0.0000
# 4 0.0000 0.0000 0.0000 34.2483 0.0000 0.0000
# 5 0.0000 0.0000 0.0000 0.0000 19.8547 0.0000
# 6 0.0000 0.0000 0.0000 0.0000 0.0000 18.1844
#
#
#
# Elastic Compliance Matrix: (Units=1/GPa)
#
#
# Indices 1 2 3 4 5 6 
#
# 1 0.021547 -0.010376 -0.007954 0.000000 0.000000 0.000000
# 2 -0.010376 0.030789 -0.000660 0.000000 0.000000 0.000000
# 3 -0.007954 -0.000660 0.012105 0.000000 0.000000 0.000000
# 4 0.000000 0.000000 0.000000 0.029199 0.000000 0.000000
# 5 0.000000 0.000000 0.000000 0.000000 0.050366 0.000000
# 6 0.000000 0.000000 0.000000 0.000000 0.000000 0.054992
#
#
# Mechanical properties :
#
#
# Convention : Reuss Voigt Hill
#
# Bulk Modulus (GPa) = 37.79048 49.68178 43.73613
# Shear Modulus (GPa) = 20.34197 23.70023 22.02110
#
# Velocity S-wave (km/s) = 3.22277 3.47864 3.35314
# Velocity P-wave (km/s) = 5.75704 6.44214 6.10920
#
# Compressibility (1/GPa) = 0.02646169
#
# Stress axis : x y z
#
# Youngs Moduli (GPa) = 46.40919 32.47952 82.61221
#
# Poissons Ratio (x) = 0.33699 0.65706
# Poissons Ratio (y) = 0.48152 0.05456
# Poissons Ratio (z) = 0.36912 0.02145
#
# Static dielectric constant tensor:
#      x y z
#    x 3.635250 0.000000 0.000000 
#    y 0.000000 3.451050 0.000000 
#    z 0.000000 0.000000 3.696480 
# 
# 
# High freq. dielectric constant tensor:
#      x y z
#    x 1.762640 0.000000 0.000000 
#    y 0.000000 1.755670 0.000000 
#    z 0.000000 0.000000 1.771330 
# 
# From -- ./inp_files/15796.got.cif
#   From: 2010.03.12/outbox.cif.g09.slc.cpg/sg62_8_cif.got.tgz:15796.got - 2010.04.10 19:12:36.
