data_PCOD8252425
_publ_section_title
;
Structure prediction by ZEFSAII (Michael W. Deem and Ramdas Pophale) SiO2 
 PCOD8252425
Probable space group: P N M A
;
_chemical_formula_sum "Si O2"
_cell_formula_units_Z 64
_cell_length_a 20.508966
_cell_length_b 9.024303
_cell_length_c 18.240111
_cell_angle_alpha 90.000000
_cell_angle_beta 90.000000
_cell_angle_gamma 90.000000
_cell_volume 3375.863755
_symmetry_space_group_name_H-M "P N M A"
_symmetry_group_IT_number 62
_symmetry_cell_setting 'orthorhombic'
loop_
_space_group_symop_operation_xyz
x,y,z
1/2-x,-y,1/2+z
1/2+x,1/2-y,1/2-z
-x,1/2+y,-z
-x,-y,-z
1/2+x,y,1/2-z
1/2-x,1/2+y,1/2+z
x,1/2-y,z
loop_
_atom_site_type_symbol
_atom_site_label
_atom_site_fract_x
_atom_site_fract_y
_atom_site_fract_z
Si Si1 0.059123 0.075242 0.540497
Si Si2 0.678445 0.422484 0.705466
Si Si3 0.928457 0.077838 0.790462
Si Si4 0.445292 0.925943 0.206571
Si Si5 0.812731 0.923022 0.545906
Si Si6 0.060400 0.577260 0.038961
Si Si7 0.180164 0.422509 0.964539
Si Si8 0.688871 0.076691 0.214166
O O1 0.049287 0.250000 0.536404
O O2 0.059870 0.017282 0.623620
O O3 0.126136 0.026813 0.502399
O O4 0.000000 0.000000 0.500000
O O5 0.690403 0.250000 0.721360
O O6 0.616720 0.487274 0.749099
O O7 0.664382 0.451626 0.620304
O O8 0.741218 0.509358 0.734298
O O9 0.916311 0.250000 0.773861
O O10 0.946010 0.050587 0.874686
O O11 0.988332 0.013528 0.742662
O O12 0.863817 0.990790 0.768791
O O13 0.444969 0.750000 0.211619
O O14 0.796606 0.750000 0.536860
O O15 0.828988 0.962310 0.630167
O O16 0.751515 0.015468 0.516347
O O17 0.059138 0.750000 0.019239
O O18 0.128050 0.508535 0.012819
O O19 0.000000 0.500000 0.000000
O O20 0.177405 0.250000 0.984423
O O21 0.691787 0.250000 0.227877
#
# Coordination Sequence:
#
# PCOD8252425 Si02
#       8
#     8   8   8   8   8   8   8   8
#     4  10  20  34  54  78 105 138 175 217 263 312
#     4   9  18  35  57  79 106 141 180 219 260 313
#     4  10  21  37  56  78 105 139 179 222 268 320
#     4   9  18  34  56  78 100 132 177 220 256 305
#     4   9  19  35  53  78 113 147 178 216 267 321
#     4  11  23  38  57  80 108 141 178 224 276 330
#     4  10  20  35  57  82 108 141 181 223 266 317
#     4  10  20  34  53  79 111 143 176 217 263 314
#
# _framework density 18.958112
#
# number of rings (size 3 to 8) (size 9 to 14) (size 15 to 20)
#    0.000    2.250    0.000    2.625    0.000    5.500 
#    0.000    3.750    0.000    0.000    0.000    0.000 
#    0.000    0.000    0.000    0.000    0.000    0.000 
#
# Total GULP energy -793855.536529 kJ/mol
# GULP energy per Si atom -12403.992758 kJ/mol
# Density = 1.891496 g / cm^3
# Si number density = 18.958112 Si / 1000 Ang^3
#
#
#
# Elastic Constant Matrix: (Units=GPa)
#
#
# Indices 1 2 3 4 5 6 
#
# 1 142.6120 54.2831 60.6641 0.0000 0.0000 0.0000
# 2 54.2831 69.6739 36.8436 0.0000 0.0000 0.0000
# 3 60.6641 36.8436 79.9160 0.0000 0.0000 0.0000
# 4 0.0000 0.0000 0.0000 26.1566 0.0000 0.0000
# 5 0.0000 0.0000 0.0000 0.0000 42.6119 0.0000
# 6 0.0000 0.0000 0.0000 0.0000 0.0000 31.2115
#
#
#
# Elastic Compliance Matrix: (Units=1/GPa)
#
#
# Indices 1 2 3 4 5 6 
#
# 1 0.011988 -0.005987 -0.006340 0.000000 0.000000 0.000000
# 2 -0.005987 0.021970 -0.005584 0.000000 0.000000 0.000000
# 3 -0.006340 -0.005584 0.019900 0.000000 0.000000 0.000000
# 4 0.000000 0.000000 0.000000 0.038231 0.000000 0.000000
# 5 0.000000 0.000000 0.000000 0.000000 0.023468 0.000000
# 6 0.000000 0.000000 0.000000 0.000000 0.000000 0.032040
#
#
# Mechanical properties :
#
#
# Convention : Reuss Voigt Hill
#
# Bulk Modulus (GPa) = 55.44428 66.19819 60.82123
# Shear Modulus (GPa) = 26.39505 29.35674 27.87589
#
# Velocity S-wave (km/s) = 3.73538 3.93937 3.83873
# Velocity P-wave (km/s) = 6.92194 7.46227 7.19718
#
# Compressibility (1/GPa) = 0.01803613
#
# Stress axis : x y z
#
# Youngs Moduli (GPa) = 83.41872 45.51649 50.25169
#
# Poissons Ratio (x) = 0.27252 0.31857
# Poissons Ratio (y) = 0.49945 0.28060
# Poissons Ratio (z) = 0.52884 0.25416
#
# Static dielectric constant tensor:
#      x y z
#    x 3.489720 0.000000 0.000000 
#    y 0.000000 3.366680 0.000000 
#    z 0.000000 0.000000 3.526050 
# 
# 
# High freq. dielectric constant tensor:
#      x y z
#    x 1.751680 0.000000 0.000000 
#    y 0.000000 1.724230 0.000000 
#    z 0.000000 0.000000 1.738870 
# 
# From -- ./inp_files/24795.got.cif
#   From: 2010.03.12/outbox.cif.g09.slc.cpg/sg62_13_cif.got.tgz:24795.got - 2010.04.10 19:12:36.
