data_PCOD8252254
_publ_section_title
;
Structure prediction by ZEFSAII (Michael W. Deem and Ramdas Pophale) SiO2 
 PCOD8252254
Probable space group: P N M A
;
_chemical_formula_sum "Si O2"
_cell_formula_units_Z 56
_cell_length_a 14.317350
_cell_length_b 9.285347
_cell_length_c 22.507203
_cell_angle_alpha 90.000000
_cell_angle_beta 90.000000
_cell_angle_gamma 90.000000
_cell_volume 2992.142743
_symmetry_space_group_name_H-M "P N M A"
_symmetry_group_IT_number 62
_symmetry_cell_setting 'orthorhombic'
loop_
_space_group_symop_operation_xyz
x,y,z
1/2-x,-y,1/2+z
1/2+x,1/2-y,1/2-z
-x,1/2+y,-z
-x,-y,-z
1/2+x,y,1/2-z
1/2-x,1/2+y,1/2+z
x,1/2-y,z
loop_
_atom_site_type_symbol
_atom_site_label
_atom_site_fract_x
_atom_site_fract_y
_atom_site_fract_z
Si Si1 0.098871 0.577817 0.997426
Si Si2 0.392332 0.415615 0.721702
Si Si3 0.404757 0.916604 0.842476
Si Si4 0.584530 0.418698 0.853837
Si Si5 0.603463 0.088044 0.718453
Si Si6 0.216914 0.919959 0.108914
Si Si7 0.704045 0.585037 0.619892
O O1 0.085468 0.750000 0.999254
O O2 0.153301 0.524922 0.938697
O O3 0.161580 0.520004 0.052166
O O4 0.000000 0.500000 0.000000
O O5 0.367746 0.250000 0.737948
O O6 0.379499 0.510996 0.779909
O O7 0.497197 0.425348 0.696339
O O8 0.326360 0.480480 0.670226
O O9 0.428606 0.750000 0.831354
O O10 0.315908 0.934565 0.886088
O O11 0.493431 0.992341 0.874130
O O12 0.559702 0.250000 0.857486
O O13 0.610646 0.462129 0.786616
O O14 0.673065 0.460260 0.895079
O O15 0.640608 0.250000 0.712388
O O16 0.670022 0.991958 0.679009
O O17 0.204838 0.750000 0.110915
O O18 0.676966 0.750000 0.628010
#
# Coordination Sequence:
#
# PCOD8252254 Si02
#       7
#     8   8   8   8   8   8   8
#     4  10  21  38  56  75 100 130 163 202 243 290
#     4   9  17  31  51  76 101 127 162 205 247 291
#     4  10  20  33  48  71 103 136 163 195 244 298
#     4   9  18  33  52  75  98 126 166 209 247 287
#     4   9  17  29  50  77 102 127 161 204 247 289
#     4   9  17  32  55  75  95 128 169 207 246 287
#     4  10  21  34  49  71 102 136 166 196 241 296
#
# _framework density 18.715686000000002
#
# number of rings (size 3 to 8) (size 9 to 14) (size 15 to 20)
#    0.000    2.571    0.000    3.000    0.000    6.286 
#    0.000    2.857    0.000    0.000    0.000    0.000 
#    0.000    0.000    0.000    0.000    0.000    0.000 
#
# Total GULP energy -694293.392856 kJ/mol
# GULP energy per Si atom -12398.096301 kJ/mol
# Density = 1.867309 g / cm^3
# Si number density = 18.715686 Si / 1000 Ang^3
#
#
#
# Elastic Constant Matrix: (Units=GPa)
#
#
# Indices 1 2 3 4 5 6 
#
# 1 137.7263 47.7107 57.8471 0.0000 0.0000 0.0000
# 2 47.7107 57.0129 30.2918 0.0000 0.0000 0.0000
# 3 57.8471 30.2918 62.0152 0.0000 0.0000 0.0000
# 4 0.0000 0.0000 0.0000 15.4475 0.0000 0.0000
# 5 0.0000 0.0000 0.0000 0.0000 33.9880 0.0000
# 6 0.0000 0.0000 0.0000 0.0000 0.0000 30.6936
#
#
#
# Elastic Compliance Matrix: (Units=1/GPa)
#
#
# Indices 1 2 3 4 5 6 
#
# 1 0.013369 -0.006161 -0.009461 0.000000 0.000000 0.000000
# 2 -0.006161 0.026526 -0.007210 0.000000 0.000000 0.000000
# 3 -0.009461 -0.007210 0.028472 0.000000 0.000000 0.000000
# 4 0.000000 0.000000 0.000000 0.064735 0.000000 0.000000
# 5 0.000000 0.000000 0.000000 0.000000 0.029422 0.000000
# 6 0.000000 0.000000 0.000000 0.000000 0.000000 0.032580
#
#
# Mechanical properties :
#
#
# Convention : Reuss Voigt Hill
#
# Bulk Modulus (GPa) = 44.04671 58.71706 51.38189
# Shear Modulus (GPa) = 20.13397 24.08614 22.11006
#
# Velocity S-wave (km/s) = 3.28347 3.59130 3.44083
# Velocity P-wave (km/s) = 6.16122 6.97409 6.58022
#
# Compressibility (1/GPa) = 0.02270317
#
# Stress axis : x y z
#
# Youngs Moduli (GPa) = 74.80166 37.69823 35.12217
#
# Poissons Ratio (x) = 0.23225 0.33229
# Poissons Ratio (y) = 0.46084 0.25324
# Poissons Ratio (z) = 0.70769 0.27182
#
# Static dielectric constant tensor:
#      x y z
#    x 3.676060 0.000000 0.000000 
#    y 0.000000 3.241460 0.000000 
#    z 0.000000 0.000000 3.332980 
# 
# 
# High freq. dielectric constant tensor:
#      x y z
#    x 1.744240 0.000000 0.000000 
#    y 0.000000 1.702520 0.000000 
#    z 0.000000 0.000000 1.704680 
# 
# From -- ./inp_files/27176.got.cif
#   From: 2010.03.12/outbox.cif.g09.slc.cpg/sg62_14_cif.got.tgz:27176.got - 2010.04.10 19:12:36.
