data_PCOD8252496
_publ_section_title
;
Structure prediction by ZEFSAII (Michael W. Deem and Ramdas Pophale) SiO2 
 PCOD8252496
Probable space group: P N M A
;
_chemical_formula_sum "Si O2"
_cell_formula_units_Z 64
_cell_length_a 23.536385
_cell_length_b 8.812195
_cell_length_c 14.460043
_cell_angle_alpha 90.000000
_cell_angle_beta 90.000000
_cell_angle_gamma 90.000000
_cell_volume 2999.117236
_symmetry_space_group_name_H-M "P N M A"
_symmetry_group_IT_number 62
_symmetry_cell_setting 'orthorhombic'
loop_
_space_group_symop_operation_xyz
x,y,z
1/2-x,-y,1/2+z
1/2+x,1/2-y,1/2-z
-x,1/2+y,-z
-x,-y,-z
1/2+x,y,1/2-z
1/2-x,1/2+y,1/2+z
x,1/2-y,z
loop_
_atom_site_type_symbol
_atom_site_label
_atom_site_fract_x
_atom_site_fract_y
_atom_site_fract_z
Si Si1 0.046372 0.073576 0.819554
Si Si2 0.282022 0.930146 0.167031
Si Si3 0.668513 0.429009 0.640596
Si Si4 0.635412 0.577262 0.980104
Si Si5 0.921718 0.430569 0.845794
Si Si6 0.598086 0.076401 0.152915
Si Si7 0.319712 0.928397 0.563413
Si Si8 0.029962 0.582784 0.637306
O O1 0.045280 0.250000 0.838510
O O2 0.104062 0.001887 0.862115
O O3 0.986671 0.007871 0.859835
O O4 0.048355 0.044789 0.709979
O O5 0.282059 0.750000 0.162873
O O6 0.295821 0.990776 0.271251
O O7 0.328436 0.993291 0.097176
O O8 0.220543 0.989863 0.137077
O O9 0.662524 0.250000 0.653117
O O10 0.698570 0.468322 0.542711
O O11 0.657397 0.750000 0.989286
O O12 0.569186 0.569302 0.952709
O O13 0.642024 0.494649 0.078886
O O14 0.917669 0.250000 0.854011
O O15 0.897809 0.479992 0.746193
O O16 0.883708 0.510854 0.923512
O O17 0.615308 0.250000 0.173409
O O18 0.535416 0.063312 0.108477
O O19 0.317644 0.750000 0.580936
O O20 0.038322 0.750000 0.683018
#
# Coordination Sequence:
#
# PCOD8252496 Si02
#       8
#     8   8   8   8   8   8   8   8
#     4   9  17  34  61  89 118 157 201 244 301 364
#     4  11  23  42  65  88 117 157 209 259 303 360
#     4   9  20  40  66  91 117 155 198 247 303 360
#     4  11  21  34  54  85 121 158 200 251 309 360
#     4  10  21  38  60  89 124 158 199 252 306 365
#     4  10  20  34  54  83 120 164 205 242 293 358
#     4  11  24  43  64  88 121 159 202 250 307 367
#     4   9  18  31  50  82 122 158 197 245 298 355
#
# _framework density 21.339613
#
# number of rings (size 3 to 8) (size 9 to 14) (size 15 to 20)
#    0.000    2.000    1.250    2.250    0.000    3.000 
#    0.000    7.500    0.000    0.000    0.000    0.000 
#    0.000    0.000    0.000    0.000    0.000    0.000 
#
# Total GULP energy -793314.585828 kJ/mol
# GULP energy per Si atom -12395.540404 kJ/mol
# Density = 2.129104 g / cm^3
# Si number density = 21.339613 Si / 1000 Ang^3
#
#
#
# Elastic Constant Matrix: (Units=GPa)
#
#
# Indices 1 2 3 4 5 6 
#
# 1 81.2688 22.5455 43.9930 0.0000 0.0000 0.0000
# 2 22.5455 70.2380 23.4282 0.0000 0.0000 0.0000
# 3 43.9930 23.4282 96.9430 0.0000 0.0000 0.0000
# 4 0.0000 0.0000 0.0000 28.7104 0.0000 0.0000
# 5 0.0000 0.0000 0.0000 0.0000 25.9494 0.0000
# 6 0.0000 0.0000 0.0000 0.0000 0.0000 28.6839
#
#
#
# Elastic Compliance Matrix: (Units=1/GPa)
#
#
# Indices 1 2 3 4 5 6 
#
# 1 0.016919 -0.003121 -0.006923 0.000000 0.000000 0.000000
# 2 -0.003121 0.016061 -0.002465 0.000000 0.000000 0.000000
# 3 -0.006923 -0.002465 0.014053 0.000000 0.000000 0.000000
# 4 0.000000 0.000000 0.000000 0.034831 0.000000 0.000000
# 5 0.000000 0.000000 0.000000 0.000000 0.038536 0.000000
# 6 0.000000 0.000000 0.000000 0.000000 0.000000 0.034863
#
#
# Mechanical properties :
#
#
# Convention : Reuss Voigt Hill
#
# Bulk Modulus (GPa) = 45.42693 47.59811 46.51252
# Shear Modulus (GPa) = 26.64960 27.23429 26.94194
#
# Velocity S-wave (km/s) = 3.53772 3.57631 3.55707
# Velocity P-wave (km/s) = 6.16612 6.27749 6.22205
#
# Compressibility (1/GPa) = 0.02201337
#
# Stress axis : x y z
#
# Youngs Moduli (GPa) = 59.10672 62.26081 71.15960
#
# Poissons Ratio (x) = 0.19434 0.49266
# Poissons Ratio (y) = 0.18449 0.17542
# Poissons Ratio (z) = 0.40922 0.15348
#
# Static dielectric constant tensor:
#      x y z
#    x 4.003960 0.000000 0.000000 
#    y 0.000000 3.724740 0.000000 
#    z 0.000000 0.000000 3.726090 
# 
# 
# High freq. dielectric constant tensor:
#      x y z
#    x 1.835920 0.000000 0.000000 
#    y 0.000000 1.824390 0.000000 
#    z 0.000000 0.000000 1.829590 
# 
# From -- ./inp_files/20949.got.cif
#   From: 2010.03.12/outbox.cif.g09.slc.cpg/sg62_11_cif.got.tgz:20949.got - 2010.04.10 19:12:36.
