data_PCOD8252836
_publ_section_title
;
Structure prediction by ZEFSAII (Michael W. Deem and Ramdas Pophale) SiO2 
 PCOD8252836
Probable space group: P N M A
;
_chemical_formula_sum "Si O2"
_cell_formula_units_Z 48
_cell_length_a 9.820371
_cell_length_b 14.896865
_cell_length_c 16.691287
_cell_angle_alpha 90.000000
_cell_angle_beta 90.000000
_cell_angle_gamma 90.000000
_cell_volume 2441.814127
_symmetry_space_group_name_H-M "P N M A"
_symmetry_group_IT_number 62
_symmetry_cell_setting 'orthorhombic'
loop_
_space_group_symop_operation_xyz
x,y,z
1/2-x,-y,1/2+z
1/2+x,1/2-y,1/2-z
-x,1/2+y,-z
-x,-y,-z
1/2+x,y,1/2-z
1/2-x,1/2+y,1/2+z
x,1/2-y,z
loop_
_atom_site_type_symbol
_atom_site_label
_atom_site_fract_x
_atom_site_fract_y
_atom_site_fract_z
Si Si1 0.708832 0.555049 0.102558
Si Si2 0.531712 0.250000 0.069326
Si Si3 0.836983 0.250000 0.579965
Si Si4 0.376739 0.750000 0.546354
Si Si5 0.569458 0.939850 0.670353
Si Si6 0.656862 0.750000 0.603184
Si Si7 0.190562 0.438931 0.077691
Si Si8 0.032281 0.563330 0.647879
O O1 0.663835 0.656412 0.128992
O O2 0.810094 0.513064 0.167840
O O3 0.571766 0.497795 0.098790
O O4 0.782857 0.546345 0.016410
O O5 0.695789 0.250000 0.061588
O O6 0.480361 0.335724 0.117117
O O7 0.463414 0.250000 0.981700
O O8 0.687780 0.250000 0.540760
O O9 0.540719 0.750000 0.534373
O O10 0.323719 0.666483 0.597715
O O11 0.633819 0.841025 0.654365
O O12 0.454457 0.977117 0.608126
O O13 0.502828 0.940076 0.757894
O O14 0.317145 0.475468 0.129076
#
# Coordination Sequence:
#
# PCOD8252836 Si02
#       8
#     8   4   4   4   8   4   8   8
#     4  11  22  41  61  86 118 164 213 258 298 363
#     4  12  21  37  61  94 130 158 193 247 311 383
#     4  10  22  41  63  87 117 164 211 254 307 350
#     4   8  16  34  52  81 118 156 194 233 290 356
#     4  11  23  38  58  90 128 163 197 253 310 372
#     4  10  21  34  56  90 131 156 186 230 304 383
#     4  10  20  35  58  83 118 164 204 243 302 360
#     4  12  22  37  61  93 125 158 203 252 314 369
#
# _framework density 19.657515
#
# number of rings (size 3 to 8) (size 9 to 14) (size 15 to 20)
#    0.000    1.333    5.000    2.500    0.000    0.000 
#    0.000    0.833    0.000    0.000    0.000    0.000 
#    0.000    0.000    0.000    0.000    0.000    0.000 
#
# Total GULP energy -594815.456847 kJ/mol
# GULP energy per Si atom -12391.988684 kJ/mol
# Density = 1.961277 g / cm^3
# Si number density = 19.657515 Si / 1000 Ang^3
#
#
#
# Elastic Constant Matrix: (Units=GPa)
#
#
# Indices 1 2 3 4 5 6 
#
# 1 134.4885 42.4832 23.0707 0.0000 0.0000 0.0000
# 2 42.4832 113.6830 25.6677 0.0000 0.0000 0.0000
# 3 23.0707 25.6677 38.4179 0.0000 0.0000 0.0000
# 4 0.0000 0.0000 0.0000 14.2354 0.0000 0.0000
# 5 0.0000 0.0000 0.0000 0.0000 27.5016 0.0000
# 6 0.0000 0.0000 0.0000 0.0000 0.0000 22.9669
#
#
#
# Elastic Compliance Matrix: (Units=1/GPa)
#
#
# Indices 1 2 3 4 5 6 
#
# 1 0.008846 -0.002481 -0.003655 0.000000 0.000000 0.000000
# 2 -0.002481 0.011055 -0.005896 0.000000 0.000000 0.000000
# 3 -0.003655 -0.005896 0.032164 0.000000 0.000000 0.000000
# 4 0.000000 0.000000 0.000000 0.070247 0.000000 0.000000
# 5 0.000000 0.000000 0.000000 0.000000 0.036362 0.000000
# 6 0.000000 0.000000 0.000000 0.000000 0.000000 0.043541
#
#
# Mechanical properties :
#
#
# Convention : Reuss Voigt Hill
#
# Bulk Modulus (GPa) = 35.71289 52.11475 43.91382
# Shear Modulus (GPa) = 21.22139 25.96530 23.59335
#
# Velocity S-wave (km/s) = 3.28922 3.63834 3.46818
# Velocity P-wave (km/s) = 5.71247 6.64973 6.19884
#
# Compressibility (1/GPa) = 0.02800109
#
# Stress axis : x y z
#
# Youngs Moduli (GPa) = 113.04356 90.45986 31.09094
#
# Poissons Ratio (x) = 0.22439 0.11364
# Poissons Ratio (y) = 0.28041 0.18332
# Poissons Ratio (z) = 0.41317 0.53337
#
# Static dielectric constant tensor:
#      x y z
#    x 3.928340 0.000000 0.000000 
#    y 0.000000 3.823170 0.000000 
#    z 0.000000 0.000000 3.193760 
# 
# 
# High freq. dielectric constant tensor:
#      x y z
#    x 1.790000 0.000000 0.000000 
#    y 0.000000 1.760420 0.000000 
#    z 0.000000 0.000000 1.724700 
# 
# From -- ./inp_files/22280.got.cif
#   From: 2010.03.12/outbox.cif.g09.slc.cpg/sg62_12_cif.got.tgz:22280.got - 2010.04.10 19:12:36.
