data_PCOD8252181
_publ_section_title
;
Structure prediction by ZEFSAII (Michael W. Deem and Ramdas Pophale) SiO2 
 PCOD8252181
Probable space group: P N M A
;
_chemical_formula_sum "Si O2"
_cell_formula_units_Z 64
_cell_length_a 14.110684
_cell_length_b 9.397696
_cell_length_c 28.150972
_cell_angle_alpha 90.000000
_cell_angle_beta 90.000000
_cell_angle_gamma 90.000000
_cell_volume 3733.041803
_symmetry_space_group_name_H-M "P N M A"
_symmetry_group_IT_number 62
_symmetry_cell_setting 'orthorhombic'
loop_
_space_group_symop_operation_xyz
x,y,z
1/2-x,-y,1/2+z
1/2+x,1/2-y,1/2-z
-x,1/2+y,-z
-x,-y,-z
1/2+x,y,1/2-z
1/2-x,1/2+y,1/2+z
x,1/2-y,z
loop_
_atom_site_type_symbol
_atom_site_label
_atom_site_fract_x
_atom_site_fract_y
_atom_site_fract_z
Si Si1 0.912937 0.909952 0.671330
Si Si2 0.729736 0.413257 0.365300
Si Si3 0.158091 0.412469 0.769445
Si Si4 0.589050 0.085660 0.831758
Si Si5 0.174615 0.091949 0.235110
Si Si6 0.106589 0.584115 0.952696
Si Si7 0.801400 0.415919 0.144528
Si Si8 0.888356 0.916375 0.955316
O O1 0.937763 0.750000 0.654820
O O2 0.915115 0.918862 0.729463
O O3 0.809260 0.953807 0.651818
O O4 0.991580 0.015143 0.649608
O O5 0.762051 0.250000 0.372046
O O6 0.822489 0.506848 0.355817
O O7 0.654492 0.424745 0.321185
O O8 0.675843 0.470176 0.411645
O O9 0.166209 0.250000 0.785688
O O10 0.085754 0.430510 0.725580
O O11 0.257827 0.463967 0.749302
O O12 0.133120 0.504655 0.816184
O O13 0.592830 0.250000 0.847235
O O14 0.221508 0.250000 0.243757
O O15 0.121109 0.750000 0.962972
O O16 0.166945 0.532837 0.907437
O O17 0.996946 0.546917 0.943214
O O18 0.145900 0.498977 0.997944
O O19 0.821466 0.250000 0.150917
O O20 0.874783 0.750000 0.964421
#
# Coordination Sequence:
#
# PCOD8252181 Si02
#       8
#     8   8   8   8   8   8   8   8
#     4   9  17  29  46  68  94 126 162 195 227 268
#     4   9  17  31  50  70  94 125 160 196 232 275
#     4   9  17  28  42  63  92 123 154 190 230 269
#     4  10  20  31  44  67  98 130 162 194 232 276
#     4   8  15  28  45  65  89 120 158 193 226 267
#     4   9  18  33  52  73  97 122 149 188 237 286
#     4   9  18  32  50  71  94 124 161 195 230 276
#     4   9  18  32  51  75  98 120 150 189 236 287
#
# _framework density 17.144195
#
# number of rings (size 3 to 8) (size 9 to 14) (size 15 to 20)
#    0.000    3.000    0.000    1.500    0.000    5.500 
#    0.000    2.500    0.000    0.750    0.000    0.000 
#    0.000    0.000    0.000    0.000    0.000    0.000 
#
# Total GULP energy -793023.279104 kJ/mol
# GULP energy per Si atom -12390.988736 kJ/mol
# Density = 1.710517 g / cm^3
# Si number density = 17.144195 Si / 1000 Ang^3
#
#
#
# Elastic Constant Matrix: (Units=GPa)
#
#
# Indices 1 2 3 4 5 6 
#
# 1 63.3058 39.1244 44.8343 0.0000 0.0000 0.0000
# 2 39.1244 71.0475 47.2154 0.0000 0.0000 0.0000
# 3 44.8343 47.2154 130.0251 0.0000 0.0000 0.0000
# 4 0.0000 0.0000 0.0000 28.5160 0.0000 0.0000
# 5 0.0000 0.0000 0.0000 0.0000 21.9916 0.0000
# 6 0.0000 0.0000 0.0000 0.0000 0.0000 18.4087
#
#
#
# Elastic Compliance Matrix: (Units=1/GPa)
#
#
# Indices 1 2 3 4 5 6 
#
# 1 0.026202 -0.011104 -0.005002 0.000000 0.000000 0.000000
# 2 -0.011104 0.023258 -0.004617 0.000000 0.000000 0.000000
# 3 -0.005002 -0.004617 0.011092 0.000000 0.000000 0.000000
# 4 0.000000 0.000000 0.000000 0.035068 0.000000 0.000000
# 5 0.000000 0.000000 0.000000 0.000000 0.045472 0.000000
# 6 0.000000 0.000000 0.000000 0.000000 0.000000 0.054322
#
#
# Mechanical properties :
#
#
# Convention : Reuss Voigt Hill
#
# Bulk Modulus (GPa) = 52.34196 58.52517 55.43356
# Shear Modulus (GPa) = 20.55668 22.66354 21.61011
#
# Velocity S-wave (km/s) = 3.46648 3.63979 3.55419
# Velocity P-wave (km/s) = 6.82779 7.20244 7.01762
#
# Compressibility (1/GPa) = 0.01910513
#
# Stress axis : x y z
#
# Youngs Moduli (GPa) = 38.16507 42.99571 90.15362
#
# Poissons Ratio (x) = 0.47744 0.45099
# Poissons Ratio (y) = 0.42380 0.41621
# Poissons Ratio (z) = 0.19092 0.19850
#
# Static dielectric constant tensor:
#      x y z
#    x 2.907780 0.000000 0.000000 
#    y 0.000000 3.184720 0.000000 
#    z 0.000000 0.000000 3.278640 
# 
# 
# High freq. dielectric constant tensor:
#      x y z
#    x 1.633140 0.000000 0.000000 
#    y 0.000000 1.663330 0.000000 
#    z 0.000000 0.000000 1.648710 
# 
# From -- ./inp_files/32682.got.cif
#   From: 2010.03.12/outbox.cif.g09.slc.cpg/sg62_17_cif.got.tgz:32682.got - 2010.04.10 19:12:36.
