data_PCOD8252829
_publ_section_title
;
Structure prediction by ZEFSAII (Michael W. Deem and Ramdas Pophale) SiO2 
 PCOD8252829
Probable space group: P N M A
;
_chemical_formula_sum "Si O2"
_cell_formula_units_Z 48
_cell_length_a 27.854422
_cell_length_b 8.958485
_cell_length_c 10.261741
_cell_angle_alpha 90.000000
_cell_angle_beta 90.000000
_cell_angle_gamma 90.000000
_cell_volume 2560.647344
_symmetry_space_group_name_H-M "P N M A"
_symmetry_group_IT_number 62
_symmetry_cell_setting 'orthorhombic'
loop_
_space_group_symop_operation_xyz
x,y,z
1/2-x,-y,1/2+z
1/2+x,1/2-y,1/2-z
-x,1/2+y,-z
-x,-y,-z
1/2+x,y,1/2-z
1/2-x,1/2+y,1/2+z
x,1/2-y,z
loop_
_atom_site_type_symbol
_atom_site_label
_atom_site_fract_x
_atom_site_fract_y
_atom_site_fract_z
Si Si1 0.054062 0.075707 0.638950
Si Si2 0.141428 0.075322 0.251868
Si Si3 0.945121 0.075452 0.635457
Si Si4 0.641705 0.924943 0.754539
Si Si5 0.196569 0.422660 0.513622
Si Si6 0.691707 0.922773 0.485637
O O1 0.064384 0.250000 0.627979
O O2 0.999479 0.041928 0.681323
O O3 0.066333 0.006029 0.499427
O O4 0.089589 0.003681 0.744505
O O5 0.131171 0.250000 0.243998
O O6 0.172437 0.031412 0.377766
O O7 0.090486 0.989294 0.255479
O O8 0.170238 0.025828 0.125687
O O9 0.936501 0.250000 0.615255
O O10 0.633935 0.750000 0.768129
O O11 0.666892 0.968539 0.620276
O O12 0.674911 0.978601 0.872114
O O13 0.187009 0.250000 0.546334
O O14 0.252428 0.458551 0.500339
O O15 0.682582 0.750000 0.451362
#
# Coordination Sequence:
#
# PCOD8252829 Si02
#       6
#     8   8   8   8   8   8
#     4  10  20  35  57  86 116 146 186 234 283 338
#     4  11  22  37  59  87 117 150 190 236 286 339
#     4  10  20  35  58  86 114 147 187 232 283 338
#     4  11  22  37  59  86 115 151 193 236 285 339
#     4  10  21  38  59  83 113 149 192 241 284 332
#     4  10  23  40  56  80 117 155 192 235 283 338
#
# _framework density 18.745260999999999
#
# number of rings (size 3 to 8) (size 9 to 14) (size 15 to 20)
#    0.000    1.667    1.667    3.000    0.000    6.000 
#    0.000    0.833    0.000    0.000    0.000    0.000 
#    0.000    0.000    0.000    0.000    0.000    0.000 
#
# Total GULP energy -595442.746414 kJ/mol
# GULP energy per Si atom -12405.057217 kJ/mol
# Density = 1.870260 g / cm^3
# Si number density = 18.745261 Si / 1000 Ang^3
#
#
#
# Elastic Constant Matrix: (Units=GPa)
#
#
# Indices 1 2 3 4 5 6 
#
# 1 140.2995 58.2766 58.9220 0.0000 0.0000 0.0000
# 2 58.2766 92.1605 55.7572 0.0000 0.0000 0.0000
# 3 58.9220 55.7572 107.4020 0.0000 0.0000 0.0000
# 4 0.0000 0.0000 0.0000 30.7277 0.0000 0.0000
# 5 0.0000 0.0000 0.0000 0.0000 -328.7109 0.0000
# 6 0.0000 0.0000 0.0000 0.0000 0.0000 35.1319
#
#
#
# Elastic Compliance Matrix: (Units=1/GPa)
#
#
# Indices 1 2 3 4 5 6 
#
# 1 0.010433 -0.004570 -0.003351 0.000000 0.000000 0.000000
# 2 -0.004570 0.017821 -0.006745 0.000000 0.000000 0.000000
# 3 -0.003351 -0.006745 0.014651 0.000000 0.000000 0.000000
# 4 0.000000 0.000000 0.000000 0.032544 0.000000 0.000000
# 5 0.000000 0.000000 0.000000 0.000000 -0.003042 0.000000
# 6 0.000000 0.000000 0.000000 0.000000 0.000000 0.028464
#
#
# Mechanical properties :
#
#
# Convention : Reuss Voigt Hill
#
# Bulk Modulus (GPa) = 73.67351 76.19707 74.93529
# Shear Modulus (GPa) = 37.11220 -41.44318 -2.16549
#
# Velocity S-wave (km/s) = 4.45434 -4.70708 -1.07598
# Velocity P-wave (km/s) = 8.11435 3.34586 6.20635
#
# Compressibility (1/GPa) = 0.01357340
#
# Stress axis : x y z
#
# Youngs Moduli (GPa) = 95.84719 56.11460 68.25539
#
# Poissons Ratio (x) = 0.25643 0.22876
# Poissons Ratio (y) = 0.43799 0.46035
# Poissons Ratio (z) = 0.32123 0.37847
#
# Static dielectric constant tensor:
#      x y z
#    x 3.740650 0.000000 0.000000 
#    y 0.000000 3.477650 0.000000 
#    z 0.000000 0.000000 3.306410 
# 
# 
# High freq. dielectric constant tensor:
#      x y z
#    x 1.747760 0.000000 0.000000 
#    y 0.000000 1.737890 0.000000 
#    z 0.000000 0.000000 1.709140 
# 
# From -- ./inp_files/10156.got.cif
#   From: 2010.03.12/outbox.cif.g09.slc.cpg/sg62_6_cif.got.tgz:10156.got - 2010.04.10 19:12:36.
