data_PCOD8252537
_publ_section_title
;
Structure prediction by ZEFSAII (Michael W. Deem and Ramdas Pophale) SiO2 
 PCOD8252537
Probable space group: P N M A
;
_chemical_formula_sum "Si O2"
_cell_formula_units_Z 56
_cell_length_a 14.734778
_cell_length_b 8.981065
_cell_length_c 21.054963
_cell_angle_alpha 90.000000
_cell_angle_beta 90.000000
_cell_angle_gamma 90.000000
_cell_volume 2786.287452
_symmetry_space_group_name_H-M "P N M A"
_symmetry_group_IT_number 62
_symmetry_cell_setting 'orthorhombic'
loop_
_space_group_symop_operation_xyz
x,y,z
1/2-x,-y,1/2+z
1/2+x,1/2-y,1/2-z
-x,1/2+y,-z
-x,-y,-z
1/2+x,y,1/2-z
1/2-x,1/2+y,1/2+z
x,1/2-y,z
loop_
_atom_site_type_symbol
_atom_site_label
_atom_site_fract_x
_atom_site_fract_y
_atom_site_fract_z
Si Si1 0.023734 0.917258 0.913330
Si Si2 0.484910 0.425074 0.067823
Si Si3 0.425485 0.082365 0.270552
Si Si4 0.782970 0.074924 0.394965
Si Si5 0.401792 0.923166 0.811758
Si Si6 0.861851 0.077606 0.967683
Si Si7 0.249919 0.575375 0.233269
O O1 0.988605 0.750000 0.928198
O O2 0.067726 0.927593 0.845290
O O3 0.103626 0.961146 0.961897
O O4 0.939717 0.029394 0.917982
O O5 0.486347 0.250000 0.056331
O O6 0.388336 0.471936 0.098544
O O7 0.563566 0.472234 0.117922
O O8 0.500000 0.500000 0.000000
O O9 0.395851 0.250000 0.248883
O O10 0.520675 0.041840 0.239208
O O11 0.353331 0.960637 0.249928
O O12 0.771845 0.250000 0.388795
O O13 0.730121 0.015411 0.456885
O O14 0.732239 0.000769 0.334758
O O15 0.375509 0.750000 0.812161
O O16 0.314024 0.014477 0.789690
O O17 0.839607 0.250000 0.958108
O O18 0.234928 0.750000 0.226826
#
# Coordination Sequence:
#
# PCOD8252537 Si02
#       7
#     8   8   8   8   8   8   8
#     4   9  19  35  57  85 119 161 200 242 300 361
#     4  10  23  42  65  91 120 162 209 255 309 367
#     4  10  20  39  63  85 116 158 201 243 294 364
#     4  11  22  41  63  85 116 162 212 247 301 378
#     4  10  21  41  65  89 122 165 211 252 302 374
#     4  10  20  34  55  88 122 153 199 250 300 353
#     4  12  25  38  60  94 124 154 197 256 318 362
#
# _framework density 20.09843
#
# number of rings (size 3 to 8) (size 9 to 14) (size 15 to 20)
#    0.000    1.714    1.429    3.000    0.000    5.714 
#    0.000    4.286    0.000    0.000    0.000    0.000 
#    0.000    0.000    0.000    0.000    0.000    0.000 
#
# Total GULP energy -694480.926747 kJ/mol
# GULP energy per Si atom -12401.445120 kJ/mol
# Density = 2.005268 g / cm^3
# Si number density = 20.098430 Si / 1000 Ang^3
#
#
#
# Elastic Constant Matrix: (Units=GPa)
#
#
# Indices 1 2 3 4 5 6 
#
# 1 47.9031 34.0535 17.3770 0.0000 0.0000 0.0000
# 2 34.0535 87.9052 35.6013 0.0000 0.0000 0.0000
# 3 17.3770 35.6013 90.3088 0.0000 0.0000 0.0000
# 4 0.0000 0.0000 0.0000 33.1964 0.0000 0.0000
# 5 0.0000 0.0000 0.0000 0.0000 31.6872 0.0000
# 6 0.0000 0.0000 0.0000 0.0000 0.0000 33.8009
#
#
#
# Elastic Compliance Matrix: (Units=1/GPa)
#
#
# Indices 1 2 3 4 5 6 
#
# 1 0.028950 -0.010661 -0.001368 0.000000 0.000000 0.000000
# 2 -0.010661 0.017463 -0.004833 0.000000 0.000000 0.000000
# 3 -0.001368 -0.004833 0.013242 0.000000 0.000000 0.000000
# 4 0.000000 0.000000 0.000000 0.030124 0.000000 0.000000
# 5 0.000000 0.000000 0.000000 0.000000 0.031558 0.000000
# 6 0.000000 0.000000 0.000000 0.000000 0.000000 0.029585
#
#
# Mechanical properties :
#
#
# Convention : Reuss Voigt Hill
#
# Bulk Modulus (GPa) = 38.56309 44.46451 41.51380
# Shear Modulus (GPa) = 25.86789 29.00925 27.43857
#
# Velocity S-wave (km/s) = 3.59145 3.80328 3.69888
# Velocity P-wave (km/s) = 6.03546 6.43879 6.24038
#
# Compressibility (1/GPa) = 0.02593153
#
# Stress axis : x y z
#
# Youngs Moduli (GPa) = 34.54181 57.26327 75.52007
#
# Poissons Ratio (x) = 0.61049 0.10329
# Poissons Ratio (y) = 0.36825 0.36498
# Poissons Ratio (z) = 0.04725 0.27675
#
# Static dielectric constant tensor:
#      x y z
#    x 3.595270 0.000000 0.000000 
#    y 0.000000 3.613820 0.000000 
#    z 0.000000 0.000000 3.768280 
# 
# 
# High freq. dielectric constant tensor:
#      x y z
#    x 1.782830 0.000000 0.000000 
#    y 0.000000 1.776100 0.000000 
#    z 0.000000 0.000000 1.793240 
# 
# From -- ./inp_files/27159.got.cif
#   From: 2010.03.12/outbox.cif.g09.slc.cpg/sg62_14_cif.got.tgz:27159.got - 2010.04.10 19:12:36.
