data_PCOD8252347
_publ_section_title
;
Structure prediction by ZEFSAII (Michael W. Deem and Ramdas Pophale) SiO2 
 PCOD8252347
Probable space group: P N M A
;
_chemical_formula_sum "Si O2"
_cell_formula_units_Z 56
_cell_length_a 21.886459
_cell_length_b 11.453128
_cell_length_c 11.728264
_cell_angle_alpha 90.000000
_cell_angle_beta 90.000000
_cell_angle_gamma 90.000000
_cell_volume 2939.905364
_symmetry_space_group_name_H-M "P N M A"
_symmetry_group_IT_number 62
_symmetry_cell_setting 'orthorhombic'
loop_
_space_group_symop_operation_xyz
x,y,z
1/2-x,-y,1/2+z
1/2+x,1/2-y,1/2-z
-x,1/2+y,-z
-x,-y,-z
1/2+x,y,1/2-z
1/2-x,1/2+y,1/2+z
x,1/2-y,z
loop_
_atom_site_type_symbol
_atom_site_label
_atom_site_fract_x
_atom_site_fract_y
_atom_site_fract_z
Si Si1 0.178883 0.616358 0.577765
Si Si2 0.462919 0.881347 0.130771
Si Si3 0.107986 0.381055 0.201244
Si Si4 0.087602 0.499667 0.423616
Si Si5 0.690964 0.111144 0.502884
Si Si6 0.485499 0.115626 0.422333
Si Si7 0.878720 0.005670 0.202421
O O1 0.189912 0.750000 0.603079
O O2 0.126302 0.602292 0.482564
O O3 0.241983 0.562679 0.529426
O O4 0.160738 0.561308 0.697475
O O5 0.484929 0.750000 0.139830
O O6 0.522620 0.959450 0.121862
O O7 0.425868 0.912183 0.244973
O O8 0.421265 0.898706 0.018322
O O9 0.130639 0.250000 0.222444
O O10 0.124566 0.451626 0.315323
O O11 0.035763 0.385633 0.177135
O O12 0.144571 0.433953 0.094411
O O13 0.689309 0.250000 0.516462
O O14 0.669884 0.056578 0.621541
O O15 0.487725 0.250000 0.478646
O O16 0.418613 0.101613 0.366223
O O17 0.500000 0.000000 0.500000
#
# Coordination Sequence:
#
# PCOD8252347 Si02
#       7
#     8   8   8   8   8   8   8
#     4  10  23  40  59  82 113 160 202 245 297 354
#     4  10  20  33  54  86 119 150 189 243 303 357
#     4  10  20  36  58  84 116 150 191 240 297 357
#     4  10  20  35  56  85 114 152 194 239 294 356
#     4  10  22  39  60  84 114 153 199 246 297 357
#     4  11  22  38  60  91 125 158 198 247 306 366
#     4  11  21  38  61  86 116 155 197 247 299 361
#
# _framework density 19.048233
#
# number of rings (size 3 to 8) (size 9 to 14) (size 15 to 20)
#    0.000    1.714    2.857    1.714    2.000    0.571 
#    0.000    0.000    0.000    2.571    0.000    0.000 
#    0.000    0.000    0.000    0.000    0.000    0.000 
#
# Total GULP energy -694122.005462 kJ/mol
# GULP energy per Si atom -12395.035812 kJ/mol
# Density = 1.900488 g / cm^3
# Si number density = 19.048233 Si / 1000 Ang^3
#
#
#
# Elastic Constant Matrix: (Units=GPa)
#
#
# Indices 1 2 3 4 5 6 
#
# 1 108.7197 19.3179 52.5700 0.0000 0.0000 0.0000
# 2 19.3179 87.7526 48.2018 0.0000 0.0000 0.0000
# 3 52.5700 48.2018 129.9188 0.0000 0.0000 0.0000
# 4 0.0000 0.0000 0.0000 21.4568 0.0000 0.0000
# 5 0.0000 0.0000 0.0000 0.0000 38.8184 0.0000
# 6 0.0000 0.0000 0.0000 0.0000 0.0000 24.8822
#
#
#
# Elastic Compliance Matrix: (Units=1/GPa)
#
#
# Indices 1 2 3 4 5 6 
#
# 1 0.011435 0.000031 -0.004639 0.000000 0.000000 0.000000
# 2 0.000031 0.014313 -0.005323 0.000000 0.000000 0.000000
# 3 -0.004639 -0.005323 0.011549 0.000000 0.000000 0.000000
# 4 0.000000 0.000000 0.000000 0.046605 0.000000 0.000000
# 5 0.000000 0.000000 0.000000 0.000000 0.025761 0.000000
# 6 0.000000 0.000000 0.000000 0.000000 0.000000 0.040189
#
#
# Mechanical properties :
#
#
# Convention : Reuss Voigt Hill
#
# Bulk Modulus (GPa) = 57.35358 62.95229 60.15293
# Shear Modulus (GPa) = 28.48591 30.78493 29.63542
#
# Velocity S-wave (km/s) = 3.87132 4.02451 3.94865
# Velocity P-wave (km/s) = 7.08222 7.39704 7.24134
#
# Compressibility (1/GPa) = 0.01743570
#
# Stress axis : x y z
#
# Youngs Moduli (GPa) = 87.44747 69.86861 86.58931
#
# Poissons Ratio (x) = -0.00213 0.40165
# Poissons Ratio (y) = -0.00267 0.46087
# Poissons Ratio (z) = 0.40563 0.37188
#
# Static dielectric constant tensor:
#      x y z
#    x 3.547920 0.000000 0.000000 
#    y 0.000000 3.401000 0.000000 
#    z 0.000000 0.000000 3.552650 
# 
# 
# High freq. dielectric constant tensor:
#      x y z
#    x 1.738660 0.000000 0.000000 
#    y 0.000000 1.727280 0.000000 
#    z 0.000000 0.000000 1.745340 
# 
# From -- ./inp_files/14833.got.cif
#   From: 2010.03.12/outbox.cif.g09.slc.cpg/sg62_8_cif.got.tgz:14833.got - 2010.04.10 19:12:36.
