data_PCOD8252291
_publ_section_title
;
Structure prediction by ZEFSAII (Michael W. Deem and Ramdas Pophale) SiO2 
 PCOD8252291
Probable space group: P N M A
;
_chemical_formula_sum "Si O2"
_cell_formula_units_Z 40
_cell_length_a 9.534773
_cell_length_b 8.922470
_cell_length_c 25.547284
_cell_angle_alpha 90.000000
_cell_angle_beta 90.000000
_cell_angle_gamma 90.000000
_cell_volume 2173.402640
_symmetry_space_group_name_H-M "P N M A"
_symmetry_group_IT_number 62
_symmetry_cell_setting 'orthorhombic'
loop_
_space_group_symop_operation_xyz
x,y,z
1/2-x,-y,1/2+z
1/2+x,1/2-y,1/2-z
-x,1/2+y,-z
-x,-y,-z
1/2+x,y,1/2-z
1/2-x,1/2+y,1/2+z
x,1/2-y,z
loop_
_atom_site_type_symbol
_atom_site_label
_atom_site_fract_x
_atom_site_fract_y
_atom_site_fract_z
Si Si1 0.495089 0.576877 0.720931
Si Si2 0.725382 0.076275 0.368176
Si Si3 0.519307 0.924549 0.444620
Si Si4 0.691947 0.420956 0.644572
Si Si5 0.497648 0.577346 0.169325
O O1 0.510435 0.750000 0.737070
O O2 0.358757 0.547054 0.685455
O O3 0.634553 0.529811 0.689718
O O4 0.478471 0.476599 0.771793
O O5 0.727022 0.250000 0.382855
O O6 0.656425 0.988921 0.416232
O O7 0.882654 0.019207 0.360808
O O8 0.542750 0.750000 0.453061
O O9 0.381064 0.960310 0.410449
O O10 0.500000 0.000000 0.500000
O O11 0.657076 0.250000 0.660883
O O12 0.857620 0.445094 0.637806
O O13 0.450524 0.750000 0.170364
#
# Coordination Sequence:
#
# PCOD8252291 Si02
#       5
#     8   8   8   8   8
#     4  10  20  33  51  76 107 143 179 212 251 303
#     4  10  21  36  54  79 108 139 177 218 260 308
#     4  10  20  38  61  81 102 132 173 219 267 318
#     4   9  20  36  54  77 105 138 176 216 258 309
#     4  11  21  33  51  77 109 142 174 211 257 306
#
# _framework density 18.404319999999998
#
# number of rings (size 3 to 8) (size 9 to 14) (size 15 to 20)
#    0.000    2.000    0.000    3.600    0.000    8.000 
#    0.000    1.000    0.000    0.000    0.000    0.000 
#    0.000    0.000    0.000    0.000    0.000    0.000 
#
# Total GULP energy -496201.777376 kJ/mol
# GULP energy per Si atom -12405.044434 kJ/mol
# Density = 1.836243 g / cm^3
# Si number density = 18.404320 Si / 1000 Ang^3
#
#
#
# Elastic Constant Matrix: (Units=GPa)
#
#
# Indices 1 2 3 4 5 6 
#
# 1 114.4541 43.5855 45.3866 0.0000 0.0000 0.0000
# 2 43.5855 90.5049 47.6076 0.0000 0.0000 0.0000
# 3 45.3866 47.6076 107.9593 0.0000 0.0000 0.0000
# 4 0.0000 0.0000 0.0000 34.7697 0.0000 0.0000
# 5 0.0000 0.0000 0.0000 0.0000 10.8385 0.0000
# 6 0.0000 0.0000 0.0000 0.0000 0.0000 31.4629
#
#
#
# Elastic Compliance Matrix: (Units=1/GPa)
#
#
# Indices 1 2 3 4 5 6 
#
# 1 0.011444 -0.003881 -0.003100 0.000000 0.000000 0.000000
# 2 -0.003881 0.015702 -0.005293 0.000000 0.000000 0.000000
# 3 -0.003100 -0.005293 0.012900 0.000000 0.000000 0.000000
# 4 0.000000 0.000000 0.000000 0.028761 0.000000 0.000000
# 5 0.000000 0.000000 0.000000 0.000000 0.092264 0.000000
# 6 0.000000 0.000000 0.000000 0.000000 0.000000 0.031783
#
#
# Mechanical properties :
#
#
# Convention : Reuss Voigt Hill
#
# Bulk Modulus (GPa) = 64.51828 65.11973 64.81900
# Shear Modulus (GPa) = 22.46510 27.17012 24.81761
#
# Velocity S-wave (km/s) = 3.49756 3.84642 3.67613
# Velocity P-wave (km/s) = 7.17236 7.42875 7.30168
#
# Compressibility (1/GPa) = 0.01549948
#
# Stress axis : x y z
#
# Youngs Moduli (GPa) = 87.38044 63.68557 77.51960
#
# Poissons Ratio (x) = 0.24715 0.24030
# Poissons Ratio (y) = 0.33910 0.41030
# Poissons Ratio (z) = 0.27087 0.33708
#
# Static dielectric constant tensor:
#      x y z
#    x 3.446800 0.000000 0.000000 
#    y 0.000000 3.531620 0.000000 
#    z 0.000000 0.000000 3.260130 
# 
# 
# High freq. dielectric constant tensor:
#      x y z
#    x 1.717010 0.000000 0.000000 
#    y 0.000000 1.729800 0.000000 
#    z 0.000000 0.000000 1.695600 
# 
# From -- ./inp_files/28572.got.cif
#   From: 2010.03.12/outbox.cif.g09.slc.cpg/sg62_15_cif.got.tgz:28572.got - 2010.04.10 19:12:36.
