data_PCOD8252890
_publ_section_title
;
Structure prediction by ZEFSAII (Michael W. Deem and Ramdas Pophale) SiO2 
 PCOD8252890
Probable space group: P N M A
;
_chemical_formula_sum "Si O2"
_cell_formula_units_Z 40
_cell_length_a 20.856483
_cell_length_b 9.063206
_cell_length_c 10.177073
_cell_angle_alpha 90.000000
_cell_angle_beta 90.000000
_cell_angle_gamma 90.000000
_cell_volume 1923.737526
_symmetry_space_group_name_H-M "P N M A"
_symmetry_group_IT_number 62
_symmetry_cell_setting 'orthorhombic'
loop_
_space_group_symop_operation_xyz
x,y,z
1/2-x,-y,1/2+z
1/2+x,1/2-y,1/2-z
-x,1/2+y,-z
-x,-y,-z
1/2+x,y,1/2-z
1/2-x,1/2+y,1/2+z
x,1/2-y,z
loop_
_atom_site_type_symbol
_atom_site_label
_atom_site_fract_x
_atom_site_fract_y
_atom_site_fract_z
Si Si1 0.010089 0.910768 0.822417
Si Si2 0.196602 0.921086 0.422177
Si Si3 0.290033 0.424325 0.619598
Si Si4 0.951358 0.078517 0.595713
Si Si5 0.597444 0.411468 0.523419
O O1 0.023681 0.750000 0.755807
O O2 0.970458 0.883389 0.954431
O O3 0.964678 0.015195 0.738365
O O4 0.079462 0.987602 0.850056
O O5 0.211598 0.750000 0.450165
O O6 0.220121 0.962383 0.274155
O O7 0.121743 0.955330 0.441084
O O8 0.230976 0.021200 0.531109
O O9 0.299638 0.250000 0.602038
O O10 0.353228 0.506233 0.570369
O O11 0.965970 0.250000 0.596309
O O12 0.000000 0.000000 0.500000
O O13 0.625385 0.250000 0.565861
#
# Coordination Sequence:
#
# PCOD8252890 Si02
#       5
#     8   8   8   8   8
#     4  10  20  35  59  90 121 156 202 249 304 367
#     4  10  24  44  64  91 127 167 211 261 318 378
#     4  11  23  41  66  93 126 166 212 263 317 378
#     4  11  23  41  63  88 126 165 206 259 316 379
#     4  10  20  35  60  90 121 157 199 249 305 366
#
# _framework density 20.792857999999999
#
# number of rings (size 3 to 8) (size 9 to 14) (size 15 to 20)
#    0.000    1.600    2.000    2.400    0.000    6.400 
#    0.000    4.000    0.000    0.000    0.000    0.000 
#    0.000    0.000    0.000    0.000    0.000    0.000 
#
# Total GULP energy -495803.949944 kJ/mol
# GULP energy per Si atom -12395.098749 kJ/mol
# Density = 2.074553 g / cm^3
# Si number density = 20.792858 Si / 1000 Ang^3
#
#
#
# Elastic Constant Matrix: (Units=GPa)
#
#
# Indices 1 2 3 4 5 6 
#
# 1 86.4327 62.7693 50.4687 0.0000 0.0000 0.0000
# 2 62.7693 147.1043 61.7822 0.0000 0.0000 0.0000
# 3 50.4687 61.7822 61.0124 0.0000 0.0000 0.0000
# 4 0.0000 0.0000 0.0000 31.6524 0.0000 0.0000
# 5 0.0000 0.0000 0.0000 0.0000 41.6701 0.0000
# 6 0.0000 0.0000 0.0000 0.0000 0.0000 35.3170
#
#
#
# Elastic Compliance Matrix: (Units=1/GPa)
#
#
# Indices 1 2 3 4 5 6 
#
# 1 0.023215 -0.003203 -0.015960 0.000000 0.000000 0.000000
# 2 -0.003203 0.012270 -0.009776 0.000000 0.000000 0.000000
# 3 -0.015960 -0.009776 0.039491 0.000000 0.000000 0.000000
# 4 0.000000 0.000000 0.000000 0.031593 0.000000 0.000000
# 5 0.000000 0.000000 0.000000 0.000000 0.023998 0.000000
# 6 0.000000 0.000000 0.000000 0.000000 0.000000 0.028315
#
#
# Mechanical properties :
#
#
# Convention : Reuss Voigt Hill
#
# Bulk Modulus (GPa) = 58.48190 71.62110 65.05150
# Shear Modulus (GPa) = 22.47620 29.69653 26.08636
#
# Velocity S-wave (km/s) = 3.29136 3.78326 3.54585
# Velocity P-wave (km/s) = 6.52925 7.32147 6.93668
#
# Compressibility (1/GPa) = 0.01709931
#
# Stress axis : x y z
#
# Youngs Moduli (GPa) = 43.07645 81.49806 25.32241
#
# Poissons Ratio (x) = 0.26102 0.40413
# Poissons Ratio (y) = 0.13796 0.24755
# Poissons Ratio (z) = 0.68748 0.79670
#
# Static dielectric constant tensor:
#      x y z
#    x 3.608910 0.000000 0.000000 
#    y 0.000000 4.416420 0.000000 
#    z 0.000000 0.000000 1.349240 
# 
# 
# High freq. dielectric constant tensor:
#      x y z
#    x 1.809850 0.000000 0.000000 
#    y 0.000000 1.832910 0.000000 
#    z 0.000000 0.000000 1.802970 
# 
# From -- ./inp_files/14607.got.cif
#   From: 2010.03.12/outbox.cif.g09.slc.cpg/sg62_8_cif.got.tgz:14607.got - 2010.04.10 19:12:36.
