data_PCOD8252436
_publ_section_title
;
Structure prediction by ZEFSAII (Michael W. Deem and Ramdas Pophale) SiO2 
 PCOD8252436
Probable space group: P N M A
;
_chemical_formula_sum "Si O2"
_cell_formula_units_Z 64
_cell_length_a 15.222572
_cell_length_b 9.068862
_cell_length_c 24.150217
_cell_angle_alpha 90.000000
_cell_angle_beta 90.000000
_cell_angle_gamma 90.000000
_cell_volume 3333.971382
_symmetry_space_group_name_H-M "P N M A"
_symmetry_group_IT_number 62
_symmetry_cell_setting 'orthorhombic'
loop_
_space_group_symop_operation_xyz
x,y,z
1/2-x,-y,1/2+z
1/2+x,1/2-y,1/2-z
-x,1/2+y,-z
-x,-y,-z
1/2+x,y,1/2-z
1/2-x,1/2+y,1/2+z
x,1/2-y,z
loop_
_atom_site_type_symbol
_atom_site_label
_atom_site_fract_x
_atom_site_fract_y
_atom_site_fract_z
Si Si1 0.805371 0.577237 0.348051
Si Si2 0.831557 0.920214 0.927602
Si Si3 0.781546 0.923032 0.754438
Si Si4 0.691246 0.419315 0.555640
Si Si5 0.047867 0.916909 0.222151
Si Si6 0.492372 0.579680 0.396909
Si Si7 0.998936 0.081715 0.655824
Si Si8 0.173586 0.076372 0.368467
O O1 0.786113 0.750000 0.344146
O O2 0.738144 0.505567 0.390492
O O3 0.795780 0.507276 0.286673
O O4 0.904811 0.546224 0.368660
O O5 0.833276 0.750000 0.909512
O O6 0.928447 0.985814 0.921815
O O7 0.800663 0.938882 0.990351
O O8 0.767539 0.750000 0.760518
O O9 0.784309 0.972686 0.690271
O O10 0.872138 0.969345 0.784180
O O11 0.701284 0.250000 0.573982
O O12 0.597674 0.480909 0.576861
O O13 0.769713 0.511474 0.582096
O O14 0.085865 0.750000 0.222083
O O15 0.994909 0.948622 0.278260
O O16 0.984813 0.940845 0.169475
O O17 0.507670 0.750000 0.413292
O O18 0.972195 0.250000 0.644045
O O19 0.926447 0.980307 0.626642
O O20 0.170910 0.250000 0.374217
#
# Coordination Sequence:
#
# PCOD8252436 Si02
#       8
#     8   8   8   8   8   8   8   8
#     4  11  22  36  59  87 113 152 199 238 285 341
#     4  11  23  39  58  84 119 154 192 240 292 339
#     4  10  20  34  53  82 118 151 182 227 287 342
#     4  10  23  40  60  84 113 155 198 239 287 341
#     4   9  17  32  54  82 113 146 184 227 278 335
#     4  10  20  35  58  86 115 151 194 235 280 338
#     4   9  20  37  58  84 115 150 190 238 287 341
#     4  10  22  39  59  86 117 151 190 237 293 343
#
# _framework density 19.196325000000002
#
# number of rings (size 3 to 8) (size 9 to 14) (size 15 to 20)
#    0.000    2.000    1.250    1.875    1.750    4.000 
#    0.000    0.625    0.000    0.000    0.000    0.000 
#    0.000    0.000    0.000    0.000    0.000    0.000 
#
# Total GULP energy -793711.467994 kJ/mol
# GULP energy per Si atom -12401.741687 kJ/mol
# Density = 1.915263 g / cm^3
# Si number density = 19.196325 Si / 1000 Ang^3
#
#
#
# Elastic Constant Matrix: (Units=GPa)
#
#
# Indices 1 2 3 4 5 6 
#
# 1 108.3023 48.8162 29.5721 0.0000 0.0000 0.0000
# 2 48.8162 84.3398 27.0836 0.0000 0.0000 0.0000
# 3 29.5721 27.0836 49.9337 0.0000 0.0000 0.0000
# 4 0.0000 0.0000 0.0000 28.1353 0.0000 0.0000
# 5 0.0000 0.0000 0.0000 0.0000 23.5664 0.0000
# 6 0.0000 0.0000 0.0000 0.0000 0.0000 15.0705
#
#
#
# Elastic Compliance Matrix: (Units=1/GPa)
#
#
# Indices 1 2 3 4 5 6 
#
# 1 0.013269 -0.006244 -0.004471 0.000000 0.000000 0.000000
# 2 -0.006244 0.017296 -0.005683 0.000000 0.000000 0.000000
# 3 -0.004471 -0.005683 0.025757 0.000000 0.000000 0.000000
# 4 0.000000 0.000000 0.000000 0.035543 0.000000 0.000000
# 5 0.000000 0.000000 0.000000 0.000000 0.042433 0.000000
# 6 0.000000 0.000000 0.000000 0.000000 0.000000 0.066355
#
#
# Mechanical properties :
#
#
# Convention : Reuss Voigt Hill
#
# Bulk Modulus (GPa) = 42.50901 50.39105 46.45003
# Shear Modulus (GPa) = 20.72181 22.49469 21.60825
#
# Velocity S-wave (km/s) = 3.28909 3.42690 3.35870
# Velocity P-wave (km/s) = 6.05116 6.47808 6.26826
#
# Compressibility (1/GPa) = 0.02352442
#
# Stress axis : x y z
#
# Youngs Moduli (GPa) = 75.36461 57.81694 38.82420
#
# Poissons Ratio (x) = 0.36102 0.17360
# Poissons Ratio (y) = 0.47059 0.22065
# Poissons Ratio (z) = 0.33698 0.32859
#
# Static dielectric constant tensor:
#      x y z
#    x 3.443320 0.000000 0.000000 
#    y 0.000000 3.514430 0.000000 
#    z 0.000000 0.000000 3.497300 
# 
# 
# High freq. dielectric constant tensor:
#      x y z
#    x 1.741760 0.000000 0.000000 
#    y 0.000000 1.748870 0.000000 
#    z 0.000000 0.000000 1.740330 
# 
# From -- ./inp_files/29743.got.cif
#   From: 2010.03.12/outbox.cif.g09.slc.cpg/sg62_15_cif.got.tgz:29743.got - 2010.04.10 19:12:36.
