data_PCOD8252650
_publ_section_title
;
Structure prediction by ZEFSAII (Michael W. Deem and Ramdas Pophale) SiO2 
 PCOD8252650
Probable space group: P N M A
;
_chemical_formula_sum "Si O2"
_cell_formula_units_Z 64
_cell_length_a 14.636718
_cell_length_b 9.457697
_cell_length_c 24.453345
_cell_angle_alpha 90.000000
_cell_angle_beta 90.000000
_cell_angle_gamma 90.000000
_cell_volume 3385.067841
_symmetry_space_group_name_H-M "P N M A"
_symmetry_group_IT_number 62
_symmetry_cell_setting 'orthorhombic'
loop_
_space_group_symop_operation_xyz
x,y,z
1/2-x,-y,1/2+z
1/2+x,1/2-y,1/2-z
-x,1/2+y,-z
-x,-y,-z
1/2+x,y,1/2-z
1/2-x,1/2+y,1/2+z
x,1/2-y,z
loop_
_atom_site_type_symbol
_atom_site_label
_atom_site_fract_x
_atom_site_fract_y
_atom_site_fract_z
Si Si1 0.545856 0.914868 0.451311
Si Si2 0.255490 0.586957 0.064340
Si Si3 0.666250 0.414123 0.743359
Si Si4 0.123631 0.915909 0.265340
Si Si5 0.054095 0.407172 0.363622
Si Si6 0.149127 0.910639 0.651656
Si Si7 0.912596 0.913138 0.517095
Si Si8 0.501315 0.414727 0.668128
O O1 0.520532 0.750000 0.457532
O O2 0.653715 0.940045 0.456233
O O3 0.510727 0.977827 0.392843
O O4 0.500000 0.000000 0.500000
O O5 0.269874 0.750000 0.081124
O O6 0.273792 0.493895 0.118090
O O7 0.323094 0.538913 0.016031
O O8 0.657415 0.250000 0.760757
O O9 0.770379 0.456438 0.732078
O O10 0.629819 0.513702 0.790955
O O11 0.603813 0.444834 0.690057
O O12 0.107051 0.750000 0.268693
O O13 0.074575 0.976758 0.210560
O O14 0.077083 0.979150 0.318452
O O15 0.077363 0.250000 0.341371
O O16 0.947099 0.415389 0.380087
O O17 0.109894 0.439388 0.419006
O O18 0.182542 0.750000 0.661000
O O19 0.935282 0.750000 0.505756
O O20 0.000000 0.000000 0.500000
O O21 0.480792 0.250000 0.662811
#
# Coordination Sequence:
#
# PCOD8252650 Si02
#       8
#     8   8   8   8   8   8   8   8
#     4  10  22  41  61  84 112 148 194 242 288 334
#     4  10  21  37  60  83 110 153 200 238 280 340
#     4  10  20  35  57  82 109 147 191 229 275 338
#     4  10  20  35  57  83 107 143 190 227 270 333
#     4  10  21  35  51  78 117 148 175 225 288 340
#     4  11  21  34  55  84 116 148 185 232 284 335
#     4  10  20  35  54  79 112 150 186 230 284 340
#     4   9  18  35  57  79 109 143 180 231 277 325
#
# _framework density 18.906562999999998
#
# number of rings (size 3 to 8) (size 9 to 14) (size 15 to 20)
#    0.000    2.000    2.500    1.125    0.000    5.000 
#    0.000    1.250    0.000    0.000    0.000    0.000 
#    0.000    0.000    0.000    0.000    0.000    0.000 
#
# Total GULP energy -793581.468194 kJ/mol
# GULP energy per Si atom -12399.710441 kJ/mol
# Density = 1.886353 g / cm^3
# Si number density = 18.906563 Si / 1000 Ang^3
#
#
#
# Elastic Constant Matrix: (Units=GPa)
#
#
# Indices 1 2 3 4 5 6 
#
# 1 116.8239 37.9886 62.4339 0.0000 0.0000 0.0000
# 2 37.9886 57.8124 48.5828 0.0000 0.0000 0.0000
# 3 62.4339 48.5828 137.4754 0.0000 0.0000 0.0000
# 4 0.0000 0.0000 0.0000 30.1198 0.0000 0.0000
# 5 0.0000 0.0000 0.0000 0.0000 32.4914 0.0000
# 6 0.0000 0.0000 0.0000 0.0000 0.0000 20.2746
#
#
#
# Elastic Compliance Matrix: (Units=1/GPa)
#
#
# Indices 1 2 3 4 5 6 
#
# 1 0.012161 -0.004765 -0.003839 0.000000 0.000000 0.000000
# 2 -0.004765 0.026471 -0.007191 0.000000 0.000000 0.000000
# 3 -0.003839 -0.007191 0.011559 0.000000 0.000000 0.000000
# 4 0.000000 0.000000 0.000000 0.033201 0.000000 0.000000
# 5 0.000000 0.000000 0.000000 0.000000 0.030777 0.000000
# 6 0.000000 0.000000 0.000000 0.000000 0.000000 0.049323
#
#
# Mechanical properties :
#
#
# Convention : Reuss Voigt Hill
#
# Bulk Modulus (GPa) = 53.75910 67.79136 60.77523
# Shear Modulus (GPa) = 24.84085 27.45093 26.14589
#
# Velocity S-wave (km/s) = 3.62867 3.81455 3.72277
# Velocity P-wave (km/s) = 6.78618 7.43874 7.11994
#
# Compressibility (1/GPa) = 0.01860150
#
# Stress axis : x y z
#
# Youngs Moduli (GPa) = 82.23013 37.77702 86.51531
#
# Poissons Ratio (x) = 0.18000 0.33213
# Poissons Ratio (y) = 0.39182 0.62211
# Poissons Ratio (z) = 0.31568 0.27164
#
# Static dielectric constant tensor:
#      x y z
#    x 3.558770 0.000000 0.000000 
#    y 0.000000 3.316910 0.000000 
#    z 0.000000 0.000000 3.535740 
# 
# 
# High freq. dielectric constant tensor:
#      x y z
#    x 1.736430 0.000000 0.000000 
#    y 0.000000 1.716390 0.000000 
#    z 0.000000 0.000000 1.737210 
# 
# From -- ./inp_files/29792.got.cif
#   From: 2010.03.12/outbox.cif.g09.slc.cpg/sg62_15_cif.got.tgz:29792.got - 2010.04.10 19:12:36.
