data_PCOD8252453
_publ_section_title
;
Structure prediction by ZEFSAII (Michael W. Deem and Ramdas Pophale) SiO2 
 PCOD8252453
Probable space group: P N M A
;
_chemical_formula_sum "Si O2"
_cell_formula_units_Z 64
_cell_length_a 11.157390
_cell_length_b 9.100133
_cell_length_c 34.569119
_cell_angle_alpha 90.000000
_cell_angle_beta 90.000000
_cell_angle_gamma 90.000000
_cell_volume 3509.931696
_symmetry_space_group_name_H-M "P N M A"
_symmetry_group_IT_number 62
_symmetry_cell_setting 'orthorhombic'
loop_
_space_group_symop_operation_xyz
x,y,z
1/2-x,-y,1/2+z
1/2+x,1/2-y,1/2-z
-x,1/2+y,-z
-x,-y,-z
1/2+x,y,1/2-z
1/2-x,1/2+y,1/2+z
x,1/2-y,z
loop_
_atom_site_type_symbol
_atom_site_label
_atom_site_fract_x
_atom_site_fract_y
_atom_site_fract_z
Si Si1 0.247747 0.585085 0.439070
Si Si2 0.627650 0.424184 0.352693
Si Si3 0.384276 0.074227 0.728209
Si Si4 0.986799 0.915244 0.460573
Si Si5 0.877708 0.417667 0.995583
Si Si6 0.888374 0.921885 0.136126
Si Si7 0.241925 0.080478 0.582388
Si Si8 0.155873 0.421247 0.776868
O O1 0.293632 0.750000 0.448296
O O2 0.281606 0.482002 0.474653
O O3 0.297311 0.532975 0.397675
O O4 0.105475 0.580257 0.434817
O O5 0.627953 0.250000 0.347331
O O6 0.650797 0.503323 0.312299
O O7 0.503949 0.479097 0.371309
O O8 0.731109 0.474658 0.381826
O O9 0.383127 0.250000 0.724426
O O10 0.523085 0.023924 0.738932
O O11 0.277583 0.014922 0.756682
O O12 0.949487 0.750000 0.472024
O O13 0.883138 0.981622 0.433909
O O14 0.000000 0.000000 0.500000
O O15 0.896449 0.250000 0.006873
O O16 0.839236 0.436454 0.951370
O O17 0.000000 0.500000 0.000000
O O18 0.924381 0.750000 0.134646
O O19 0.831494 0.960378 0.177809
O O20 0.233925 0.250000 0.596322
O O21 0.159866 0.250000 0.769369
#
# Coordination Sequence:
#
# PCOD8252453 Si02
#       8
#     8   8   8   8   8   8   8   8
#     4  10  20  34  54  79 106 135 172 218 267 315
#     4  11  22  35  54  80 106 140 179 219 264 316
#     4   9  17  34  57  83 110 142 176 219 266 317
#     4  10  20  36  55  76 103 140 179 217 267 319
#     4  11  22  34  51  75 103 136 175 219 264 313
#     4   9  18  35  56  80 109 138 170 217 266 312
#     4  10  21  37  53  73 103 140 177 217 265 313
#     4   8  15  30  55  82 107 136 175 213 259 314
#
# _framework density 18.233972000000001
#
# number of rings (size 3 to 8) (size 9 to 14) (size 15 to 20)
#    0.000    2.250    1.250    3.000    0.000    5.000 
#    2.250    2.500    0.000    0.000    0.000    0.000 
#    0.000    0.000    0.000    0.000    0.000    0.000 
#
# Total GULP energy -793234.806972 kJ/mol
# GULP energy per Si atom -12394.293859 kJ/mol
# Density = 1.819247 g / cm^3
# Si number density = 18.233972 Si / 1000 Ang^3
#
#
#
# Elastic Constant Matrix: (Units=GPa)
#
#
# Indices 1 2 3 4 5 6 
#
# 1 88.0931 18.3252 34.6567 0.0000 0.0000 0.0000
# 2 18.3252 56.1720 22.8802 0.0000 0.0000 0.0000
# 3 34.6567 22.8802 81.3965 0.0000 0.0000 0.0000
# 4 0.0000 0.0000 0.0000 22.5739 0.0000 0.0000
# 5 0.0000 0.0000 0.0000 0.0000 37.8289 0.0000
# 6 0.0000 0.0000 0.0000 0.0000 0.0000 17.1277
#
#
#
# Elastic Compliance Matrix: (Units=1/GPa)
#
#
# Indices 1 2 3 4 5 6 
#
# 1 0.013917 -0.002402 -0.005250 0.000000 0.000000 0.000000
# 2 -0.002402 0.020519 -0.004745 0.000000 0.000000 0.000000
# 3 -0.005250 -0.004745 0.015855 0.000000 0.000000 0.000000
# 4 0.000000 0.000000 0.000000 0.044299 0.000000 0.000000
# 5 0.000000 0.000000 0.000000 0.000000 0.026435 0.000000
# 6 0.000000 0.000000 0.000000 0.000000 0.000000 0.058385
#
#
# Mechanical properties :
#
#
# Convention : Reuss Voigt Hill
#
# Bulk Modulus (GPa) = 39.22156 41.93176 40.57666
# Shear Modulus (GPa) = 23.50707 25.49273 24.49990
#
# Velocity S-wave (km/s) = 3.59443 3.74316 3.66955
# Velocity P-wave (km/s) = 6.22763 6.45973 6.34474
#
# Compressibility (1/GPa) = 0.02549618
#
# Stress axis : x y z
#
# Youngs Moduli (GPa) = 71.85596 48.73585 63.07205
#
# Poissons Ratio (x) = 0.11704 0.33115
# Poissons Ratio (y) = 0.17256 0.29929
# Poissons Ratio (z) = 0.37727 0.23126
#
# Static dielectric constant tensor:
#      x y z
#    x 3.545610 0.000000 0.000000 
#    y 0.000000 3.109230 0.000000 
#    z 0.000000 0.000000 3.141340 
# 
# 
# High freq. dielectric constant tensor:
#      x y z
#    x 1.716740 0.000000 0.000000 
#    y 0.000000 1.684710 0.000000 
#    z 0.000000 0.000000 1.701120 
# 
# From -- ./inp_files/32450.got.cif
#   From: 2010.03.12/outbox.cif.g09.slc.cpg/sg62_17_cif.got.tgz:32450.got - 2010.04.10 19:12:36.
