data_PCOD8252704
_publ_section_title
;
Structure prediction by ZEFSAII (Michael W. Deem and Ramdas Pophale) SiO2 
 PCOD8252704
Probable space group: P N M A
;
_chemical_formula_sum "Si O2"
_cell_formula_units_Z 64
_cell_length_a 9.700646
_cell_length_b 20.101113
_cell_length_c 17.058813
_cell_angle_alpha 90.000000
_cell_angle_beta 90.000000
_cell_angle_gamma 90.000000
_cell_volume 3326.362453
_symmetry_space_group_name_H-M "P N M A"
_symmetry_group_IT_number 62
_symmetry_cell_setting 'orthorhombic'
loop_
_space_group_symop_operation_xyz
x,y,z
1/2-x,-y,1/2+z
1/2+x,1/2-y,1/2-z
-x,1/2+y,-z
-x,-y,-z
1/2+x,y,1/2-z
1/2-x,1/2+y,1/2+z
x,1/2-y,z
loop_
_atom_site_type_symbol
_atom_site_label
_atom_site_fract_x
_atom_site_fract_y
_atom_site_fract_z
Si Si1 0.238126 0.675588 0.497516
Si Si2 0.498513 0.368442 0.691420
Si Si3 0.446139 0.323539 0.525288
Si Si4 0.813381 0.127593 0.669318
Si Si5 0.283957 0.043227 0.072592
Si Si6 0.461244 0.520654 0.676101
Si Si7 0.559870 0.484154 0.147352
Si Si8 0.198617 0.941862 0.942808
O O1 0.204485 0.750000 0.529068
O O2 0.400683 0.659777 0.504541
O O3 0.184750 0.672045 0.408393
O O4 0.166703 0.617514 0.547889
O O5 0.451568 0.322752 0.619601
O O6 0.423003 0.341913 0.769583
O O7 0.661719 0.369426 0.707637
O O8 0.446715 0.441787 0.670460
O O9 0.400423 0.250000 0.497814
O O10 0.337243 0.375735 0.491100
O O11 0.852060 0.051754 0.649624
O O12 0.180814 0.051411 0.145119
O O13 0.419615 0.003205 0.099213
O O14 0.207072 0.004787 0.001808
O O15 0.478871 0.543101 0.766484
O O16 0.586918 0.545755 0.624203
O O17 0.655007 0.431317 0.100701
#
# Coordination Sequence:
#
# PCOD8252704 Si02
#       8
#     8   8   8   8   8   8   8   8
#     4  10  21  39  60  85 117 161 204 246 301 362
#     4  10  20  35  55  87 121 157 194 240 297 363
#     4  10  21  37  60  85 115 158 206 250 296 361
#     4  10  21  35  57  86 124 157 193 238 299 364
#     4  12  22  37  63  89 119 159 199 254 301 355
#     4  11  21  36  60  88 115 155 196 243 301 361
#     4  11  24  36  57  92 128 147 191 252 317 350
#     4  12  20  38  62  88 118 153 203 250 298 358
#
# _framework density 19.240237
#
# number of rings (size 3 to 8) (size 9 to 14) (size 15 to 20)
#    0.000    1.250    5.000    2.250    5.250    0.500 
#    0.000    0.625    0.000    4.500    0.000    0.000 
#    0.000    0.000    0.000    0.000    0.000    0.000 
#
# Total GULP energy -793607.281447 kJ/mol
# GULP energy per Si atom -12400.113773 kJ/mol
# Density = 1.919645 g / cm^3
# Si number density = 19.240237 Si / 1000 Ang^3
#
#
#
# Elastic Constant Matrix: (Units=GPa)
#
#
# Indices 1 2 3 4 5 6 
#
# 1 99.8168 22.3063 43.5166 0.0000 0.0000 0.0000
# 2 22.3063 80.4221 28.9589 0.0000 0.0000 0.0000
# 3 43.5166 28.9589 71.1767 0.0000 0.0000 0.0000
# 4 0.0000 0.0000 0.0000 19.0635 0.0000 0.0000
# 5 0.0000 0.0000 0.0000 0.0000 38.0244 0.0000
# 6 0.0000 0.0000 0.0000 0.0000 0.0000 11.1379
#
#
#
# Elastic Compliance Matrix: (Units=1/GPa)
#
#
# Indices 1 2 3 4 5 6 
#
# 1 0.013717 -0.000919 -0.008012 0.000000 0.000000 0.000000
# 2 -0.000919 0.014630 -0.005390 0.000000 0.000000 0.000000
# 3 -0.008012 -0.005390 0.021141 0.000000 0.000000 0.000000
# 4 0.000000 0.000000 0.000000 0.052456 0.000000 0.000000
# 5 0.000000 0.000000 0.000000 0.000000 0.026299 0.000000
# 6 0.000000 0.000000 0.000000 0.000000 0.000000 0.089784
#
#
# Mechanical properties :
#
#
# Convention : Reuss Voigt Hill
#
# Bulk Modulus (GPa) = 47.97458 48.99771 48.48614
# Shear Modulus (GPa) = 19.71456 24.08742 21.90099
#
# Velocity S-wave (km/s) = 3.20449 3.54210 3.37752
# Velocity P-wave (km/s) = 6.21935 6.50001 6.36123
#
# Compressibility (1/GPa) = 0.02084437
#
# Stress axis : x y z
#
# Youngs Moduli (GPa) = 72.90287 68.35071 47.30091
#
# Poissons Ratio (x) = 0.06285 0.37899
# Poissons Ratio (y) = 0.06703 0.25497
# Poissons Ratio (z) = 0.58412 0.36844
#
# Static dielectric constant tensor:
#      x y z
#    x 3.539670 0.000000 0.000000 
#    y 0.000000 3.267580 0.000000 
#    z 0.000000 0.000000 3.704120 
# 
# 
# High freq. dielectric constant tensor:
#      x y z
#    x 1.748440 0.000000 0.000000 
#    y 0.000000 1.719670 0.000000 
#    z 0.000000 0.000000 1.750530 
# 
# From -- ./inp_files/22582.got.cif
#   From: 2010.03.12/outbox.cif.g09.slc.cpg/sg62_12_cif.got.tgz:22582.got - 2010.04.10 19:12:36.
