data_PCOD8252377
_publ_section_title
;
Structure prediction by ZEFSAII (Michael W. Deem and Ramdas Pophale) SiO2 
 PCOD8252377
Probable space group: P N M A
;
_chemical_formula_sum "Si O2"
_cell_formula_units_Z 64
_cell_length_a 8.959614
_cell_length_b 14.446014
_cell_length_c 24.172922
_cell_angle_alpha 90.000000
_cell_angle_beta 90.000000
_cell_angle_gamma 90.000000
_cell_volume 3128.718440
_symmetry_space_group_name_H-M "P N M A"
_symmetry_group_IT_number 62
_symmetry_cell_setting 'orthorhombic'
loop_
_space_group_symop_operation_xyz
x,y,z
1/2-x,-y,1/2+z
1/2+x,1/2-y,1/2-z
-x,1/2+y,-z
-x,-y,-z
1/2+x,y,1/2-z
1/2-x,1/2+y,1/2+z
x,1/2-y,z
loop_
_atom_site_type_symbol
_atom_site_label
_atom_site_fract_x
_atom_site_fract_y
_atom_site_fract_z
Si Si1 0.934927 0.642222 0.471718
Si Si2 0.838768 0.144160 0.900227
Si Si3 0.377473 0.535624 0.376124
Si Si4 0.653071 0.851155 0.196372
Si Si5 0.324468 0.915182 0.206939
Si Si6 0.873874 0.417625 0.224181
Si Si7 0.576960 0.351117 0.182532
Si Si8 0.905175 0.528349 0.579373
O O1 0.991272 0.750000 0.468424
O O2 0.759714 0.638839 0.455749
O O3 0.954484 0.601904 0.533078
O O4 0.027829 0.574762 0.430594
O O5 0.874305 0.250000 0.883997
O O6 0.741706 0.094313 0.853609
O O7 0.994033 0.090152 0.908886
O O8 0.254613 0.603954 0.350387
O O9 0.450667 0.474980 0.326608
O O10 0.276821 0.476291 0.419264
O O11 0.604524 0.750000 0.175585
O O12 0.503454 0.909009 0.206652
O O13 0.746872 0.839909 0.253138
O O14 0.284781 0.013867 0.234350
O O15 0.752405 0.351391 0.196142
O O16 0.993463 0.361076 0.258965
O O17 0.538564 0.250000 0.157652
O O18 0.533849 0.430774 0.138014
#
# Coordination Sequence:
#
# PCOD8252377 Si02
#       8
#     8   8   8   8   8   8   8   8
#     4  10  22  40  62  86 111 144 189 237 286 341
#     4  11  21  33  52  79 109 144 189 234 280 337
#     4  10  21  35  53  78 111 149 183 227 285 341
#     4  11  20  30  47  75 111 149 191 231 276 340
#     4  11  20  32  49  73 110 152 187 230 284 333
#     4  10  20  34  51  77 109 144 184 223 270 334
#     4  11  21  36  58  82 111 146 186 230 278 331
#     4  10  22  40  61  84 112 146 186 235 287 336
#
# _framework density 20.455660999999999
#
# number of rings (size 3 to 8) (size 9 to 14) (size 15 to 20)
#    0.000    1.500    0.000    8.250    0.000    2.500 
#    0.000    0.000    0.000    0.750    0.000    9.625 
#    0.000    0.000    0.000    0.000    0.000    0.000 
#
# Total GULP energy -793287.735806 kJ/mol
# GULP energy per Si atom -12395.120872 kJ/mol
# Density = 2.040910 g / cm^3
# Si number density = 20.455661 Si / 1000 Ang^3
#
#
#
# Elastic Constant Matrix: (Units=GPa)
#
#
# Indices 1 2 3 4 5 6 
#
# 1 87.8918 26.4640 24.8339 0.0000 0.0000 0.0000
# 2 26.4640 122.7825 29.6256 0.0000 0.0000 0.0000
# 3 24.8339 29.6256 62.9190 0.0000 0.0000 0.0000
# 4 0.0000 0.0000 0.0000 21.2210 0.0000 0.0000
# 5 0.0000 0.0000 0.0000 0.0000 28.8151 0.0000
# 6 0.0000 0.0000 0.0000 0.0000 0.0000 21.7404
#
#
#
# Elastic Compliance Matrix: (Units=1/GPa)
#
#
# Indices 1 2 3 4 5 6 
#
# 1 0.013143 -0.001784 -0.004348 0.000000 0.000000 0.000000
# 2 -0.001784 0.009430 -0.003736 0.000000 0.000000 0.000000
# 3 -0.004348 -0.003736 0.019369 0.000000 0.000000 0.000000
# 4 0.000000 0.000000 0.000000 0.047123 0.000000 0.000000
# 5 0.000000 0.000000 0.000000 0.000000 0.034704 0.000000
# 6 0.000000 0.000000 0.000000 0.000000 0.000000 0.045997
#
#
# Mechanical properties :
#
#
# Convention : Reuss Voigt Hill
#
# Bulk Modulus (GPa) = 45.03119 48.38226 46.70672
# Shear Modulus (GPa) = 25.39303 27.19996 26.29649
#
# Velocity S-wave (km/s) = 3.52713 3.65047 3.58933
# Velocity P-wave (km/s) = 6.21686 6.43983 6.32933
#
# Compressibility (1/GPa) = 0.02220683
#
# Stress axis : x y z
#
# Youngs Moduli (GPa) = 76.08524 106.03921 51.62965
#
# Poissons Ratio (x) = 0.18915 0.22447
# Poissons Ratio (y) = 0.13572 0.19290
# Poissons Ratio (z) = 0.33079 0.39620
#
# Static dielectric constant tensor:
#      x y z
#    x 3.650310 0.000000 0.000000 
#    y 0.000000 3.719490 0.000000 
#    z 0.000000 0.000000 3.588060 
# 
# 
# High freq. dielectric constant tensor:
#      x y z
#    x 1.789350 0.000000 0.000000 
#    y 0.000000 1.800710 0.000000 
#    z 0.000000 0.000000 1.785480 
# 
# From -- ./inp_files/29005.got.cif
#   From: 2010.03.12/outbox.cif.g09.slc.cpg/sg62_15_cif.got.tgz:29005.got - 2010.04.10 19:12:36.
