data_PCOD8252076
_publ_section_title
;
Structure prediction by ZEFSAII (Michael W. Deem and Ramdas Pophale) SiO2 
 PCOD8252076
Probable space group: P N M A
;
_chemical_formula_sum "Si O2"
_cell_formula_units_Z 40
_cell_length_a 15.489199
_cell_length_b 9.956602
_cell_length_c 12.338582
_cell_angle_alpha 90.000000
_cell_angle_beta 90.000000
_cell_angle_gamma 90.000000
_cell_volume 1902.853522
_symmetry_space_group_name_H-M "P N M A"
_symmetry_group_IT_number 62
_symmetry_cell_setting 'orthorhombic'
loop_
_space_group_symop_operation_xyz
x,y,z
1/2-x,-y,1/2+z
1/2+x,1/2-y,1/2-z
-x,1/2+y,-z
-x,-y,-z
1/2+x,y,1/2-z
1/2-x,1/2+y,1/2+z
x,1/2-y,z
loop_
_atom_site_type_symbol
_atom_site_label
_atom_site_fract_x
_atom_site_fract_y
_atom_site_fract_z
Si Si1 0.820883 0.098259 0.040284
Si Si2 0.678318 0.599708 0.297651
Si Si3 0.372110 0.595145 0.273519
Si Si4 0.055863 0.606022 0.609498
Si Si5 0.629213 0.469295 0.082901
O O1 0.855656 0.250000 0.062076
O O2 0.717668 0.107416 0.057322
O O3 0.867103 0.987027 0.114301
O O4 0.843744 0.049970 0.918615
O O5 0.644973 0.750000 0.282542
O O6 0.780627 0.592499 0.284289
O O7 0.629720 0.513670 0.208066
O O8 0.402448 0.750000 0.293729
O O9 0.437145 0.516907 0.194054
O O10 0.082438 0.750000 0.661968
O O11 0.118226 0.588664 0.504917
O O12 0.956553 0.620546 0.569530
#
# Coordination Sequence:
#
# PCOD8252076 Si02
#       5
#     8   8   8   8   8
#     4  10  19  37  61  85 113 148 190 236 287 340
#     4   9  18  35  57  82 113 149 187 233 286 342
#     4  10  21  37  56  82 116 151 192 238 287 338
#     4  11  22  36  57  87 120 153 192 234 286 343
#     4  10  21  35  57  88 118 151 187 237 287 339
#
# _framework density 21.021059000000001
#
# number of rings (size 3 to 8) (size 9 to 14) (size 15 to 20)
#    0.000    2.000    2.000    1.800    0.000    4.800 
#    0.000    3.000    0.000    0.000    0.000    0.000 
#    0.000    0.000    0.000    0.000    0.000    0.000 
#
# Total GULP energy -495659.137283 kJ/mol
# GULP energy per Si atom -12391.478432 kJ/mol
# Density = 2.097321 g / cm^3
# Si number density = 21.021059 Si / 1000 Ang^3
#
#
#
# Elastic Constant Matrix: (Units=GPa)
#
#
# Indices 1 2 3 4 5 6 
#
# 1 37.7717 8.9353 9.7087 0.0000 0.0000 0.0000
# 2 8.9353 143.2621 66.6534 0.0000 0.0000 0.0000
# 3 9.7087 66.6534 141.9647 0.0000 0.0000 0.0000
# 4 0.0000 0.0000 0.0000 18.1661 0.0000 0.0000
# 5 0.0000 0.0000 0.0000 0.0000 26.6402 0.0000
# 6 0.0000 0.0000 0.0000 0.0000 0.0000 7.4654
#
#
#
# Elastic Compliance Matrix: (Units=1/GPa)
#
#
# Indices 1 2 3 4 5 6 
#
# 1 0.027073 -0.001058 -0.001355 0.000000 0.000000 0.000000
# 2 -0.001058 0.008973 -0.004140 0.000000 0.000000 0.000000
# 3 -0.001355 -0.004140 0.009081 0.000000 0.000000 0.000000
# 4 0.000000 0.000000 0.000000 0.055048 0.000000 0.000000
# 5 0.000000 0.000000 0.000000 0.000000 0.037537 0.000000
# 6 0.000000 0.000000 0.000000 0.000000 0.000000 0.133952
#
#
# Mechanical properties :
#
#
# Convention : Reuss Voigt Hill
#
# Bulk Modulus (GPa) = 31.23050 54.84370 43.03710
# Shear Modulus (GPa) = 16.92376 26.30108 21.61242
#
# Velocity S-wave (km/s) = 2.84048 3.54104 3.20993
# Velocity P-wave (km/s) = 5.06427 6.54715 5.85286
#
# Compressibility (1/GPa) = 0.03201998
#
# Stress axis : x y z
#
# Youngs Moduli (GPa) = 36.93664 111.45160 110.12578
#
# Poissons Ratio (x) = 0.11795 0.14918
# Poissons Ratio (y) = 0.03909 0.45595
# Poissons Ratio (z) = 0.05003 0.46144
#
# Static dielectric constant tensor:
#      x y z
#    x 3.457180 0.000000 0.000000 
#    y 0.000000 3.756280 0.000000 
#    z 0.000000 0.000000 3.866080 
# 
# 
# High freq. dielectric constant tensor:
#      x y z
#    x 1.799710 0.000000 0.000000 
#    y 0.000000 1.815960 0.000000 
#    z 0.000000 0.000000 1.830350 
# 
# From -- ./inp_files/12994.got.cif
#   From: 2010.03.12/outbox.cif.g09.slc.cpg/sg62_7_cif.got.tgz:12994.got - 2010.04.10 19:12:36.
