data_PCOD8252050
_publ_section_title
;
Structure prediction by ZEFSAII (Michael W. Deem and Ramdas Pophale) SiO2 
 PCOD8252050
Probable space group: P N M A
;
_chemical_formula_sum "Si O2"
_cell_formula_units_Z 56
_cell_length_a 10.316187
_cell_length_b 12.875113
_cell_length_c 21.413671
_cell_angle_alpha 90.000000
_cell_angle_beta 90.000000
_cell_angle_gamma 90.000000
_cell_volume 2844.208180
_symmetry_space_group_name_H-M "P N M A"
_symmetry_group_IT_number 62
_symmetry_cell_setting 'orthorhombic'
loop_
_space_group_symop_operation_xyz
x,y,z
1/2-x,-y,1/2+z
1/2+x,1/2-y,1/2-z
-x,1/2+y,-z
-x,-y,-z
1/2+x,y,1/2-z
1/2-x,1/2+y,1/2+z
x,1/2-y,z
loop_
_atom_site_type_symbol
_atom_site_label
_atom_site_fract_x
_atom_site_fract_y
_atom_site_fract_z
Si Si1 0.851355 0.131399 0.109955
Si Si2 0.862675 0.365233 0.341049
Si Si3 0.631844 0.364852 0.436892
Si Si4 0.490382 0.544109 0.093849
Si Si5 0.454413 0.130707 0.776592
Si Si6 0.309868 0.507318 0.273280
Si Si7 0.710031 0.023802 0.007195
O O1 0.838113 0.250000 0.133838
O O2 0.765538 0.118610 0.047475
O O3 0.801894 0.047390 0.159687
O O4 0.998253 0.101884 0.094590
O O5 0.918075 0.250000 0.328831
O O6 0.735999 0.361946 0.382516
O O7 0.975987 0.429451 0.375533
O O8 0.822903 0.415453 0.276053
O O9 0.619353 0.250000 0.467621
O O10 0.671837 0.447691 0.489274
O O11 0.507253 0.625629 0.149986
O O12 0.611121 0.546797 0.047183
O O13 0.360744 0.571057 0.054067
O O14 0.434680 0.250000 0.757956
O O15 0.567838 0.084303 0.733035
O O16 0.321836 0.070409 0.762311
#
# Coordination Sequence:
#
# PCOD8252050 Si02
#       7
#     8   8   8   8   8   8   8
#     4  11  22  36  57  88 121 155 193 242 298 353
#     4   9  18  35  59  86 117 154 191 236 295 354
#     4   9  19  35  56  82 115 156 197 237 291 350
#     4   9  20  36  58  85 114 151 198 242 294 345
#     4  11  23  41  62  85 116 156 202 247 296 349
#     4  11  22  40  60  89 119 156 196 248 294 355
#     4  10  19  37  57  83 118 154 193 245 287 344
#
# _framework density 19.689135
#
# number of rings (size 3 to 8) (size 9 to 14) (size 15 to 20)
#    0.000    2.000    1.429    2.143    0.000    1.714 
#    0.000    4.286    0.000    6.000    0.000    0.000 
#    0.000    0.000    0.000    0.000    0.000    0.000 
#
# Total GULP energy -694433.719627 kJ/mol
# GULP energy per Si atom -12400.602136 kJ/mol
# Density = 1.964432 g / cm^3
# Si number density = 19.689135 Si / 1000 Ang^3
#
#
#
# Elastic Constant Matrix: (Units=GPa)
#
#
# Indices 1 2 3 4 5 6 
#
# 1 72.9127 35.2553 6.9065 0.0000 0.0000 0.0000
# 2 35.2553 103.8847 34.7282 0.0000 0.0000 0.0000
# 3 6.9065 34.7282 67.6807 0.0000 0.0000 0.0000
# 4 0.0000 0.0000 0.0000 23.3531 0.0000 0.0000
# 5 0.0000 0.0000 0.0000 0.0000 26.6716 0.0000
# 6 0.0000 0.0000 0.0000 0.0000 0.0000 24.0621
#
#
#
# Elastic Compliance Matrix: (Units=1/GPa)
#
#
# Indices 1 2 3 4 5 6 
#
# 1 0.016523 -0.006088 0.001438 0.000000 0.000000 0.000000
# 2 -0.006088 0.013862 -0.006492 0.000000 0.000000 0.000000
# 3 0.001438 -0.006492 0.017960 0.000000 0.000000 0.000000
# 4 0.000000 0.000000 0.000000 0.042821 0.000000 0.000000
# 5 0.000000 0.000000 0.000000 0.000000 0.037493 0.000000
# 6 0.000000 0.000000 0.000000 0.000000 0.000000 0.041559
#
#
# Mechanical properties :
#
#
# Convention : Reuss Voigt Hill
#
# Bulk Modulus (GPa) = 38.37204 44.25087 41.31145
# Shear Modulus (GPa) = 24.85239 25.98990 25.42114
#
# Velocity S-wave (km/s) = 3.55665 3.63714 3.59712
# Velocity P-wave (km/s) = 6.03305 6.33734 6.18707
#
# Compressibility (1/GPa) = 0.02606064
#
# Stress axis : x y z
#
# Youngs Moduli (GPa) = 60.52352 72.13840 55.68062
#
# Poissons Ratio (x) = 0.43917 -0.08005
# Poissons Ratio (y) = 0.36846 0.36146
# Poissons Ratio (z) = -0.08702 0.46830
#
# Static dielectric constant tensor:
#      x y z
#    x 3.640210 0.000000 0.000000 
#    y 0.000000 3.563240 0.000000 
#    z 0.000000 0.000000 3.559160 
# 
# 
# High freq. dielectric constant tensor:
#      x y z
#    x 1.777080 0.000000 0.000000 
#    y 0.000000 1.755900 0.000000 
#    z 0.000000 0.000000 1.764740 
# 
# From -- ./inp_files/26596.got.cif
#   From: 2010.03.12/outbox.cif.g09.slc.cpg/sg62_14_cif.got.tgz:26596.got - 2010.04.10 19:12:36.
