data_PCOD8252657
_publ_section_title
;
Structure prediction by ZEFSAII (Michael W. Deem and Ramdas Pophale) SiO2 
 PCOD8252657
Probable space group: P N M A
;
_chemical_formula_sum "Si O2"
_cell_formula_units_Z 56
_cell_length_a 24.238555
_cell_length_b 8.533699
_cell_length_c 13.654516
_cell_angle_alpha 90.000000
_cell_angle_beta 90.000000
_cell_angle_gamma 90.000000
_cell_volume 2824.361979
_symmetry_space_group_name_H-M "P N M A"
_symmetry_group_IT_number 62
_symmetry_cell_setting 'orthorhombic'
loop_
_space_group_symop_operation_xyz
x,y,z
1/2-x,-y,1/2+z
1/2+x,1/2-y,1/2-z
-x,1/2+y,-z
-x,-y,-z
1/2+x,y,1/2-z
1/2-x,1/2+y,1/2+z
x,1/2-y,z
loop_
_atom_site_type_symbol
_atom_site_label
_atom_site_fract_x
_atom_site_fract_y
_atom_site_fract_z
Si Si1 0.120997 0.564766 0.706241
Si Si2 0.671198 0.565981 0.288553
Si Si3 0.271417 0.435071 0.102002
Si Si4 0.938611 0.064558 0.895090
Si Si5 0.054276 0.564287 0.885623
Si Si6 0.060680 0.935662 0.513788
Si Si7 0.334386 0.933827 0.920460
O O1 0.119430 0.750000 0.709009
O O2 0.183043 0.510017 0.682281
O O3 0.099811 0.496027 0.809795
O O4 0.080341 0.507379 0.620448
O O5 0.670859 0.750000 0.267345
O O6 0.715812 0.526150 0.371869
O O7 0.612364 0.507808 0.329749
O O8 0.684784 0.473271 0.189443
O O9 0.261184 0.250000 0.105322
O O10 0.292317 0.480420 0.994045
O O11 0.943222 0.250000 0.896148
O O12 0.931072 0.000795 0.006358
O O13 0.994340 0.993688 0.850155
O O14 0.054359 0.750000 0.883187
O O15 0.061519 0.750000 0.501405
O O16 0.102812 0.006889 0.434032
O O17 0.000000 0.000000 0.500000
O O18 0.330577 0.750000 0.938995
#
# Coordination Sequence:
#
# PCOD8252657 Si02
#       7
#     8   8   8   8   8   8   8
#     4   8  17  33  55  80 108 145 186 232 285 346
#     4  11  23  39  59  86 120 157 198 245 298 357
#     4  10  21  40  61  85 117 150 194 247 300 356
#     4   9  20  35  52  80 115 148 184 234 289 339
#     4   9  17  34  57  79 108 146 187 231 281 347
#     4  10  20  35  54  83 118 152 191 239 294 357
#     4  11  23  40  60  84 115 155 200 246 299 353
#
# _framework density 19.827486
#
# number of rings (size 3 to 8) (size 9 to 14) (size 15 to 20)
#    0.000    2.286    0.000    3.429    2.000    2.286 
#    0.000    6.429    0.000    0.000    0.000    0.000 
#    0.000    0.000    0.000    0.000    0.000    0.000 
#
# Total GULP energy -694412.734582 kJ/mol
# GULP energy per Si atom -12400.227403 kJ/mol
# Density = 1.978236 g / cm^3
# Si number density = 19.827486 Si / 1000 Ang^3
#
#
#
# Elastic Constant Matrix: (Units=GPa)
#
#
# Indices 1 2 3 4 5 6 
#
# 1 84.7499 18.0689 39.6954 0.0000 0.0000 0.0000
# 2 18.0689 45.7465 13.3498 0.0000 0.0000 0.0000
# 3 39.6954 13.3498 91.1586 0.0000 0.0000 0.0000
# 4 0.0000 0.0000 0.0000 25.9349 0.0000 0.0000
# 5 0.0000 0.0000 0.0000 0.0000 29.9234 0.0000
# 6 0.0000 0.0000 0.0000 0.0000 0.0000 31.8349
#
#
#
# Elastic Compliance Matrix: (Units=1/GPa)
#
#
# Indices 1 2 3 4 5 6 
#
# 1 0.015617 -0.004371 -0.006160 0.000000 0.000000 0.000000
# 2 -0.004371 0.024059 -0.001620 0.000000 0.000000 0.000000
# 3 -0.006160 -0.001620 0.013890 0.000000 0.000000 0.000000
# 4 0.000000 0.000000 0.000000 0.038558 0.000000 0.000000
# 5 0.000000 0.000000 0.000000 0.000000 0.033419 0.000000
# 6 0.000000 0.000000 0.000000 0.000000 0.000000 0.031412
#
#
# Mechanical properties :
#
#
# Convention : Reuss Voigt Hill
#
# Bulk Modulus (GPa) = 34.17276 40.43146 37.30211
# Shear Modulus (GPa) = 26.17666 27.57471 26.87568
#
# Velocity S-wave (km/s) = 3.63743 3.73330 3.68567
# Velocity P-wave (km/s) = 5.90877 6.24654 6.08000
#
# Compressibility (1/GPa) = 0.02926308
#
# Stress axis : x y z
#
# Youngs Moduli (GPa) = 64.03449 41.56509 71.99605
#
# Poissons Ratio (x) = 0.18166 0.44351
# Poissons Ratio (y) = 0.27987 0.11664
# Poissons Ratio (z) = 0.39447 0.06734
#
# Static dielectric constant tensor:
#      x y z
#    x 3.641970 0.000000 0.000000 
#    y 0.000000 3.414200 0.000000 
#    z 0.000000 0.000000 3.674920 
# 
# 
# High freq. dielectric constant tensor:
#      x y z
#    x 1.774350 0.000000 0.000000 
#    y 0.000000 1.761620 0.000000 
#    z 0.000000 0.000000 1.775790 
# 
# From -- ./inp_files/20324.got.cif
#   From: 2010.03.12/outbox.cif.g09.slc.cpg/sg62_11_cif.got.tgz:20324.got - 2010.04.10 19:12:36.
