data_PCOD8252101
_publ_section_title
;
Structure prediction by ZEFSAII (Michael W. Deem and Ramdas Pophale) SiO2 
 PCOD8252101
Probable space group: P N M A
;
_chemical_formula_sum "Si O2"
_cell_formula_units_Z 64
_cell_length_a 9.509404
_cell_length_b 27.544101
_cell_length_c 11.546109
_cell_angle_alpha 90.000000
_cell_angle_beta 90.000000
_cell_angle_gamma 90.000000
_cell_volume 3024.249056
_symmetry_space_group_name_H-M "P N M A"
_symmetry_group_IT_number 62
_symmetry_cell_setting 'orthorhombic'
loop_
_space_group_symop_operation_xyz
x,y,z
1/2-x,-y,1/2+z
1/2+x,1/2-y,1/2-z
-x,1/2+y,-z
-x,-y,-z
1/2+x,y,1/2-z
1/2-x,1/2+y,1/2+z
x,1/2-y,z
loop_
_atom_site_type_symbol
_atom_site_label
_atom_site_fract_x
_atom_site_fract_y
_atom_site_fract_z
Si Si1 0.283886 0.804481 0.074504
Si Si2 0.569856 0.073691 0.317810
Si Si3 0.130648 0.904165 0.620579
Si Si4 0.519222 0.031170 0.667128
Si Si5 0.964082 0.375473 0.966593
Si Si6 0.913998 0.303174 0.474740
Si Si7 0.776841 0.833494 0.168889
Si Si8 0.168728 0.935628 0.360670
O O1 0.232341 0.750000 0.043404
O O2 0.177033 0.844509 0.027503
O O3 0.307863 0.806655 0.211924
O O4 0.429077 0.816692 0.012339
O O5 0.507496 0.079764 0.189526
O O6 0.737339 0.077560 0.304568
O O7 0.517760 0.116598 0.402557
O O8 0.528520 0.021979 0.374503
O O9 0.138699 0.845628 0.610064
O O10 0.133417 0.930160 0.496074
O O11 0.441353 0.071590 0.589691
O O12 0.463272 0.038440 0.799270
O O13 0.687967 0.034115 0.659261
O O14 0.077138 0.345413 0.893601
O O15 0.908960 0.250000 0.413569
O O16 0.815719 0.299121 0.587621
O O17 0.689923 0.882580 0.195231
#
# Coordination Sequence:
#
# PCOD8252101 Si02
#       8
#     8   8   8   8   8   8   8   8
#     4  11  23  37  64 103 131 166 214 264 338 406
#     4  12  25  47  65  93 131 181 228 269 321 390
#     4  11  26  45  65  94 130 173 225 274 326 386
#     4  11  22  42  69  96 134 171 215 276 335 394
#     4  11  23  40  65  95 136 173 213 268 325 394
#     4  10  22  42  64  91 129 166 213 274 328 386
#     4  10  19  37  63  94 134 168 200 264 333 395
#     4  10  22  40  64 100 134 165 216 267 338 389
#
# _framework density 21.162278000000001
#
# number of rings (size 3 to 8) (size 9 to 14) (size 15 to 20)
#    0.000    1.250    5.000    2.250    7.000    2.500 
#    0.000    1.250    0.000    0.000    0.000    0.000 
#    0.000    0.000    0.000    0.000    0.000    0.000 
#
# Total GULP energy -793706.181107 kJ/mol
# GULP energy per Si atom -12401.659080 kJ/mol
# Density = 2.111411 g / cm^3
# Si number density = 21.162278 Si / 1000 Ang^3
#
#
#
# Elastic Constant Matrix: (Units=GPa)
#
#
# Indices 1 2 3 4 5 6 
#
# 1 66.4032 20.7584 34.6145 0.0000 0.0000 0.0000
# 2 20.7584 78.3216 14.8102 0.0000 0.0000 0.0000
# 3 34.6145 14.8102 65.7848 0.0000 0.0000 0.0000
# 4 0.0000 0.0000 0.0000 19.1588 0.0000 0.0000
# 5 0.0000 0.0000 0.0000 0.0000 34.9026 0.0000
# 6 0.0000 0.0000 0.0000 0.0000 0.0000 31.7592
#
#
#
# Elastic Compliance Matrix: (Units=1/GPa)
#
#
# Indices 1 2 3 4 5 6 
#
# 1 0.021764 -0.003763 -0.010604 0.000000 0.000000 0.000000
# 2 -0.003763 0.013986 -0.001169 0.000000 0.000000 0.000000
# 3 -0.010604 -0.001169 0.021044 0.000000 0.000000 0.000000
# 4 0.000000 0.000000 0.000000 0.052195 0.000000 0.000000
# 5 0.000000 0.000000 0.000000 0.000000 0.028651 0.000000
# 6 0.000000 0.000000 0.000000 0.000000 0.000000 0.031487
#
#
# Mechanical properties :
#
#
# Convention : Reuss Voigt Hill
#
# Bulk Modulus (GPa) = 38.87777 38.98620 38.93199
# Shear Modulus (GPa) = 23.94940 26.51923 25.23432
#
# Velocity S-wave (km/s) = 3.36773 3.54381 3.45689
# Velocity P-wave (km/s) = 5.79079 5.93357 5.86262
#
# Compressibility (1/GPa) = 0.02572164
#
# Stress axis : x y z
#
# Youngs Moduli (GPa) = 45.94805 71.49892 47.51947
#
# Poissons Ratio (x) = 0.26905 0.50392
# Poissons Ratio (y) = 0.17290 0.05554
# Poissons Ratio (z) = 0.48725 0.08356
#
# Static dielectric constant tensor:
#      x y z
#    x 3.792020 0.000000 0.000000 
#    y 0.000000 3.856620 0.000000 
#    z 0.000000 0.000000 3.568320 
# 
# 
# High freq. dielectric constant tensor:
#      x y z
#    x 1.832240 0.000000 0.000000 
#    y 0.000000 1.834050 0.000000 
#    z 0.000000 0.000000 1.811160 
# 
# From -- ./inp_files/11551.got.cif
#   From: 2010.03.12/outbox.cif.g09.slc.cpg/sg62_6_cif.got.tgz:11551.got - 2010.04.10 19:12:36.
