data_PCOD8252564
_publ_section_title
;
Structure prediction by ZEFSAII (Michael W. Deem and Ramdas Pophale) SiO2 
 PCOD8252564
Probable space group: P N M A
;
_chemical_formula_sum "Si O2"
_cell_formula_units_Z 56
_cell_length_a 14.758242
_cell_length_b 8.996950
_cell_length_c 21.110617
_cell_angle_alpha 90.000000
_cell_angle_beta 90.000000
_cell_angle_gamma 90.000000
_cell_volume 2803.050106
_symmetry_space_group_name_H-M "P N M A"
_symmetry_group_IT_number 62
_symmetry_cell_setting 'orthorhombic'
loop_
_space_group_symop_operation_xyz
x,y,z
1/2-x,-y,1/2+z
1/2+x,1/2-y,1/2-z
-x,1/2+y,-z
-x,-y,-z
1/2+x,y,1/2-z
1/2-x,1/2+y,1/2+z
x,1/2-y,z
loop_
_atom_site_type_symbol
_atom_site_label
_atom_site_fract_x
_atom_site_fract_y
_atom_site_fract_z
Si Si1 0.142538 0.077477 0.983688
Si Si2 0.771925 0.921192 0.231527
Si Si3 0.778927 0.574224 0.602982
Si Si4 0.928653 0.418835 0.770169
Si Si5 0.571372 0.922396 0.808223
Si Si6 0.521786 0.422912 0.065839
Si Si7 0.958489 0.079598 0.913336
O O1 0.168565 0.250000 0.985271
O O2 0.057769 0.042186 0.938753
O O3 0.227498 0.983947 0.959122
O O4 0.117487 0.023344 0.054198
O O5 0.794630 0.750000 0.217089
O O6 0.678489 0.942024 0.268412
O O7 0.768099 0.004131 0.164653
O O8 0.847992 0.983204 0.278490
O O9 0.770204 0.750000 0.608383
O O10 0.882915 0.521190 0.595491
O O11 0.954567 0.250000 0.751223
O O12 0.962471 0.457749 0.839860
O O13 0.976228 0.534156 0.723630
O O14 0.590918 0.750000 0.795999
O O15 0.558444 0.955094 0.883334
O O16 0.529940 0.250000 0.051172
O O17 0.500000 0.500000 0.000000
O O18 0.931973 0.250000 0.926602
#
# Coordination Sequence:
#
# PCOD8252564 Si02
#       7
#     8   8   8   8   8   8   8
#     4  10  20  34  56  86 118 155 200 246 296 361
#     4  11  23  38  61  92 121 157 205 254 312 372
#     4  11  22  40  62  87 121 161 205 253 309 371
#     4  10  21  38  61  87 118 156 199 251 303 363
#     4  11  23  41  63  90 125 162 207 260 314 372
#     4  10  24  43  64  90 122 163 209 256 310 370
#     4   9  19  36  55  81 119 155 194 245 301 359
#
# _framework density 19.978237
#
# number of rings (size 3 to 8) (size 9 to 14) (size 15 to 20)
#    0.000    1.714    1.429    2.571    0.000    6.286 
#    0.000    4.286    0.000    0.000    0.000    0.000 
#    0.000    0.000    0.000    0.000    0.000    0.000 
#
# Total GULP energy -694583.396428 kJ/mol
# GULP energy per Si atom -12403.274936 kJ/mol
# Density = 1.993277 g / cm^3
# Si number density = 19.978237 Si / 1000 Ang^3
#
#
#
# Elastic Constant Matrix: (Units=GPa)
#
#
# Indices 1 2 3 4 5 6 
#
# 1 85.9692 42.8627 34.3709 0.0000 0.0000 0.0000
# 2 42.8627 90.5852 43.8735 0.0000 0.0000 0.0000
# 3 34.3709 43.8735 92.3735 0.0000 0.0000 0.0000
# 4 0.0000 0.0000 0.0000 37.7327 0.0000 0.0000
# 5 0.0000 0.0000 0.0000 0.0000 29.8718 0.0000
# 6 0.0000 0.0000 0.0000 0.0000 0.0000 33.1708
#
#
#
# Elastic Compliance Matrix: (Units=1/GPa)
#
#
# Indices 1 2 3 4 5 6 
#
# 1 0.015852 -0.006032 -0.003034 0.000000 0.000000 0.000000
# 2 -0.006032 0.016632 -0.005655 0.000000 0.000000 0.000000
# 3 -0.003034 -0.005655 0.014640 0.000000 0.000000 0.000000
# 4 0.000000 0.000000 0.000000 0.026502 0.000000 0.000000
# 5 0.000000 0.000000 0.000000 0.000000 0.033476 0.000000
# 6 0.000000 0.000000 0.000000 0.000000 0.000000 0.030147
#
#
# Mechanical properties :
#
#
# Convention : Reuss Voigt Hill
#
# Bulk Modulus (GPa) = 56.54889 56.79355 56.67122
# Shear Modulus (GPa) = 28.97096 30.00978 29.49037
#
# Velocity S-wave (km/s) = 3.81218 3.87993 3.84620
# Velocity P-wave (km/s) = 6.90968 6.96859 6.93920
#
# Compressibility (1/GPa) = 0.01768381
#
# Stress axis : x y z
#
# Youngs Moduli (GPa) = 63.08280 60.12342 68.30376
#
# Poissons Ratio (x) = 0.36264 0.20721
# Poissons Ratio (y) = 0.38049 0.38629
# Poissons Ratio (z) = 0.19137 0.34002
#
# Static dielectric constant tensor:
#      x y z
#    x 3.686960 0.000000 0.000000 
#    y 0.000000 3.647270 0.000000 
#    z 0.000000 0.000000 3.652890 
# 
# 
# High freq. dielectric constant tensor:
#      x y z
#    x 1.780620 0.000000 0.000000 
#    y 0.000000 1.782350 0.000000 
#    z 0.000000 0.000000 1.784230 
# 
# From -- ./inp_files/27091.got.cif
#   From: 2010.03.12/outbox.cif.g09.slc.cpg/sg62_14_cif.got.tgz:27091.got - 2010.04.10 19:12:36.
