data_PCOD8252044
_publ_section_title
;
Structure prediction by ZEFSAII (Michael W. Deem and Ramdas Pophale) SiO2 
 PCOD8252044
Probable space group: P N M A
;
_chemical_formula_sum "Si O2"
_cell_formula_units_Z 48
_cell_length_a 11.772950
_cell_length_b 14.729471
_cell_length_c 13.348584
_cell_angle_alpha 90.000000
_cell_angle_beta 90.000000
_cell_angle_gamma 90.000000
_cell_volume 2314.768949
_symmetry_space_group_name_H-M "P N M A"
_symmetry_group_IT_number 62
_symmetry_cell_setting 'orthorhombic'
loop_
_space_group_symop_operation_xyz
x,y,z
1/2-x,-y,1/2+z
1/2+x,1/2-y,1/2-z
-x,1/2+y,-z
-x,-y,-z
1/2+x,y,1/2-z
1/2-x,1/2+y,1/2+z
x,1/2-y,z
loop_
_atom_site_type_symbol
_atom_site_label
_atom_site_fract_x
_atom_site_fract_y
_atom_site_fract_z
Si Si1 0.509587 0.250000 0.390405
Si Si2 0.409113 0.750000 0.944265
Si Si3 0.242827 0.417630 0.677251
Si Si4 0.207268 0.390945 0.108598
Si Si5 0.114519 0.750000 0.693503
Si Si6 0.682635 0.750000 0.458612
Si Si7 0.719568 0.856722 0.108177
Si Si8 0.018569 0.082602 0.571006
O O1 0.588757 0.161724 0.378576
O O2 0.404739 0.250000 0.312203
O O3 0.445674 0.250000 0.498369
O O4 0.270882 0.750000 0.945888
O O5 0.446735 0.836576 0.002140
O O6 0.480822 0.750000 0.841527
O O7 0.311667 0.512013 0.663009
O O8 0.300206 0.338418 0.611273
O O9 0.219218 0.386472 0.790749
O O10 0.115528 0.442387 0.647919
O O11 0.314798 0.337939 0.157120
O O12 0.231354 0.406756 0.990207
O O13 0.730102 0.750000 0.087043
O O14 0.592160 0.888304 0.131726
O O15 0.000000 0.000000 0.500000
#
# Coordination Sequence:
#
# PCOD8252044 Si02
#       8
#     4   4   8   8   4   4   8   8
#     4  11  27  43  69  93 146 188 224 293 349 417
#     4  10  19  36  66  88 126 165 230 285 317 396
#     4  11  25  41  70 106 134 179 238 283 351 423
#     4  11  24  46  68 102 139 180 235 287 349 418
#     4  11  21  43  69  97 126 185 238 273 343 412
#     4  10  25  42  60 102 138 178 226 283 349 405
#     4  12  22  43  71  99 137 184 225 284 354 411
#     4  11  20  40  67  96 132 176 226 290 336 402
#
# _framework density 20.736409999999999
#
# number of rings (size 3 to 8) (size 9 to 14) (size 15 to 20)
#    0.000    1.000    6.667    0.000    2.333    6.000 
#    0.000    0.000    0.000    0.000    0.000    0.000 
#    0.000    0.000    0.000    0.000    0.000    0.000 
#
# Total GULP energy -594916.639342 kJ/mol
# GULP energy per Si atom -12394.096653 kJ/mol
# Density = 2.068921 g / cm^3
# Si number density = 20.736410 Si / 1000 Ang^3
#
#
#
# Elastic Constant Matrix: (Units=GPa)
#
#
# Indices 1 2 3 4 5 6 
#
# 1 80.1271 22.8748 32.3224 0.0000 0.0000 0.0000
# 2 22.8748 123.3533 19.2937 0.0000 0.0000 0.0000
# 3 32.3224 19.2937 102.9667 0.0000 0.0000 0.0000
# 4 0.0000 0.0000 0.0000 34.2260 0.0000 0.0000
# 5 0.0000 0.0000 0.0000 0.0000 32.3060 0.0000
# 6 0.0000 0.0000 0.0000 0.0000 0.0000 28.7475
#
#
#
# Elastic Compliance Matrix: (Units=1/GPa)
#
#
# Indices 1 2 3 4 5 6 
#
# 1 0.014789 -0.002077 -0.004253 0.000000 0.000000 0.000000
# 2 -0.002077 0.008643 -0.000968 0.000000 0.000000 0.000000
# 3 -0.004253 -0.000968 0.011228 0.000000 0.000000 0.000000
# 4 0.000000 0.000000 0.000000 0.029218 0.000000 0.000000
# 5 0.000000 0.000000 0.000000 0.000000 0.030954 0.000000
# 6 0.000000 0.000000 0.000000 0.000000 0.000000 0.034786
#
#
# Mechanical properties :
#
#
# Convention : Reuss Voigt Hill
#
# Bulk Modulus (GPa) = 49.83882 50.60321 50.22102
# Shear Modulus (GPa) = 33.13414 34.51964 33.82689
#
# Velocity S-wave (km/s) = 4.00168 4.08448 4.04329
# Velocity P-wave (km/s) = 6.74076 6.83374 6.78741
#
# Compressibility (1/GPa) = 0.02006468
#
# Stress axis : x y z
#
# Youngs Moduli (GPa) = 67.61843 115.69623 89.06078
#
# Poissons Ratio (x) = 0.24033 0.37879
# Poissons Ratio (y) = 0.14046 0.08617
# Poissons Ratio (z) = 0.28759 0.11194
#
# Static dielectric constant tensor:
#      x y z
#    x 3.968160 0.000000 0.000000 
#    y 0.000000 3.831530 0.000000 
#    z 0.000000 0.000000 3.675650 
# 
# 
# High freq. dielectric constant tensor:
#      x y z
#    x 1.810810 0.000000 0.000000 
#    y 0.000000 1.821700 0.000000 
#    z 0.000000 0.000000 1.808310 
# 
# From -- ./inp_files/12298.got.cif
#   From: 2010.03.12/outbox.cif.g09.slc.cpg/sg62_7_cif.got.tgz:12298.got - 2010.04.10 19:12:36.
