data_PCOD8252648
_publ_section_title
;
Structure prediction by ZEFSAII (Michael W. Deem and Ramdas Pophale) SiO2 
 PCOD8252648
Probable space group: P N M A
;
_chemical_formula_sum "Si O2"
_cell_formula_units_Z 48
_cell_length_a 25.792226
_cell_length_b 13.658425
_cell_length_c 7.215119
_cell_angle_alpha 90.000000
_cell_angle_beta 90.000000
_cell_angle_gamma 90.000000
_cell_volume 2541.750667
_symmetry_space_group_name_H-M "P N M A"
_symmetry_group_IT_number 62
_symmetry_cell_setting 'orthorhombic'
loop_
_space_group_symop_operation_xyz
x,y,z
1/2-x,-y,1/2+z
1/2+x,1/2-y,1/2-z
-x,1/2+y,-z
-x,-y,-z
1/2+x,y,1/2-z
1/2-x,1/2+y,1/2+z
x,1/2-y,z
loop_
_atom_site_type_symbol
_atom_site_label
_atom_site_fract_x
_atom_site_fract_y
_atom_site_fract_z
Si Si1 0.307871 0.981440 0.302446
Si Si2 0.333223 0.640299 0.959424
Si Si3 0.948059 0.860840 0.456297
Si Si4 0.239918 0.136258 0.131895
Si Si5 0.006019 0.136676 0.162994
Si Si6 0.927957 0.979605 0.105065
O O1 0.270378 0.923927 0.443921
O O2 0.366161 0.986953 0.380779
O O3 0.286679 0.090037 0.254821
O O4 0.304273 0.926107 0.108114
O O5 0.323973 0.750000 0.030379
O O6 0.393501 0.614932 0.946931
O O7 0.311825 0.625911 0.753288
O O8 0.949344 0.750000 0.380462
O O9 0.956173 0.931413 0.282938
O O10 0.991363 0.876179 0.614089
O O11 0.253156 0.250000 0.088070
O O12 0.005514 0.250000 0.106060
O O13 0.952817 0.087818 0.088943
O O14 0.056418 0.085400 0.071763
#
# Coordination Sequence:
#
# PCOD8252648 Si02
#       6
#     8   8   8   8   8   8
#     4  11  21  37  56  81 113 146 187 232 277 329
#     4   9  18  33  54  80 107 142 185 229 272 318
#     4   9  17  31  54  80 106 137 179 224 264 314
#     4  11  22  36  57  81 110 148 188 229 277 329
#     4  10  20  35  54  79 109 141 179 223 273 328
#     4  10  21  34  55  81 108 144 179 224 273 325
#
# _framework density 18.884620999999999
#
# number of rings (size 3 to 8) (size 9 to 14) (size 15 to 20)
#    0.000    2.000    1.667    2.500    0.000    4.000 
#    0.000    0.000    0.000    0.000    0.000    0.000 
#    0.000    0.000    0.000    0.000    0.000    0.000 
#
# Total GULP energy -595064.475298 kJ/mol
# GULP energy per Si atom -12397.176569 kJ/mol
# Density = 1.884164 g / cm^3
# Si number density = 18.884621 Si / 1000 Ang^3
#
#
#
# Elastic Constant Matrix: (Units=GPa)
#
#
# Indices 1 2 3 4 5 6 
#
# 1 59.4706 41.8586 15.0478 0.0000 0.0000 0.0000
# 2 41.8586 102.9717 31.3909 0.0000 0.0000 0.0000
# 3 15.0478 31.3909 57.8862 0.0000 0.0000 0.0000
# 4 0.0000 0.0000 0.0000 28.0137 0.0000 0.0000
# 5 0.0000 0.0000 0.0000 0.0000 24.2047 0.0000
# 6 0.0000 0.0000 0.0000 0.0000 0.0000 20.8762
#
#
#
# Elastic Compliance Matrix: (Units=1/GPa)
#
#
# Indices 1 2 3 4 5 6 
#
# 1 0.023615 -0.009259 -0.001118 0.000000 0.000000 0.000000
# 2 -0.009259 0.015265 -0.005871 0.000000 0.000000 0.000000
# 3 -0.001118 -0.005871 0.020750 0.000000 0.000000 0.000000
# 4 0.000000 0.000000 0.000000 0.035697 0.000000 0.000000
# 5 0.000000 0.000000 0.000000 0.000000 0.041314 0.000000
# 6 0.000000 0.000000 0.000000 0.000000 0.000000 0.047901
#
#
# Mechanical properties :
#
#
# Convention : Reuss Voigt Hill
#
# Bulk Modulus (GPa) = 36.85427 44.10256 40.47841
# Shear Modulus (GPa) = 22.11589 23.42101 22.76845
#
# Velocity S-wave (km/s) = 3.42585 3.52549 3.47603
# Velocity P-wave (km/s) = 5.93351 6.32270 6.13119
#
# Compressibility (1/GPa) = 0.02713390
#
# Stress axis : x y z
#
# Youngs Moduli (GPa) = 42.34655 65.50955 48.19349
#
# Poissons Ratio (x) = 0.60654 0.05387
# Poissons Ratio (y) = 0.39208 0.28295
# Poissons Ratio (z) = 0.04734 0.38461
#
# Static dielectric constant tensor:
#      x y z
#    x 3.197870 0.000000 0.000000 
#    y 0.000000 3.478660 0.000000 
#    z 0.000000 0.000000 3.482270 
# 
# 
# High freq. dielectric constant tensor:
#      x y z
#    x 1.714380 0.000000 0.000000 
#    y 0.000000 1.734140 0.000000 
#    z 0.000000 0.000000 1.740100 
# 
# From -- ./inp_files/3201.got.cif
#   From: 2010.03.12/outbox.cif.g09.slc.cpg/sg62_2_cif.got.tgz:3201.got - 2010.04.10 19:12:36.
