data_PCOD8252258
_publ_section_title
;
Structure prediction by ZEFSAII (Michael W. Deem and Ramdas Pophale) SiO2 
 PCOD8252258
Probable space group: P N M A
;
_chemical_formula_sum "Si O2"
_cell_formula_units_Z 64
_cell_length_a 19.978477
_cell_length_b 9.155370
_cell_length_c 20.064676
_cell_angle_alpha 90.000000
_cell_angle_beta 90.000000
_cell_angle_gamma 90.000000
_cell_volume 3670.036889
_symmetry_space_group_name_H-M "P N M A"
_symmetry_group_IT_number 62
_symmetry_cell_setting 'orthorhombic'
loop_
_space_group_symop_operation_xyz
x,y,z
1/2-x,-y,1/2+z
1/2+x,1/2-y,1/2-z
-x,1/2+y,-z
-x,-y,-z
1/2+x,y,1/2-z
1/2-x,1/2+y,1/2+z
x,1/2-y,z
loop_
_atom_site_type_symbol
_atom_site_label
_atom_site_fract_x
_atom_site_fract_y
_atom_site_fract_z
Si Si1 0.182747 0.921207 0.825571
Si Si2 0.320842 0.420526 0.175287
Si Si3 0.567646 0.922087 0.922605
Si Si4 0.077639 0.579243 0.935853
Si Si5 0.319596 0.077819 0.821517
Si Si6 0.066363 0.919432 0.425359
Si Si7 0.074892 0.421084 0.068507
Si Si8 0.671411 0.076527 0.313991
O O1 0.199797 0.750000 0.831913
O O2 0.158006 0.958537 0.750941
O O3 0.124016 0.970648 0.874928
O O4 0.248670 0.011797 0.843587
O O5 0.322297 0.250000 0.162283
O O6 0.373475 0.491163 0.123536
O O7 0.245142 0.475866 0.162250
O O8 0.560918 0.750000 0.912008
O O9 0.497806 0.992047 0.899807
O O10 0.584564 0.962843 0.998835
O O11 0.083409 0.750000 0.949383
O O12 0.001831 0.534390 0.917573
O O13 0.102236 0.498659 0.002329
O O14 0.312266 0.250000 0.810253
O O15 0.370676 0.039114 0.880296
O O16 0.347348 0.003602 0.754440
O O17 0.048166 0.750000 0.420077
O O18 0.083415 0.250000 0.057337
O O19 0.118335 0.474536 0.130990
O O20 0.669700 0.250000 0.301291
#
# Coordination Sequence:
#
# PCOD8252258 Si02
#       8
#     8   8   8   8   8   8   8   8
#     4   9  18  33  50  69  97 129 162 200 238 280
#     4   8  15  29  49  71  92 118 156 199 234 267
#     4   9  17  31  51  70  91 124 161 193 230 279
#     4   9  18  32  49  71 100 130 160 199 243 284
#     4  10  20  33  49  70  98 128 158 198 245 288
#     4   9  19  33  47  69  99 124 151 194 241 281
#     4   9  18  32  51  74  98 127 163 200 238 285
#     4   9  18  33  52  72  95 124 161 201 237 282
#
# _framework density 17.438517000000001
#
# number of rings (size 3 to 8) (size 9 to 14) (size 15 to 20)
#    0.000    3.000    0.000    1.125    0.000    4.000 
#    0.000    7.500    0.000    0.000    0.000    0.000 
#    0.000    0.000    0.000    0.000    0.000    0.000 
#
# Total GULP energy -793552.093619 kJ/mol
# GULP energy per Si atom -12399.251463 kJ/mol
# Density = 1.739883 g / cm^3
# Si number density = 17.438517 Si / 1000 Ang^3
#
#
#
# Elastic Constant Matrix: (Units=GPa)
#
#
# Indices 1 2 3 4 5 6 
#
# 1 113.4199 40.5728 92.9031 0.0000 0.0000 0.0000
# 2 40.5728 36.7582 41.7946 0.0000 0.0000 0.0000
# 3 92.9031 41.7946 130.3628 0.0000 0.0000 0.0000
# 4 0.0000 0.0000 0.0000 26.6003 0.0000 0.0000
# 5 0.0000 0.0000 0.0000 0.0000 41.8731 0.0000
# 6 0.0000 0.0000 0.0000 0.0000 0.0000 24.6623
#
#
#
# Elastic Compliance Matrix: (Units=1/GPa)
#
#
# Indices 1 2 3 4 5 6 
#
# 1 0.023680 -0.010936 -0.013369 0.000000 0.000000 0.000000
# 2 -0.010936 0.047861 -0.007551 0.000000 0.000000 0.000000
# 3 -0.013369 -0.007551 0.019619 0.000000 0.000000 0.000000
# 4 0.000000 0.000000 0.000000 0.037593 0.000000 0.000000
# 5 0.000000 0.000000 0.000000 0.000000 0.023882 0.000000
# 6 0.000000 0.000000 0.000000 0.000000 0.000000 0.040548
#
#
# Mechanical properties :
#
#
# Convention : Reuss Voigt Hill
#
# Bulk Modulus (GPa) = 36.43255 70.12022 53.27638
# Shear Modulus (GPa) = 18.79384 25.64517 22.21951
#
# Velocity S-wave (km/s) = 3.28643 3.83901 3.57341
# Velocity P-wave (km/s) = 5.94459 7.74260 6.90239
#
# Compressibility (1/GPa) = 0.02744798
#
# Stress axis : x y z
#
# Youngs Moduli (GPa) = 42.23029 20.89374 50.97022
#
# Poissons Ratio (x) = 0.22849 0.68143
# Poissons Ratio (y) = 0.46183 0.38487
# Poissons Ratio (z) = 0.56459 0.15777
#
# Static dielectric constant tensor:
#      x y z
#    x 3.376830 0.000000 0.000000 
#    y 0.000000 3.066540 0.000000 
#    z 0.000000 0.000000 3.395700 
# 
# 
# High freq. dielectric constant tensor:
#      x y z
#    x 1.675770 0.000000 0.000000 
#    y 0.000000 1.655980 0.000000 
#    z 0.000000 0.000000 1.677050 
# 
# From -- ./inp_files/27954.got.cif
#   From: 2010.03.12/outbox.cif.g09.slc.cpg/sg62_14_cif.got.tgz:27954.got - 2010.04.10 19:12:36.
