data_PCOD8252508
_publ_section_title
;
Structure prediction by ZEFSAII (Michael W. Deem and Ramdas Pophale) SiO2 
 PCOD8252508
Probable space group: P N M A
;
_chemical_formula_sum "Si O2"
_cell_formula_units_Z 56
_cell_length_a 16.427810
_cell_length_b 9.253659
_cell_length_c 19.476908
_cell_angle_alpha 90.000000
_cell_angle_beta 90.000000
_cell_angle_gamma 90.000000
_cell_volume 2960.827977
_symmetry_space_group_name_H-M "P N M A"
_symmetry_group_IT_number 62
_symmetry_cell_setting 'orthorhombic'
loop_
_space_group_symop_operation_xyz
x,y,z
1/2-x,-y,1/2+z
1/2+x,1/2-y,1/2-z
-x,1/2+y,-z
-x,-y,-z
1/2+x,y,1/2-z
1/2-x,1/2+y,1/2+z
x,1/2-y,z
loop_
_atom_site_type_symbol
_atom_site_label
_atom_site_fract_x
_atom_site_fract_y
_atom_site_fract_z
Si Si1 0.674534 0.581115 0.800929
Si Si2 0.266018 0.583000 0.972047
Si Si3 0.308997 0.083658 0.618777
Si Si4 0.143034 0.917860 0.855470
Si Si5 0.514850 0.582025 0.334576
Si Si6 0.068386 0.918648 0.457529
Si Si7 0.516739 0.084296 0.819378
O O1 0.672459 0.750000 0.816140
O O2 0.755627 0.514926 0.831948
O O3 0.674956 0.545230 0.720308
O O4 0.595725 0.511248 0.836966
O O5 0.292517 0.750000 0.963635
O O6 0.211690 0.529774 0.908346
O O7 0.344942 0.484071 0.976607
O O8 0.213323 0.559224 0.039994
O O9 0.297147 0.250000 0.641050
O O10 0.402144 0.034883 0.628607
O O11 0.124809 0.750000 0.865263
O O12 0.058854 0.998914 0.871045
O O13 0.497313 0.750000 0.344125
O O14 0.521075 0.540467 0.253954
O O15 0.067365 0.750000 0.476944
O O16 0.051846 0.942907 0.376637
O O17 0.000000 0.000000 0.500000
O O18 0.546117 0.250000 0.819947
#
# Coordination Sequence:
#
# PCOD8252508 Si02
#       7
#     8   8   8   8   8   8   8
#     4  10  20  34  55  82 110 142 181 225 273 326
#     4  10  22  39  56  79 113 150 183 222 277 333
#     4  10  21  36  56  80 109 145 183 224 273 325
#     4   9  20  38  56  79 112 146 180 224 279 331
#     4   9  19  36  57  81 106 138 183 229 271 320
#     4  11  23  37  56  82 112 147 186 228 276 330
#     4   9  19  36  55  77 106 140 179 224 273 323
#
# _framework density 18.913627999999999
#
# number of rings (size 3 to 8) (size 9 to 14) (size 15 to 20)
#    0.000    2.286    0.000    1.714    2.000    7.429 
#    0.000    0.000    0.000    0.000    0.000    0.000 
#    0.000    0.000    0.000    0.000    0.000    0.000 
#
# Total GULP energy -694642.859749 kJ/mol
# GULP energy per Si atom -12404.336781 kJ/mol
# Density = 1.887058 g / cm^3
# Si number density = 18.913628 Si / 1000 Ang^3
#
#
#
# Elastic Constant Matrix: (Units=GPa)
#
#
# Indices 1 2 3 4 5 6 
#
# 1 107.2400 53.0157 46.4417 0.0000 0.0000 0.0000
# 2 53.0157 77.1176 38.6178 0.0000 0.0000 0.0000
# 3 46.4417 38.6178 73.6576 0.0000 0.0000 0.0000
# 4 0.0000 0.0000 0.0000 24.3283 0.0000 0.0000
# 5 0.0000 0.0000 0.0000 0.0000 35.7918 0.0000
# 6 0.0000 0.0000 0.0000 0.0000 0.0000 37.1989
#
#
#
# Elastic Compliance Matrix: (Units=1/GPa)
#
#
# Indices 1 2 3 4 5 6 
#
# 1 0.015746 -0.007937 -0.005767 0.000000 0.000000 0.000000
# 2 -0.007937 0.021585 -0.006312 0.000000 0.000000 0.000000
# 3 -0.005767 -0.006312 0.020522 0.000000 0.000000 0.000000
# 4 0.000000 0.000000 0.000000 0.041104 0.000000 0.000000
# 5 0.000000 0.000000 0.000000 0.000000 0.027939 0.000000
# 6 0.000000 0.000000 0.000000 0.000000 0.000000 0.026882
#
#
# Mechanical properties :
#
#
# Convention : Reuss Voigt Hill
#
# Bulk Modulus (GPa) = 56.11534 59.35175 57.73354
# Shear Modulus (GPa) = 25.03121 27.45981 26.24551
#
# Velocity S-wave (km/s) = 3.64187 3.81445 3.72916
# Velocity P-wave (km/s) = 6.88607 7.13082 7.00951
#
# Compressibility (1/GPa) = 0.01782044
#
# Stress axis : x y z
#
# Youngs Moduli (GPa) = 63.50794 46.32926 48.72908
#
# Poissons Ratio (x) = 0.36772 0.28100
# Poissons Ratio (y) = 0.50407 0.30758
# Poissons Ratio (z) = 0.36623 0.29244
#
# Static dielectric constant tensor:
#      x y z
#    x 3.474420 0.000000 0.000000 
#    y 0.000000 3.470810 0.000000 
#    z 0.000000 0.000000 3.613940 
# 
# 
# High freq. dielectric constant tensor:
#      x y z
#    x 1.735980 0.000000 0.000000 
#    y 0.000000 1.733720 0.000000 
#    z 0.000000 0.000000 1.739880 
# 
# From -- ./inp_files/27242.got.cif
#   From: 2010.03.12/outbox.cif.g09.slc.cpg/sg62_14_cif.got.tgz:27242.got - 2010.04.10 19:12:36.
