data_PCOD8252001
_publ_section_title
;
Structure prediction by ZEFSAII (Michael W. Deem and Ramdas Pophale) SiO2 
 PCOD8252001
Probable space group: P N M A
;
_chemical_formula_sum "Si O2"
_cell_formula_units_Z 64
_cell_length_a 19.168633
_cell_length_b 9.195466
_cell_length_c 18.774880
_cell_angle_alpha 90.000000
_cell_angle_beta 90.000000
_cell_angle_gamma 90.000000
_cell_volume 3309.345080
_symmetry_space_group_name_H-M "P N M A"
_symmetry_group_IT_number 62
_symmetry_cell_setting 'orthorhombic'
loop_
_space_group_symop_operation_xyz
x,y,z
1/2-x,-y,1/2+z
1/2+x,1/2-y,1/2-z
-x,1/2+y,-z
-x,-y,-z
1/2+x,y,1/2-z
1/2-x,1/2+y,1/2+z
x,1/2-y,z
loop_
_atom_site_type_symbol
_atom_site_label
_atom_site_fract_x
_atom_site_fract_y
_atom_site_fract_z
Si Si1 0.093569 0.919455 0.102566
Si Si2 0.533076 0.922664 0.794861
Si Si3 0.829248 0.083361 0.042723
Si Si4 0.313141 0.580789 0.711932
Si Si5 0.173499 0.922462 0.635528
Si Si6 0.307657 0.422322 0.974196
Si Si7 0.614100 0.419271 0.143757
Si Si8 0.038138 0.919673 0.866226
O O1 0.083737 0.750000 0.116436
O O2 0.127998 0.991866 0.171143
O O3 0.140771 0.951436 0.034650
O O4 0.018370 0.990985 0.088505
O O5 0.535924 0.750000 0.795068
O O6 0.600108 0.987084 0.836626
O O7 0.461294 0.976588 0.830175
O O8 0.536835 0.978522 0.714186
O O9 0.803831 0.250000 0.048051
O O10 0.885831 0.048985 0.102754
O O11 0.765028 0.977792 0.057847
O O12 0.323389 0.750000 0.692697
O O13 0.236325 0.526197 0.687826
O O14 0.326516 0.554604 0.795831
O O15 0.170373 0.750000 0.635835
O O16 0.185317 0.979302 0.555312
O O17 0.311447 0.250000 0.969646
O O18 0.369210 0.489425 0.926762
O O19 0.610621 0.250000 0.123571
O O20 0.019265 0.750000 0.872045
#
# Coordination Sequence:
#
# PCOD8252001 Si02
#       8
#     8   8   8   8   8   8   8   8
#     4  11  21  34  55  85 123 155 182 231 291 344
#     4   9  18  35  59  84 107 142 195 245 279 325
#     4  10  22  37  56  85 118 154 193 234 281 339
#     4  10  19  36  61  85 110 151 197 234 279 340
#     4   9  19  35  58  85 111 145 193 240 282 332
#     4  11  23  38  58  84 117 152 188 239 293 344
#     4  10  21  37  60  86 112 146 193 240 284 340
#     4  10  20  36  59  84 112 150 196 236 276 340
#
# _framework density 19.339175000000001
#
# number of rings (size 3 to 8) (size 9 to 14) (size 15 to 20)
#    0.000    2.000    2.500    1.125    1.750    2.000 
#    0.000    0.000    0.000    3.000    0.000    0.000 
#    0.000    0.000    0.000    0.000    0.000    0.000 
#
# Total GULP energy -793715.237541 kJ/mol
# GULP energy per Si atom -12401.800587 kJ/mol
# Density = 1.929516 g / cm^3
# Si number density = 19.339175 Si / 1000 Ang^3
#
#
#
# Elastic Constant Matrix: (Units=GPa)
#
#
# Indices 1 2 3 4 5 6 
#
# 1 112.1233 33.8815 28.8652 0.0000 0.0000 0.0000
# 2 33.8815 47.9395 28.8831 0.0000 0.0000 0.0000
# 3 28.8652 28.8831 40.0890 0.0000 0.0000 0.0000
# 4 0.0000 0.0000 0.0000 25.7300 0.0000 0.0000
# 5 0.0000 0.0000 0.0000 0.0000 28.3341 0.0000
# 6 0.0000 0.0000 0.0000 0.0000 0.0000 25.8531
#
#
#
# Elastic Compliance Matrix: (Units=1/GPa)
#
#
# Indices 1 2 3 4 5 6 
#
# 1 0.011761 -0.005672 -0.004381 0.000000 0.000000 0.000000
# 2 -0.005672 0.039595 -0.024443 0.000000 0.000000 0.000000
# 3 -0.004381 -0.024443 0.045710 0.000000 0.000000 0.000000
# 4 0.000000 0.000000 0.000000 0.038865 0.000000 0.000000
# 5 0.000000 0.000000 0.000000 0.000000 0.035293 0.000000
# 6 0.000000 0.000000 0.000000 0.000000 0.000000 0.038680
#
#
# Mechanical properties :
#
#
# Convention : Reuss Voigt Hill
#
# Bulk Modulus (GPa) = 35.62230 42.60126 39.11178
# Shear Modulus (GPa) = 17.34569 23.21823 20.28196
#
# Velocity S-wave (km/s) = 2.99811 3.46870 3.24195
# Velocity P-wave (km/s) = 5.51767 6.17404 5.85506
#
# Compressibility (1/GPa) = 0.02807230
#
# Stress axis : x y z
#
# Youngs Moduli (GPa) = 85.02871 25.25541 21.87703
#
# Poissons Ratio (x) = 0.14326 0.09585
# Poissons Ratio (y) = 0.48230 0.53475
# Poissons Ratio (z) = 0.37254 0.61733
#
# Static dielectric constant tensor:
#      x y z
#    x 3.712370 0.000000 0.000000 
#    y 0.000000 3.210560 0.000000 
#    z 0.000000 0.000000 3.605110 
# 
# 
# High freq. dielectric constant tensor:
#      x y z
#    x 1.762640 0.000000 0.000000 
#    y 0.000000 1.718680 0.000000 
#    z 0.000000 0.000000 1.757180 
# 
# From -- ./inp_files/27757.got.cif
#   From: 2010.03.12/outbox.cif.g09.slc.cpg/sg62_14_cif.got.tgz:27757.got - 2010.04.10 19:12:36.
