data_PCOD8252060
_publ_section_title
;
Structure prediction by ZEFSAII (Michael W. Deem and Ramdas Pophale) SiO2 
 PCOD8252060
Probable space group: P N M A
;
_chemical_formula_sum "Si O2"
_cell_formula_units_Z 56
_cell_length_a 10.619383
_cell_length_b 23.375156
_cell_length_c 12.056994
_cell_angle_alpha 90.000000
_cell_angle_beta 90.000000
_cell_angle_gamma 90.000000
_cell_volume 2992.904416
_symmetry_space_group_name_H-M "P N M A"
_symmetry_group_IT_number 62
_symmetry_cell_setting 'orthorhombic'
loop_
_space_group_symop_operation_xyz
x,y,z
1/2-x,-y,1/2+z
1/2+x,1/2-y,1/2-z
-x,1/2+y,-z
-x,-y,-z
1/2+x,y,1/2-z
1/2-x,1/2+y,1/2+z
x,1/2-y,z
loop_
_atom_site_type_symbol
_atom_site_label
_atom_site_fract_x
_atom_site_fract_y
_atom_site_fract_z
Si Si1 0.374383 0.750000 0.310914
Si Si2 0.891373 0.438338 0.321605
Si Si3 0.017071 0.557230 0.277640
Si Si4 0.897092 0.871573 0.087995
Si Si5 0.835705 0.007714 0.890398
Si Si6 0.386250 0.369944 0.971369
Si Si7 0.930428 0.068698 0.078871
Si Si8 0.408680 0.250000 0.869272
O O1 0.412312 0.694499 0.380593
O O2 0.220247 0.750000 0.292168
O O3 0.461202 0.750000 0.200632
O O4 0.755950 0.455862 0.369162
O O5 0.937715 0.389438 0.407239
O O6 0.880068 0.409964 0.198806
O O7 0.972640 0.495946 0.324543
O O8 0.153544 0.550363 0.215907
O O9 0.029397 0.597835 0.381924
O O10 0.919535 0.587239 0.193167
O O11 0.759736 0.886273 0.042027
O O12 0.997978 0.881981 0.989356
O O13 0.813472 0.043513 0.004599
O O14 0.978220 0.984243 0.895646
O O15 0.408000 0.302996 0.953450
#
# Coordination Sequence:
#
# PCOD8252060 Si02
#       8
#     4   8   8   8   8   8   8   4
#     4  10  20  38  67  86 110 152 199 259 292 347
#     4  11  21  32  54  82 119 152 184 234 287 356
#     4  10  20  32  54  83 114 146 185 235 289 345
#     4  10  19  37  60  80 111 151 196 238 291 347
#     4   9  18  32  53  73 111 147 185 225 277 339
#     4  11  21  36  56  83 114 149 190 239 289 354
#     4   9  19  35  50  76 108 151 187 226 275 346
#     4  10  22  40  63  86 116 150 201 247 302 343
#
# _framework density 18.710920999999999
#
# number of rings (size 3 to 8) (size 9 to 14) (size 15 to 20)
#    0.000    2.000    2.857    2.143    2.000    0.000 
#    0.000    0.714    0.000    0.000    0.000    0.000 
#    0.000    0.000    0.000    0.000    0.000    0.000 
#
# Total GULP energy -693763.062521 kJ/mol
# GULP energy per Si atom -12388.626116 kJ/mol
# Density = 1.866833 g / cm^3
# Si number density = 18.710921 Si / 1000 Ang^3
#
#
#
# Elastic Constant Matrix: (Units=GPa)
#
#
# Indices 1 2 3 4 5 6 
#
# 1 45.3190 32.2645 40.3246 0.0000 0.0000 0.0000
# 2 32.2645 101.3441 60.5153 0.0000 0.0000 0.0000
# 3 40.3246 60.5153 157.5995 0.0000 0.0000 0.0000
# 4 0.0000 0.0000 0.0000 21.3497 0.0000 0.0000
# 5 0.0000 0.0000 0.0000 0.0000 17.8582 0.0000
# 6 0.0000 0.0000 0.0000 0.0000 0.0000 21.7523
#
#
#
# Elastic Compliance Matrix: (Units=1/GPa)
#
#
# Indices 1 2 3 4 5 6 
#
# 1 0.031851 -0.006843 -0.005522 0.000000 0.000000 0.000000
# 2 -0.006843 0.014273 -0.003730 0.000000 0.000000 0.000000
# 3 -0.005522 -0.003730 0.009190 0.000000 0.000000 0.000000
# 4 0.000000 0.000000 0.000000 0.046839 0.000000 0.000000
# 5 0.000000 0.000000 0.000000 0.000000 0.055997 0.000000
# 6 0.000000 0.000000 0.000000 0.000000 0.000000 0.045972
#
#
# Mechanical properties :
#
#
# Convention : Reuss Voigt Hill
#
# Bulk Modulus (GPa) = 43.24334 63.38571 53.31452
# Shear Modulus (GPa) = 20.49012 23.60259 22.04635
#
# Velocity S-wave (km/s) = 3.31280 3.55552 3.43630
# Velocity P-wave (km/s) = 6.14771 7.12780 6.65582
#
# Compressibility (1/GPa) = 0.02312495
#
# Stress axis : x y z
#
# Youngs Moduli (GPa) = 31.39608 70.06219 108.81086
#
# Poissons Ratio (x) = 0.47943 0.60087
# Poissons Ratio (y) = 0.21484 0.40583
# Poissons Ratio (z) = 0.17337 0.26131
#
# Static dielectric constant tensor:
#      x y z
#    x 3.303780 0.000000 0.000000 
#    y 0.000000 3.344910 0.000000 
#    z 0.000000 0.000000 3.804000 
# 
# 
# High freq. dielectric constant tensor:
#      x y z
#    x 1.707150 0.000000 0.000000 
#    y 0.000000 1.710040 0.000000 
#    z 0.000000 0.000000 1.734300 
# 
# From -- ./inp_files/12442.got.cif
#   From: 2010.03.12/outbox.cif.g09.slc.cpg/sg62_7_cif.got.tgz:12442.got - 2010.04.10 19:12:36.
