data_PCOD8252921
_publ_section_title
;
Structure prediction by ZEFSAII (Michael W. Deem and Ramdas Pophale) SiO2 
 PCOD8252921
Probable space group: P N M A
;
_chemical_formula_sum "Si O2"
_cell_formula_units_Z 36
_cell_length_a 5.117934
_cell_length_b 25.904663
_cell_length_c 13.569226
_cell_angle_alpha 90.000000
_cell_angle_beta 90.000000
_cell_angle_gamma 90.000000
_cell_volume 1798.985669
_symmetry_space_group_name_H-M "P N M A"
_symmetry_group_IT_number 62
_symmetry_cell_setting 'orthorhombic'
loop_
_space_group_symop_operation_xyz
x,y,z
1/2-x,-y,1/2+z
1/2+x,1/2-y,1/2-z
-x,1/2+y,-z
-x,-y,-z
1/2+x,y,1/2-z
1/2-x,1/2+y,1/2+z
x,1/2-y,z
loop_
_atom_site_type_symbol
_atom_site_label
_atom_site_fract_x
_atom_site_fract_y
_atom_site_fract_z
Si Si1 0.560716 0.750000 0.685449
Si Si2 0.984902 0.071471 0.312789
Si Si3 0.985284 0.872279 0.483349
Si Si4 0.012893 0.452480 0.686917
Si Si5 0.491885 0.692831 0.498068
O O1 0.355067 0.750000 0.774064
O O2 0.522416 0.699138 0.617151
O O3 0.701706 0.084212 0.268967
O O4 0.030583 0.106985 0.406374
O O5 0.006369 0.011964 0.345533
O O6 0.215826 0.831456 0.471120
O O7 0.032012 0.919652 0.410699
O O8 0.718245 0.843407 0.455431
O O9 0.292279 0.439052 0.733228
O O10 0.507979 0.750000 0.448765
#
# Coordination Sequence:
#
# PCOD8252921 Si02
#       5
#     4   8   8   8   8
#     4  10  20  36  54  78 114 152 188 230 284 338
#     4  10  22  37  57  91 125 150 190 240 289 360
#     4  12  21  39  64  84 117 162 196 239 293 352
#     4  10  22  40  61  88 118 151 197 247 297 348
#     4  10  24  37  55  85 114 157 193 241 287 337
#
# _framework density 20.011275000000001
#
# number of rings (size 3 to 8) (size 9 to 14) (size 15 to 20)
#    0.667    0.889    0.000    5.333    0.000    5.333 
#    0.000    8.889    0.000   13.333    0.000    0.000 
#    0.000    0.000    0.000    0.000    0.000    0.000 
#
# Total GULP energy -446488.254391 kJ/mol
# GULP energy per Si atom -12402.451511 kJ/mol
# Density = 1.996573 g / cm^3
# Si number density = 20.011275 Si / 1000 Ang^3
#
#
#
# Elastic Constant Matrix: (Units=GPa)
#
#
# Indices 1 2 3 4 5 6 
#
# 1 87.3435 36.6724 12.1098 0.0000 0.0000 0.0000
# 2 36.6724 89.3412 24.6624 0.0000 0.0000 0.0000
# 3 12.1098 24.6624 30.0349 0.0000 0.0000 0.0000
# 4 0.0000 0.0000 0.0000 21.1241 0.0000 0.0000
# 5 0.0000 0.0000 0.0000 0.0000 20.1554 0.0000
# 6 0.0000 0.0000 0.0000 0.0000 0.0000 33.1767
#
#
#
# Elastic Compliance Matrix: (Units=1/GPa)
#
#
# Indices 1 2 3 4 5 6 
#
# 1 0.013866 -0.005364 -0.001186 0.000000 0.000000 0.000000
# 2 -0.005364 0.016549 -0.011426 0.000000 0.000000 0.000000
# 3 -0.001186 -0.011426 0.043155 0.000000 0.000000 0.000000
# 4 0.000000 0.000000 0.000000 0.047339 0.000000 0.000000
# 5 0.000000 0.000000 0.000000 0.000000 0.049615 0.000000
# 6 0.000000 0.000000 0.000000 0.000000 0.000000 0.030142
#
#
# Mechanical properties :
#
#
# Convention : Reuss Voigt Hill
#
# Bulk Modulus (GPa) = 26.58341 39.28989 32.93665
# Shear Modulus (GPa) = 20.06771 23.77622 21.92196
#
# Velocity S-wave (km/s) = 3.17017 3.45068 3.31340
# Velocity P-wave (km/s) = 5.16846 5.96261 5.57969
#
# Compressibility (1/GPa) = 0.03761745
#
# Stress axis : x y z
#
# Youngs Moduli (GPa) = 72.12038 60.42642 23.17235
#
# Poissons Ratio (x) = 0.32414 0.02748
# Poissons Ratio (y) = 0.38687 0.26477
# Poissons Ratio (z) = 0.08553 0.69043
#
# Static dielectric constant tensor:
#      x y z
#    x 3.711180 0.000000 0.000000 
#    y 0.000000 3.673410 0.000000 
#    z 0.000000 0.000000 3.277650 
# 
# 
# High freq. dielectric constant tensor:
#      x y z
#    x 1.798680 0.000000 0.000000 
#    y 0.000000 1.789820 0.000000 
#    z 0.000000 0.000000 1.752540 
# 
# From -- ./inp_files/10682.got.cif
#   From: 2010.03.12/outbox.cif.g09.slc.cpg/sg62_6_cif.got.tgz:10682.got - 2010.04.10 19:12:36.
