data_PCOD8252024
_publ_section_title
;
Structure prediction by ZEFSAII (Michael W. Deem and Ramdas Pophale) SiO2 
 PCOD8252024
Probable space group: P N M A
;
_chemical_formula_sum "Si O2"
_cell_formula_units_Z 48
_cell_length_a 12.646049
_cell_length_b 13.891708
_cell_length_c 12.978943
_cell_angle_alpha 90.000000
_cell_angle_beta 90.000000
_cell_angle_gamma 90.000000
_cell_volume 2280.078668
_symmetry_space_group_name_H-M "P N M A"
_symmetry_group_IT_number 62
_symmetry_cell_setting 'orthorhombic'
loop_
_space_group_symop_operation_xyz
x,y,z
1/2-x,-y,1/2+z
1/2+x,1/2-y,1/2-z
-x,1/2+y,-z
-x,-y,-z
1/2+x,y,1/2-z
1/2-x,1/2+y,1/2+z
x,1/2-y,z
loop_
_atom_site_type_symbol
_atom_site_label
_atom_site_fract_x
_atom_site_fract_y
_atom_site_fract_z
Si Si1 0.738376 0.001948 0.373600
Si Si2 0.475310 0.044126 0.737320
Si Si3 0.547399 0.356515 0.147020
Si Si4 0.289551 0.142473 0.302472
Si Si5 0.429139 0.861248 0.081108
Si Si6 0.606686 0.007745 0.561445
O O1 0.640583 0.950927 0.313550
O O2 0.824188 0.921114 0.395341
O O3 0.696689 0.046957 0.483142
O O4 0.790897 0.086463 0.306922
O O5 0.479933 0.115191 0.834668
O O6 0.500972 0.933720 0.773760
O O7 0.572146 0.074041 0.659551
O O8 0.503005 0.250000 0.174502
O O9 0.672781 0.356737 0.152850
O O10 0.519317 0.386277 0.029616
O O11 0.331576 0.250000 0.282237
O O12 0.359163 0.094934 0.392401
O O13 0.397078 0.750000 0.085431
O O14 0.500000 0.000000 0.500000
#
# Coordination Sequence:
#
# PCOD8252024 Si02
#       6
#     8   8   8   8   8   8
#     4  10  21  38  60  84 122 153 198 253 303 359
#     4  10  21  37  57  86 119 155 191 249 304 357
#     4   9  19  35  58  86 113 148 200 249 293 360
#     4  10  19  36  62  88 118 161 205 245 302 367
#     4  11  21  36  58  84 113 159 206 239 298 367
#     4  10  20  36  60  88 118 153 198 246 310 358
#
# _framework density 21.051905000000001
#
# number of rings (size 3 to 8) (size 9 to 14) (size 15 to 20)
#    0.000    2.000    3.333    0.500    0.000    1.333 
#    0.000    5.833    0.000    0.000    0.000    0.000 
#    0.000    0.000    0.000    0.000    0.000    0.000 
#
# Total GULP energy -594743.366003 kJ/mol
# GULP energy per Si atom -12390.486792 kJ/mol
# Density = 2.100399 g / cm^3
# Si number density = 21.051905 Si / 1000 Ang^3
#
#
#
# Elastic Constant Matrix: (Units=GPa)
#
#
# Indices 1 2 3 4 5 6 
#
# 1 57.3046 5.4031 30.0423 0.0000 0.0000 0.0000
# 2 5.4031 60.0303 28.0542 0.0000 0.0000 0.0000
# 3 30.0423 28.0542 120.6474 0.0000 0.0000 0.0000
# 4 0.0000 0.0000 0.0000 20.9936 0.0000 0.0000
# 5 0.0000 0.0000 0.0000 0.0000 43.4973 0.0000
# 6 0.0000 0.0000 0.0000 0.0000 0.0000 22.8234
#
#
#
# Elastic Compliance Matrix: (Units=1/GPa)
#
#
# Indices 1 2 3 4 5 6 
#
# 1 0.020090 0.000594 -0.005141 0.000000 0.000000 0.000000
# 2 0.000594 0.018707 -0.004498 0.000000 0.000000 0.000000
# 3 -0.005141 -0.004498 0.010615 0.000000 0.000000 0.000000
# 4 0.000000 0.000000 0.000000 0.047634 0.000000 0.000000
# 5 0.000000 0.000000 0.000000 0.000000 0.022990 0.000000
# 6 0.000000 0.000000 0.000000 0.000000 0.000000 0.043815
#
#
# Mechanical properties :
#
#
# Convention : Reuss Voigt Hill
#
# Bulk Modulus (GPa) = 31.92608 40.55349 36.23979
# Shear Modulus (GPa) = 25.99042 29.09504 27.54273
#
# Velocity S-wave (km/s) = 3.51748 3.72164 3.62100
# Velocity P-wave (km/s) = 5.62985 6.14597 5.89356
#
# Compressibility (1/GPa) = 0.03132235
#
# Stress axis : x y z
#
# Youngs Moduli (GPa) = 49.77703 53.45655 94.21009
#
# Poissons Ratio (x) = -0.03177 0.48430
# Poissons Ratio (y) = -0.02958 0.42374
# Poissons Ratio (z) = 0.25589 0.24044
#
# Static dielectric constant tensor:
#      x y z
#    x 3.914550 0.000000 0.000000 
#    y 0.000000 3.699760 0.000000 
#    z 0.000000 0.000000 4.687060 
# 
# 
# High freq. dielectric constant tensor:
#      x y z
#    x 1.832940 0.000000 0.000000 
#    y 0.000000 1.784630 0.000000 
#    z 0.000000 0.000000 1.850830 
# 
# From -- ./inp_files/13248.got.cif
#   From: 2010.03.12/outbox.cif.g09.slc.cpg/sg62_7_cif.got.tgz:13248.got - 2010.04.10 19:12:36.
