data_PCOD8252831
_publ_section_title
;
Structure prediction by ZEFSAII (Michael W. Deem and Ramdas Pophale) SiO2 
 PCOD8252831
Probable space group: P N M A
;
_chemical_formula_sum "Si O2"
_cell_formula_units_Z 56
_cell_length_a 24.190191
_cell_length_b 21.671366
_cell_length_c 5.340185
_cell_angle_alpha 90.000000
_cell_angle_beta 90.000000
_cell_angle_gamma 90.000000
_cell_volume 2799.509121
_symmetry_space_group_name_H-M "P N M A"
_symmetry_group_IT_number 62
_symmetry_cell_setting 'orthorhombic'
loop_
_space_group_symop_operation_xyz
x,y,z
1/2-x,-y,1/2+z
1/2+x,1/2-y,1/2-z
-x,1/2+y,-z
-x,-y,-z
1/2+x,y,1/2-z
1/2-x,1/2+y,1/2+z
x,1/2-y,z
loop_
_atom_site_type_symbol
_atom_site_label
_atom_site_fract_x
_atom_site_fract_y
_atom_site_fract_z
Si Si1 0.505779 0.316837 0.391317
Si Si2 0.431440 0.445671 0.885412
Si Si3 0.895256 0.817047 0.248082
Si Si4 0.722707 0.676363 0.555502
Si Si5 0.049065 0.416343 0.473205
Si Si6 0.779384 0.678803 0.051087
Si Si7 0.103232 0.619154 0.902790
O O1 0.509965 0.250000 0.246766
O O2 0.544075 0.311077 0.632315
O O3 0.525264 0.378011 0.255396
O O4 0.441760 0.327442 0.458592
O O5 0.424540 0.519167 0.895566
O O6 0.398346 0.427669 0.636316
O O7 0.496389 0.428411 0.844154
O O8 0.406511 0.414822 0.136656
O O9 0.882260 0.750000 0.380836
O O10 0.899718 0.875548 0.428262
O O11 0.845693 0.831190 0.055672
O O12 0.722780 0.750000 0.551148
O O13 0.750246 0.649976 0.299415
O O14 0.661531 0.652119 0.595030
O O15 0.757665 0.649699 0.791699
O O16 0.763334 0.750000 0.047926
#
# Coordination Sequence:
#
# PCOD8252831 Si02
#       7
#     8   8   8   8   8   8   8
#     4  10  21  34  56  90 122 147 182 235 305 354
#     4  10  23  36  60  83 118 154 202 232 279 345
#     4  10  20  35  57  87 119 149 188 243 299 350
#     4  10  20  37  59  84 115 152 193 238 292 349
#     4  10  21  36  56  83 119 157 193 234 287 349
#     4   9  20  35  56  84 113 150 193 234 288 353
#     4  11  21  39  58  87 116 155 191 244 284 345
#
# _framework density 20.003505000000001
#
# number of rings (size 3 to 8) (size 9 to 14) (size 15 to 20)
#    0.000    2.000    1.429    1.714    4.000    1.714 
#    0.000    1.429    0.000    3.429    0.000    0.000 
#    0.000    0.000    0.000    0.000    0.000    0.000 
#
# Total GULP energy -693778.257948 kJ/mol
# GULP energy per Si atom -12388.897463 kJ/mol
# Density = 1.995798 g / cm^3
# Si number density = 20.003505 Si / 1000 Ang^3
#
#
#
# Elastic Constant Matrix: (Units=GPa)
#
#
# Indices 1 2 3 4 5 6 
#
# 1 91.6384 30.9677 30.5648 0.0000 0.0000 0.0000
# 2 30.9677 87.1325 26.3649 0.0000 0.0000 0.0000
# 3 30.5648 26.3649 108.6445 0.0000 0.0000 0.0000
# 4 0.0000 0.0000 0.0000 6.7215 0.0000 0.0000
# 5 0.0000 0.0000 0.0000 0.0000 30.5584 0.0000
# 6 0.0000 0.0000 0.0000 0.0000 0.0000 -21.7024
#
#
#
# Elastic Compliance Matrix: (Units=1/GPa)
#
#
# Indices 1 2 3 4 5 6 
#
# 1 0.013129 -0.003830 -0.002764 0.000000 0.000000 0.000000
# 2 -0.003830 0.013503 -0.002200 0.000000 0.000000 0.000000
# 3 -0.002764 -0.002200 0.010516 0.000000 0.000000 0.000000
# 4 0.000000 0.000000 0.000000 0.148777 0.000000 0.000000
# 5 0.000000 0.000000 0.000000 0.000000 0.032724 0.000000
# 6 0.000000 0.000000 0.000000 0.000000 0.000000 -0.046078
#
#
# Mechanical properties :
#
#
# Convention : Reuss Voigt Hill
#
# Bulk Modulus (GPa) = 51.12164 51.46780 51.29472
# Shear Modulus (GPa) = 25.42234 16.41671 20.91952
#
# Velocity S-wave (km/s) = 3.56883 2.86788 3.23738
# Velocity P-wave (km/s) = 6.52640 6.06231 6.29863
#
# Compressibility (1/GPa) = 0.01956119
#
# Stress axis : x y z
#
# Youngs Moduli (GPa) = 76.16994 74.05549 95.09584
#
# Poissons Ratio (x) = 0.28361 0.26285
# Poissons Ratio (y) = 0.29170 0.20916
# Poissons Ratio (z) = 0.21054 0.16289
#
# Static dielectric constant tensor:
#      x y z
#    x 3.705690 0.000000 0.000000 
#    y 0.000000 3.806220 0.000000 
#    z 0.000000 0.000000 3.657980 
# 
# 
# High freq. dielectric constant tensor:
#      x y z
#    x 1.777520 0.000000 0.000000 
#    y 0.000000 1.764940 0.000000 
#    z 0.000000 0.000000 1.773580 
# 
# From -- ./inp_files/2805.got.cif
#   From: 2010.03.12/outbox.cif.g09.slc.cpg/sg62_2_cif.got.tgz:2805.got - 2010.04.10 19:12:36.
