data_PCOD8252111
_publ_section_title
;
Structure prediction by ZEFSAII (Michael W. Deem and Ramdas Pophale) SiO2 
 PCOD8252111
Probable space group: P N M A
;
_chemical_formula_sum "Si O2"
_cell_formula_units_Z 56
_cell_length_a 13.801077
_cell_length_b 22.401430
_cell_length_c 8.694292
_cell_angle_alpha 90.000000
_cell_angle_beta 90.000000
_cell_angle_gamma 90.000000
_cell_volume 2687.960878
_symmetry_space_group_name_H-M "P N M A"
_symmetry_group_IT_number 62
_symmetry_cell_setting 'orthorhombic'
loop_
_space_group_symop_operation_xyz
x,y,z
1/2-x,-y,1/2+z
1/2+x,1/2-y,1/2-z
-x,1/2+y,-z
-x,-y,-z
1/2+x,y,1/2-z
1/2-x,1/2+y,1/2+z
x,1/2-y,z
loop_
_atom_site_type_symbol
_atom_site_label
_atom_site_fract_x
_atom_site_fract_y
_atom_site_fract_z
Si Si1 0.184062 0.618415 0.510989
Si Si2 0.506460 0.681394 0.871923
Si Si3 0.575973 0.512629 0.132445
Si Si4 0.998684 0.900300 0.121994
Si Si5 0.615515 0.182958 0.826065
Si Si6 0.886833 0.598804 0.827017
Si Si7 0.671762 0.818245 0.304729
O O1 0.102211 0.640118 0.632145
O O2 0.160677 0.553874 0.437001
O O3 0.282948 0.614006 0.603661
O O4 0.186317 0.667129 0.375367
O O5 0.531662 0.750000 0.835756
O O6 0.429626 0.659124 0.746369
O O7 0.461517 0.673052 0.040295
O O8 0.519491 0.543267 0.272195
O O9 0.623493 0.451897 0.196154
O O10 0.500000 0.500000 0.000000
O O11 0.909598 0.862194 0.189955
O O12 0.094303 0.859317 0.108641
O O13 0.962787 0.923203 0.956856
O O14 0.609047 0.250000 0.760468
O O15 0.724548 0.171165 0.887226
O O16 0.636508 0.750000 0.318106
#
# Coordination Sequence:
#
# PCOD8252111 Si02
#       7
#     8   8   8   8   8   8   8
#     4  11  23  43  68  97 129 177 225 274 336 401
#     4  11  24  44  68  96 138 180 216 271 340 405
#     4  11  23  47  70  89 130 179 220 276 337 399
#     4  11  22  39  65  97 131 168 225 280 332 393
#     4  10  19  37  65  93 130 179 223 265 329 402
#     4  12  26  44  65 104 132 171 226 283 338 392
#     4  10  20  37  65  98 132 176 224 272 329 402
#
# _framework density 20.833639000000002
#
# number of rings (size 3 to 8) (size 9 to 14) (size 15 to 20)
#    0.000    1.143    5.714    1.286    0.000    4.571 
#    7.714    1.429    0.000    0.000    0.000    0.000 
#    0.000    0.000    0.000    0.000    0.000    0.000 
#
# Total GULP energy -694571.806535 kJ/mol
# GULP energy per Si atom -12403.067974 kJ/mol
# Density = 2.078622 g / cm^3
# Si number density = 20.833639 Si / 1000 Ang^3
#
#
#
# Elastic Constant Matrix: (Units=GPa)
#
#
# Indices 1 2 3 4 5 6 
#
# 1 131.7671 49.0476 35.6780 0.0000 0.0000 0.0000
# 2 49.0476 98.0310 36.0703 0.0000 0.0000 0.0000
# 3 35.6780 36.0703 64.8317 0.0000 0.0000 0.0000
# 4 0.0000 0.0000 0.0000 28.7214 0.0000 0.0000
# 5 0.0000 0.0000 0.0000 0.0000 35.9512 0.0000
# 6 0.0000 0.0000 0.0000 0.0000 0.0000 22.9024
#
#
#
# Elastic Compliance Matrix: (Units=1/GPa)
#
#
# Indices 1 2 3 4 5 6 
#
# 1 0.009882 -0.003701 -0.003379 0.000000 0.000000 0.000000
# 2 -0.003701 0.014213 -0.005871 0.000000 0.000000 0.000000
# 3 -0.003379 -0.005871 0.020550 0.000000 0.000000 0.000000
# 4 0.000000 0.000000 0.000000 0.034817 0.000000 0.000000
# 5 0.000000 0.000000 0.000000 0.000000 0.027815 0.000000
# 6 0.000000 0.000000 0.000000 0.000000 0.000000 0.043663
#
#
# Mechanical properties :
#
#
# Convention : Reuss Voigt Hill
#
# Bulk Modulus (GPa) = 53.35217 59.58018 56.46617
# Shear Modulus (GPa) = 27.30898 29.10393 28.20646
#
# Velocity S-wave (km/s) = 3.62444 3.74166 3.68352
# Velocity P-wave (km/s) = 6.57113 6.87945 6.72705
#
# Compressibility (1/GPa) = 0.01874338
#
# Stress axis : x y z
#
# Youngs Moduli (GPa) = 101.19826 70.36009 48.66070
#
# Poissons Ratio (x) = 0.26038 0.16443
# Poissons Ratio (y) = 0.37451 0.28568
# Poissons Ratio (z) = 0.34195 0.41308
#
# Static dielectric constant tensor:
#      x y z
#    x 3.888060 0.000000 0.000000 
#    y 0.000000 3.955020 0.000000 
#    z 0.000000 0.000000 3.641080 
# 
# 
# High freq. dielectric constant tensor:
#      x y z
#    x 1.823880 0.000000 0.000000 
#    y 0.000000 1.821490 0.000000 
#    z 0.000000 0.000000 1.801780 
# 
# From -- ./inp_files/6804.got.cif
#   From: 2010.03.12/outbox.cif.g09.slc.cpg/sg62_4_cif.got.tgz:6804.got - 2010.04.10 19:12:36.
