data_PCOD8252959
_publ_section_title
;
Structure prediction by ZEFSAII (Michael W. Deem and Ramdas Pophale) SiO2 
 PCOD8252959
Probable space group: P N M A
;
_chemical_formula_sum "Si O2"
_cell_formula_units_Z 40
_cell_length_a 9.345432
_cell_length_b 8.915328
_cell_length_c 25.489738
_cell_angle_alpha 90.000000
_cell_angle_beta 90.000000
_cell_angle_gamma 90.000000
_cell_volume 2123.743580
_symmetry_space_group_name_H-M "P N M A"
_symmetry_group_IT_number 62
_symmetry_cell_setting 'orthorhombic'
loop_
_space_group_symop_operation_xyz
x,y,z
1/2-x,-y,1/2+z
1/2+x,1/2-y,1/2-z
-x,1/2+y,-z
-x,-y,-z
1/2+x,y,1/2-z
1/2-x,1/2+y,1/2+z
x,1/2-y,z
loop_
_atom_site_type_symbol
_atom_site_label
_atom_site_fract_x
_atom_site_fract_y
_atom_site_fract_z
Si Si1 0.311209 0.422723 0.805630
Si Si2 0.329714 0.072809 0.098525
Si Si3 0.358647 0.575710 0.205324
Si Si4 0.845177 0.573740 0.588677
Si Si5 0.653540 0.571691 0.491779
O O1 0.278679 0.250000 0.816363
O O2 0.212603 0.483956 0.758750
O O3 0.473460 0.450958 0.788569
O O4 0.272776 0.507562 0.859173
O O5 0.308990 0.250000 0.092624
O O6 0.490290 0.020467 0.082938
O O7 0.296424 0.022692 0.157808
O O8 0.217760 0.987315 0.062295
O O9 0.321293 0.750000 0.195128
O O10 0.838580 0.750000 0.594217
O O11 0.757354 0.516852 0.538530
O O12 0.500000 0.500000 0.500000
O O13 0.640004 0.750000 0.490086
#
# Coordination Sequence:
#
# PCOD8252959 Si02
#       5
#     8   8   8   8   8
#     4   9  18  32  52  76 104 138 177 216 258 308
#     4  10  20  36  57  80 105 139 179 218 262 315
#     4   9  18  33  51  75 105 138 175 215 257 306
#     4   9  20  37  56  78 106 139 178 219 263 315
#     4  11  23  38  55  79 109 140 175 220 269 318
#
# _framework density 18.834665000000001
#
# number of rings (size 3 to 8) (size 9 to 14) (size 15 to 20)
#    0.000    2.400    0.000    1.800    0.000    4.800 
#    0.000    2.000    0.000    0.000    0.000    0.000 
#    0.000    0.000    0.000    0.000    0.000    0.000 
#
# Total GULP energy -496128.003974 kJ/mol
# GULP energy per Si atom -12403.200099 kJ/mol
# Density = 1.879180 g / cm^3
# Si number density = 18.834665 Si / 1000 Ang^3
#
#
#
# Elastic Constant Matrix: (Units=GPa)
#
#
# Indices 1 2 3 4 5 6 
#
# 1 45.0281 18.9009 14.3325 0.0000 0.0000 0.0000
# 2 18.9009 41.9773 17.8533 0.0000 0.0000 0.0000
# 3 14.3325 17.8533 66.0462 0.0000 0.0000 0.0000
# 4 0.0000 0.0000 0.0000 37.7373 0.0000 0.0000
# 5 0.0000 0.0000 0.0000 0.0000 39.6375 0.0000
# 6 0.0000 0.0000 0.0000 0.0000 0.0000 26.8216
#
#
#
# Elastic Compliance Matrix: (Units=1/GPa)
#
#
# Indices 1 2 3 4 5 6 
#
# 1 0.027902 -0.011285 -0.003004 0.000000 0.000000 0.000000
# 2 -0.011285 0.031482 -0.006061 0.000000 0.000000 0.000000
# 3 -0.003004 -0.006061 0.017431 0.000000 0.000000 0.000000
# 4 0.000000 0.000000 0.000000 0.026499 0.000000 0.000000
# 5 0.000000 0.000000 0.000000 0.000000 0.025229 0.000000
# 6 0.000000 0.000000 0.000000 0.000000 0.000000 0.037283
#
#
# Mechanical properties :
#
#
# Convention : Reuss Voigt Hill
#
# Bulk Modulus (GPa) = 27.69063 28.35835 28.02449
# Shear Modulus (GPa) = 22.87654 27.63693 25.25673
#
# Velocity S-wave (km/s) = 3.48889 3.83475 3.66590
# Velocity P-wave (km/s) = 5.56450 5.89035 5.72974
#
# Compressibility (1/GPa) = 0.03611330
#
# Stress axis : x y z
#
# Youngs Moduli (GPa) = 35.84007 31.76464 57.36828
#
# Poissons Ratio (x) = 0.35848 0.17235
# Poissons Ratio (y) = 0.40447 0.34771
# Poissons Ratio (z) = 0.10767 0.19252
#
# Static dielectric constant tensor:
#      x y z
#    x 3.542390 0.000000 0.000000 
#    y 0.000000 3.386480 0.000000 
#    z 0.000000 0.000000 3.624060 
# 
# 
# High freq. dielectric constant tensor:
#      x y z
#    x 1.726530 0.000000 0.000000 
#    y 0.000000 1.727690 0.000000 
#    z 0.000000 0.000000 1.742550 
# 
# From -- ./inp_files/21916.got.cif
#   From: 2010.03.12/outbox.cif.g09.slc.cpg/sg62_11_cif.got.tgz:21916.got - 2010.04.10 19:12:36.
