data_PCOD8252104
_publ_section_title
;
Structure prediction by ZEFSAII (Michael W. Deem and Ramdas Pophale) SiO2 
 PCOD8252104
Probable space group: P N M A
;
_chemical_formula_sum "Si O2"
_cell_formula_units_Z 64
_cell_length_a 15.077889
_cell_length_b 30.121176
_cell_length_c 6.500929
_cell_angle_alpha 90.000000
_cell_angle_beta 90.000000
_cell_angle_gamma 90.000000
_cell_volume 2952.486282
_symmetry_space_group_name_H-M "P N M A"
_symmetry_group_IT_number 62
_symmetry_cell_setting 'orthorhombic'
loop_
_space_group_symop_operation_xyz
x,y,z
1/2-x,-y,1/2+z
1/2+x,1/2-y,1/2-z
-x,1/2+y,-z
-x,-y,-z
1/2+x,y,1/2-z
1/2-x,1/2+y,1/2+z
x,1/2-y,z
loop_
_atom_site_type_symbol
_atom_site_label
_atom_site_fract_x
_atom_site_fract_y
_atom_site_fract_z
Si Si1 0.534399 0.561633 0.389924
Si Si2 0.120269 0.026957 0.156968
Si Si3 0.714844 0.698508 0.568837
Si Si4 0.211156 0.402861 0.925557
Si Si5 0.113655 0.347724 0.254397
Si Si6 0.898125 0.572950 0.452272
Si Si7 0.625417 0.643293 0.227553
Si Si8 0.445812 0.198708 0.127766
O O1 0.613103 0.525012 0.398755
O O2 0.468360 0.553661 0.580360
O O3 0.481826 0.555831 0.176219
O O4 0.574232 0.611335 0.390208
O O5 0.131402 0.032019 0.402363
O O6 0.204952 0.049986 0.046710
O O7 0.729087 0.750000 0.525274
O O8 0.806846 0.677871 0.637201
O O9 0.685636 0.677205 0.353821
O O10 0.642869 0.689844 0.744629
O O11 0.181571 0.410976 0.692100
O O12 0.312196 0.386432 0.921913
O O13 0.146512 0.366625 0.034530
O O14 0.077429 0.386893 0.397923
O O15 0.030142 0.314695 0.230700
O O16 0.557419 0.670510 0.084227
O O17 0.455003 0.250000 0.066718
#
# Coordination Sequence:
#
# PCOD8252104 Si02
#       8
#     8   8   8   8   8   8   8   8
#     4  10  21  38  65  92 127 169 216 267 325 385
#     4   9  21  40  60  94 127 168 218 268 317 383
#     4  11  25  43  64  95 132 169 215 271 329 387
#     4  10  22  39  60  90 128 167 219 260 318 392
#     4  11  21  41  68  91 128 174 215 263 329 391
#     4  10  19  37  64  89 119 166 212 261 314 385
#     4  12  23  41  64  94 129 175 213 268 327 393
#     4  11  25  43  66  97 129 165 221 273 325 395
#
# _framework density 21.676645000000001
#
# number of rings (size 3 to 8) (size 9 to 14) (size 15 to 20)
#    0.000    1.500    3.750    1.125    5.250    0.000 
#    2.250    0.000    0.000    0.000    0.000    0.000 
#    0.000    0.000    0.000    0.000    0.000    0.000 
#
# Total GULP energy -793542.832435 kJ/mol
# GULP energy per Si atom -12399.106757 kJ/mol
# Density = 2.162731 g / cm^3
# Si number density = 21.676645 Si / 1000 Ang^3
#
#
#
# Elastic Constant Matrix: (Units=GPa)
#
#
# Indices 1 2 3 4 5 6 
#
# 1 51.6378 20.5674 6.0383 0.0000 0.0000 0.0000
# 2 20.5674 86.5118 21.0653 0.0000 0.0000 0.0000
# 3 6.0383 21.0653 88.1280 0.0000 0.0000 0.0000
# 4 0.0000 0.0000 0.0000 28.2649 0.0000 0.0000
# 5 0.0000 0.0000 0.0000 0.0000 24.1095 0.0000
# 6 0.0000 0.0000 0.0000 0.0000 0.0000 31.8751
#
#
#
# Elastic Compliance Matrix: (Units=1/GPa)
#
#
# Indices 1 2 3 4 5 6 
#
# 1 0.021397 -0.005022 -0.000266 0.000000 0.000000 0.000000
# 2 -0.005022 0.013452 -0.002871 0.000000 0.000000 0.000000
# 3 -0.000266 -0.002871 0.012052 0.000000 0.000000 0.000000
# 4 0.000000 0.000000 0.000000 0.035380 0.000000 0.000000
# 5 0.000000 0.000000 0.000000 0.000000 0.041478 0.000000
# 6 0.000000 0.000000 0.000000 0.000000 0.000000 0.031372
#
#
# Mechanical properties :
#
#
# Convention : Reuss Voigt Hill
#
# Bulk Modulus (GPa) = 32.69842 35.73551 34.21697
# Shear Modulus (GPa) = 27.52646 28.75699 28.14173
#
# Velocity S-wave (km/s) = 3.56739 3.64625 3.60703
# Velocity P-wave (km/s) = 5.66442 5.85221 5.75908
#
# Compressibility (1/GPa) = 0.03058251
#
# Stress axis : x y z
#
# Youngs Moduli (GPa) = 46.73531 74.33670 82.97600
#
# Poissons Ratio (x) = 0.37334 0.02204
# Poissons Ratio (y) = 0.23472 0.23826
# Poissons Ratio (z) = 0.01241 0.21345
#
# Static dielectric constant tensor:
#      x y z
#    x 3.717400 0.000000 0.000000 
#    y 0.000000 4.057290 0.000000 
#    z 0.000000 0.000000 3.855380 
# 
# 
# High freq. dielectric constant tensor:
#      x y z
#    x 1.839400 0.000000 0.000000 
#    y 0.000000 1.856760 0.000000 
#    z 0.000000 0.000000 1.848060 
# 
# From -- ./inp_files/1897.got.cif
#   From: 2010.03.12/outbox.cif.g09.slc.cpg/sg62_1_cif.got.tgz:1897.got - 2010.04.10 19:12:36.
