data_PCOD8252106
_publ_section_title
;
Structure prediction by ZEFSAII (Michael W. Deem and Ramdas Pophale) SiO2 
 PCOD8252106
Probable space group: P N M A
;
_chemical_formula_sum "Si O2"
_cell_formula_units_Z 64
_cell_length_a 23.328797
_cell_length_b 8.807381
_cell_length_c 15.344596
_cell_angle_alpha 90.000000
_cell_angle_beta 90.000000
_cell_angle_gamma 90.000000
_cell_volume 3152.786677
_symmetry_space_group_name_H-M "P N M A"
_symmetry_group_IT_number 62
_symmetry_cell_setting 'orthorhombic'
loop_
_space_group_symop_operation_xyz
x,y,z
1/2-x,-y,1/2+z
1/2+x,1/2-y,1/2-z
-x,1/2+y,-z
-x,-y,-z
1/2+x,y,1/2-z
1/2-x,1/2+y,1/2+z
x,1/2-y,z
loop_
_atom_site_type_symbol
_atom_site_label
_atom_site_fract_x
_atom_site_fract_y
_atom_site_fract_z
Si Si1 0.937972 0.072172 0.742939
Si Si2 0.634288 0.075787 0.094825
Si Si3 0.867576 0.424731 0.417596
Si Si4 0.239913 0.924416 0.845594
Si Si5 0.129505 0.927486 0.084400
Si Si6 0.741804 0.075325 0.350981
Si Si7 0.125508 0.428562 0.905620
Si Si8 0.559730 0.928887 0.752421
O O1 0.951701 0.250000 0.738854
O O2 0.910229 0.025690 0.834822
O O3 0.893950 0.029852 0.667224
O O4 0.995116 0.976708 0.729073
O O5 0.616517 0.250000 0.111147
O O6 0.702639 0.054806 0.098825
O O7 0.612779 0.024178 0.999933
O O8 0.882715 0.250000 0.436702
O O9 0.800394 0.446606 0.402612
O O10 0.901834 0.484080 0.333524
O O11 0.218873 0.750000 0.843743
O O12 0.250460 0.982159 0.747655
O O13 0.191037 0.024423 0.889520
O O14 0.127784 0.750000 0.065915
O O15 0.194925 0.973303 0.101899
O O16 0.105241 0.012749 0.999824
O O17 0.721173 0.250000 0.351455
O O18 0.120562 0.250000 0.903517
O O19 0.082403 0.494054 0.834659
O O20 0.564546 0.750000 0.740591
#
# Coordination Sequence:
#
# PCOD8252106 Si02
#       8
#     8   8   8   8   8   8   8   8
#     4  11  25  44  65  91 122 160 209 262 309 367
#     4  11  23  39  64  94 126 165 205 251 307 366
#     4  10  22  40  63  91 124 162 202 250 308 365
#     4  10  20  38  63  93 129 165 203 249 307 369
#     4  11  24  41  63  92 127 164 204 251 310 370
#     4  10  19  37  64  93 127 162 201 250 306 367
#     4  12  25  40  64  95 127 164 207 253 308 370
#     4  11  24  45  68  89 120 164 209 260 314 365
#
# _framework density 20.299502
#
# number of rings (size 3 to 8) (size 9 to 14) (size 15 to 20)
#    0.000    1.250    2.500    3.375    0.000    7.500 
#    0.000    0.000    0.000    0.000    0.000    0.000 
#    0.000    0.000    0.000    0.000    0.000    0.000 
#
# Total GULP energy -794058.414103 kJ/mol
# GULP energy per Si atom -12407.162720 kJ/mol
# Density = 2.025330 g / cm^3
# Si number density = 20.299502 Si / 1000 Ang^3
#
#
#
# Elastic Constant Matrix: (Units=GPa)
#
#
# Indices 1 2 3 4 5 6 
#
# 1 56.7351 29.8433 5.7491 0.0000 0.0000 0.0000
# 2 29.8433 83.3146 49.8909 0.0000 0.0000 0.0000
# 3 5.7491 49.8909 123.8015 0.0000 0.0000 0.0000
# 4 0.0000 0.0000 0.0000 33.6779 0.0000 0.0000
# 5 0.0000 0.0000 0.0000 0.0000 7.1720 0.0000
# 6 0.0000 0.0000 0.0000 0.0000 0.0000 34.3253
#
#
#
# Elastic Compliance Matrix: (Units=1/GPa)
#
#
# Indices 1 2 3 4 5 6 
#
# 1 0.022482 -0.009790 0.002901 0.000000 0.000000 0.000000
# 2 -0.009790 0.020084 -0.007639 0.000000 0.000000 0.000000
# 3 0.002901 -0.007639 0.011021 0.000000 0.000000 0.000000
# 4 0.000000 0.000000 0.000000 0.029693 0.000000 0.000000
# 5 0.000000 0.000000 0.000000 0.000000 0.139432 0.000000
# 6 0.000000 0.000000 0.000000 0.000000 0.000000 0.029133
#
#
# Mechanical properties :
#
#
# Convention : Reuss Voigt Hill
#
# Bulk Modulus (GPa) = 40.76495 48.31310 44.53902
# Shear Modulus (GPa) = 17.29640 26.92624 22.11132
#
# Velocity S-wave (km/s) = 2.92217 3.64600 3.30397
# Velocity P-wave (km/s) = 5.61345 6.44796 6.04512
#
# Compressibility (1/GPa) = 0.02453088
#
# Stress axis : x y z
#
# Youngs Moduli (GPa) = 44.48075 49.79066 90.73430
#
# Poissons Ratio (x) = 0.48747 -0.26326
# Poissons Ratio (y) = 0.43548 0.69313
# Poissons Ratio (z) = -0.12906 0.38035
#
# Static dielectric constant tensor:
#      x y z
#    x 3.578900 0.000000 0.000000 
#    y 0.000000 3.634390 0.000000 
#    z 0.000000 0.000000 3.840060 
# 
# 
# High freq. dielectric constant tensor:
#      x y z
#    x 1.787960 0.000000 0.000000 
#    y 0.000000 1.793370 0.000000 
#    z 0.000000 0.000000 1.809950 
# 
# From -- ./inp_files/20943.got.cif
#   From: 2010.03.12/outbox.cif.g09.slc.cpg/sg62_11_cif.got.tgz:20943.got - 2010.04.10 19:12:36.
