data_PCOD8252949
_publ_section_title
;
Structure prediction by ZEFSAII (Michael W. Deem and Ramdas Pophale) SiO2 
 PCOD8252949
Probable space group: P N M A
;
_chemical_formula_sum "Si O2"
_cell_formula_units_Z 40
_cell_length_a 23.546769
_cell_length_b 9.130326
_cell_length_c 10.174065
_cell_angle_alpha 90.000000
_cell_angle_beta 90.000000
_cell_angle_gamma 90.000000
_cell_volume 2187.318950
_symmetry_space_group_name_H-M "P N M A"
_symmetry_group_IT_number 62
_symmetry_cell_setting 'orthorhombic'
loop_
_space_group_symop_operation_xyz
x,y,z
1/2-x,-y,1/2+z
1/2+x,1/2-y,1/2-z
-x,1/2+y,-z
-x,-y,-z
1/2+x,y,1/2-z
1/2-x,1/2+y,1/2+z
x,1/2-y,z
loop_
_atom_site_type_symbol
_atom_site_label
_atom_site_fract_x
_atom_site_fract_y
_atom_site_fract_z
Si Si1 0.121391 0.077582 0.289940
Si Si2 0.558448 0.078421 0.472567
Si Si3 0.773597 0.084156 0.655088
Si Si4 0.634430 0.583878 0.960385
Si Si5 0.353769 0.923134 0.306599
O O1 0.124785 0.250000 0.312768
O O2 0.079286 0.035528 0.172578
O O3 0.185070 0.017732 0.255593
O O4 0.098853 0.998243 0.423421
O O5 0.548573 0.250000 0.485365
O O6 0.605337 0.025208 0.576739
O O7 0.500000 0.000000 0.500000
O O8 0.775611 0.250000 0.710385
O O9 0.798881 0.080619 0.505300
O O10 0.709658 0.023654 0.656339
O O11 0.612166 0.750000 0.945861
O O12 0.625102 0.500605 0.825018
O O13 0.355822 0.750000 0.285468
#
# Coordination Sequence:
#
# PCOD8252949 Si02
#       5
#     8   8   8   8   8
#     4   9  18  34  57  82 111 148 185 228 284 339
#     4  10  23  40  59  82 113 153 197 239 281 335
#     4   8  18  32  52  82 116 144 178 227 283 338
#     4   9  19  34  53  83 113 143 182 227 276 338
#     4  10  20  36  56  82 115 149 186 235 287 339
#
# _framework density 18.287226
#
# number of rings (size 3 to 8) (size 9 to 14) (size 15 to 20)
#    1.200    1.600    0.000    0.600    2.800    3.200 
#    0.000    1.000    0.000    0.000    0.000    0.000 
#    0.000    0.000    0.000    0.000    0.000    0.000 
#
# Total GULP energy -495643.549229 kJ/mol
# GULP energy per Si atom -12391.088731 kJ/mol
# Density = 1.824560 g / cm^3
# Si number density = 18.287226 Si / 1000 Ang^3
#
#
#
# Elastic Constant Matrix: (Units=GPa)
#
#
# Indices 1 2 3 4 5 6 
#
# 1 57.0500 19.7405 2.0304 0.0000 0.0000 0.0000
# 2 19.7405 56.9389 31.6948 0.0000 0.0000 0.0000
# 3 2.0304 31.6948 83.0091 0.0000 0.0000 0.0000
# 4 0.0000 0.0000 0.0000 28.1374 0.0000 0.0000
# 5 0.0000 0.0000 0.0000 0.0000 25.4401 0.0000
# 6 0.0000 0.0000 0.0000 0.0000 0.0000 27.1697
#
#
#
# Elastic Compliance Matrix: (Units=1/GPa)
#
#
# Indices 1 2 3 4 5 6 
#
# 1 0.020417 -0.008636 0.002798 0.000000 0.000000 0.000000
# 2 -0.008636 0.025956 -0.009699 0.000000 0.000000 0.000000
# 3 0.002798 -0.009699 0.015682 0.000000 0.000000 0.000000
# 4 0.000000 0.000000 0.000000 0.035540 0.000000 0.000000
# 5 0.000000 0.000000 0.000000 0.000000 0.039308 0.000000
# 6 0.000000 0.000000 0.000000 0.000000 0.000000 0.036806
#
#
# Mechanical properties :
#
#
# Convention : Reuss Voigt Hill
#
# Bulk Modulus (GPa) = 32.27867 33.76993 33.02430
# Shear Modulus (GPa) = 23.24393 25.71827 24.48110
#
# Velocity S-wave (km/s) = 3.56904 3.75420 3.66279
# Velocity P-wave (km/s) = 5.88841 6.10725 5.99883
#
# Compressibility (1/GPa) = 0.03098021
#
# Stress axis : x y z
#
# Youngs Moduli (GPa) = 48.97841 38.52692 63.76794
#
# Poissons Ratio (x) = 0.33272 -0.17843
# Poissons Ratio (y) = 0.42298 0.61851
# Poissons Ratio (z) = -0.13704 0.37369
#
# Static dielectric constant tensor:
#      x y z
#    x 3.145590 0.000000 0.000000 
#    y 0.000000 3.321170 0.000000 
#    z 0.000000 0.000000 3.297080 
# 
# 
# High freq. dielectric constant tensor:
#      x y z
#    x 1.683570 0.000000 0.000000 
#    y 0.000000 1.710510 0.000000 
#    z 0.000000 0.000000 1.703750 
# 
# From -- ./inp_files/14621.got.cif
#   From: 2010.03.12/outbox.cif.g09.slc.cpg/sg62_8_cif.got.tgz:14621.got - 2010.04.10 19:12:36.
