data_PCOD8252035
_publ_section_title
;
Structure prediction by ZEFSAII (Michael W. Deem and Ramdas Pophale) SiO2 
 PCOD8252035
Probable space group: P N M A
;
_chemical_formula_sum "Si O2"
_cell_formula_units_Z 56
_cell_length_a 8.621183
_cell_length_b 19.656424
_cell_length_c 16.628740
_cell_angle_alpha 90.000000
_cell_angle_beta 90.000000
_cell_angle_gamma 90.000000
_cell_volume 2817.933359
_symmetry_space_group_name_H-M "P N M A"
_symmetry_group_IT_number 62
_symmetry_cell_setting 'orthorhombic'
loop_
_space_group_symop_operation_xyz
x,y,z
1/2-x,-y,1/2+z
1/2+x,1/2-y,1/2-z
-x,1/2+y,-z
-x,-y,-z
1/2+x,y,1/2-z
1/2-x,1/2+y,1/2+z
x,1/2-y,z
loop_
_atom_site_type_symbol
_atom_site_label
_atom_site_fract_x
_atom_site_fract_y
_atom_site_fract_z
Si Si1 0.300293 0.532343 0.080541
Si Si2 0.158992 0.828387 0.526555
Si Si3 0.351177 0.591727 0.637503
Si Si4 0.337891 0.443181 0.287167
Si Si5 0.083900 0.433688 0.419197
Si Si6 0.111232 0.405522 0.734356
Si Si7 0.329742 0.170365 0.839719
O O1 0.159884 0.478624 0.087287
O O2 0.471854 0.498607 0.086682
O O3 0.285213 0.587613 0.152536
O O4 0.291395 0.564462 0.992204
O O5 0.123635 0.750000 0.534719
O O6 0.316436 0.846819 0.575559
O O7 0.015090 0.865740 0.568076
O O8 0.178133 0.849777 0.433491
O O9 0.208365 0.587880 0.701182
O O10 0.520254 0.600615 0.676322
O O11 0.182716 0.433597 0.338396
O O12 0.394120 0.521313 0.278971
O O13 0.944207 0.380104 0.706678
O O14 0.168656 0.347469 0.795987
O O15 0.370671 0.250000 0.829233
#
# Coordination Sequence:
#
# PCOD8252035 Si02
#       7
#     8   8   8   8   8   8   8
#     4   9  18  33  58  88 116 155 191 249 300 352
#     4  10  22  42  63  83 118 166 206 245 295 361
#     4  10  21  38  57  90 123 151 197 247 302 360
#     4  11  22  37  63  92 123 153 193 256 313 362
#     4  10  19  36  63  87 119 152 202 247 304 357
#     4  11  20  37  59  88 118 157 194 246 299 361
#     4  11  23  39  59  84 120 165 204 239 287 359
#
# _framework density 19.872720000000001
#
# number of rings (size 3 to 8) (size 9 to 14) (size 15 to 20)
#    0.000    1.714    1.429    5.571    4.000    0.571 
#    2.571    3.571    0.000    0.000    0.000    0.000 
#    0.000    0.000    0.000    0.000    0.000    0.000 
#
# Total GULP energy -694166.380307 kJ/mol
# GULP energy per Si atom -12395.828220 kJ/mol
# Density = 1.982749 g / cm^3
# Si number density = 19.872720 Si / 1000 Ang^3
#
#
#
# Elastic Constant Matrix: (Units=GPa)
#
#
# Indices 1 2 3 4 5 6 
#
# 1 46.4948 22.1095 19.5717 0.0000 0.0000 0.0000
# 2 22.1095 70.7833 51.5138 0.0000 0.0000 0.0000
# 3 19.5717 51.5138 106.9078 0.0000 0.0000 0.0000
# 4 0.0000 0.0000 0.0000 34.0001 0.0000 0.0000
# 5 0.0000 0.0000 0.0000 0.0000 33.3047 0.0000
# 6 0.0000 0.0000 0.0000 0.0000 0.0000 20.7146
#
#
#
# Elastic Compliance Matrix: (Units=1/GPa)
#
#
# Indices 1 2 3 4 5 6 
#
# 1 0.025372 -0.006999 -0.001272 0.000000 0.000000 0.000000
# 2 -0.006999 0.023688 -0.010133 0.000000 0.000000 0.000000
# 3 -0.001272 -0.010133 0.014469 0.000000 0.000000 0.000000
# 4 0.000000 0.000000 0.000000 0.029412 0.000000 0.000000
# 5 0.000000 0.000000 0.000000 0.000000 0.030026 0.000000
# 6 0.000000 0.000000 0.000000 0.000000 0.000000 0.048275
#
#
# Mechanical properties :
#
#
# Convention : Reuss Voigt Hill
#
# Bulk Modulus (GPa) = 37.42417 45.61954 41.52185
# Shear Modulus (GPa) = 23.04603 26.33661 24.69132
#
# Velocity S-wave (km/s) = 3.40910 3.64437 3.52870
# Velocity P-wave (km/s) = 5.86249 6.38077 6.12711
#
# Compressibility (1/GPa) = 0.02672070
#
# Stress axis : x y z
#
# Youngs Moduli (GPa) = 39.41419 42.21510 69.11156
#
# Poissons Ratio (x) = 0.29546 0.08793
# Poissons Ratio (y) = 0.27586 0.70030
# Poissons Ratio (z) = 0.05015 0.42776
#
# Static dielectric constant tensor:
#      x y z
#    x 3.358910 0.000000 0.000000 
#    y 0.000000 3.336050 0.000000 
#    z 0.000000 0.000000 4.076130 
# 
# 
# High freq. dielectric constant tensor:
#      x y z
#    x 1.756360 0.000000 0.000000 
#    y 0.000000 1.742430 0.000000 
#    z 0.000000 0.000000 1.800310 
# 
# From -- ./inp_files/22517.got.cif
#   From: 2010.03.12/outbox.cif.g09.slc.cpg/sg62_12_cif.got.tgz:22517.got - 2010.04.10 19:12:36.
