data_PCOD8252356
_publ_section_title
;
Structure prediction by ZEFSAII (Michael W. Deem and Ramdas Pophale) SiO2 
 PCOD8252356
Probable space group: P N M A
;
_chemical_formula_sum "Si O2"
_cell_formula_units_Z 48
_cell_length_a 17.215916
_cell_length_b 12.731318
_cell_length_c 9.127342
_cell_angle_alpha 90.000000
_cell_angle_beta 90.000000
_cell_angle_gamma 90.000000
_cell_volume 2000.542697
_symmetry_space_group_name_H-M "P N M A"
_symmetry_group_IT_number 62
_symmetry_cell_setting 'orthorhombic'
loop_
_space_group_symop_operation_xyz
x,y,z
1/2-x,-y,1/2+z
1/2+x,1/2-y,1/2-z
-x,1/2+y,-z
-x,-y,-z
1/2+x,y,1/2-z
1/2-x,1/2+y,1/2+z
x,1/2-y,z
loop_
_atom_site_type_symbol
_atom_site_label
_atom_site_fract_x
_atom_site_fract_y
_atom_site_fract_z
Si Si1 0.297302 0.126196 0.118362
Si Si2 0.289352 0.995792 0.867093
Si Si3 0.074380 0.370497 0.905836
Si Si4 0.975054 0.374594 0.394519
Si Si5 0.112755 0.371472 0.586679
Si Si6 0.067853 0.994543 0.172946
O O1 0.287998 0.250000 0.143146
O O2 0.269463 0.065527 0.262648
O O3 0.386223 0.085377 0.092026
O O4 0.253644 0.092430 0.965476
O O5 0.361091 0.042039 0.773711
O O6 0.316100 0.915196 0.993356
O O7 0.082147 0.250000 0.955413
O O8 0.124211 0.393574 0.758906
O O9 0.982850 0.393924 0.873923
O O10 0.105486 0.447759 0.031659
O O11 0.972418 0.250000 0.381469
O O12 0.026871 0.413490 0.534767
O O13 0.013024 0.417907 0.246725
O O14 0.112012 0.250000 0.551123
#
# Coordination Sequence:
#
# PCOD8252356 Si02
#       6
#     8   8   8   8   8   8
#     4  11  25  44  65  91 125 165 209 259 315 372
#     4  11  24  42  63  88 124 166 210 256 309 368
#     4  10  20  33  56  91 124 154 197 253 308 363
#     4   9  18  36  62  90 120 155 198 250 308 368
#     4   9  18  36  64  94 123 159 203 250 304 369
#     4  10  21  37  60  89 120 157 201 251 306 365
#
# _framework density 23.993489
#
# number of rings (size 3 to 8) (size 9 to 14) (size 15 to 20)
#    0.000    2.000    0.000    3.000    0.000   10.667 
#    0.000    3.333    0.000    0.000    0.000    0.000 
#    0.000    0.000    0.000    0.000    0.000    0.000 
#
# Total GULP energy -595132.013278 kJ/mol
# GULP energy per Si atom -12398.583610 kJ/mol
# Density = 2.393888 g / cm^3
# Si number density = 23.993489 Si / 1000 Ang^3
#
#
#
# Elastic Constant Matrix: (Units=GPa)
#
#
# Indices 1 2 3 4 5 6 
#
# 1 48.7468 18.7030 26.1329 0.0000 0.0000 0.0000
# 2 18.7030 42.8525 37.9708 0.0000 0.0000 0.0000
# 3 26.1329 37.9708 136.9025 0.0000 0.0000 0.0000
# 4 0.0000 0.0000 0.0000 34.3458 0.0000 0.0000
# 5 0.0000 0.0000 0.0000 0.0000 40.0859 0.0000
# 6 0.0000 0.0000 0.0000 0.0000 0.0000 24.6742
#
#
#
# Elastic Compliance Matrix: (Units=1/GPa)
#
#
# Indices 1 2 3 4 5 6 
#
# 1 0.025190 -0.008927 -0.002332 0.000000 0.000000 0.000000
# 2 -0.008927 0.034104 -0.007755 0.000000 0.000000 0.000000
# 3 -0.002332 -0.007755 0.009900 0.000000 0.000000 0.000000
# 4 0.000000 0.000000 0.000000 0.029116 0.000000 0.000000
# 5 0.000000 0.000000 0.000000 0.000000 0.024946 0.000000
# 6 0.000000 0.000000 0.000000 0.000000 0.000000 0.040528
#
#
# Mechanical properties :
#
#
# Convention : Reuss Voigt Hill
#
# Bulk Modulus (GPa) = 32.08744 43.79058 37.93901
# Shear Modulus (GPa) = 23.56253 29.53418 26.54836
#
# Velocity S-wave (km/s) = 3.13715 3.51226 3.32999
# Velocity P-wave (km/s) = 5.15021 5.89395 5.53459
#
# Compressibility (1/GPa) = 0.03116484
#
# Stress axis : x y z
#
# Youngs Moduli (GPa) = 39.69866 29.32244 101.00507
#
# Poissons Ratio (x) = 0.26178 0.23558
# Poissons Ratio (y) = 0.35441 0.78326
# Poissons Ratio (z) = 0.09259 0.22739
#
# Static dielectric constant tensor:
#      x y z
#    x 4.209940 0.000000 0.000000 
#    y 0.000000 4.372730 0.000000 
#    z 0.000000 0.000000 4.574470 
# 
# 
# High freq. dielectric constant tensor:
#      x y z
#    x 1.939920 0.000000 0.000000 
#    y 0.000000 1.961390 0.000000 
#    z 0.000000 0.000000 1.967550 
# 
# From -- ./inp_files/7611.got.cif
#   From: 2010.03.12/outbox.cif.g09.slc.cpg/sg62_4_cif.got.tgz:7611.got - 2010.04.10 19:12:36.
