data_PCOD8252133
_publ_section_title
;
Structure prediction by ZEFSAII (Michael W. Deem and Ramdas Pophale) SiO2 
 PCOD8252133
Probable space group: P N M A
;
_chemical_formula_sum "Si O2"
_cell_formula_units_Z 64
_cell_length_a 28.778707
_cell_length_b 12.569785
_cell_length_c 8.658146
_cell_angle_alpha 90.000000
_cell_angle_beta 90.000000
_cell_angle_gamma 90.000000
_cell_volume 3132.016432
_symmetry_space_group_name_H-M "P N M A"
_symmetry_group_IT_number 62
_symmetry_cell_setting 'orthorhombic'
loop_
_space_group_symop_operation_xyz
x,y,z
1/2-x,-y,1/2+z
1/2+x,1/2-y,1/2-z
-x,1/2+y,-z
-x,-y,-z
1/2+x,y,1/2-z
1/2-x,1/2+y,1/2+z
x,1/2-y,z
loop_
_atom_site_type_symbol
_atom_site_label
_atom_site_fract_x
_atom_site_fract_y
_atom_site_fract_z
Si Si1 0.035217 0.041922 0.625586
Si Si2 0.633030 0.125476 0.975243
Si Si3 0.276405 0.370036 0.931551
Si Si4 0.210863 0.010798 0.714499
Si Si5 0.138400 0.955068 0.284789
Si Si6 0.455513 0.371391 0.690061
Si Si7 0.564270 0.867429 0.642865
Si Si8 0.834172 0.129898 0.037765
O O1 0.078817 0.107557 0.562508
O O2 0.006502 0.119376 0.738740
O O3 0.051387 0.937606 0.712865
O O4 0.000000 0.000000 0.500000
O O5 0.643878 0.250000 0.986316
O O6 0.644630 0.073394 0.142773
O O7 0.664582 0.072909 0.840881
O O8 0.263379 0.250000 0.977410
O O9 0.247661 0.404071 0.779258
O O10 0.331398 0.375808 0.892032
O O11 0.264886 0.447070 0.074956
O O12 0.202502 0.926939 0.851880
O O13 0.083634 0.928068 0.295586
O O14 0.156924 0.945409 0.110362
O O15 0.439175 0.250000 0.675998
O O16 0.455753 0.418290 0.516178
O O17 0.542823 0.750000 0.670578
O O18 0.619441 0.860151 0.636654
O O19 0.817440 0.250000 0.990673
#
# Coordination Sequence:
#
# PCOD8252133 Si02
#       8
#     8   8   8   8   8   8   8   8
#     4  12  22  38  58  90 124 163 211 256 301 371
#     4  11  24  43  60  86 132 175 208 252 309 370
#     4  11  23  40  64  94 123 159 202 250 306 363
#     4  11  23  42  65  94 127 158 205 253 310 377
#     4  10  21  40  62  90 121 155 205 256 302 359
#     4  10  20  37  61  87 120 159 201 255 308 361
#     4   9  20  37  59  87 118 156 202 252 305 358
#     4  10  19  38  67  93 119 154 195 252 312 361
#
# _framework density 20.434118999999999
#
# number of rings (size 3 to 8) (size 9 to 14) (size 15 to 20)
#    0.000    1.500    2.500    4.125    0.000    1.000 
#    0.000    9.375    0.000    0.000    0.000    0.000 
#    0.000    0.000    0.000    0.000    0.000    0.000 
#
# Total GULP energy -793480.614126 kJ/mol
# GULP energy per Si atom -12398.134596 kJ/mol
# Density = 2.038761 g / cm^3
# Si number density = 20.434119 Si / 1000 Ang^3
#
#
#
# Elastic Constant Matrix: (Units=GPa)
#
#
# Indices 1 2 3 4 5 6 
#
# 1 69.2200 31.7317 23.5799 0.0000 0.0000 0.0000
# 2 31.7317 120.0619 47.5227 0.0000 0.0000 0.0000
# 3 23.5799 47.5227 89.0304 0.0000 0.0000 0.0000
# 4 0.0000 0.0000 0.0000 32.5606 0.0000 0.0000
# 5 0.0000 0.0000 0.0000 0.0000 34.9996 0.0000
# 6 0.0000 0.0000 0.0000 0.0000 0.0000 25.0707
#
#
#
# Elastic Compliance Matrix: (Units=1/GPa)
#
#
# Indices 1 2 3 4 5 6 
#
# 1 0.016919 -0.003421 -0.002655 0.000000 0.000000 0.000000
# 2 -0.003421 0.011252 -0.005100 0.000000 0.000000 0.000000
# 3 -0.002655 -0.005100 0.014658 0.000000 0.000000 0.000000
# 4 0.000000 0.000000 0.000000 0.030712 0.000000 0.000000
# 5 0.000000 0.000000 0.000000 0.000000 0.028572 0.000000
# 6 0.000000 0.000000 0.000000 0.000000 0.000000 0.039887
#
#
# Mechanical properties :
#
#
# Convention : Reuss Voigt Hill
#
# Bulk Modulus (GPa) = 48.83552 53.77565 51.30559
# Shear Modulus (GPa) = 29.20952 30.22471 29.71711
#
# Velocity S-wave (km/s) = 3.78491 3.85012 3.81765
# Velocity P-wave (km/s) = 6.56137 6.79252 6.67794
#
# Compressibility (1/GPa) = 0.02047690
#
# Stress axis : x y z
#
# Youngs Moduli (GPa) = 59.10415 88.87479 68.22384
#
# Poissons Ratio (x) = 0.30401 0.18115
# Poissons Ratio (y) = 0.20218 0.34794
# Poissons Ratio (z) = 0.15693 0.45326
#
# Static dielectric constant tensor:
#      x y z
#    x 3.821440 0.000000 0.000000 
#    y 0.000000 3.650170 0.000000 
#    z 0.000000 0.000000 3.730740 
# 
# 
# High freq. dielectric constant tensor:
#      x y z
#    x 1.798870 0.000000 0.000000 
#    y 0.000000 1.788510 0.000000 
#    z 0.000000 0.000000 1.804540 
# 
# From -- ./inp_files/10479.got.cif
#   From: 2010.03.12/outbox.cif.g09.slc.cpg/sg62_6_cif.got.tgz:10479.got - 2010.04.10 19:12:36.
