data_PCOD8252252
_publ_section_title
;
Structure prediction by ZEFSAII (Michael W. Deem and Ramdas Pophale) SiO2 
 PCOD8252252
Probable space group: P N M A
;
_chemical_formula_sum "Si O2"
_cell_formula_units_Z 64
_cell_length_a 23.161076
_cell_length_b 8.874397
_cell_length_c 18.821816
_cell_angle_alpha 90.000000
_cell_angle_beta 90.000000
_cell_angle_gamma 90.000000
_cell_volume 3868.647041
_symmetry_space_group_name_H-M "P N M A"
_symmetry_group_IT_number 62
_symmetry_cell_setting 'orthorhombic'
loop_
_space_group_symop_operation_xyz
x,y,z
1/2-x,-y,1/2+z
1/2+x,1/2-y,1/2-z
-x,1/2+y,-z
-x,-y,-z
1/2+x,y,1/2-z
1/2-x,1/2+y,1/2+z
x,1/2-y,z
loop_
_atom_site_type_symbol
_atom_site_label
_atom_site_fract_x
_atom_site_fract_y
_atom_site_fract_z
Si Si1 0.250485 0.074557 0.499908
Si Si2 0.116003 0.073877 0.498126
Si Si3 0.225795 0.428152 0.857943
Si Si4 0.658570 0.573212 0.762605
Si Si5 0.832225 0.575018 0.718686
Si Si6 0.431299 0.074151 0.858788
Si Si7 0.064808 0.074637 0.648237
Si Si8 0.266790 0.922918 0.642573
O O1 0.260860 0.250000 0.487388
O O2 0.183144 0.032281 0.500597
O O3 0.283129 0.982688 0.438557
O O4 0.278301 0.027535 0.574977
O O5 0.106066 0.250000 0.483696
O O6 0.086922 0.021488 0.571364
O O7 0.085337 0.980361 0.436852
O O8 0.225884 0.250000 0.854177
O O9 0.172997 0.491095 0.811260
O O10 0.286940 0.489484 0.830833
O O11 0.658273 0.750000 0.747894
O O12 0.596813 0.518550 0.790408
O O13 0.706934 0.529059 0.820399
O O14 0.827886 0.750000 0.697962
O O15 0.895597 0.512485 0.702023
O O16 0.818825 0.550299 0.801774
O O17 0.418123 0.250000 0.853170
O O18 0.497747 0.037392 0.844365
O O19 0.078595 0.250000 0.659106
O O20 0.264071 0.750000 0.617844
#
# Coordination Sequence:
#
# PCOD8252252 Si02
#       8
#     8   8   8   8   8   8   8   8
#     4  11  20  31  51  76 102 133 167 205 249 302
#     4  10  20  33  48  68 101 139 174 211 247 289
#     4  11  21  33  52  73 100 132 165 207 254 301
#     4  10  20  34  52  74  99 130 169 210 253 300
#     4  10  20  35  51  71 100 131 169 212 253 299
#     4  11  22  33  50  73 100 136 177 214 249 295
#     4  10  21  36  50  71 101 136 177 213 250 295
#     4   9  19  33  50  72  98 128 164 207 252 301
#
# _framework density 16.543251000000001
#
# number of rings (size 3 to 8) (size 9 to 14) (size 15 to 20)
#    0.000    1.750    2.500    3.750    0.000    4.500 
#    0.000    0.000    0.000    0.000    0.000    0.875 
#    0.000    0.000    0.000    0.000    0.000    0.000 
#
# Total GULP energy -793889.762230 kJ/mol
# GULP energy per Si atom -12404.527535 kJ/mol
# Density = 1.650560 g / cm^3
# Si number density = 16.543251 Si / 1000 Ang^3
#
#
#
# Elastic Constant Matrix: (Units=GPa)
#
#
# Indices 1 2 3 4 5 6 
#
# 1 78.9641 42.2228 49.8209 0.0000 0.0000 0.0000
# 2 42.2228 94.4346 56.3369 0.0000 0.0000 0.0000
# 3 49.8209 56.3369 105.2848 0.0000 0.0000 0.0000
# 4 0.0000 0.0000 0.0000 31.9865 0.0000 0.0000
# 5 0.0000 0.0000 0.0000 0.0000 23.1361 0.0000
# 6 0.0000 0.0000 0.0000 0.0000 0.0000 25.1618
#
#
#
# Elastic Compliance Matrix: (Units=1/GPa)
#
#
# Indices 1 2 3 4 5 6 
#
# 1 0.019372 -0.004690 -0.006657 0.000000 0.000000 0.000000
# 2 -0.004690 0.016690 -0.006711 0.000000 0.000000 0.000000
# 3 -0.006657 -0.006711 0.016240 0.000000 0.000000 0.000000
# 4 0.000000 0.000000 0.000000 0.031263 0.000000 0.000000
# 5 0.000000 0.000000 0.000000 0.000000 0.043222 0.000000
# 6 0.000000 0.000000 0.000000 0.000000 0.000000 0.039743
#
#
# Mechanical properties :
#
#
# Convention : Reuss Voigt Hill
#
# Bulk Modulus (GPa) = 61.78830 63.93832 62.86331
# Shear Modulus (GPa) = 24.03358 24.74375 24.38866
#
# Velocity S-wave (km/s) = 3.81566 3.87162 3.84374
# Velocity P-wave (km/s) = 7.53943 7.66284 7.60138
#
# Compressibility (1/GPa) = 0.01618429
#
# Stress axis : x y z
#
# Youngs Moduli (GPa) = 51.62085 59.91581 61.57803
#
# Poissons Ratio (x) = 0.28100 0.40995
# Poissons Ratio (y) = 0.24209 0.41328
# Poissons Ratio (z) = 0.34366 0.40212
#
# Static dielectric constant tensor:
#      x y z
#    x 2.971810 0.000000 0.000000 
#    y 0.000000 3.140050 0.000000 
#    z 0.000000 0.000000 3.128390 
# 
# 
# High freq. dielectric constant tensor:
#      x y z
#    x 1.609090 0.000000 0.000000 
#    y 0.000000 1.649260 0.000000 
#    z 0.000000 0.000000 1.633910 
# 
# From -- ./inp_files/24699.got.cif
#   From: 2010.03.12/outbox.cif.g09.slc.cpg/sg62_13_cif.got.tgz:24699.got - 2010.04.10 19:12:36.
