data_PCOD8252042
_publ_section_title
;
Structure prediction by ZEFSAII (Michael W. Deem and Ramdas Pophale) SiO2 
 PCOD8252042
Probable space group: P N M A
;
_chemical_formula_sum "Si O2"
_cell_formula_units_Z 56
_cell_length_a 17.438803
_cell_length_b 32.055779
_cell_length_c 4.979639
_cell_angle_alpha 90.000000
_cell_angle_beta 90.000000
_cell_angle_gamma 90.000000
_cell_volume 2783.689982
_symmetry_space_group_name_H-M "P N M A"
_symmetry_group_IT_number 62
_symmetry_cell_setting 'orthorhombic'
loop_
_space_group_symop_operation_xyz
x,y,z
1/2-x,-y,1/2+z
1/2+x,1/2-y,1/2-z
-x,1/2+y,-z
-x,-y,-z
1/2+x,y,1/2-z
1/2-x,1/2+y,1/2+z
x,1/2-y,z
loop_
_atom_site_type_symbol
_atom_site_label
_atom_site_fract_x
_atom_site_fract_y
_atom_site_fract_z
Si Si1 0.646057 0.365267 0.294420
Si Si2 0.118593 0.750000 0.787794
Si Si3 0.681646 0.661422 0.796531
Si Si4 0.056647 0.338538 0.705595
Si Si5 0.294373 0.548957 0.800510
Si Si6 0.514297 0.750000 0.212340
Si Si7 0.691771 0.955759 0.199959
Si Si8 0.394849 0.376606 0.702699
O O1 0.731391 0.349964 0.232089
O O2 0.623442 0.353452 0.595983
O O3 0.642700 0.415392 0.254737
O O4 0.586373 0.343026 0.096961
O O5 0.172604 0.789434 0.741908
O O6 0.045784 0.750000 0.590000
O O7 0.086751 0.750000 0.089617
O O8 0.624898 0.636433 0.600039
O O9 0.659498 0.649934 0.100166
O O10 0.037372 0.290487 0.762791
O O11 0.983344 0.367957 0.742420
O O12 0.222750 0.553392 0.597814
O O13 0.334802 0.503815 0.766186
O O14 0.261544 0.554478 0.099091
O O15 0.619500 0.925995 0.257088
#
# Coordination Sequence:
#
# PCOD8252042 Si02
#       8
#     8   4   8   8   8   4   8   8
#     4  12  24  42  60  98 130 163 201 260 323 370
#     4  12  22  42  66  94 114 154 222 270 294 352
#     4  12  23  39  68  89 122 158 212 265 301 358
#     4  12  26  40  64  88 132 170 198 253 326 380
#     4  10  20  36  63  93 124 162 204 264 310 353
#     4  12  24  44  64  88 124 166 216 248 308 384
#     4  10  19  36  65  94 120 160 216 256 299 371
#     4  12  21  42  63  97 117 171 212 249 304 378
#
# _framework density 20.117180999999999
#
# number of rings (size 3 to 8) (size 9 to 14) (size 15 to 20)
#    0.000    0.571    5.714    3.429    0.000    1.143 
#    0.000    1.429    0.000    0.000    0.000    0.000 
#    0.000    0.000    0.000    0.000    0.000    0.000 
#
# Total GULP energy -694813.225360 kJ/mol
# GULP energy per Si atom -12407.379024 kJ/mol
# Density = 2.007139 g / cm^3
# Si number density = 20.117181 Si / 1000 Ang^3
#
#
#
# Elastic Constant Matrix: (Units=GPa)
#
#
# Indices 1 2 3 4 5 6 
#
# 1 72.0675 28.8820 10.8891 0.0000 0.0000 0.0000
# 2 28.8820 147.5245 12.8897 0.0000 0.0000 0.0000
# 3 10.8891 12.8897 73.1510 0.0000 0.0000 0.0000
# 4 0.0000 0.0000 0.0000 29.7938 0.0000 0.0000
# 5 0.0000 0.0000 0.0000 0.0000 30.9041 0.0000
# 6 0.0000 0.0000 0.0000 0.0000 0.0000 15.7567
#
#
#
# Elastic Compliance Matrix: (Units=1/GPa)
#
#
# Indices 1 2 3 4 5 6 
#
# 1 0.015281 -0.002837 -0.001775 0.000000 0.000000 0.000000
# 2 -0.002837 0.007411 -0.000884 0.000000 0.000000 0.000000
# 3 -0.001775 -0.000884 0.014090 0.000000 0.000000 0.000000
# 4 0.000000 0.000000 0.000000 0.033564 0.000000 0.000000
# 5 0.000000 0.000000 0.000000 0.000000 0.032358 0.000000
# 6 0.000000 0.000000 0.000000 0.000000 0.000000 0.063465
#
#
# Mechanical properties :
#
#
# Convention : Reuss Voigt Hill
#
# Bulk Modulus (GPa) = 38.77161 44.22938 41.50050
# Shear Modulus (GPa) = 26.91689 31.29641 29.10665
#
# Velocity S-wave (km/s) = 3.66184 3.94852 3.80788
# Velocity P-wave (km/s) = 6.09865 6.54380 6.32514
#
# Compressibility (1/GPa) = 0.02579207
#
# Stress axis : x y z
#
# Youngs Moduli (GPa) = 65.44143 134.93311 70.97109
#
# Poissons Ratio (x) = 0.38275 0.12596
# Poissons Ratio (y) = 0.18563 0.06271
# Poissons Ratio (z) = 0.11615 0.11923
#
# Static dielectric constant tensor:
#      x y z
#    x 3.324410 0.000000 0.000000 
#    y 0.000000 3.993610 0.000000 
#    z 0.000000 0.000000 3.846310 
# 
# 
# High freq. dielectric constant tensor:
#      x y z
#    x 1.752900 0.000000 0.000000 
#    y 0.000000 1.802070 0.000000 
#    z 0.000000 0.000000 1.806960 
# 
# From -- ./inp_files/1323.got.cif
#   From: 2010.03.12/outbox.cif.g09.slc.cpg/sg62_1_cif.got.tgz:1323.got - 2010.04.10 19:12:36.
