data_PCOD8252837
_publ_section_title
;
Structure prediction by ZEFSAII (Michael W. Deem and Ramdas Pophale) SiO2 
 PCOD8252837
Probable space group: P N M A
;
_chemical_formula_sum "Si O2"
_cell_formula_units_Z 48
_cell_length_a 14.947085
_cell_length_b 8.998430
_cell_length_c 18.728164
_cell_angle_alpha 90.000000
_cell_angle_beta 90.000000
_cell_angle_gamma 90.000000
_cell_volume 2518.943640
_symmetry_space_group_name_H-M "P N M A"
_symmetry_group_IT_number 62
_symmetry_cell_setting 'orthorhombic'
loop_
_space_group_symop_operation_xyz
x,y,z
1/2-x,-y,1/2+z
1/2+x,1/2-y,1/2-z
-x,1/2+y,-z
-x,-y,-z
1/2+x,y,1/2-z
1/2-x,1/2+y,1/2+z
x,1/2-y,z
loop_
_atom_site_type_symbol
_atom_site_label
_atom_site_fract_x
_atom_site_fract_y
_atom_site_fract_z
Si Si1 0.092939 0.578230 0.077657
Si Si2 0.589543 0.577633 0.587017
Si Si3 0.401321 0.422713 0.075486
Si Si4 0.251277 0.576722 0.334267
Si Si5 0.263817 0.577943 0.168570
Si Si6 0.108259 0.076941 0.429681
O O1 0.068136 0.750000 0.090689
O O2 0.177369 0.527639 0.123933
O O3 0.010146 0.478762 0.102891
O O4 0.115994 0.548750 0.995065
O O5 0.595537 0.750000 0.607046
O O6 0.656485 0.487103 0.636338
O O7 0.382841 0.250000 0.063520
O O8 0.348567 0.481425 0.144197
O O9 0.505429 0.455032 0.089103
O O10 0.365943 0.508597 0.005982
O O11 0.246910 0.750000 0.351913
O O12 0.245456 0.544197 0.250655
O O13 0.166156 0.497545 0.368357
O O14 0.286028 0.750000 0.154969
O O15 0.131199 0.250000 0.433018
#
# Coordination Sequence:
#
# PCOD8252837 Si02
#       6
#     8   8   8   8   8   8
#     4   9  19  37  58  80 107 141 183 227 272 326
#     4  10  20  35  58  84 109 141 181 229 281 329
#     4  10  21  37  60  87 112 143 185 231 278 331
#     4  11  23  37  55  81 113 150 189 228 274 329
#     4  10  22  38  56  80 113 152 188 226 275 329
#     4  10  21  38  59  83 112 146 186 233 280 327
#
# _framework density 19.055606999999998
#
# number of rings (size 3 to 8) (size 9 to 14) (size 15 to 20)
#    0.000    2.000    0.000    3.000    0.000    7.333 
#    0.000    5.000    0.000    0.000    0.000    0.000 
#    0.000    0.000    0.000    0.000    0.000    0.000 
#
# Total GULP energy -595508.226113 kJ/mol
# GULP energy per Si atom -12406.421377 kJ/mol
# Density = 1.901224 g / cm^3
# Si number density = 19.055607 Si / 1000 Ang^3
#
#
#
# Elastic Constant Matrix: (Units=GPa)
#
#
# Indices 1 2 3 4 5 6 
#
# 1 89.5707 56.0522 48.8818 0.0000 0.0000 0.0000
# 2 56.0522 104.9660 54.0182 0.0000 0.0000 0.0000
# 3 48.8818 54.0182 76.2629 0.0000 0.0000 0.0000
# 4 0.0000 0.0000 0.0000 32.5696 0.0000 0.0000
# 5 0.0000 0.0000 0.0000 0.0000 13.1609 0.0000
# 6 0.0000 0.0000 0.0000 0.0000 0.0000 36.5285
#
#
#
# Elastic Compliance Matrix: (Units=1/GPa)
#
#
# Indices 1 2 3 4 5 6 
#
# 1 0.019472 -0.006255 -0.008050 0.000000 0.000000 0.000000
# 2 -0.006255 0.017001 -0.008033 0.000000 0.000000 0.000000
# 3 -0.008050 -0.008033 0.023962 0.000000 0.000000 0.000000
# 4 0.000000 0.000000 0.000000 0.030704 0.000000 0.000000
# 5 0.000000 0.000000 0.000000 0.000000 0.075983 0.000000
# 6 0.000000 0.000000 0.000000 0.000000 0.000000 0.027376
#
#
# Mechanical properties :
#
#
# Convention : Reuss Voigt Hill
#
# Bulk Modulus (GPa) = 63.45625 65.41155 64.43390
# Shear Modulus (GPa) = 20.45602 23.90828 22.18215
#
# Velocity S-wave (km/s) = 3.27997 3.54596 3.41556
# Velocity P-wave (km/s) = 6.90776 7.15306 7.03148
#
# Compressibility (1/GPa) = 0.01575889
#
# Stress axis : x y z
#
# Youngs Moduli (GPa) = 51.35534 58.81970 41.73261
#
# Poissons Ratio (x) = 0.36794 0.33596
# Poissons Ratio (y) = 0.32125 0.33522
# Poissons Ratio (z) = 0.41342 0.47248
#
# Static dielectric constant tensor:
#      x y z
#    x 3.491470 0.000000 0.000000 
#    y 0.000000 3.563860 0.000000 
#    z 0.000000 0.000000 3.447030 
# 
# 
# High freq. dielectric constant tensor:
#      x y z
#    x 1.750150 0.000000 0.000000 
#    y 0.000000 1.750470 0.000000 
#    z 0.000000 0.000000 1.736630 
# 
# From -- ./inp_files/23771.got.cif
#   From: 2010.03.12/outbox.cif.g09.slc.cpg/sg62_12_cif.got.tgz:23771.got - 2010.04.10 19:12:36.
