data_PCOD8252375
_publ_section_title
;
Structure prediction by ZEFSAII (Michael W. Deem and Ramdas Pophale) SiO2 
 PCOD8252375
Probable space group: P N M A
;
_chemical_formula_sum "Si O2"
_cell_formula_units_Z 56
_cell_length_a 16.277803
_cell_length_b 10.209566
_cell_length_c 13.776885
_cell_angle_alpha 90.000000
_cell_angle_beta 90.000000
_cell_angle_gamma 90.000000
_cell_volume 2289.570930
_symmetry_space_group_name_H-M "P N M A"
_symmetry_group_IT_number 62
_symmetry_cell_setting 'orthorhombic'
loop_
_space_group_symop_operation_xyz
x,y,z
1/2-x,-y,1/2+z
1/2+x,1/2-y,1/2-z
-x,1/2+y,-z
-x,-y,-z
1/2+x,y,1/2-z
1/2-x,1/2+y,1/2+z
x,1/2-y,z
loop_
_atom_site_type_symbol
_atom_site_label
_atom_site_fract_x
_atom_site_fract_y
_atom_site_fract_z
Si Si1 0.663691 0.602995 0.318716
Si Si2 0.811598 0.891246 0.478773
Si Si3 0.790362 0.395047 0.258212
Si Si4 0.984904 0.894455 0.112608
Si Si5 0.857299 0.101709 0.053292
Si Si6 0.071406 0.043775 0.676855
Si Si7 0.404500 0.400439 0.895992
O O1 0.699997 0.750000 0.333005
O O2 0.733599 0.490990 0.320951
O O3 0.584470 0.580255 0.393034
O O4 0.627841 0.592295 0.211706
O O5 0.819692 0.750000 0.534629
O O6 0.710572 0.915110 0.464108
O O7 0.857294 0.872445 0.376329
O O8 0.847617 0.015424 0.533876
O O9 0.756379 0.250000 0.274794
O O10 0.795976 0.430639 0.143632
O O11 0.884980 0.405006 0.297911
O O12 0.966626 0.750000 0.068590
O O13 0.956429 0.886943 0.224185
O O14 0.935697 0.004770 0.051760
O O15 0.891337 0.250000 0.061714
O O16 0.994757 0.032161 0.603729
O O17 0.408787 0.250000 0.933287
#
# Coordination Sequence:
#
# PCOD8252375 Si02
#       7
#     8   8   8   8   8   8   8
#     4   9  18  32  53  78 103 132 171 216 261 307
#     4  11  21  34  52  76 109 146 176 211 258 313
#     4  10  20  35  53  76 105 136 175 217 260 309
#     4   9  18  34  54  77 101 133 176 216 256 306
#     4   9  19  33  49  73 103 135 172 210 255 307
#     4  10  21  34  51  76 108 140 176 212 255 307
#     4  10  20  34  51  77 108 141 178 213 252 309
#
# _framework density 24.458731
#
# number of rings (size 3 to 8) (size 9 to 14) (size 15 to 20)
#    0.000    2.286    1.429    2.571    0.000    5.714 
#    0.000    2.857    0.000    0.857    0.000    0.000 
#    0.000    0.000    0.000    0.000    0.000    0.000 
#
# Total GULP energy -693992.896744 kJ/mol
# GULP energy per Si atom -12392.730299 kJ/mol
# Density = 2.440306 g / cm^3
# Si number density = 24.458731 Si / 1000 Ang^3
#
#
#
# Elastic Constant Matrix: (Units=GPa)
#
#
# Indices 1 2 3 4 5 6 
#
# 1 195.9371 95.3050 54.2204 0.0000 0.0000 0.0000
# 2 95.3050 139.6901 41.7282 0.0000 0.0000 0.0000
# 3 54.2204 41.7282 73.5638 0.0000 0.0000 0.0000
# 4 0.0000 0.0000 0.0000 24.9150 0.0000 0.0000
# 5 0.0000 0.0000 0.0000 0.0000 45.0032 0.0000
# 6 0.0000 0.0000 0.0000 0.0000 0.0000 35.5518
#
#
#
# Elastic Compliance Matrix: (Units=1/GPa)
#
#
# Indices 1 2 3 4 5 6 
#
# 1 0.008329 -0.004634 -0.003510 0.000000 0.000000 0.000000
# 2 -0.004634 0.011197 -0.002936 0.000000 0.000000 0.000000
# 3 -0.003510 -0.002936 0.017846 0.000000 0.000000 0.000000
# 4 0.000000 0.000000 0.000000 0.040137 0.000000 0.000000
# 5 0.000000 0.000000 0.000000 0.000000 0.022221 0.000000
# 6 0.000000 0.000000 0.000000 0.000000 0.000000 0.028128
#
#
# Mechanical properties :
#
#
# Convention : Reuss Voigt Hill
#
# Bulk Modulus (GPa) = 65.73771 87.96646 76.85209
# Shear Modulus (GPa) = 32.23943 35.62315 33.93129
#
# Velocity S-wave (km/s) = 3.63452 3.82050 3.72867
# Velocity P-wave (km/s) = 6.67446 7.45016 7.07295
#
# Compressibility (1/GPa) = 0.01521197
#
# Stress axis : x y z
#
# Youngs Moduli (GPa) = 120.06120 89.30691 56.03352
#
# Poissons Ratio (x) = 0.41385 0.19670
# Poissons Ratio (y) = 0.55636 0.16452
# Poissons Ratio (z) = 0.42146 0.26221
#
# Static dielectric constant tensor:
#      x y z
#    x 4.890980 0.000000 0.000000 
#    y 0.000000 4.181310 0.000000 
#    z 0.000000 0.000000 4.972890 
# 
# 
# High freq. dielectric constant tensor:
#      x y z
#    x 1.995390 0.000000 0.000000 
#    y 0.000000 1.954400 0.000000 
#    z 0.000000 0.000000 2.009790 
# 
# From -- ./inp_files/18998.got.cif
#   From: 2010.03.12/outbox.cif.g09.slc.cpg/sg62_10_cif.got.tgz:18998.got - 2010.04.10 19:12:36.
