data_PCOD8252792
_publ_section_title
;
Structure prediction by ZEFSAII (Michael W. Deem and Ramdas Pophale) SiO2 
 PCOD8252792
Probable space group: P N M A
;
_chemical_formula_sum "Si O2"
_cell_formula_units_Z 56
_cell_length_a 16.019215
_cell_length_b 9.188127
_cell_length_c 20.163249
_cell_angle_alpha 90.000000
_cell_angle_beta 90.000000
_cell_angle_gamma 90.000000
_cell_volume 2967.759700
_symmetry_space_group_name_H-M "P N M A"
_symmetry_group_IT_number 62
_symmetry_cell_setting 'orthorhombic'
loop_
_space_group_symop_operation_xyz
x,y,z
1/2-x,-y,1/2+z
1/2+x,1/2-y,1/2-z
-x,1/2+y,-z
-x,-y,-z
1/2+x,y,1/2-z
1/2-x,1/2+y,1/2+z
x,1/2-y,z
loop_
_atom_site_type_symbol
_atom_site_label
_atom_site_fract_x
_atom_site_fract_y
_atom_site_fract_z
Si Si1 0.251240 0.081050 0.468832
Si Si2 0.191034 0.920615 0.718478
Si Si3 0.694864 0.917296 0.384103
Si Si4 0.523963 0.916312 0.319632
Si Si5 0.161658 0.421942 0.850203
Si Si6 0.500827 0.580980 0.807939
Si Si7 0.440601 0.579861 0.949396
O O1 0.266764 0.250000 0.451593
O O2 0.285699 0.039491 0.540822
O O3 0.153979 0.042214 0.467172
O O4 0.299431 0.981036 0.417383
O O5 0.205405 0.750000 0.729973
O O6 0.098850 0.955501 0.691573
O O7 0.255128 0.977948 0.664364
O O8 0.206956 0.002602 0.787803
O O9 0.720403 0.750000 0.369945
O O10 0.596249 0.942584 0.373372
O O11 0.518327 0.750000 0.297432
O O12 0.436111 0.965790 0.351257
O O13 0.545310 0.004424 0.253155
O O14 0.175690 0.250000 0.845544
O O15 0.483380 0.750000 0.799281
O O16 0.460534 0.521961 0.875676
O O17 0.459793 0.750000 0.954539
O O18 0.500000 0.500000 0.000000
#
# Coordination Sequence:
#
# PCOD8252792 Si02
#       7
#     8   8   8   8   8   8   8
#     4  10  22  38  56  82 117 152 186 233 286 337
#     4  10  20  35  57  82 111 145 184 233 285 335
#     4  10  21  37  56  81 114 149 188 231 283 337
#     4   9  20  37  56  80 108 143 188 233 279 332
#     4  10  21  38  58  81 111 146 189 237 283 337
#     4   9  19  35  54  79 109 141 182 230 276 330
#     4  10  21  36  55  81 113 147 184 226 277 335
#
# _framework density 18.869451999999999
#
# number of rings (size 3 to 8) (size 9 to 14) (size 15 to 20)
#    0.000    2.286    0.000    1.714    2.000    4.000 
#    0.000    0.000    0.000    0.000    0.000    0.000 
#    0.000    0.000    0.000    0.000    0.000    0.000 
#
# Total GULP energy -694632.041028 kJ/mol
# GULP energy per Si atom -12404.143590 kJ/mol
# Density = 1.882650 g / cm^3
# Si number density = 18.869452 Si / 1000 Ang^3
#
#
#
# Elastic Constant Matrix: (Units=GPa)
#
#
# Indices 1 2 3 4 5 6 
#
# 1 65.2365 55.1301 79.7151 0.0000 0.0000 0.0000
# 2 55.1301 75.3678 68.9585 0.0000 0.0000 0.0000
# 3 79.7151 68.9585 163.5171 0.0000 0.0000 0.0000
# 4 0.0000 0.0000 0.0000 37.4185 0.0000 0.0000
# 5 0.0000 0.0000 0.0000 0.0000 36.3234 0.0000
# 6 0.0000 0.0000 0.0000 0.0000 0.0000 23.9104
#
#
#
# Elastic Compliance Matrix: (Units=1/GPa)
#
#
# Indices 1 2 3 4 5 6 
#
# 1 0.061062 -0.028380 -0.017800 0.000000 0.000000 0.000000
# 2 -0.028380 0.034795 -0.000838 0.000000 0.000000 0.000000
# 3 -0.017800 -0.000838 0.015147 0.000000 0.000000 0.000000
# 4 0.000000 0.000000 0.000000 0.026725 0.000000 0.000000
# 5 0.000000 0.000000 0.000000 0.000000 0.027530 0.000000
# 6 0.000000 0.000000 0.000000 0.000000 0.000000 0.041823
#
#
# Mechanical properties :
#
#
# Convention : Reuss Voigt Hill
#
# Bulk Modulus (GPa) = 58.93569 79.08095 69.00832
# Shear Modulus (GPa) = 16.29867 26.21830 21.25849
#
# Velocity S-wave (km/s) = 2.94217 3.73159 3.36014
# Velocity P-wave (km/s) = 6.54546 7.78247 7.19061
#
# Compressibility (1/GPa) = 0.01696765
#
# Stress axis : x y z
#
# Youngs Moduli (GPa) = 16.37669 28.74001 66.02184
#
# Poissons Ratio (x) = 0.81564 1.17517
# Poissons Ratio (y) = 0.46477 0.05535
# Poissons Ratio (z) = 0.29150 0.02409
#
# Static dielectric constant tensor:
#      x y z
#    x 3.548880 0.000000 0.000000 
#    y 0.000000 3.439620 0.000000 
#    z 0.000000 0.000000 3.561820 
# 
# 
# High freq. dielectric constant tensor:
#      x y z
#    x 1.738000 0.000000 0.000000 
#    y 0.000000 1.731560 0.000000 
#    z 0.000000 0.000000 1.737790 
# 
# From -- ./inp_files/27192.got.cif
#   From: 2010.03.12/outbox.cif.g09.slc.cpg/sg62_14_cif.got.tgz:27192.got - 2010.04.10 19:12:36.
