data_PCOD8252313
_publ_section_title
;
Structure prediction by ZEFSAII (Michael W. Deem and Ramdas Pophale) SiO2 
 PCOD8252313
Probable space group: P N M A
;
_chemical_formula_sum "Si O2"
_cell_formula_units_Z 56
_cell_length_a 14.723614
_cell_length_b 9.088546
_cell_length_c 22.004558
_cell_angle_alpha 90.000000
_cell_angle_beta 90.000000
_cell_angle_gamma 90.000000
_cell_volume 2944.567283
_symmetry_space_group_name_H-M "P N M A"
_symmetry_group_IT_number 62
_symmetry_cell_setting 'orthorhombic'
loop_
_space_group_symop_operation_xyz
x,y,z
1/2-x,-y,1/2+z
1/2+x,1/2-y,1/2-z
-x,1/2+y,-z
-x,-y,-z
1/2+x,y,1/2-z
1/2-x,1/2+y,1/2+z
x,1/2-y,z
loop_
_atom_site_type_symbol
_atom_site_label
_atom_site_fract_x
_atom_site_fract_y
_atom_site_fract_z
Si Si1 0.798394 0.425119 0.116756
Si Si2 0.992582 0.576953 0.640022
Si Si3 0.658423 0.423776 0.901248
Si Si4 0.637106 0.076630 0.036020
Si Si5 0.328585 0.924498 0.778197
Si Si6 0.488442 0.076579 0.434954
Si Si7 0.166475 0.423270 0.140788
O O1 0.800608 0.250000 0.117731
O O2 0.729853 0.487046 0.065382
O O3 0.759159 0.480314 0.182617
O O4 0.898798 0.483999 0.100217
O O5 0.011779 0.750000 0.644497
O O6 0.949836 0.528864 0.575304
O O7 0.923337 0.522925 0.691940
O O8 0.088308 0.492614 0.647493
O O9 0.661512 0.250000 0.893334
O O10 0.758153 0.488474 0.895409
O O11 0.625013 0.477222 0.967497
O O12 0.646982 0.250000 0.038918
O O13 0.328334 0.750000 0.778857
O O14 0.328366 0.984084 0.709724
O O15 0.481520 0.250000 0.447090
O O16 0.570943 0.037708 0.390101
O O17 0.500000 0.000000 0.500000
O O18 0.186306 0.250000 0.138131
#
# Coordination Sequence:
#
# PCOD8252313 Si02
#       7
#     8   8   8   8   8   8   8
#     4   8  14  28  51  75  97 127 165 206 249 297
#     4   9  17  32  54  77  99 127 163 205 246 292
#     4  11  21  32  48  73 104 137 164 195 247 302
#     4   8  15  28  48  74 102 129 160 195 239 296
#     4   8  16  32  54  77  99 125 165 212 255 294
#     4  10  20  33  52  77 104 134 171 211 255 303
#     4  10  21  35  51  75 102 131 172 218 252 290
#
# _framework density 19.018073999999999
#
# number of rings (size 3 to 8) (size 9 to 14) (size 15 to 20)
#    0.000    2.857    0.000    3.429    0.000    2.857 
#    0.000    5.714    0.000    6.000    0.000    0.000 
#    0.000    0.000    0.000    0.000    0.000    0.000 
#
# Total GULP energy -694015.742173 kJ/mol
# GULP energy per Si atom -12393.138253 kJ/mol
# Density = 1.897479 g / cm^3
# Si number density = 19.018074 Si / 1000 Ang^3
#
#
#
# Elastic Constant Matrix: (Units=GPa)
#
#
# Indices 1 2 3 4 5 6 
#
# 1 132.7245 34.2046 40.5381 0.0000 0.0000 0.0000
# 2 34.2046 34.4336 22.7439 0.0000 0.0000 0.0000
# 3 40.5381 22.7439 97.0992 0.0000 0.0000 0.0000
# 4 0.0000 0.0000 0.0000 18.8049 0.0000 0.0000
# 5 0.0000 0.0000 0.0000 0.0000 21.9092 0.0000
# 6 0.0000 0.0000 0.0000 0.0000 0.0000 22.2685
#
#
#
# Elastic Compliance Matrix: (Units=1/GPa)
#
#
# Indices 1 2 3 4 5 6 
#
# 1 0.010546 -0.008953 -0.002306 0.000000 0.000000 0.000000
# 2 -0.008953 0.041957 -0.006090 0.000000 0.000000 0.000000
# 3 -0.002306 -0.006090 0.012688 0.000000 0.000000 0.000000
# 4 0.000000 0.000000 0.000000 0.053178 0.000000 0.000000
# 5 0.000000 0.000000 0.000000 0.000000 0.045643 0.000000
# 6 0.000000 0.000000 0.000000 0.000000 0.000000 0.044906
#
#
# Mechanical properties :
#
#
# Convention : Reuss Voigt Hill
#
# Bulk Modulus (GPa) = 32.79358 51.02562 41.90960
# Shear Modulus (GPa) = 19.70210 23.71457 21.70834
#
# Velocity S-wave (km/s) = 3.22214 3.53505 3.38221
# Velocity P-wave (km/s) = 5.57886 6.59927 6.11040
#
# Compressibility (1/GPa) = 0.03049377
#
# Stress axis : x y z
#
# Youngs Moduli (GPa) = 94.82369 23.83375 78.81519
#
# Poissons Ratio (x) = 0.21338 0.18173
# Poissons Ratio (y) = 0.84893 0.47999
# Poissons Ratio (z) = 0.21864 0.14515
#
# Static dielectric constant tensor:
#      x y z
#    x 3.639400 0.000000 0.000000 
#    y 0.000000 2.944700 0.000000 
#    z 0.000000 0.000000 4.207870 
# 
# 
# High freq. dielectric constant tensor:
#      x y z
#    x 1.753040 0.000000 0.000000 
#    y 0.000000 1.686390 0.000000 
#    z 0.000000 0.000000 1.740780 
# 
# From -- ./inp_files/27131.got.cif
#   From: 2010.03.12/outbox.cif.g09.slc.cpg/sg62_14_cif.got.tgz:27131.got - 2010.04.10 19:12:36.
