data_PCOD8252198
_publ_section_title
;
Structure prediction by ZEFSAII (Michael W. Deem and Ramdas Pophale) SiO2 
 PCOD8252198
Probable space group: P N M A
;
_chemical_formula_sum "Si O2"
_cell_formula_units_Z 64
_cell_length_a 18.804350
_cell_length_b 8.877993
_cell_length_c 23.413419
_cell_angle_alpha 90.000000
_cell_angle_beta 90.000000
_cell_angle_gamma 90.000000
_cell_volume 3908.750605
_symmetry_space_group_name_H-M "P N M A"
_symmetry_group_IT_number 62
_symmetry_cell_setting 'orthorhombic'
loop_
_space_group_symop_operation_xyz
x,y,z
1/2-x,-y,1/2+z
1/2+x,1/2-y,1/2-z
-x,1/2+y,-z
-x,-y,-z
1/2+x,y,1/2-z
1/2-x,1/2+y,1/2+z
x,1/2-y,z
loop_
_atom_site_type_symbol
_atom_site_label
_atom_site_fract_x
_atom_site_fract_y
_atom_site_fract_z
Si Si1 0.633946 0.928655 0.935306
Si Si2 0.126716 0.577957 0.776784
Si Si3 0.663252 0.922821 0.260074
Si Si4 0.762163 0.926929 0.655538
Si Si5 0.849221 0.071382 0.563358
Si Si6 0.987327 0.572138 0.617562
Si Si7 0.274902 0.075588 0.168634
Si Si8 0.504760 0.577535 0.237461
O O1 0.634004 0.750000 0.932032
O O2 0.555358 0.984881 0.918406
O O3 0.693078 0.988499 0.890643
O O4 0.653084 0.987837 0.998287
O O5 0.101866 0.750000 0.782595
O O6 0.180855 0.534967 0.827863
O O7 0.165744 0.551225 0.716766
O O8 0.057933 0.471053 0.780818
O O9 0.684175 0.750000 0.249363
O O10 0.579240 0.942313 0.270492
O O11 0.684182 0.016006 0.204074
O O12 0.703900 0.983299 0.316056
O O13 0.774333 0.750000 0.649876
O O14 0.780171 0.006323 0.595604
O O15 0.847725 0.250000 0.566118
O O16 0.919864 0.014969 0.593870
O O17 0.975146 0.750000 0.611847
O O18 0.999465 0.531540 0.683264
O O19 0.253517 0.250000 0.164179
O O20 0.494306 0.750000 0.217970
#
# Coordination Sequence:
#
# PCOD8252198 Si02
#       8
#     8   8   8   8   8   8   8   8
#     4   9  19  34  50  69  97 132 168 206 242 283
#     4   9  18  32  51  70  93 124 163 201 240 291
#     4  10  20  32  47  71 100 125 156 202 247 289
#     4  10  20  34  50  69  94 129 166 201 241 291
#     4  11  21  33  49  71  99 130 167 208 245 282
#     4  11  20  33  49  66  97 137 172 202 233 281
#     4   9  17  33  51  69  93 127 165 199 239 292
#     4  11  21  31  47  73 102 129 159 198 247 293
#
# _framework density 16.373519000000002
#
# number of rings (size 3 to 8) (size 9 to 14) (size 15 to 20)
#    0.000    2.000    2.500    3.000    0.000    4.000 
#    0.000    3.125    0.000    0.000    0.000    0.875 
#    0.000    0.000    0.000    0.000    0.000    0.000 
#
# Total GULP energy -793648.753677 kJ/mol
# GULP energy per Si atom -12400.761776 kJ/mol
# Density = 1.633625 g / cm^3
# Si number density = 16.373519 Si / 1000 Ang^3
#
#
#
# Elastic Constant Matrix: (Units=GPa)
#
#
# Indices 1 2 3 4 5 6 
#
# 1 88.2745 34.2482 35.3959 0.0000 0.0000 0.0000
# 2 34.2482 61.4767 15.5245 0.0000 0.0000 0.0000
# 3 35.3959 15.5245 63.9357 0.0000 0.0000 0.0000
# 4 0.0000 0.0000 0.0000 21.0027 0.0000 0.0000
# 5 0.0000 0.0000 0.0000 0.0000 22.4922 0.0000
# 6 0.0000 0.0000 0.0000 0.0000 0.0000 26.6252
#
#
#
# Elastic Compliance Matrix: (Units=1/GPa)
#
#
# Indices 1 2 3 4 5 6 
#
# 1 0.017460 -0.007762 -0.007781 0.000000 0.000000 0.000000
# 2 -0.007762 0.020779 -0.000749 0.000000 0.000000 0.000000
# 3 -0.007781 -0.000749 0.020130 0.000000 0.000000 0.000000
# 4 0.000000 0.000000 0.000000 0.047613 0.000000 0.000000
# 5 0.000000 0.000000 0.000000 0.000000 0.044460 0.000000
# 6 0.000000 0.000000 0.000000 0.000000 0.000000 0.037558
#
#
# Mechanical properties :
#
#
# Convention : Reuss Voigt Hill
#
# Bulk Modulus (GPa) = 38.78028 42.66935 40.72481
# Shear Modulus (GPa) = 21.81696 22.59189 22.20443
#
# Velocity S-wave (km/s) = 3.65424 3.71857 3.68655
# Velocity P-wave (km/s) = 6.44522 6.67485 6.56104
#
# Compressibility (1/GPa) = 0.02578630
#
# Stress axis : x y z
#
# Youngs Moduli (GPa) = 57.27444 48.12467 49.67616
#
# Poissons Ratio (x) = 0.37353 0.38655
# Poissons Ratio (y) = 0.44455 0.03718
# Poissons Ratio (z) = 0.44567 0.03602
#
# Static dielectric constant tensor:
#      x y z
#    x 3.175610 0.000000 0.000000 
#    y 0.000000 3.078620 0.000000 
#    z 0.000000 0.000000 3.131210 
# 
# 
# High freq. dielectric constant tensor:
#      x y z
#    x 1.625320 0.000000 0.000000 
#    y 0.000000 1.632670 0.000000 
#    z 0.000000 0.000000 1.603040 
# 
# From -- ./inp_files/30029.got.cif
#   From: 2010.03.12/outbox.cif.g09.slc.cpg/sg62_16_cif.got.tgz:30029.got - 2010.04.10 19:12:36.
