data_PCOD8252477
_publ_section_title
;
Structure prediction by ZEFSAII (Michael W. Deem and Ramdas Pophale) SiO2 
 PCOD8252477
Probable space group: P N M A
;
_chemical_formula_sum "Si O2"
_cell_formula_units_Z 40
_cell_length_a 8.874569
_cell_length_b 20.190517
_cell_length_c 11.555119
_cell_angle_alpha 90.000000
_cell_angle_beta 90.000000
_cell_angle_gamma 90.000000
_cell_volume 2070.470907
_symmetry_space_group_name_H-M "P N M A"
_symmetry_group_IT_number 62
_symmetry_cell_setting 'orthorhombic'
loop_
_space_group_symop_operation_xyz
x,y,z
1/2-x,-y,1/2+z
1/2+x,1/2-y,1/2-z
-x,1/2+y,-z
-x,-y,-z
1/2+x,y,1/2-z
1/2-x,1/2+y,1/2+z
x,1/2-y,z
loop_
_atom_site_type_symbol
_atom_site_label
_atom_site_fract_x
_atom_site_fract_y
_atom_site_fract_z
Si Si1 0.528371 0.675104 0.900775
Si Si2 0.502814 0.562980 0.084221
Si Si3 0.129025 0.325104 0.163555
Si Si4 0.002873 0.453399 0.108556
Si Si5 0.754485 0.981213 0.244307
O O1 0.512568 0.750000 0.945846
O O2 0.411456 0.660944 0.797490
O O3 0.695068 0.661435 0.853106
O O4 0.489405 0.628783 0.008804
O O5 0.361918 0.562697 0.173164
O O6 0.659687 0.565245 0.156359
O O7 0.500000 0.500000 0.000000
O O8 0.084353 0.250000 0.128831
O O9 0.030647 0.375287 0.082279
O O10 0.144123 0.473790 0.183981
O O11 0.848609 0.463854 0.175696
O O12 0.000000 0.500000 0.000000
#
# Coordination Sequence:
#
# PCOD8252477 Si02
#       5
#     8   8   8   8   8
#     4  10  21  37  57  81 111 144 177 222 278 326
#     4  11  21  37  57  79 110 145 182 228 277 326
#     4  10  20  34  54  82 111 139 178 225 273 327
#     4  11  20  34  55  80 108 141 177 220 272 321
#     4  10  22  34  53  82 107 137 186 227 264 324
#
# _framework density 19.319278000000001
#
# number of rings (size 3 to 8) (size 9 to 14) (size 15 to 20)
#    0.000    1.600    0.000    7.200    0.000    1.600 
#    0.000    1.000    0.000    4.800    0.000    0.000 
#    0.000    0.000    0.000    0.000    0.000    0.000 
#
# Total GULP energy -495924.945842 kJ/mol
# GULP energy per Si atom -12398.123646 kJ/mol
# Density = 1.927531 g / cm^3
# Si number density = 19.319278 Si / 1000 Ang^3
#
#
#
# Elastic Constant Matrix: (Units=GPa)
#
#
# Indices 1 2 3 4 5 6 
#
# 1 82.2521 12.3368 32.1314 0.0000 0.0000 0.0000
# 2 12.3368 99.6663 46.8977 0.0000 0.0000 0.0000
# 3 32.1314 46.8977 93.2979 0.0000 0.0000 0.0000
# 4 0.0000 0.0000 0.0000 35.2522 0.0000 0.0000
# 5 0.0000 0.0000 0.0000 0.0000 -112.9931 0.0000
# 6 0.0000 0.0000 0.0000 0.0000 0.0000 22.0528
#
#
#
# Elastic Compliance Matrix: (Units=1/GPa)
#
#
# Indices 1 2 3 4 5 6 
#
# 1 0.014085 0.000706 -0.005206 0.000000 0.000000 0.000000
# 2 0.000706 0.013177 -0.006867 0.000000 0.000000 0.000000
# 3 -0.005206 -0.006867 0.015963 0.000000 0.000000 0.000000
# 4 0.000000 0.000000 0.000000 0.028367 0.000000 0.000000
# 5 0.000000 0.000000 0.000000 0.000000 -0.008850 0.000000
# 6 0.000000 0.000000 0.000000 0.000000 0.000000 0.045346
#
#
# Mechanical properties :
#
#
# Convention : Reuss Voigt Hill
#
# Bulk Modulus (GPa) = 48.79881 50.88311 49.84096
# Shear Modulus (GPa) = 36.32324 1.11907 18.72115
#
# Velocity S-wave (km/s) = 4.34078 0.76191 3.11632
# Velocity P-wave (km/s) = 7.10191 5.21241 6.22922
#
# Compressibility (1/GPa) = 0.02049230
#
# Stress axis : x y z
#
# Youngs Moduli (GPa) = 70.99500 75.88801 62.64473
#
# Poissons Ratio (x) = -0.05359 0.32612
# Poissons Ratio (y) = -0.05013 0.43018
# Poissons Ratio (z) = 0.36959 0.52112
#
# Static dielectric constant tensor:
#      x y z
#    x 3.895310 0.000000 0.000000 
#    y 0.000000 3.666690 0.000000 
#    z 0.000000 0.000000 3.065860 
# 
# 
# High freq. dielectric constant tensor:
#      x y z
#    x 1.770980 0.000000 0.000000 
#    y 0.000000 1.745700 0.000000 
#    z 0.000000 0.000000 1.738280 
# 
# From -- ./inp_files/11084.got.cif
#   From: 2010.03.12/outbox.cif.g09.slc.cpg/sg62_6_cif.got.tgz:11084.got - 2010.04.10 19:12:36.
