data_PCOD8252129
_publ_section_title
;
Structure prediction by ZEFSAII (Michael W. Deem and Ramdas Pophale) SiO2 
 PCOD8252129
Probable space group: P N M A
;
_chemical_formula_sum "Si O2"
_cell_formula_units_Z 56
_cell_length_a 14.553592
_cell_length_b 8.634998
_cell_length_c 21.680271
_cell_angle_alpha 90.000000
_cell_angle_beta 90.000000
_cell_angle_gamma 90.000000
_cell_volume 2724.564812
_symmetry_space_group_name_H-M "P N M A"
_symmetry_group_IT_number 62
_symmetry_cell_setting 'orthorhombic'
loop_
_space_group_symop_operation_xyz
x,y,z
1/2-x,-y,1/2+z
1/2+x,1/2-y,1/2-z
-x,1/2+y,-z
-x,-y,-z
1/2+x,y,1/2-z
1/2-x,1/2+y,1/2+z
x,1/2-y,z
loop_
_atom_site_type_symbol
_atom_site_label
_atom_site_fract_x
_atom_site_fract_y
_atom_site_fract_z
Si Si1 0.697881 0.070421 0.732427
Si Si2 0.924572 0.932186 0.455056
Si Si3 0.595697 0.927801 0.253010
Si Si4 0.775873 0.067280 0.986853
Si Si5 0.068628 0.569238 0.104601
Si Si6 0.876274 0.430805 0.109554
Si Si7 0.437262 0.070930 0.176393
O O1 0.682238 0.250000 0.747580
O O2 0.804894 0.030784 0.725376
O O3 0.646195 0.030371 0.669581
O O4 0.656640 0.974524 0.789278
O O5 0.924104 0.750000 0.463547
O O6 0.824679 0.002929 0.472823
O O7 0.949779 0.972934 0.385300
O O8 0.000000 0.000000 0.500000
O O9 0.568842 0.750000 0.239551
O O10 0.597951 0.960919 0.325411
O O11 0.522709 0.038951 0.221163
O O12 0.772727 0.250000 0.978524
O O13 0.849686 0.002244 0.937925
O O14 0.805130 0.021904 0.056033
O O15 0.049741 0.750000 0.091683
O O16 0.978301 0.472311 0.087128
O O17 0.869337 0.250000 0.125685
O O18 0.434790 0.250000 0.158799
#
# Coordination Sequence:
#
# PCOD8252129 Si02
#       7
#     8   8   8   8   8   8   8
#     4  11  23  41  64  92 125 168 215 261 315 378
#     4  11  24  45  68  93 126 169 216 266 317 374
#     4  10  22  39  64  92 122 164 213 261 312 376
#     4   9  21  40  63  89 124 167 209 257 312 369
#     4  10  19  38  64  90 121 164 209 253 310 377
#     4  11  22  37  59  93 129 163 203 259 320 372
#     4  12  25  42  65  95 129 166 207 262 322 379
#
# _framework density 20.553742
#
# number of rings (size 3 to 8) (size 9 to 14) (size 15 to 20)
#    0.000    1.429    1.429    3.857    2.000    3.429 
#    0.000    5.714    0.000    0.000    0.000    0.000 
#    0.000    0.000    0.000    0.000    0.000    0.000 
#
# Total GULP energy -694735.619366 kJ/mol
# GULP energy per Si atom -12405.993203 kJ/mol
# Density = 2.050696 g / cm^3
# Si number density = 20.553742 Si / 1000 Ang^3
#
#
#
# Elastic Constant Matrix: (Units=GPa)
#
#
# Indices 1 2 3 4 5 6 
#
# 1 107.8076 32.7883 22.4528 0.0000 0.0000 0.0000
# 2 32.7883 55.5442 17.9733 0.0000 0.0000 0.0000
# 3 22.4528 17.9733 87.6662 0.0000 0.0000 0.0000
# 4 0.0000 0.0000 0.0000 23.5793 0.0000 0.0000
# 5 0.0000 0.0000 0.0000 0.0000 30.3327 0.0000
# 6 0.0000 0.0000 0.0000 0.0000 0.0000 26.6316
#
#
#
# Elastic Compliance Matrix: (Units=1/GPa)
#
#
# Indices 1 2 3 4 5 6 
#
# 1 0.011529 -0.006266 -0.001668 0.000000 0.000000 0.000000
# 2 -0.006266 0.022688 -0.003047 0.000000 0.000000 0.000000
# 3 -0.001668 -0.003047 0.012459 0.000000 0.000000 0.000000
# 4 0.000000 0.000000 0.000000 0.042410 0.000000 0.000000
# 5 0.000000 0.000000 0.000000 0.000000 0.032968 0.000000
# 6 0.000000 0.000000 0.000000 0.000000 0.000000 0.037549
#
#
# Mechanical properties :
#
#
# Convention : Reuss Voigt Hill
#
# Bulk Modulus (GPa) = 40.46199 44.16077 42.31138
# Shear Modulus (GPa) = 26.34314 27.96230 27.15272
#
# Velocity S-wave (km/s) = 3.58393 3.69243 3.63858
# Velocity P-wave (km/s) = 6.07081 6.30165 6.18731
#
# Compressibility (1/GPa) = 0.02471455
#
# Stress axis : x y z
#
# Youngs Moduli (GPa) = 86.73878 44.07549 80.26467
#
# Poissons Ratio (x) = 0.27617 0.13389
# Poissons Ratio (y) = 0.54349 0.24455
# Poissons Ratio (z) = 0.14469 0.13429
#
# Static dielectric constant tensor:
#      x y z
#    x 4.056870 0.000000 0.000000 
#    y 0.000000 3.570600 0.000000 
#    z 0.000000 0.000000 3.886690 
# 
# 
# High freq. dielectric constant tensor:
#      x y z
#    x 1.818390 0.000000 0.000000 
#    y 0.000000 1.787580 0.000000 
#    z 0.000000 0.000000 1.812950 
# 
# From -- ./inp_files/27124.got.cif
#   From: 2010.03.12/outbox.cif.g09.slc.cpg/sg62_14_cif.got.tgz:27124.got - 2010.04.10 19:12:36.
