data_PCOD8252930
_publ_section_title
;
Structure prediction by ZEFSAII (Michael W. Deem and Ramdas Pophale) SiO2 
 PCOD8252930
Probable space group: P N M A
;
_chemical_formula_sum "Si O2"
_cell_formula_units_Z 40
_cell_length_a 28.903273
_cell_length_b 9.030760
_cell_length_c 7.922542
_cell_angle_alpha 90.000000
_cell_angle_beta 90.000000
_cell_angle_gamma 90.000000
_cell_volume 2067.930201
_symmetry_space_group_name_H-M "P N M A"
_symmetry_group_IT_number 62
_symmetry_cell_setting 'orthorhombic'
loop_
_space_group_symop_operation_xyz
x,y,z
1/2-x,-y,1/2+z
1/2+x,1/2-y,1/2-z
-x,1/2+y,-z
-x,-y,-z
1/2+x,y,1/2-z
1/2-x,1/2+y,1/2+z
x,1/2-y,z
loop_
_atom_site_type_symbol
_atom_site_label
_atom_site_fract_x
_atom_site_fract_y
_atom_site_fract_z
Si Si1 0.893861 0.577488 0.672745
Si Si2 0.299898 0.424930 0.330038
Si Si3 0.950640 0.573898 0.988391
Si Si4 0.112510 0.424605 0.698471
Si Si5 0.797796 0.923204 0.818179
O O1 0.900555 0.750000 0.697328
O O2 0.925513 0.507167 0.820886
O O3 0.909480 0.529893 0.483815
O O4 0.839765 0.537184 0.692689
O O5 0.304599 0.250000 0.329937
O O6 0.338540 0.493449 0.209204
O O7 0.307783 0.485245 0.515465
O O8 0.249632 0.476520 0.266287
O O9 0.956165 0.750000 0.983863
O O10 0.921568 0.524392 0.152851
O O11 0.000000 0.500000 0.000000
O O12 0.122243 0.250000 0.706486
O O13 0.796674 0.750000 0.864327
#
# Coordination Sequence:
#
# PCOD8252930 Si02
#       5
#     8   8   8   8   8
#     4   9  18  36  60  83 109 151 198 230 276 353
#     4  11  22  34  55  87 118 150 194 242 283 332
#     4  10  21  38  60  85 113 152 196 240 291 344
#     4  10  20  38  62  82 113 157 192 231 291 351
#     4  10  20  36  55  79 116 156 192 230 280 344
#
# _framework density 19.343012999999999
#
# number of rings (size 3 to 8) (size 9 to 14) (size 15 to 20)
#    0.000    2.000    2.000    1.800    0.000    4.800 
#    0.000    2.000    0.000    0.000    0.000    0.000 
#    0.000    0.000    0.000    0.000    0.000    0.000 
#
# Total GULP energy -495949.808654 kJ/mol
# GULP energy per Si atom -12398.745216 kJ/mol
# Density = 1.929899 g / cm^3
# Si number density = 19.343013 Si / 1000 Ang^3
#
#
#
# Elastic Constant Matrix: (Units=GPa)
#
#
# Indices 1 2 3 4 5 6 
#
# 1 140.7705 26.7141 67.4865 0.0000 0.0000 0.0000
# 2 26.7141 27.4724 21.5651 0.0000 0.0000 0.0000
# 3 67.4865 21.5651 154.9035 0.0000 0.0000 0.0000
# 4 0.0000 0.0000 0.0000 16.7758 0.0000 0.0000
# 5 0.0000 0.0000 0.0000 0.0000 29.7239 0.0000
# 6 0.0000 0.0000 0.0000 0.0000 0.0000 33.3210
#
#
#
# Elastic Compliance Matrix: (Units=1/GPa)
#
#
# Indices 1 2 3 4 5 6 
#
# 1 0.010090 -0.007141 -0.003402 0.000000 0.000000 0.000000
# 2 -0.007141 0.045920 -0.003282 0.000000 0.000000 0.000000
# 3 -0.003402 -0.003282 0.008394 0.000000 0.000000 0.000000
# 4 0.000000 0.000000 0.000000 0.059610 0.000000 0.000000
# 5 0.000000 0.000000 0.000000 0.000000 0.033643 0.000000
# 6 0.000000 0.000000 0.000000 0.000000 0.000000 0.030011
#
#
# Mechanical properties :
#
#
# Convention : Reuss Voigt Hill
#
# Bulk Modulus (GPa) = 27.20671 61.63087 44.41879
# Shear Modulus (GPa) = 21.97139 29.78951 25.88045
#
# Velocity S-wave (km/s) = 3.37394 3.92862 3.66180
# Velocity P-wave (km/s) = 5.41054 7.24638 6.39468
#
# Compressibility (1/GPa) = 0.03675564
#
# Stress axis : x y z
#
# Youngs Moduli (GPa) = 99.11119 21.77691 119.12601
#
# Poissons Ratio (x) = 0.15551 0.40522
# Poissons Ratio (y) = 0.70776 0.39094
# Poissons Ratio (z) = 0.33714 0.07147
#
# Static dielectric constant tensor:
#      x y z
#    x 3.663130 0.000000 0.000000 
#    y 0.000000 3.267240 0.000000 
#    z 0.000000 0.000000 4.225920 
# 
# 
# High freq. dielectric constant tensor:
#      x y z
#    x 1.753460 0.000000 0.000000 
#    y 0.000000 1.722850 0.000000 
#    z 0.000000 0.000000 1.770330 
# 
# From -- ./inp_files/9711.got.cif
#   From: 2010.03.12/outbox.cif.g09.slc.cpg/sg62_5_cif.got.tgz:9711.got - 2010.04.10 19:12:36.
