data_PCOD8252752
_publ_section_title
;
Structure prediction by ZEFSAII (Michael W. Deem and Ramdas Pophale) SiO2 
 PCOD8252752
Probable space group: P N M A
;
_chemical_formula_sum "Si O2"
_cell_formula_units_Z 64
_cell_length_a 15.109866
_cell_length_b 8.681599
_cell_length_c 24.701011
_cell_angle_alpha 90.000000
_cell_angle_beta 90.000000
_cell_angle_gamma 90.000000
_cell_volume 3240.224220
_symmetry_space_group_name_H-M "P N M A"
_symmetry_group_IT_number 62
_symmetry_cell_setting 'orthorhombic'
loop_
_space_group_symop_operation_xyz
x,y,z
1/2-x,-y,1/2+z
1/2+x,1/2-y,1/2-z
-x,1/2+y,-z
-x,-y,-z
1/2+x,y,1/2-z
1/2-x,1/2+y,1/2+z
x,1/2-y,z
loop_
_atom_site_type_symbol
_atom_site_label
_atom_site_fract_x
_atom_site_fract_y
_atom_site_fract_z
Si Si1 0.619091 0.068497 0.693466
Si Si2 0.461984 0.570796 0.105836
Si Si3 0.188278 0.926739 0.540170
Si Si4 0.496906 0.568568 0.782972
Si Si5 0.612295 0.072068 0.463039
Si Si6 0.137189 0.071420 0.431249
Si Si7 0.197946 0.428185 0.311797
Si Si8 0.945711 0.568829 0.078643
O O1 0.605362 0.250000 0.700246
O O2 0.603533 0.007380 0.632267
O O3 0.545620 0.981460 0.728686
O O4 0.719126 0.024895 0.711061
O O5 0.485523 0.750000 0.102109
O O6 0.368759 0.539122 0.077337
O O7 0.455764 0.519949 0.167998
O O8 0.534411 0.472497 0.073524
O O9 0.159267 0.750000 0.548427
O O10 0.289038 0.952611 0.558421
O O11 0.181768 0.968133 0.477015
O O12 0.506509 0.750000 0.793403
O O13 0.392337 0.524745 0.780378
O O14 0.585086 0.250000 0.463569
O O15 0.602113 0.005041 0.524379
O O16 0.547811 0.984777 0.421641
O O17 0.143723 0.250000 0.447058
O O18 0.186012 0.034246 0.375159
O O19 0.219370 0.250000 0.302323
O O20 0.942278 0.750000 0.080598
#
# Coordination Sequence:
#
# PCOD8252752 Si02
#       8
#     8   8   8   8   8   8   8   8
#     4  11  22  37  61  90 116 149 191 238 290 344
#     4  11  22  37  56  79 111 149 188 234 290 341
#     4  11  21  34  53  81 115 152 191 231 280 341
#     4  10  22  42  62  83 114 150 192 241 291 343
#     4   9  19  35  55  80 112 150 187 226 278 332
#     4  10  20  35  56  83 114 149 191 235 282 337
#     4   9  20  38  60  85 112 148 190 238 290 341
#     4   9  19  36  56  81 113 145 183 231 278 330
#
# _framework density 19.751719000000001
#
# number of rings (size 3 to 8) (size 9 to 14) (size 15 to 20)
#    0.000    2.000    0.000    4.500    0.000    6.000 
#    2.250    2.500    0.000    0.000    0.000    0.000 
#    0.000    0.000    0.000    0.000    0.000    0.000 
#
# Total GULP energy -793751.437802 kJ/mol
# GULP energy per Si atom -12402.366216 kJ/mol
# Density = 1.970676 g / cm^3
# Si number density = 19.751719 Si / 1000 Ang^3
#
#
#
# Elastic Constant Matrix: (Units=GPa)
#
#
# Indices 1 2 3 4 5 6 
#
# 1 109.7793 24.3392 41.7205 0.0000 0.0000 0.0000
# 2 24.3392 44.5161 18.7950 0.0000 0.0000 0.0000
# 3 41.7205 18.7950 56.5261 0.0000 0.0000 0.0000
# 4 0.0000 0.0000 0.0000 31.7151 0.0000 0.0000
# 5 0.0000 0.0000 0.0000 0.0000 26.5833 0.0000
# 6 0.0000 0.0000 0.0000 0.0000 0.0000 32.1970
#
#
#
# Elastic Compliance Matrix: (Units=1/GPa)
#
#
# Indices 1 2 3 4 5 6 
#
# 1 0.013137 -0.003593 -0.008501 0.000000 0.000000 0.000000
# 2 -0.003593 0.027115 -0.006364 0.000000 0.000000 0.000000
# 3 -0.008501 -0.006364 0.026081 0.000000 0.000000 0.000000
# 4 0.000000 0.000000 0.000000 0.031531 0.000000 0.000000
# 5 0.000000 0.000000 0.000000 0.000000 0.037618 0.000000
# 6 0.000000 0.000000 0.000000 0.000000 0.000000 0.031059
#
#
# Mechanical properties :
#
#
# Convention : Reuss Voigt Hill
#
# Bulk Modulus (GPa) = 33.99388 42.28120 38.13754
# Shear Modulus (GPa) = 23.44536 26.49688 24.97112
#
# Velocity S-wave (km/s) = 3.44903 3.66662 3.55949
# Velocity P-wave (km/s) = 5.75404 6.27521 6.02027
#
# Compressibility (1/GPa) = 0.02941706
#
# Stress axis : x y z
#
# Youngs Moduli (GPa) = 76.12334 36.87966 38.34170
#
# Poissons Ratio (x) = 0.13252 0.32594
# Poissons Ratio (y) = 0.27353 0.24400
# Poissons Ratio (z) = 0.64713 0.23469
#
# Static dielectric constant tensor:
#      x y z
#    x 3.586570 0.000000 0.000000 
#    y 0.000000 3.506020 0.000000 
#    z 0.000000 0.000000 3.539960 
# 
# 
# High freq. dielectric constant tensor:
#      x y z
#    x 1.775780 0.000000 0.000000 
#    y 0.000000 1.770830 0.000000 
#    z 0.000000 0.000000 1.752970 
# 
# From -- ./inp_files/29851.got.cif
#   From: 2010.03.12/outbox.cif.g09.slc.cpg/sg62_15_cif.got.tgz:29851.got - 2010.04.10 19:12:36.
