data_PCOD8252362
_publ_section_title
;
Structure prediction by ZEFSAII (Michael W. Deem and Ramdas Pophale) SiO2 
 PCOD8252362
Probable space group: P N M A
;
_chemical_formula_sum "Si O2"
_cell_formula_units_Z 64
_cell_length_a 5.283804
_cell_length_b 30.779807
_cell_length_c 20.319601
_cell_angle_alpha 90.000000
_cell_angle_beta 90.000000
_cell_angle_gamma 90.000000
_cell_volume 3304.667485
_symmetry_space_group_name_H-M "P N M A"
_symmetry_group_IT_number 62
_symmetry_cell_setting 'orthorhombic'
loop_
_space_group_symop_operation_xyz
x,y,z
1/2-x,-y,1/2+z
1/2+x,1/2-y,1/2-z
-x,1/2+y,-z
-x,-y,-z
1/2+x,y,1/2-z
1/2-x,1/2+y,1/2+z
x,1/2-y,z
loop_
_atom_site_type_symbol
_atom_site_label
_atom_site_fract_x
_atom_site_fract_y
_atom_site_fract_z
Si Si1 0.694931 0.395427 0.966633
Si Si2 0.921702 0.401185 0.274055
Si Si3 0.409174 0.020141 0.315521
Si Si4 0.196297 0.507067 0.060161
Si Si5 0.746281 0.429555 0.715071
Si Si6 0.532259 0.069143 0.094012
Si Si7 0.635496 0.199529 0.709498
Si Si8 0.802817 0.869373 0.098829
O O1 0.683796 0.445212 0.941939
O O2 0.469878 0.366648 0.935783
O O3 0.966742 0.373483 0.952844
O O4 0.646366 0.395032 0.044876
O O5 0.690793 0.376094 0.237364
O O6 0.023365 0.447837 0.240923
O O7 0.851953 0.407539 0.351336
O O8 0.260692 0.050341 0.365197
O O9 0.610627 0.996848 0.363478
O O10 0.241059 0.982025 0.282043
O O11 0.401357 0.468694 0.050761
O O12 0.000000 0.500000 0.000000
O O13 0.513376 0.411159 0.758879
O O14 0.696929 0.413168 0.641764
O O15 0.372821 0.186877 0.744653
O O16 0.642506 0.250000 0.690940
O O17 0.656309 0.173465 0.641876
#
# Coordination Sequence:
#
# PCOD8252362 Si02
#       8
#     8   8   8   8   8   8   8   8
#     4  12  25  36  53  76 106 145 176 225 283 332
#     4  10  20  34  50  66  85 118 172 236 269 305
#     4  11  22  34  51  66  93 128 187 236 279 314
#     4  12  22  37  48  70  96 140 189 238 275 333
#     4  12  24  35  49  70 100 133 168 226 286 321
#     4  11  23  36  51  68  97 134 189 232 279 324
#     4  10  21  41  69  93 115 146 182 222 271 339
#     4  12  24  40  55  81 111 138 176 218 280 344
#
# _framework density 19.366547000000001
#
# number of rings (size 3 to 8) (size 9 to 14) (size 15 to 20)
#    0.000    0.750    3.750    5.625    1.750    0.000 
#    0.000    0.000    0.000    0.000    0.000    0.000 
#    0.000    0.000    0.000    0.000    0.000   50.000 
#
# Total GULP energy -793370.344206 kJ/mol
# GULP energy per Si atom -12396.411628 kJ/mol
# Density = 1.932247 g / cm^3
# Si number density = 19.366547 Si / 1000 Ang^3
#
#
#
# Elastic Constant Matrix: (Units=GPa)
#
#
# Indices 1 2 3 4 5 6 
#
# 1 113.8746 13.8036 26.7688 0.0000 0.0000 0.0000
# 2 13.8036 35.1013 18.0574 0.0000 0.0000 0.0000
# 3 26.7688 18.0574 105.1581 0.0000 0.0000 0.0000
# 4 0.0000 0.0000 0.0000 24.1917 0.0000 0.0000
# 5 0.0000 0.0000 0.0000 0.0000 31.9955 0.0000
# 6 0.0000 0.0000 0.0000 0.0000 0.0000 13.5490
#
#
#
# Elastic Compliance Matrix: (Units=1/GPa)
#
#
# Indices 1 2 3 4 5 6 
#
# 1 0.009577 -0.002756 -0.001965 0.000000 0.000000 0.000000
# 2 -0.002756 0.032042 -0.004801 0.000000 0.000000 0.000000
# 3 -0.001965 -0.004801 0.010834 0.000000 0.000000 0.000000
# 4 0.000000 0.000000 0.000000 0.041336 0.000000 0.000000
# 5 0.000000 0.000000 0.000000 0.000000 0.031254 0.000000
# 6 0.000000 0.000000 0.000000 0.000000 0.000000 0.073806
#
#
# Mechanical properties :
#
#
# Convention : Reuss Voigt Hill
#
# Bulk Modulus (GPa) = 29.92982 41.26595 35.59788
# Shear Modulus (GPa) = 21.83115 26.98085 24.40600
#
# Velocity S-wave (km/s) = 3.36111 3.73657 3.55380
# Velocity P-wave (km/s) = 5.52727 6.32218 5.93804
#
# Compressibility (1/GPa) = 0.03341150
#
# Stress axis : x y z
#
# Youngs Moduli (GPa) = 104.41144 31.20876 92.30180
#
# Poissons Ratio (x) = 0.08600 0.18136
# Poissons Ratio (y) = 0.28771 0.44312
# Poissons Ratio (z) = 0.20515 0.14982
#
# Static dielectric constant tensor:
#      x y z
#    x 3.846440 0.000000 0.000000 
#    y 0.000000 2.927760 0.000000 
#    z 0.000000 0.000000 4.198900 
# 
# 
# High freq. dielectric constant tensor:
#      x y z
#    x 1.783910 0.000000 0.000000 
#    y 0.000000 1.664740 0.000000 
#    z 0.000000 0.000000 1.765760 
# 
# From -- ./inp_files/21687.got.cif
#   From: 2010.03.12/outbox.cif.g09.slc.cpg/sg62_11_cif.got.tgz:21687.got - 2010.04.10 19:12:36.
