data_PCOD8252824
_publ_section_title
;
Structure prediction by ZEFSAII (Michael W. Deem and Ramdas Pophale) SiO2 
 PCOD8252824
Probable space group: P N M A
;
_chemical_formula_sum "Si O2"
_cell_formula_units_Z 64
_cell_length_a 21.740840
_cell_length_b 9.364743
_cell_length_c 16.475433
_cell_angle_alpha 90.000000
_cell_angle_beta 90.000000
_cell_angle_gamma 90.000000
_cell_volume 3354.354980
_symmetry_space_group_name_H-M "P N M A"
_symmetry_group_IT_number 62
_symmetry_cell_setting 'orthorhombic'
loop_
_space_group_symop_operation_xyz
x,y,z
1/2-x,-y,1/2+z
1/2+x,1/2-y,1/2-z
-x,1/2+y,-z
-x,-y,-z
1/2+x,y,1/2-z
1/2-x,1/2+y,1/2+z
x,1/2-y,z
loop_
_atom_site_type_symbol
_atom_site_label
_atom_site_fract_x
_atom_site_fract_y
_atom_site_fract_z
Si Si1 0.810086 0.915991 0.528923
Si Si2 0.209531 0.091325 0.175842
Si Si3 0.381666 0.586313 0.812964
Si Si4 0.033012 0.583773 0.203234
Si Si5 0.627500 0.913912 0.428771
Si Si6 0.675838 0.584989 0.597150
Si Si7 0.394417 0.918129 0.269792
Si Si8 0.343058 0.413420 0.130994
O O1 0.809462 0.750000 0.502002
O O2 0.863743 0.945273 0.594536
O O3 0.743630 0.957160 0.565622
O O4 0.828400 0.017393 0.455290
O O5 0.188798 0.250000 0.150696
O O6 0.178776 0.046828 0.260574
O O7 0.282312 0.082322 0.186817
O O8 0.188703 0.989559 0.103396
O O9 0.400760 0.750000 0.801314
O O10 0.439225 0.493383 0.782549
O O11 0.043466 0.750000 0.217916
O O12 0.066948 0.531004 0.119961
O O13 0.961433 0.548163 0.193480
O O14 0.637868 0.750000 0.409047
O O15 0.625241 0.939615 0.525352
O O16 0.675113 0.750000 0.626289
O O17 0.656642 0.483110 0.670500
O O18 0.382350 0.750000 0.259613
O O19 0.392285 0.993493 0.181303
O O20 0.365946 0.250000 0.118781
#
# Coordination Sequence:
#
# PCOD8252824 Si02
#       8
#     8   8   8   8   8   8   8   8
#     4  10  20  36  57  85 118 145 176 222 281 337
#     4   9  17  31  52  79 110 139 173 218 269 323
#     4   9  18  33  56  81 106 141 180 223 272 327
#     4   9  20  38  56  78 109 145 191 235 269 319
#     4   9  17  32  56  82 110 146 180 218 270 323
#     4  10  20  35  57  85 118 148 179 222 274 336
#     4  11  24  39  55  77 110 150 189 232 277 321
#     4  11  22  36  56  81 111 144 184 229 277 334
#
# _framework density 19.079674000000001
#
# number of rings (size 3 to 8) (size 9 to 14) (size 15 to 20)
#    0.000    2.250    1.250    1.500    0.000    5.500 
#    0.000    3.125    0.000    0.000    0.000    0.000 
#    0.000    0.000    0.000    0.000    0.000    0.000 
#
# Total GULP energy -793431.991968 kJ/mol
# GULP energy per Si atom -12397.374875 kJ/mol
# Density = 1.903625 g / cm^3
# Si number density = 19.079674 Si / 1000 Ang^3
#
#
#
# Elastic Constant Matrix: (Units=GPa)
#
#
# Indices 1 2 3 4 5 6 
#
# 1 50.0286 31.5893 31.1996 0.0000 0.0000 0.0000
# 2 31.5893 82.2108 53.1742 0.0000 0.0000 0.0000
# 3 31.1996 53.1742 88.8564 0.0000 0.0000 0.0000
# 4 0.0000 0.0000 0.0000 34.9620 0.0000 0.0000
# 5 0.0000 0.0000 0.0000 0.0000 23.4142 0.0000
# 6 0.0000 0.0000 0.0000 0.0000 0.0000 25.1882
#
#
#
# Elastic Compliance Matrix: (Units=1/GPa)
#
#
# Indices 1 2 3 4 5 6 
#
# 1 0.027963 -0.007169 -0.005528 0.000000 0.000000 0.000000
# 2 -0.007169 0.021683 -0.010459 0.000000 0.000000 0.000000
# 3 -0.005528 -0.010459 0.019454 0.000000 0.000000 0.000000
# 4 0.000000 0.000000 0.000000 0.028602 0.000000 0.000000
# 5 0.000000 0.000000 0.000000 0.000000 0.042709 0.000000
# 6 0.000000 0.000000 0.000000 0.000000 0.000000 0.039701
#
#
# Mechanical properties :
#
#
# Convention : Reuss Voigt Hill
#
# Bulk Modulus (GPa) = 43.88234 50.33578 47.10906
# Shear Modulus (GPa) = 21.36564 23.72173 22.54368
#
# Velocity S-wave (km/s) = 3.34999 3.52987 3.44110
# Velocity P-wave (km/s) = 6.16544 6.56144 6.36652
#
# Compressibility (1/GPa) = 0.02278821
#
# Stress axis : x y z
#
# Youngs Moduli (GPa) = 35.76172 46.11871 51.40338
#
# Poissons Ratio (x) = 0.33062 0.28417
# Poissons Ratio (y) = 0.25637 0.53761
# Poissons Ratio (z) = 0.19770 0.48234
#
# Static dielectric constant tensor:
#      x y z
#    x 3.413790 0.000000 0.000000 
#    y 0.000000 3.484440 0.000000 
#    z 0.000000 0.000000 3.516810 
# 
# 
# High freq. dielectric constant tensor:
#      x y z
#    x 1.723960 0.000000 0.000000 
#    y 0.000000 1.740550 0.000000 
#    z 0.000000 0.000000 1.741280 
# 
# From -- ./inp_files/20795.got.cif
#   From: 2010.03.12/outbox.cif.g09.slc.cpg/sg62_11_cif.got.tgz:20795.got - 2010.04.10 19:12:36.
