data_PCOD8252380
_publ_section_title
;
Structure prediction by ZEFSAII (Michael W. Deem and Ramdas Pophale) SiO2 
 PCOD8252380
Probable space group: P N M A
;
_chemical_formula_sum "Si O2"
_cell_formula_units_Z 64
_cell_length_a 19.616877
_cell_length_b 9.191797
_cell_length_c 20.099668
_cell_angle_alpha 90.000000
_cell_angle_beta 90.000000
_cell_angle_gamma 90.000000
_cell_volume 3624.258594
_symmetry_space_group_name_H-M "P N M A"
_symmetry_group_IT_number 62
_symmetry_cell_setting 'orthorhombic'
loop_
_space_group_symop_operation_xyz
x,y,z
1/2-x,-y,1/2+z
1/2+x,1/2-y,1/2-z
-x,1/2+y,-z
-x,-y,-z
1/2+x,y,1/2-z
1/2-x,1/2+y,1/2+z
x,1/2-y,z
loop_
_atom_site_type_symbol
_atom_site_label
_atom_site_fract_x
_atom_site_fract_y
_atom_site_fract_z
Si Si1 0.171301 0.081100 0.813822
Si Si2 0.322509 0.419724 0.181542
Si Si3 0.569070 0.920519 0.925337
Si Si4 0.078759 0.418442 0.935398
Si Si5 0.327707 0.081305 0.813512
Si Si6 0.065748 0.919649 0.423910
Si Si7 0.079427 0.581015 0.069588
Si Si8 0.666200 0.078500 0.319535
O O1 0.158573 0.250000 0.800834
O O2 0.124526 0.025775 0.874233
O O3 0.249609 0.047233 0.831772
O O4 0.149536 0.999006 0.746992
O O5 0.329905 0.250000 0.195310
O O6 0.367095 0.471263 0.118861
O O7 0.244693 0.461317 0.165339
O O8 0.556783 0.750000 0.919268
O O9 0.501293 0.997989 0.898474
O O10 0.584761 0.967350 0.001115
O O11 0.093745 0.250000 0.952359
O O12 0.000306 0.442117 0.915930
O O13 0.099585 0.514501 0.998526
O O14 0.337663 0.250000 0.794331
O O15 0.371066 0.036603 0.877801
O O16 0.353840 0.984243 0.752405
O O17 0.049716 0.750000 0.419979
O O18 0.099549 0.750000 0.070244
O O19 0.120120 0.497025 0.125810
O O20 0.652766 0.250000 0.320515
#
# Coordination Sequence:
#
# PCOD8252380 Si02
#       8
#     8   8   8   8   8   8   8   8
#     4   9  18  33  53  74  97 128 165 204 244 288
#     4   9  19  34  51  72  99 130 164 203 244 289
#     4   9  18  33  51  72  98 128 163 202 244 289
#     4   9  19  35  53  74 100 131 167 205 246 293
#     4   9  18  33  52  73  98 129 165 204 245 291
#     4   9  18  32  50  72  98 128 161 199 243 290
#     4  10  20  34  52  75 103 132 164 204 246 292
#     4  10  20  34  52  73  99 131 165 203 246 292
#
# _framework density 17.658784000000001
#
# number of rings (size 3 to 8) (size 9 to 14) (size 15 to 20)
#    0.000    2.750    0.000    0.750    0.000    4.500 
#    0.000    7.500    0.000    3.000    0.000    0.000 
#    0.000    0.000    0.000    0.000    0.000    0.000 
#
# Total GULP energy -793751.453318 kJ/mol
# GULP energy per Si atom -12402.366458 kJ/mol
# Density = 1.761859 g / cm^3
# Si number density = 17.658784 Si / 1000 Ang^3
#
#
#
# Elastic Constant Matrix: (Units=GPa)
#
#
# Indices 1 2 3 4 5 6 
#
# 1 90.3311 44.3004 82.5997 0.0000 0.0000 0.0000
# 2 44.3004 64.2001 60.9148 0.0000 0.0000 0.0000
# 3 82.5997 60.9148 137.4541 0.0000 0.0000 0.0000
# 4 0.0000 0.0000 0.0000 -553.2934 0.0000 0.0000
# 5 0.0000 0.0000 0.0000 0.0000 38.0617 0.0000
# 6 0.0000 0.0000 0.0000 0.0000 0.0000 27.2769
#
#
#
# Elastic Compliance Matrix: (Units=1/GPa)
#
#
# Indices 1 2 3 4 5 6 
#
# 1 0.025573 -0.005289 -0.013024 0.000000 0.000000 0.000000
# 2 -0.005289 0.027972 -0.009218 0.000000 0.000000 0.000000
# 3 -0.013024 -0.009218 0.019186 0.000000 0.000000 0.000000
# 4 0.000000 0.000000 0.000000 -0.001807 0.000000 0.000000
# 5 0.000000 0.000000 0.000000 0.000000 0.026273 0.000000
# 6 0.000000 0.000000 0.000000 0.000000 0.000000 0.036661
#
#
# Mechanical properties :
#
#
# Convention : Reuss Voigt Hill
#
# Bulk Modulus (GPa) = 56.59181 74.17945 65.38563
# Shear Modulus (GPa) = 25.66598 -90.64626 -32.49014
#
# Velocity S-wave (km/s) = 3.81654 -7.17242 -4.29404
# Velocity P-wave (km/s) = 7.17901 5.14714 3.53872
#
# Compressibility (1/GPa) = 0.01767040
#
# Stress axis : x y z
#
# Youngs Moduli (GPa) = 39.10324 35.74974 52.12034
#
# Poissons Ratio (x) = 0.18909 0.67879
# Poissons Ratio (y) = 0.20683 0.48043
# Poissons Ratio (z) = 0.50926 0.32953
#
# Static dielectric constant tensor:
#      x y z
#    x 3.338970 0.000000 0.000000 
#    y 0.000000 3.275940 0.000000 
#    z 0.000000 0.000000 3.377480 
# 
# 
# High freq. dielectric constant tensor:
#      x y z
#    x 1.681190 0.000000 0.000000 
#    y 0.000000 1.682210 0.000000 
#    z 0.000000 0.000000 1.686220 
# 
# From -- ./inp_files/27955.got.cif
#   From: 2010.03.12/outbox.cif.g09.slc.cpg/sg62_14_cif.got.tgz:27955.got - 2010.04.10 19:12:36.
