data_PCOD8252860
_publ_section_title
;
Structure prediction by ZEFSAII (Michael W. Deem and Ramdas Pophale) SiO2 
 PCOD8252860
Probable space group: P N M A
;
_chemical_formula_sum "Si O2"
_cell_formula_units_Z 48
_cell_length_a 22.922941
_cell_length_b 9.191223
_cell_length_c 11.928659
_cell_angle_alpha 90.000000
_cell_angle_beta 90.000000
_cell_angle_gamma 90.000000
_cell_volume 2513.247525
_symmetry_space_group_name_H-M "P N M A"
_symmetry_group_IT_number 62
_symmetry_cell_setting 'orthorhombic'
loop_
_space_group_symop_operation_xyz
x,y,z
1/2-x,-y,1/2+z
1/2+x,1/2-y,1/2-z
-x,1/2+y,-z
-x,-y,-z
1/2+x,y,1/2-z
1/2-x,1/2+y,1/2+z
x,1/2-y,z
loop_
_atom_site_type_symbol
_atom_site_label
_atom_site_fract_x
_atom_site_fract_y
_atom_site_fract_z
Si Si1 0.839232 0.089230 0.572340
Si Si2 0.379825 0.077517 0.264030
Si Si3 0.562542 0.577428 0.501372
Si Si4 0.954185 0.093346 0.436205
Si Si5 0.784602 0.922001 0.375023
Si Si6 0.345545 0.078442 0.679218
O O1 0.808656 0.250000 0.581471
O O2 0.901394 0.113165 0.519621
O O3 0.848909 0.017424 0.694424
O O4 0.802308 0.979076 0.497198
O O5 0.368987 0.250000 0.249071
O O6 0.399940 0.035920 0.388405
O O7 0.431633 0.024233 0.180587
O O8 0.320329 0.996225 0.227467
O O9 0.500000 0.500000 0.500000
O O10 0.551941 0.750000 0.496698
O O11 0.601506 0.517715 0.397540
O O12 0.982841 0.250000 0.410577
O O13 0.000000 0.000000 0.500000
O O14 0.794821 0.750000 0.367759
O O15 0.717199 0.966616 0.368126
O O16 0.352647 0.250000 0.680130
#
# Coordination Sequence:
#
# PCOD8252860 Si02
#       6
#     8   8   8   8   8   8
#     4   9  19  37  55  76 109 146 179 219 278 337
#     4   9  20  38  57  79 113 151 182 223 283 341
#     4  10  22  40  60  83 115 154 193 232 282 341
#     4   9  18  31  51  76 102 137 177 217 265 317
#     4  10  20  35  58  88 111 139 187 236 278 329
#     4   9  20  37  58  82 113 148 181 227 286 339
#
# _framework density 19.098796
#
# number of rings (size 3 to 8) (size 9 to 14) (size 15 to 20)
#    0.000    2.667    0.000    1.500    4.667    3.333 
#    0.000    3.333    0.000    0.000    0.000    0.000 
#    0.000    0.000    0.000    0.000    0.000    0.000 
#
# Total GULP energy -594874.613079 kJ/mol
# GULP energy per Si atom -12393.221106 kJ/mol
# Density = 1.905533 g / cm^3
# Si number density = 19.098796 Si / 1000 Ang^3
#
#
#
# Elastic Constant Matrix: (Units=GPa)
#
#
# Indices 1 2 3 4 5 6 
#
# 1 85.3901 33.5522 56.1398 0.0000 0.0000 0.0000
# 2 33.5522 53.4088 29.9255 0.0000 0.0000 0.0000
# 3 56.1398 29.9255 156.4948 0.0000 0.0000 0.0000
# 4 0.0000 0.0000 0.0000 23.5509 0.0000 0.0000
# 5 0.0000 0.0000 0.0000 0.0000 11.8583 0.0000
# 6 0.0000 0.0000 0.0000 0.0000 0.0000 -247.5887
#
#
#
# Elastic Compliance Matrix: (Units=1/GPa)
#
#
# Indices 1 2 3 4 5 6 
#
# 1 0.018405 -0.008806 -0.004918 0.000000 0.000000 0.000000
# 2 -0.008806 0.025184 -0.001657 0.000000 0.000000 0.000000
# 3 -0.004918 -0.001657 0.008471 0.000000 0.000000 0.000000
# 4 0.000000 0.000000 0.000000 0.042461 0.000000 0.000000
# 5 0.000000 0.000000 0.000000 0.000000 0.084329 0.000000
# 6 0.000000 0.000000 0.000000 0.000000 0.000000 -0.004039
#
#
# Mechanical properties :
#
#
# Convention : Reuss Voigt Hill
#
# Bulk Modulus (GPa) = 46.95457 59.39208 53.17333
# Shear Modulus (GPa) = 23.51021 -30.72416 -3.60698
#
# Velocity S-wave (km/s) = 3.51234 -4.01521 -1.37575
# Velocity P-wave (km/s) = 6.40993 3.10949 5.03766
#
# Compressibility (1/GPa) = 0.02129718
#
# Stress axis : x y z
#
# Youngs Moduli (GPa) = 54.33352 39.70774 118.04723
#
# Poissons Ratio (x) = 0.34968 0.58061
# Poissons Ratio (y) = 0.47848 0.19556
# Poissons Ratio (z) = 0.26724 0.06578
#
# Static dielectric constant tensor:
#      x y z
#    x 3.354510 0.000000 0.000000 
#    y 0.000000 2.248930 0.000000 
#    z 0.000000 0.000000 3.811460 
# 
# 
# High freq. dielectric constant tensor:
#      x y z
#    x 1.738160 0.000000 0.000000 
#    y 0.000000 1.719960 0.000000 
#    z 0.000000 0.000000 1.757580 
# 
# From -- ./inp_files/15149.got.cif
#   From: 2010.03.12/outbox.cif.g09.slc.cpg/sg62_8_cif.got.tgz:15149.got - 2010.04.10 19:12:36.
