data_PCOD8252729
_publ_section_title
;
Structure prediction by ZEFSAII (Michael W. Deem and Ramdas Pophale) SiO2 
 PCOD8252729
Probable space group: P N M A
;
_chemical_formula_sum "Si O2"
_cell_formula_units_Z 56
_cell_length_a 13.097021
_cell_length_b 14.634922
_cell_length_c 15.247292
_cell_angle_alpha 90.000000
_cell_angle_beta 90.000000
_cell_angle_gamma 90.000000
_cell_volume 2922.507629
_symmetry_space_group_name_H-M "P N M A"
_symmetry_group_IT_number 62
_symmetry_cell_setting 'orthorhombic'
loop_
_space_group_symop_operation_xyz
x,y,z
1/2-x,-y,1/2+z
1/2+x,1/2-y,1/2-z
-x,1/2+y,-z
-x,-y,-z
1/2+x,y,1/2-z
1/2-x,1/2+y,1/2+z
x,1/2-y,z
loop_
_atom_site_type_symbol
_atom_site_label
_atom_site_fract_x
_atom_site_fract_y
_atom_site_fract_z
Si Si1 0.715397 0.854171 0.671146
Si Si2 0.189349 0.977479 0.146713
Si Si3 0.407197 0.145577 0.500847
Si Si4 0.888070 0.068813 0.340174
Si Si5 0.388066 0.496953 0.828331
Si Si6 0.871051 0.646469 0.952473
Si Si7 0.344970 0.353065 0.975950
O O1 0.754275 0.750000 0.666367
O O2 0.633211 0.875428 0.595945
O O3 0.658448 0.869503 0.762894
O O4 0.812101 0.919007 0.654490
O O5 0.312844 0.981432 0.146762
O O6 0.146059 0.944029 0.239953
O O7 0.155682 0.911553 0.070241
O O8 0.147398 0.080713 0.130420
O O9 0.391427 0.250000 0.527516
O O10 0.526504 0.118251 0.504171
O O11 0.893872 0.127841 0.428974
O O12 0.998809 0.034057 0.314500
O O13 0.389001 0.424732 0.906924
O O14 0.880078 0.750000 0.915745
O O15 0.777856 0.636587 0.020730
O O16 0.374911 0.250000 0.947896
#
# Coordination Sequence:
#
# PCOD8252729 Si02
#       7
#     8   8   8   8   8   8   8
#     4  10  21  36  57  86 112 138 181 233 283 334
#     4  10  21  35  55  79 110 143 176 222 270 328
#     4  10  20  35  56  82 111 141 176 224 277 327
#     4  10  21  38  56  79 110 146 184 229 282 328
#     4  11  23  37  56  81 112 148 187 227 273 329
#     4   9  18  34  58  82 104 136 178 226 280 324
#     4  10  21  37  56  79 111 150 190 227 265 326
#
# _framework density 19.161625999999998
#
# number of rings (size 3 to 8) (size 9 to 14) (size 15 to 20)
#    0.000    2.000    0.000    3.857    0.000    7.429 
#    0.000    2.143    0.000    0.857    0.000    0.000 
#    0.000    0.000    0.000    0.000    0.000    0.000 
#
# Total GULP energy -694460.576609 kJ/mol
# GULP energy per Si atom -12401.081725 kJ/mol
# Density = 1.911801 g / cm^3
# Si number density = 19.161626 Si / 1000 Ang^3
#
#
#
# Elastic Constant Matrix: (Units=GPa)
#
#
# Indices 1 2 3 4 5 6 
#
# 1 99.7043 32.7165 10.7125 0.0000 0.0000 0.0000
# 2 32.7165 75.0860 42.2854 0.0000 0.0000 0.0000
# 3 10.7125 42.2854 89.5796 0.0000 0.0000 0.0000
# 4 0.0000 0.0000 0.0000 17.1357 0.0000 0.0000
# 5 0.0000 0.0000 0.0000 0.0000 20.2443 0.0000
# 6 0.0000 0.0000 0.0000 0.0000 0.0000 20.0778
#
#
#
# Elastic Compliance Matrix: (Units=1/GPa)
#
#
# Indices 1 2 3 4 5 6 
#
# 1 0.011828 -0.005935 0.001387 0.000000 0.000000 0.000000
# 2 -0.005935 0.021118 -0.009259 0.000000 0.000000 0.000000
# 3 0.001387 -0.009259 0.015368 0.000000 0.000000 0.000000
# 4 0.000000 0.000000 0.000000 0.058358 0.000000 0.000000
# 5 0.000000 0.000000 0.000000 0.000000 0.049397 0.000000
# 6 0.000000 0.000000 0.000000 0.000000 0.000000 0.049806
#
#
# Mechanical properties :
#
#
# Convention : Reuss Voigt Hill
#
# Bulk Modulus (GPa) = 48.30746 48.42207 48.36476
# Shear Modulus (GPa) = 20.79963 23.40193 22.10078
#
# Velocity S-wave (km/s) = 3.29824 3.49849 3.39984
# Velocity P-wave (km/s) = 6.30633 6.45325 6.38021
#
# Compressibility (1/GPa) = 0.02070074
#
# Stress axis : x y z
#
# Youngs Moduli (GPa) = 84.54474 47.35234 65.07020
#
# Poissons Ratio (x) = 0.28103 -0.09025
# Poissons Ratio (y) = 0.50176 0.60248
# Poissons Ratio (z) = -0.11726 0.43844
#
# Static dielectric constant tensor:
#      x y z
#    x 3.654540 0.000000 0.000000 
#    y 0.000000 3.467150 0.000000 
#    z 0.000000 0.000000 3.403710 
# 
# 
# High freq. dielectric constant tensor:
#      x y z
#    x 1.751960 0.000000 0.000000 
#    y 0.000000 1.737010 0.000000 
#    z 0.000000 0.000000 1.742310 
# 
# From -- ./inp_files/18084.got.cif
#   From: 2010.03.12/outbox.cif.g09.slc.cpg/sg62_10_cif.got.tgz:18084.got - 2010.04.10 19:12:36.
