data_PCOD8252641
_publ_section_title
;
Structure prediction by ZEFSAII (Michael W. Deem and Ramdas Pophale) SiO2 
 PCOD8252641
Probable space group: P N M A
;
_chemical_formula_sum "Si O2"
_cell_formula_units_Z 56
_cell_length_a 14.865117
_cell_length_b 9.366434
_cell_length_c 21.387641
_cell_angle_alpha 90.000000
_cell_angle_beta 90.000000
_cell_angle_gamma 90.000000
_cell_volume 2977.868356
_symmetry_space_group_name_H-M "P N M A"
_symmetry_group_IT_number 62
_symmetry_cell_setting 'orthorhombic'
loop_
_space_group_symop_operation_xyz
x,y,z
1/2-x,-y,1/2+z
1/2+x,1/2-y,1/2-z
-x,1/2+y,-z
-x,-y,-z
1/2+x,y,1/2-z
1/2-x,1/2+y,1/2+z
x,1/2-y,z
loop_
_atom_site_type_symbol
_atom_site_label
_atom_site_fract_x
_atom_site_fract_y
_atom_site_fract_z
Si Si1 0.241256 0.910024 0.967150
Si Si2 0.520773 0.912631 0.741533
Si Si3 0.186993 0.418039 0.223746
Si Si4 0.687235 0.914458 0.663406
Si Si5 0.951134 0.589301 0.552161
Si Si6 0.950005 0.587811 0.355406
Si Si7 0.752545 0.585587 0.396186
O O1 0.202852 0.750000 0.969828
O O2 0.200075 0.988907 0.905356
O O3 0.346784 0.908707 0.958519
O O4 0.219037 0.976726 0.035935
O O5 0.527524 0.750000 0.766547
O O6 0.417686 0.956393 0.731894
O O7 0.581431 0.929041 0.679227
O O8 0.569968 0.022312 0.787736
O O9 0.203028 0.250000 0.215729
O O10 0.246493 0.477648 0.282239
O O11 0.214551 0.491049 0.159231
O O12 0.716935 0.750000 0.656277
O O13 0.990138 0.750000 0.553097
O O14 0.970760 0.511039 0.617478
O O15 0.000000 0.500000 0.500000
O O16 0.984214 0.750000 0.349867
O O17 0.860898 0.579083 0.397444
O O18 0.722217 0.750000 0.386700
#
# Coordination Sequence:
#
# PCOD8252641 Si02
#       7
#     8   8   8   8   8   8   8
#     4   9  18  34  53  76 109 145 181 222 270 330
#     4  10  20  35  57  83 105 137 185 232 277 324
#     4  10  20  35  56  82 108 138 184 230 274 328
#     4   9  17  32  55  79 104 138 179 225 272 319
#     4  11  20  32  51  77 111 144 180 223 272 330
#     4  11  21  34  52  79 111 144 181 223 277 335
#     4  10  20  35  54  77 108 146 184 220 271 332
#
# _framework density 18.805399000000001
#
# number of rings (size 3 to 8) (size 9 to 14) (size 15 to 20)
#    0.000    2.000    2.857    1.714    0.000    3.429 
#    0.000    0.714    0.000    2.571    0.000    0.000 
#    0.000    0.000    0.000    0.000    0.000    0.000 
#
# Total GULP energy -693906.260547 kJ/mol
# GULP energy per Si atom -12391.183224 kJ/mol
# Density = 1.876260 g / cm^3
# Si number density = 18.805399 Si / 1000 Ang^3
#
#
#
# Elastic Constant Matrix: (Units=GPa)
#
#
# Indices 1 2 3 4 5 6 
#
# 1 62.6514 12.2007 26.4008 0.0000 0.0000 0.0000
# 2 12.2007 69.9991 34.0020 0.0000 0.0000 0.0000
# 3 26.4008 34.0020 146.6292 0.0000 0.0000 0.0000
# 4 0.0000 0.0000 0.0000 28.3378 0.0000 0.0000
# 5 0.0000 0.0000 0.0000 0.0000 30.2785 0.0000
# 6 0.0000 0.0000 0.0000 0.0000 0.0000 14.8436
#
#
#
# Elastic Compliance Matrix: (Units=1/GPa)
#
#
# Indices 1 2 3 4 5 6 
#
# 1 0.017451 -0.001708 -0.002746 0.000000 0.000000 0.000000
# 2 -0.001708 0.016266 -0.003465 0.000000 0.000000 0.000000
# 3 -0.002746 -0.003465 0.008118 0.000000 0.000000 0.000000
# 4 0.000000 0.000000 0.000000 0.035289 0.000000 0.000000
# 5 0.000000 0.000000 0.000000 0.000000 0.033027 0.000000
# 6 0.000000 0.000000 0.000000 0.000000 0.000000 0.067369
#
#
# Mechanical properties :
#
#
# Convention : Reuss Voigt Hill
#
# Bulk Modulus (GPa) = 38.46377 47.16517 42.81447
# Shear Modulus (GPa) = 24.74971 28.47041 26.61006
#
# Velocity S-wave (km/s) = 3.63174 3.89517 3.76576
# Velocity P-wave (km/s) = 6.17123 6.73535 6.45945
#
# Compressibility (1/GPa) = 0.02599849
#
# Stress axis : x y z
#
# Youngs Moduli (GPa) = 57.30301 61.47623 123.18678
#
# Poissons Ratio (x) = 0.10499 0.33828
# Poissons Ratio (y) = 0.09786 0.42679
# Poissons Ratio (z) = 0.15736 0.21299
#
# Static dielectric constant tensor:
#      x y z
#    x 3.246700 0.000000 0.000000 
#    y 0.000000 3.499530 0.000000 
#    z 0.000000 0.000000 4.434990 
# 
# 
# High freq. dielectric constant tensor:
#      x y z
#    x 1.712210 0.000000 0.000000 
#    y 0.000000 1.697580 0.000000 
#    z 0.000000 0.000000 1.745610 
# 
# From -- ./inp_files/27136.got.cif
#   From: 2010.03.12/outbox.cif.g09.slc.cpg/sg62_14_cif.got.tgz:27136.got - 2010.04.10 19:12:36.
