data_PCOD8252678
_publ_section_title
;
Structure prediction by ZEFSAII (Michael W. Deem and Ramdas Pophale) SiO2 
 PCOD8252678
Probable space group: P N M A
;
_chemical_formula_sum "Si O2"
_cell_formula_units_Z 64
_cell_length_a 16.122688
_cell_length_b 8.930324
_cell_length_c 22.592759
_cell_angle_alpha 90.000000
_cell_angle_beta 90.000000
_cell_angle_gamma 90.000000
_cell_volume 3252.924138
_symmetry_space_group_name_H-M "P N M A"
_symmetry_group_IT_number 62
_symmetry_cell_setting 'orthorhombic'
loop_
_space_group_symop_operation_xyz
x,y,z
1/2-x,-y,1/2+z
1/2+x,1/2-y,1/2-z
-x,1/2+y,-z
-x,-y,-z
1/2+x,y,1/2-z
1/2-x,1/2+y,1/2+z
x,1/2-y,z
loop_
_atom_site_type_symbol
_atom_site_label
_atom_site_fract_x
_atom_site_fract_y
_atom_site_fract_z
Si Si1 0.418324 0.429026 0.528892
Si Si2 0.718278 0.418222 0.787095
Si Si3 0.085764 0.426105 0.518982
Si Si4 0.745740 0.926878 0.540323
Si Si5 0.555746 0.079170 0.222829
Si Si6 0.910356 0.424301 0.359202
Si Si7 0.237578 0.422845 0.325081
Si Si8 0.901949 0.417783 0.836742
O O1 0.500000 0.500000 0.500000
O O2 0.423863 0.250000 0.524752
O O3 0.335184 0.487576 0.494955
O O4 0.412295 0.485041 0.597140
O O5 0.681411 0.250000 0.793061
O O6 0.669710 0.549333 0.819729
O O7 0.714789 0.464849 0.718332
O O8 0.807655 0.423945 0.816493
O O9 0.077505 0.250000 0.508711
O O10 0.166624 0.490555 0.484413
O O11 0.100432 0.465094 0.586493
O O12 0.000000 0.500000 0.500000
O O13 0.748688 0.750000 0.533151
O O14 0.739752 0.974462 0.608790
O O15 0.536701 0.250000 0.235961
O O16 0.488432 0.015306 0.177648
O O17 0.641088 0.054662 0.188598
O O18 0.545679 0.004359 0.287187
O O19 0.918413 0.250000 0.377896
O O20 0.263354 0.250000 0.314577
O O21 0.936101 0.250000 0.837650
#
# Coordination Sequence:
#
# PCOD8252678 Si02
#       8
#     8   8   8   8   8   8   8   8
#     4  10  21  38  57  79 106 142 186 232 277 327
#     4  10  20  35  55  80 108 141 178 223 275 328
#     4  11  22  38  60  87 118 153 189 230 280 341
#     4   9  19  37  60  80 110 154 190 221 273 339
#     4   9  19  34  54  78 106 138 176 221 270 323
#     4  11  22  36  54  81 113 145 183 227 273 330
#     4   9  17  34  57  79 103 138 181 222 265 323
#     4   9  19  36  56  76 104 139 179 224 276 331
#
# _framework density 19.674603999999999
#
# number of rings (size 3 to 8) (size 9 to 14) (size 15 to 20)
#    0.000    2.250    0.000    2.625    0.000    7.000 
#    0.000   10.625    0.000    0.000    0.000    0.000 
#    0.000    0.000    0.000    0.000    0.000    0.000 
#
# Total GULP energy -793324.946087 kJ/mol
# GULP energy per Si atom -12395.702283 kJ/mol
# Density = 1.962982 g / cm^3
# Si number density = 19.674604 Si / 1000 Ang^3
#
#
#
# Elastic Constant Matrix: (Units=GPa)
#
#
# Indices 1 2 3 4 5 6 
#
# 1 84.3058 23.9258 41.0546 0.0000 0.0000 0.0000
# 2 23.9258 42.7464 25.5414 0.0000 0.0000 0.0000
# 3 41.0546 25.5414 137.0781 0.0000 0.0000 0.0000
# 4 0.0000 0.0000 0.0000 31.9895 0.0000 0.0000
# 5 0.0000 0.0000 0.0000 0.0000 23.5646 0.0000
# 6 0.0000 0.0000 0.0000 0.0000 0.0000 29.6724
#
#
#
# Elastic Compliance Matrix: (Units=1/GPa)
#
#
# Indices 1 2 3 4 5 6 
#
# 1 0.015376 -0.006588 -0.003378 0.000000 0.000000 0.000000
# 2 -0.006588 0.029147 -0.003458 0.000000 0.000000 0.000000
# 3 -0.003378 -0.003458 0.008951 0.000000 0.000000 0.000000
# 4 0.000000 0.000000 0.000000 0.031260 0.000000 0.000000
# 5 0.000000 0.000000 0.000000 0.000000 0.042437 0.000000
# 6 0.000000 0.000000 0.000000 0.000000 0.000000 0.033701
#
#
# Mechanical properties :
#
#
# Convention : Reuss Voigt Hill
#
# Bulk Modulus (GPa) = 37.55530 49.46377 43.50954
# Shear Modulus (GPa) = 25.43298 28.61921 27.02609
#
# Velocity S-wave (km/s) = 3.59929 3.81809 3.71030
# Velocity P-wave (km/s) = 6.03347 6.68077 6.36535
#
# Compressibility (1/GPa) = 0.02662740
#
# Stress axis : x y z
#
# Youngs Moduli (GPa) = 65.03631 34.30849 111.71974
#
# Poissons Ratio (x) = 0.22603 0.37734
# Poissons Ratio (y) = 0.42846 0.38631
# Poissons Ratio (z) = 0.21966 0.11863
#
# Static dielectric constant tensor:
#      x y z
#    x 3.102130 0.000000 0.000000 
#    y 0.000000 3.116910 0.000000 
#    z 0.000000 0.000000 3.767310 
# 
# 
# High freq. dielectric constant tensor:
#      x y z
#    x 1.764810 0.000000 0.000000 
#    y 0.000000 1.747130 0.000000 
#    z 0.000000 0.000000 1.782560 
# 
# From -- ./inp_files/27716.got.cif
#   From: 2010.03.12/outbox.cif.g09.slc.cpg/sg62_14_cif.got.tgz:27716.got - 2010.04.10 19:12:36.
