data_PCOD8252472
_publ_section_title
;
Structure prediction by ZEFSAII (Michael W. Deem and Ramdas Pophale) SiO2 
 PCOD8252472
Probable space group: P N M A
;
_chemical_formula_sum "Si O2"
_cell_formula_units_Z 64
_cell_length_a 14.988518
_cell_length_b 9.220945
_cell_length_c 23.934864
_cell_angle_alpha 90.000000
_cell_angle_beta 90.000000
_cell_angle_gamma 90.000000
_cell_volume 3307.996867
_symmetry_space_group_name_H-M "P N M A"
_symmetry_group_IT_number 62
_symmetry_cell_setting 'orthorhombic'
loop_
_space_group_symop_operation_xyz
x,y,z
1/2-x,-y,1/2+z
1/2+x,1/2-y,1/2-z
-x,1/2+y,-z
-x,-y,-z
1/2+x,y,1/2-z
1/2-x,1/2+y,1/2+z
x,1/2-y,z
loop_
_atom_site_type_symbol
_atom_site_label
_atom_site_fract_x
_atom_site_fract_y
_atom_site_fract_z
Si Si1 0.467907 0.418086 0.054506
Si Si2 0.518082 0.910937 0.556201
Si Si3 0.371842 0.421184 0.702095
Si Si4 0.304561 0.917311 0.033455
Si Si5 0.761392 0.419463 0.692011
Si Si6 0.067234 0.080223 0.838663
Si Si7 0.675514 0.409103 0.401294
Si Si8 0.152421 0.412077 0.404663
O O1 0.449876 0.250000 0.040143
O O2 0.377350 0.499367 0.072606
O O3 0.545041 0.432183 0.101393
O O4 0.500000 0.500000 0.000000
O O5 0.559978 0.750000 0.543016
O O6 0.427021 0.884663 0.587772
O O7 0.500000 0.000000 0.500000
O O8 0.577435 0.998411 0.601484
O O9 0.358214 0.250000 0.694960
O O10 0.326235 0.479830 0.759214
O O11 0.477721 0.461283 0.696801
O O12 0.312952 0.501363 0.655572
O O13 0.304123 0.750000 0.050557
O O14 0.211776 0.994045 0.047658
O O15 0.320792 0.940705 0.968415
O O16 0.773309 0.250000 0.690282
O O17 0.655674 0.459310 0.698111
O O18 0.795899 0.476404 0.633161
O O19 0.064824 0.250000 0.853199
O O20 0.722054 0.250000 0.396928
O O21 0.179704 0.250000 0.386741
#
# Coordination Sequence:
#
# PCOD8252472 Si02
#       8
#     8   8   8   8   8   8   8   8
#     4   9  17  32  51  73 106 145 183 223 272 325
#     4  10  21  35  54  82 114 148 185 225 279 340
#     4   9  19  39  59  77 108 146 186 235 283 331
#     4  10  20  34  54  81 112 149 187 225 279 337
#     4  10  21  36  58  85 111 146 191 237 285 337
#     4   9  19  37  58  80 111 147 186 234 286 338
#     4  10  21  36  55  80 109 144 185 231 279 334
#     4   9  20  35  52  79 114 147 181 227 282 333
#
# _framework density 19.347055999999998
#
# number of rings (size 3 to 8) (size 9 to 14) (size 15 to 20)
#    0.000    2.500    0.000    2.250    1.750    5.500 
#    2.250    0.000    0.000    0.000    0.000    0.000 
#    0.000    0.000    0.000    0.000    0.000    0.000 
#
# Total GULP energy -793040.286060 kJ/mol
# GULP energy per Si atom -12391.254470 kJ/mol
# Density = 1.930302 g / cm^3
# Si number density = 19.347056 Si / 1000 Ang^3
#
#
#
# Elastic Constant Matrix: (Units=GPa)
#
#
# Indices 1 2 3 4 5 6 
#
# 1 59.8748 32.5132 45.7854 0.0000 0.0000 0.0000
# 2 32.5132 87.3123 41.4010 0.0000 0.0000 0.0000
# 3 45.7854 41.4010 81.7315 0.0000 0.0000 0.0000
# 4 0.0000 0.0000 0.0000 27.9794 0.0000 0.0000
# 5 0.0000 0.0000 0.0000 0.0000 26.4397 0.0000
# 6 0.0000 0.0000 0.0000 0.0000 0.0000 28.5460
#
#
#
# Elastic Compliance Matrix: (Units=1/GPa)
#
#
# Indices 1 2 3 4 5 6 
#
# 1 0.030380 -0.004268 -0.014856 0.000000 0.000000 0.000000
# 2 -0.004268 0.015673 -0.005548 0.000000 0.000000 0.000000
# 3 -0.014856 -0.005548 0.023368 0.000000 0.000000 0.000000
# 4 0.000000 0.000000 0.000000 0.035741 0.000000 0.000000
# 5 0.000000 0.000000 0.000000 0.000000 0.037822 0.000000
# 6 0.000000 0.000000 0.000000 0.000000 0.000000 0.035031
#
#
# Mechanical properties :
#
#
# Convention : Reuss Voigt Hill
#
# Bulk Modulus (GPa) = 49.81243 52.03530 50.92386
# Shear Modulus (GPa) = 21.36272 23.87428 22.61850
#
# Velocity S-wave (km/s) = 3.32653 3.51665 3.42291
# Velocity P-wave (km/s) = 6.36844 6.59114 6.48075
#
# Compressibility (1/GPa) = 0.02007531
#
# Stress axis : x y z
#
# Youngs Moduli (GPa) = 32.91671 63.80240 42.79336
#
# Poissons Ratio (x) = 0.27232 0.63576
# Poissons Ratio (y) = 0.14050 0.23743
# Poissons Ratio (z) = 0.48902 0.35400
#
# Static dielectric constant tensor:
#      x y z
#    x 3.289850 0.000000 0.000000 
#    y 0.000000 3.907840 0.000000 
#    z 0.000000 0.000000 3.324830 
# 
# 
# High freq. dielectric constant tensor:
#      x y z
#    x 1.758360 0.000000 0.000000 
#    y 0.000000 1.761180 0.000000 
#    z 0.000000 0.000000 1.721790 
# 
# From -- ./inp_files/29938.got.cif
#   From: 2010.03.12/outbox.cif.g09.slc.cpg/sg62_15_cif.got.tgz:29938.got - 2010.04.10 19:12:36.
