data_PCOD8252296
_publ_section_title
;
Structure prediction by ZEFSAII (Michael W. Deem and Ramdas Pophale) SiO2 
 PCOD8252296
Probable space group: P N M A
;
_chemical_formula_sum "Si O2"
_cell_formula_units_Z 48
_cell_length_a 9.971406
_cell_length_b 8.577445
_cell_length_c 29.638278
_cell_angle_alpha 90.000000
_cell_angle_beta 90.000000
_cell_angle_gamma 90.000000
_cell_volume 2534.937808
_symmetry_space_group_name_H-M "P N M A"
_symmetry_group_IT_number 62
_symmetry_cell_setting 'orthorhombic'
loop_
_space_group_symop_operation_xyz
x,y,z
1/2-x,-y,1/2+z
1/2+x,1/2-y,1/2-z
-x,1/2+y,-z
-x,-y,-z
1/2+x,y,1/2-z
1/2-x,1/2+y,1/2+z
x,1/2-y,z
loop_
_atom_site_type_symbol
_atom_site_label
_atom_site_fract_x
_atom_site_fract_y
_atom_site_fract_z
Si Si1 0.343890 0.567272 0.377462
Si Si2 0.379435 0.066853 0.944089
Si Si3 0.124255 0.067709 0.775687
Si Si4 0.838206 0.429890 0.453025
Si Si5 0.338020 0.931559 0.710247
Si Si6 0.641029 0.932812 0.384112
O O1 0.338945 0.750000 0.385135
O O2 0.227981 0.495129 0.408915
O O3 0.319744 0.524326 0.325284
O O4 0.489747 0.505825 0.392918
O O5 0.406863 0.250000 0.937342
O O6 0.516033 0.975540 0.934623
O O7 0.325413 0.032052 0.994133
O O8 0.140240 0.250000 0.765357
O O9 0.209182 0.969351 0.740355
O O10 0.967512 0.025161 0.771937
O O11 0.811391 0.250000 0.442581
O O12 0.727166 0.532351 0.428179
O O13 0.370821 0.750000 0.712657
O O14 0.299332 0.979463 0.659357
O O15 0.640722 0.750000 0.373190
#
# Coordination Sequence:
#
# PCOD8252296 Si02
#       6
#     8   8   8   8   8   8
#     4   8  17  34  56  78 100 133 178 219 255 308
#     4   9  18  35  55  75 104 141 179 220 265 315
#     4  10  20  37  58  80 108 143 181 220 269 327
#     4  10  20  33  51  78 109 139 175 220 268 318
#     4  11  22  37  56  81 111 141 179 227 273 317
#     4  10  20  36  56  77 104 139 178 219 268 326
#
# _framework density 18.935376000000002
#
# number of rings (size 3 to 8) (size 9 to 14) (size 15 to 20)
#    0.000    2.333    0.000    4.000    0.000    2.667 
#    0.000   10.000    0.000    0.000    0.000    0.000 
#    0.000    0.000    0.000    0.000    0.000    0.000 
#
# Total GULP energy -595292.382377 kJ/mol
# GULP energy per Si atom -12401.924633 kJ/mol
# Density = 1.889228 g / cm^3
# Si number density = 18.935376 Si / 1000 Ang^3
#
#
#
# Elastic Constant Matrix: (Units=GPa)
#
#
# Indices 1 2 3 4 5 6 
#
# 1 46.5651 13.8160 18.7731 0.0000 0.0000 0.0000
# 2 13.8160 56.7779 15.5138 0.0000 0.0000 0.0000
# 3 18.7731 15.5138 40.8814 0.0000 0.0000 0.0000
# 4 0.0000 0.0000 0.0000 27.8912 0.0000 0.0000
# 5 0.0000 0.0000 0.0000 0.0000 39.6158 0.0000
# 6 0.0000 0.0000 0.0000 0.0000 0.0000 26.6901
#
#
#
# Elastic Compliance Matrix: (Units=1/GPa)
#
#
# Indices 1 2 3 4 5 6 
#
# 1 0.026980 -0.003548 -0.011043 0.000000 0.000000 0.000000
# 2 -0.003548 0.020116 -0.006005 0.000000 0.000000 0.000000
# 3 -0.011043 -0.006005 0.031811 0.000000 0.000000 0.000000
# 4 0.000000 0.000000 0.000000 0.035854 0.000000 0.000000
# 5 0.000000 0.000000 0.000000 0.000000 0.025242 0.000000
# 6 0.000000 0.000000 0.000000 0.000000 0.000000 0.037467
#
#
# Mechanical properties :
#
#
# Convention : Reuss Voigt Hill
#
# Bulk Modulus (GPa) = 26.51388 26.71447 26.61418
# Shear Modulus (GPa) = 21.62314 25.24753 23.43534
#
# Velocity S-wave (km/s) = 3.38293 3.65547 3.52184
# Velocity P-wave (km/s) = 5.41218 5.65292 5.53386
#
# Compressibility (1/GPa) = 0.03771609
#
# Stress axis : x y z
#
# Youngs Moduli (GPa) = 37.06441 49.71050 31.43583
#
# Poissons Ratio (x) = 0.17636 0.34715
# Poissons Ratio (y) = 0.13150 0.18876
# Poissons Ratio (z) = 0.40931 0.29850
#
# Static dielectric constant tensor:
#      x y z
#    x 3.559880 0.000000 0.000000 
#    y 0.000000 3.331840 0.000000 
#    z 0.000000 0.000000 3.517170 
# 
# 
# High freq. dielectric constant tensor:
#      x y z
#    x 1.738110 0.000000 0.000000 
#    y 0.000000 1.728220 0.000000 
#    z 0.000000 0.000000 1.735330 
# 
# From -- ./inp_files/31962.got.cif
#   From: 2010.03.12/outbox.cif.g09.slc.cpg/sg62_16_cif.got.tgz:31962.got - 2010.04.10 19:12:36.
