data_PCOD8252522
_publ_section_title
;
Structure prediction by ZEFSAII (Michael W. Deem and Ramdas Pophale) SiO2 
 PCOD8252522
Probable space group: P N M A
;
_chemical_formula_sum "Si O2"
_cell_formula_units_Z 56
_cell_length_a 22.046589
_cell_length_b 8.898038
_cell_length_c 14.454038
_cell_angle_alpha 90.000000
_cell_angle_beta 90.000000
_cell_angle_gamma 90.000000
_cell_volume 2835.468678
_symmetry_space_group_name_H-M "P N M A"
_symmetry_group_IT_number 62
_symmetry_cell_setting 'orthorhombic'
loop_
_space_group_symop_operation_xyz
x,y,z
1/2-x,-y,1/2+z
1/2+x,1/2-y,1/2-z
-x,1/2+y,-z
-x,-y,-z
1/2+x,y,1/2-z
1/2-x,1/2+y,1/2+z
x,1/2-y,z
loop_
_atom_site_type_symbol
_atom_site_label
_atom_site_fract_x
_atom_site_fract_y
_atom_site_fract_z
Si Si1 0.339793 0.072988 0.883815
Si Si2 0.310307 0.572121 0.696650
Si Si3 0.020998 0.927543 0.405161
Si Si4 0.194905 0.571469 0.585118
Si Si5 0.069705 0.076383 0.090860
Si Si6 0.555582 0.422335 0.618121
Si Si7 0.082043 0.927436 0.705109
O O1 0.332204 0.250000 0.872859
O O2 0.410116 0.026024 0.884139
O O3 0.305378 0.994469 0.799258
O O4 0.308878 0.015452 0.979126
O O5 0.306007 0.750000 0.703609
O O6 0.255139 0.508153 0.634470
O O7 0.372511 0.520917 0.648527
O O8 0.013832 0.750000 0.413362
O O9 0.000000 0.000000 0.500000
O O10 0.980562 0.992628 0.322753
O O11 0.194674 0.750000 0.587110
O O12 0.136192 0.512666 0.640629
O O13 0.053265 0.250000 0.111586
O O14 0.084922 0.054851 0.982587
O O15 0.014273 0.972395 0.119665
O O16 0.558425 0.250000 0.649552
O O17 0.594750 0.522895 0.689236
O O18 0.074345 0.750000 0.697185
#
# Coordination Sequence:
#
# PCOD8252522 Si02
#       7
#     8   8   8   8   8   8   8
#     4  10  21  39  59  82 114 150 185 229 288 342
#     4  10  21  38  60  82 107 147 194 235 276 336
#     4  11  21  35  58  87 116 150 187 233 289 344
#     4   9  20  39  57  76 109 150 186 223 277 337
#     4   9  19  36  56  80 110 146 185 228 284 339
#     4  10  20  34  55  84 113 143 183 233 281 335
#     4  11  21  36  56  81 114 153 187 228 287 343
#
# _framework density 19.749821000000001
#
# number of rings (size 3 to 8) (size 9 to 14) (size 15 to 20)
#    0.000    2.000    1.429    2.143    0.000    5.714 
#    0.000    3.571    0.000    0.000    0.000    0.000 
#    0.000    0.000    0.000    0.000    0.000    0.000 
#
# Total GULP energy -694545.910665 kJ/mol
# GULP energy per Si atom -12402.605548 kJ/mol
# Density = 1.970487 g / cm^3
# Si number density = 19.749821 Si / 1000 Ang^3
#
#
#
# Elastic Constant Matrix: (Units=GPa)
#
#
# Indices 1 2 3 4 5 6 
#
# 1 90.7805 24.9550 60.9396 0.0000 0.0000 0.0000
# 2 24.9550 44.4064 29.2065 0.0000 0.0000 0.0000
# 3 60.9396 29.2065 149.5419 0.0000 0.0000 0.0000
# 4 0.0000 0.0000 0.0000 38.4764 0.0000 0.0000
# 5 0.0000 0.0000 0.0000 0.0000 33.5787 0.0000
# 6 0.0000 0.0000 0.0000 0.0000 0.0000 20.8511
#
#
#
# Elastic Compliance Matrix: (Units=1/GPa)
#
#
# Indices 1 2 3 4 5 6 
#
# 1 0.016248 -0.005480 -0.005551 0.000000 0.000000 0.000000
# 2 -0.005480 0.027687 -0.003174 0.000000 0.000000 0.000000
# 3 -0.005551 -0.003174 0.009569 0.000000 0.000000 0.000000
# 4 0.000000 0.000000 0.000000 0.025990 0.000000 0.000000
# 5 0.000000 0.000000 0.000000 0.000000 0.029781 0.000000
# 6 0.000000 0.000000 0.000000 0.000000 0.000000 0.047959
#
#
# Mechanical properties :
#
#
# Convention : Reuss Voigt Hill
#
# Bulk Modulus (GPa) = 39.85108 57.21457 48.53282
# Shear Modulus (GPa) = 25.77200 29.88975 27.83087
#
# Velocity S-wave (km/s) = 3.61629 3.89449 3.75796
# Velocity P-wave (km/s) = 6.13665 7.01821 6.59218
#
# Compressibility (1/GPa) = 0.02509342
#
# Stress axis : x y z
#
# Youngs Moduli (GPa) = 61.54470 36.11856 104.50276
#
# Poissons Ratio (x) = 0.19793 0.58010
# Poissons Ratio (y) = 0.33727 0.33171
# Poissons Ratio (z) = 0.34164 0.11465
#
# Static dielectric constant tensor:
#      x y z
#    x 3.649400 0.000000 0.000000 
#    y 0.000000 3.386950 0.000000 
#    z 0.000000 0.000000 4.021320 
# 
# 
# High freq. dielectric constant tensor:
#      x y z
#    x 1.759300 0.000000 0.000000 
#    y 0.000000 1.752480 0.000000 
#    z 0.000000 0.000000 1.789890 
# 
# From -- ./inp_files/20445.got.cif
#   From: 2010.03.12/outbox.cif.g09.slc.cpg/sg62_11_cif.got.tgz:20445.got - 2010.04.10 19:12:36.
