data_PCOD8252701
_publ_section_title
;
Structure prediction by ZEFSAII (Michael W. Deem and Ramdas Pophale) SiO2 
 PCOD8252701
Probable space group: P N M A
;
_chemical_formula_sum "Si O2"
_cell_formula_units_Z 48
_cell_length_a 14.138393
_cell_length_b 12.644198
_cell_length_c 14.743377
_cell_angle_alpha 90.000000
_cell_angle_beta 90.000000
_cell_angle_gamma 90.000000
_cell_volume 2635.653463
_symmetry_space_group_name_H-M "P N M A"
_symmetry_group_IT_number 62
_symmetry_cell_setting 'orthorhombic'
loop_
_space_group_symop_operation_xyz
x,y,z
1/2-x,-y,1/2+z
1/2+x,1/2-y,1/2-z
-x,1/2+y,-z
-x,-y,-z
1/2+x,y,1/2-z
1/2-x,1/2+y,1/2+z
x,1/2-y,z
loop_
_atom_site_type_symbol
_atom_site_label
_atom_site_fract_x
_atom_site_fract_y
_atom_site_fract_z
Si Si1 0.144129 0.942687 0.005625
Si Si2 0.840192 0.872005 0.548719
Si Si3 0.913394 0.629605 0.355312
Si Si4 0.429964 0.974549 0.782988
Si Si5 0.201441 0.867402 0.196155
Si Si6 0.039321 0.128582 0.091702
O O1 0.151723 0.876468 0.098237
O O2 0.112248 0.062380 0.029309
O O3 0.245359 0.943652 0.954908
O O4 0.067652 0.887373 0.941426
O O5 0.807653 0.750000 0.549194
O O6 0.906651 0.894606 0.462283
O O7 0.903058 0.896326 0.636079
O O8 0.948071 0.750000 0.338820
O O9 0.812229 0.610673 0.309942
O O10 0.982540 0.548107 0.308017
O O11 0.456243 0.905019 0.696326
O O12 0.339833 0.048569 0.765981
O O13 0.181564 0.750000 0.233175
O O14 0.069784 0.250000 0.082543
#
# Coordination Sequence:
#
# PCOD8252701 Si02
#       6
#     8   8   8   8   8   8
#     4   9  19  36  58  75 102 149 185 215 266 328
#     4  10  20  36  56  76 107 150 184 216 268 332
#     4   9  19  36  54  74 105 145 187 222 262 324
#     4  11  21  31  55  82 114 137 177 226 281 322
#     4   9  18  34  54  77 104 140 184 226 266 319
#     4  10  20  35  55  83 111 136 179 231 274 317
#
# _framework density 18.211803
#
# number of rings (size 3 to 8) (size 9 to 14) (size 15 to 20)
#    0.000    2.333    0.000    4.000    2.333    0.000 
#    0.000    2.500    0.000    6.000    0.000    0.000 
#    0.000    0.000    0.000    0.000    0.000    0.000 
#
# Total GULP energy -595256.692376 kJ/mol
# GULP energy per Si atom -12401.181091 kJ/mol
# Density = 1.817035 g / cm^3
# Si number density = 18.211803 Si / 1000 Ang^3
#
#
#
# Elastic Constant Matrix: (Units=GPa)
#
#
# Indices 1 2 3 4 5 6 
#
# 1 71.6160 46.7486 30.6495 0.0000 0.0000 0.0000
# 2 46.7486 111.4488 42.3300 0.0000 0.0000 0.0000
# 3 30.6495 42.3300 62.8068 0.0000 0.0000 0.0000
# 4 0.0000 0.0000 0.0000 24.0527 0.0000 0.0000
# 5 0.0000 0.0000 0.0000 0.0000 28.7636 0.0000
# 6 0.0000 0.0000 0.0000 0.0000 0.0000 26.0265
#
#
#
# Elastic Compliance Matrix: (Units=1/GPa)
#
#
# Indices 1 2 3 4 5 6 
#
# 1 0.020640 -0.006495 -0.005695 0.000000 0.000000 0.000000
# 2 -0.006495 0.014104 -0.006336 0.000000 0.000000 0.000000
# 3 -0.005695 -0.006336 0.022971 0.000000 0.000000 0.000000
# 4 0.000000 0.000000 0.000000 0.041575 0.000000 0.000000
# 5 0.000000 0.000000 0.000000 0.000000 0.034766 0.000000
# 6 0.000000 0.000000 0.000000 0.000000 0.000000 0.038422
#
#
# Mechanical properties :
#
#
# Convention : Reuss Voigt Hill
#
# Bulk Modulus (GPa) = 48.39463 53.92532 51.15997
# Shear Modulus (GPa) = 23.10340 24.17814 23.64077
#
# Velocity S-wave (km/s) = 3.56560 3.64759 3.60683
# Velocity P-wave (km/s) = 6.60168 6.88580 6.74524
#
# Compressibility (1/GPa) = 0.02066345
#
# Stress axis : x y z
#
# Youngs Moduli (GPa) = 48.44905 70.90426 43.53255
#
# Poissons Ratio (x) = 0.46050 0.24792
# Poissons Ratio (y) = 0.31466 0.27582
# Poissons Ratio (z) = 0.27592 0.44925
#
# Static dielectric constant tensor:
#      x y z
#    x 3.279300 0.000000 0.000000 
#    y 0.000000 3.329710 0.000000 
#    z 0.000000 0.000000 3.347460 
# 
# 
# High freq. dielectric constant tensor:
#      x y z
#    x 1.703250 0.000000 0.000000 
#    y 0.000000 1.705620 0.000000 
#    z 0.000000 0.000000 1.705070 
# 
# From -- ./inp_files/18901.got.cif
#   From: 2010.03.12/outbox.cif.g09.slc.cpg/sg62_10_cif.got.tgz:18901.got - 2010.04.10 19:12:36.
