data_PCOD8252314
_publ_section_title
;
Structure prediction by ZEFSAII (Michael W. Deem and Ramdas Pophale) SiO2 
 PCOD8252314
Probable space group: P N M A
;
_chemical_formula_sum "Si O2"
_cell_formula_units_Z 48
_cell_length_a 8.963398
_cell_length_b 9.041302
_cell_length_c 30.596398
_cell_angle_alpha 90.000000
_cell_angle_beta 90.000000
_cell_angle_gamma 90.000000
_cell_volume 2479.556212
_symmetry_space_group_name_H-M "P N M A"
_symmetry_group_IT_number 62
_symmetry_cell_setting 'orthorhombic'
loop_
_space_group_symop_operation_xyz
x,y,z
1/2-x,-y,1/2+z
1/2+x,1/2-y,1/2-z
-x,1/2+y,-z
-x,-y,-z
1/2+x,y,1/2-z
1/2-x,1/2+y,1/2+z
x,1/2-y,z
loop_
_atom_site_type_symbol
_atom_site_label
_atom_site_fract_x
_atom_site_fract_y
_atom_site_fract_z
Si Si1 0.693718 0.918704 0.876550
Si Si2 0.391539 0.076280 0.861058
Si Si3 0.335170 0.086135 0.955203
Si Si4 0.690261 0.075200 0.721353
Si Si5 0.189486 0.085904 0.537499
Si Si6 0.880791 0.579592 0.792546
O O1 0.651743 0.750000 0.886819
O O2 0.828524 0.931178 0.842527
O O3 0.548536 0.994868 0.855768
O O4 0.749676 0.993225 0.921406
O O5 0.426867 0.250000 0.863440
O O6 0.306443 0.027278 0.905811
O O7 0.288869 0.033757 0.820558
O O8 0.268537 0.250000 0.961204
O O9 0.511982 0.088796 0.961725
O O10 0.256410 0.983521 0.991403
O O11 0.691623 0.250000 0.731134
O O12 0.523279 0.023484 0.712908
O O13 0.750400 0.984831 0.762395
O O14 0.256897 0.250000 0.540633
O O15 0.914657 0.750000 0.779788
#
# Coordination Sequence:
#
# PCOD8252314 Si02
#       6
#     8   8   8   8   8   8
#     4  10  20  33  52  77 106 142 179 216 262 314
#     4   9  19  34  53  79 108 138 175 219 264 311
#     4   8  14  26  44  69 103 137 169 210 260 310
#     4  11  23  39  60  83 107 139 179 221 267 319
#     4   9  16  26  44  72 104 136 173 217 260 304
#     4  11  24  40  57  80 110 142 177 219 269 322
#
# _framework density 19.358302999999999
#
# number of rings (size 3 to 8) (size 9 to 14) (size 15 to 20)
#    0.000    2.333    0.000    4.000    0.000   10.667 
#    0.000    0.000    0.000    1.000    0.000    0.000 
#    0.000    0.000    0.000    0.000    0.000    0.000 
#
# Total GULP energy -595185.655239 kJ/mol
# GULP energy per Si atom -12399.701151 kJ/mol
# Density = 1.931424 g / cm^3
# Si number density = 19.358303 Si / 1000 Ang^3
#
#
#
# Elastic Constant Matrix: (Units=GPa)
#
#
# Indices 1 2 3 4 5 6 
#
# 1 31.9444 10.4763 -3.9899 0.0000 0.0000 0.0000
# 2 10.4763 84.4433 34.7442 0.0000 0.0000 0.0000
# 3 -3.9899 34.7442 81.8337 0.0000 0.0000 0.0000
# 4 0.0000 0.0000 0.0000 34.9844 0.0000 0.0000
# 5 0.0000 0.0000 0.0000 0.0000 18.5986 0.0000
# 6 0.0000 0.0000 0.0000 0.0000 0.0000 24.6666
#
#
#
# Elastic Compliance Matrix: (Units=1/GPa)
#
#
# Indices 1 2 3 4 5 6 
#
# 1 0.033756 -0.005895 0.004149 0.000000 0.000000 0.000000
# 2 -0.005895 0.015378 -0.006817 0.000000 0.000000 0.000000
# 3 0.004149 -0.006817 0.015316 0.000000 0.000000 0.000000
# 4 0.000000 0.000000 0.000000 0.028584 0.000000 0.000000
# 5 0.000000 0.000000 0.000000 0.000000 0.053767 0.000000
# 6 0.000000 0.000000 0.000000 0.000000 0.000000 0.040541
#
#
# Mechanical properties :
#
#
# Convention : Reuss Voigt Hill
#
# Bulk Modulus (GPa) = 21.13059 31.18694 26.15876
# Shear Modulus (GPa) = 22.70221 26.11600 24.40910
#
# Velocity S-wave (km/s) = 3.42824 3.67697 3.55478
# Velocity P-wave (km/s) = 5.15846 5.84570 5.51280
#
# Compressibility (1/GPa) = 0.04732476
#
# Stress axis : x y z
#
# Youngs Moduli (GPa) = 29.62459 65.02692 65.28999
#
# Poissons Ratio (x) = 0.38332 -0.27086
# Poissons Ratio (y) = 0.17463 0.44505
# Poissons Ratio (z) = -0.12290 0.44326
#
# Static dielectric constant tensor:
#      x y z
#    x 3.037660 0.000000 0.000000 
#    y 0.000000 3.727660 0.000000 
#    z 0.000000 0.000000 3.912050 
# 
# 
# High freq. dielectric constant tensor:
#      x y z
#    x 1.704780 0.000000 0.000000 
#    y 0.000000 1.763370 0.000000 
#    z 0.000000 0.000000 1.773460 
# 
# From -- ./inp_files/31964.got.cif
#   From: 2010.03.12/outbox.cif.g09.slc.cpg/sg62_16_cif.got.tgz:31964.got - 2010.04.10 19:12:36.
