data_PCOD8252741
_publ_section_title
;
Structure prediction by ZEFSAII (Michael W. Deem and Ramdas Pophale) SiO2 
 PCOD8252741
Probable space group: P N M A
;
_chemical_formula_sum "Si O2"
_cell_formula_units_Z 48
_cell_length_a 18.671522
_cell_length_b 8.851193
_cell_length_c 15.186284
_cell_angle_alpha 90.000000
_cell_angle_beta 90.000000
_cell_angle_gamma 90.000000
_cell_volume 2509.764943
_symmetry_space_group_name_H-M "P N M A"
_symmetry_group_IT_number 62
_symmetry_cell_setting 'orthorhombic'
loop_
_space_group_symop_operation_xyz
x,y,z
1/2-x,-y,1/2+z
1/2+x,1/2-y,1/2-z
-x,1/2+y,-z
-x,-y,-z
1/2+x,y,1/2-z
1/2-x,1/2+y,1/2+z
x,1/2-y,z
loop_
_atom_site_type_symbol
_atom_site_label
_atom_site_fract_x
_atom_site_fract_y
_atom_site_fract_z
Si Si1 0.672129 0.928562 0.491523
Si Si2 0.076991 0.926980 0.659438
Si Si3 0.928431 0.074005 0.654873
Si Si4 0.910489 0.571066 0.837121
Si Si5 0.821582 0.075528 0.497112
Si Si6 0.429119 0.072168 0.356085
O O1 0.664615 0.750000 0.485231
O O2 0.622031 0.998221 0.569144
O O3 0.649497 0.000519 0.399226
O O4 0.753267 0.971296 0.512595
O O5 0.057490 0.750000 0.655026
O O6 0.143023 0.967093 0.596472
O O7 0.098329 0.975505 0.758898
O O8 0.007190 0.017521 0.628435
O O9 0.931468 0.250000 0.677638
O O10 0.877702 0.038779 0.573114
O O11 0.896790 0.985422 0.738374
O O12 0.903496 0.750000 0.838493
O O13 0.989182 0.516153 0.869230
O O14 0.797975 0.250000 0.498404
O O15 0.426403 0.250000 0.365364
#
# Coordination Sequence:
#
# PCOD8252741 Si02
#       6
#     8   8   8   8   8   8
#     4  11  22  35  53  80 112 143 180 225 271 323
#     4   9  18  36  59  80 105 140 182 223 268 325
#     4  10  20  35  56  83 111 139 180 230 272 316
#     4  10  20  37  59  79 104 142 184 225 275 328
#     4  10  22  37  53  78 114 150 180 216 267 327
#     4   8  17  34  56  80 103 134 177 221 265 317
#
# _framework density 19.125297
#
# number of rings (size 3 to 8) (size 9 to 14) (size 15 to 20)
#    0.000    2.333    0.000    3.500    0.000    3.333 
#    0.000    9.167    0.000    0.000    0.000    0.000 
#    0.000    0.000    0.000    0.000    0.000    0.000 
#
# Total GULP energy -595285.892874 kJ/mol
# GULP energy per Si atom -12401.789435 kJ/mol
# Density = 1.908177 g / cm^3
# Si number density = 19.125297 Si / 1000 Ang^3
#
#
#
# Elastic Constant Matrix: (Units=GPa)
#
#
# Indices 1 2 3 4 5 6 
#
# 1 69.8667 29.2509 35.3221 0.0000 0.0000 0.0000
# 2 29.2509 64.1382 31.4834 0.0000 0.0000 0.0000
# 3 35.3221 31.4834 89.1293 0.0000 0.0000 0.0000
# 4 0.0000 0.0000 0.0000 25.3038 0.0000 0.0000
# 5 0.0000 0.0000 0.0000 0.0000 21.8024 0.0000
# 6 0.0000 0.0000 0.0000 0.0000 0.0000 33.5589
#
#
#
# Elastic Compliance Matrix: (Units=1/GPa)
#
#
# Indices 1 2 3 4 5 6 
#
# 1 0.019778 -0.006257 -0.005628 0.000000 0.000000 0.000000
# 2 -0.006257 0.020842 -0.004882 0.000000 0.000000 0.000000
# 3 -0.005628 -0.004882 0.015174 0.000000 0.000000 0.000000
# 4 0.000000 0.000000 0.000000 0.039520 0.000000 0.000000
# 5 0.000000 0.000000 0.000000 0.000000 0.045867 0.000000
# 6 0.000000 0.000000 0.000000 0.000000 0.000000 0.029798
#
#
# Mechanical properties :
#
#
# Convention : Reuss Voigt Hill
#
# Bulk Modulus (GPa) = 44.92473 46.13855 45.53164
# Shear Modulus (GPa) = 23.59238 24.60487 24.09863
#
# Velocity S-wave (km/s) = 3.51603 3.59069 3.55355
# Velocity P-wave (km/s) = 6.32645 6.43175 6.37932
#
# Compressibility (1/GPa) = 0.02225945
#
# Stress axis : x y z
#
# Youngs Moduli (GPa) = 50.56142 47.98099 65.90040
#
# Poissons Ratio (x) = 0.30024 0.37087
# Poissons Ratio (y) = 0.31639 0.32173
# Poissons Ratio (z) = 0.28454 0.23425
#
# Static dielectric constant tensor:
#      x y z
#    x 3.447680 0.000000 0.000000 
#    y 0.000000 3.353450 0.000000 
#    z 0.000000 0.000000 3.794040 
# 
# 
# High freq. dielectric constant tensor:
#      x y z
#    x 1.736590 0.000000 0.000000 
#    y 0.000000 1.732110 0.000000 
#    z 0.000000 0.000000 1.757370 
# 
# From -- ./inp_files/19542.got.cif
#   From: 2010.03.12/outbox.cif.g09.slc.cpg/sg62_10_cif.got.tgz:19542.got - 2010.04.10 19:12:36.
