data_PCOD8252108
_publ_section_title
;
Structure prediction by ZEFSAII (Michael W. Deem and Ramdas Pophale) SiO2 
 PCOD8252108
Probable space group: P N M A
;
_chemical_formula_sum "Si O2"
_cell_formula_units_Z 44
_cell_length_a 5.083553
_cell_length_b 24.077496
_cell_length_c 16.675931
_cell_angle_alpha 90.000000
_cell_angle_beta 90.000000
_cell_angle_gamma 90.000000
_cell_volume 2041.121064
_symmetry_space_group_name_H-M "P N M A"
_symmetry_group_IT_number 62
_symmetry_cell_setting 'orthorhombic'
loop_
_space_group_symop_operation_xyz
x,y,z
1/2-x,-y,1/2+z
1/2+x,1/2-y,1/2-z
-x,1/2+y,-z
-x,-y,-z
1/2+x,y,1/2-z
1/2-x,1/2+y,1/2+z
x,1/2-y,z
loop_
_atom_site_type_symbol
_atom_site_label
_atom_site_fract_x
_atom_site_fract_y
_atom_site_fract_z
Si Si1 0.982183 0.913834 0.431078
Si Si2 0.994894 0.186701 0.091876
Si Si3 0.037596 0.004704 0.302434
Si Si4 0.498304 0.250000 0.701833
Si Si5 0.517487 0.884483 0.889392
Si Si6 0.972463 0.846083 0.085247
O O1 0.047677 0.916960 0.525813
O O2 0.186547 0.870279 0.391890
O O3 0.681666 0.895697 0.419920
O O4 0.018523 0.972508 0.387009
O O5 0.004115 0.250000 0.124192
O O6 0.713408 0.160468 0.110718
O O7 0.218049 0.148935 0.133374
O O8 0.047149 0.187921 0.997079
O O9 0.303486 0.988124 0.257178
O O10 0.031683 0.070109 0.321079
O O11 0.307044 0.250000 0.777970
O O12 0.428868 0.195153 0.652973
#
# Coordination Sequence:
#
# PCOD8252108 Si02
#       6
#     8   8   8   4   8   8
#     4  10  22  39  63  85 115 156 203 249 284 347
#     4  10  19  37  65  89 116 146 197 253 296 342
#     4  12  25  41  62  87 123 160 196 245 306 363
#     4  12  24  34  50  76 122 166 188 234 292 346
#     4  10  22  39  63  92 118 155 199 250 294 350
#     4  10  21  37  55  85 115 149 203 246 280 341
#
# _framework density 21.556782999999999
#
# number of rings (size 3 to 8) (size 9 to 14) (size 15 to 20)
#    0.000    1.455    0.909    4.364    0.000    4.364 
#    0.000    7.273    0.000   10.909    0.000    0.000 
#    0.000    0.000    0.000    0.000    0.000    0.000 
#
# Total GULP energy -545761.316805 kJ/mol
# GULP energy per Si atom -12403.666291 kJ/mol
# Density = 2.150772 g / cm^3
# Si number density = 21.556783 Si / 1000 Ang^3
#
#
#
# Elastic Constant Matrix: (Units=GPa)
#
#
# Indices 1 2 3 4 5 6 
#
# 1 100.3271 13.5203 9.2976 0.0000 0.0000 0.0000
# 2 13.5203 83.9058 11.4859 0.0000 0.0000 0.0000
# 3 9.2976 11.4859 25.0730 0.0000 0.0000 0.0000
# 4 0.0000 0.0000 0.0000 28.8922 0.0000 0.0000
# 5 0.0000 0.0000 0.0000 0.0000 14.7065 0.0000
# 6 0.0000 0.0000 0.0000 0.0000 0.0000 23.0309
#
#
#
# Elastic Compliance Matrix: (Units=1/GPa)
#
#
# Indices 1 2 3 4 5 6 
#
# 1 0.010440 -0.001229 -0.003308 0.000000 0.000000 0.000000
# 2 -0.001229 0.012860 -0.005435 0.000000 0.000000 0.000000
# 3 -0.003308 -0.005435 0.043600 0.000000 0.000000 0.000000
# 4 0.000000 0.000000 0.000000 0.034611 0.000000 0.000000
# 5 0.000000 0.000000 0.000000 0.000000 0.067997 0.000000
# 6 0.000000 0.000000 0.000000 0.000000 0.000000 0.043420
#
#
# Mechanical properties :
#
#
# Convention : Reuss Voigt Hill
#
# Bulk Modulus (GPa) = 21.29724 30.87926 26.08825
# Shear Modulus (GPa) = 20.11866 24.99274 22.55570
#
# Velocity S-wave (km/s) = 3.05829 3.40868 3.23823
# Velocity P-wave (km/s) = 4.72989 5.46332 5.10978
#
# Compressibility (1/GPa) = 0.04695445
#
# Stress axis : x y z
#
# Youngs Moduli (GPa) = 95.78876 77.75879 22.93571
#
# Poissons Ratio (x) = 0.09559 0.07587
# Poissons Ratio (y) = 0.11776 0.12466
# Poissons Ratio (z) = 0.31687 0.42265
#
# Static dielectric constant tensor:
#      x y z
#    x 3.904430 0.000000 0.000000 
#    y 0.000000 3.709260 0.000000 
#    z 0.000000 0.000000 3.678560 
# 
# 
# High freq. dielectric constant tensor:
#      x y z
#    x 1.860430 0.000000 0.000000 
#    y 0.000000 1.845070 0.000000 
#    z 0.000000 0.000000 1.828200 
# 
# From -- ./inp_files/25283.got.cif
#   From: 2010.03.12/outbox.cif.g09.slc.cpg/sg62_13_cif.got.tgz:25283.got - 2010.04.10 19:12:36.
