data_PCOD8252866
_publ_section_title
;
Structure prediction by ZEFSAII (Michael W. Deem and Ramdas Pophale) SiO2 
 PCOD8252866
Probable space group: P N M A
;
_chemical_formula_sum "Si O2"
_cell_formula_units_Z 48
_cell_length_a 11.665835
_cell_length_b 7.662074
_cell_length_c 24.968092
_cell_angle_alpha 90.000000
_cell_angle_beta 90.000000
_cell_angle_gamma 90.000000
_cell_volume 2231.760196
_symmetry_space_group_name_H-M "P N M A"
_symmetry_group_IT_number 62
_symmetry_cell_setting 'orthorhombic'
loop_
_space_group_symop_operation_xyz
x,y,z
1/2-x,-y,1/2+z
1/2+x,1/2-y,1/2-z
-x,1/2+y,-z
-x,-y,-z
1/2+x,y,1/2-z
1/2-x,1/2+y,1/2+z
x,1/2-y,z
loop_
_atom_site_type_symbol
_atom_site_label
_atom_site_fract_x
_atom_site_fract_y
_atom_site_fract_z
Si Si1 0.291126 0.044601 0.568590
Si Si2 0.188495 0.750000 0.285450
Si Si3 0.014768 0.445844 0.134622
Si Si4 0.031751 0.452887 0.560262
Si Si5 0.843469 0.047644 0.046226
Si Si6 0.544130 0.250000 0.712944
Si Si7 0.664227 0.447993 0.130935
O O1 0.310082 0.250000 0.570361
O O2 0.160351 0.989509 0.571849
O O3 0.340786 0.962502 0.512779
O O4 0.350526 0.966004 0.622043
O O5 0.323371 0.750000 0.261423
O O6 0.173532 0.572005 0.318025
O O7 0.074119 0.750000 0.247612
O O8 0.985143 0.250000 0.154091
O O9 0.963213 0.487634 0.075646
O O10 0.962486 0.575311 0.177841
O O11 0.012017 0.250000 0.570048
O O12 0.000000 0.500000 0.500000
O O13 0.961158 0.557218 0.604849
O O14 0.813634 0.250000 0.039035
O O15 0.746253 0.970508 0.085327
O O16 0.698431 0.250000 0.148171
#
# Coordination Sequence:
#
# PCOD8252866 Si02
#       7
#     8   4   8   8   8   4   8
#     4  10  20  35  58  95 142 184 224 274 325 403
#     4  12  28  50  76 104 126 182 234 296 363 414
#     4  11  23  42  67  97 133 178 222 279 344 410
#     4  11  21  34  57  93 139 188 230 273 334 405
#     4   9  18  35  62  95 132 175 220 262 320 400
#     4  12  28  50  76 100 136 174 234 300 361 412
#     4  11  22  42  68  96 133 176 227 280 336 414
#
# _framework density 21.507688000000002
#
# number of rings (size 3 to 8) (size 9 to 14) (size 15 to 20)
#    0.000    1.333    5.000    1.000    0.000    3.333 
#    3.000    0.000    0.000    0.000    0.000    0.000 
#    0.000    0.000    0.000    0.000    0.000    0.000 
#
# Total GULP energy -594678.649722 kJ/mol
# GULP energy per Si atom -12389.138536 kJ/mol
# Density = 2.145874 g / cm^3
# Si number density = 21.507688 Si / 1000 Ang^3
#
#
#
# Elastic Constant Matrix: (Units=GPa)
#
#
# Indices 1 2 3 4 5 6 
#
# 1 139.1458 31.7635 37.8874 0.0000 0.0000 0.0000
# 2 31.7635 83.8810 27.6490 0.0000 0.0000 0.0000
# 3 37.8874 27.6490 54.6829 0.0000 0.0000 0.0000
# 4 0.0000 0.0000 0.0000 23.0449 0.0000 0.0000
# 5 0.0000 0.0000 0.0000 0.0000 38.6664 0.0000
# 6 0.0000 0.0000 0.0000 0.0000 0.0000 17.1642
#
#
#
# Elastic Compliance Matrix: (Units=1/GPa)
#
#
# Indices 1 2 3 4 5 6 
#
# 1 0.009040 -0.001630 -0.005439 0.000000 0.000000 0.000000
# 2 -0.001630 0.014600 -0.006253 0.000000 0.000000 0.000000
# 3 -0.005439 -0.006253 0.025217 0.000000 0.000000 0.000000
# 4 0.000000 0.000000 0.000000 0.043393 0.000000 0.000000
# 5 0.000000 0.000000 0.000000 0.000000 0.025862 0.000000
# 6 0.000000 0.000000 0.000000 0.000000 0.000000 0.058261
#
#
# Mechanical properties :
#
#
# Convention : Reuss Voigt Hill
#
# Bulk Modulus (GPa) = 45.01814 52.47885 48.74850
# Shear Modulus (GPa) = 23.76183 27.80243 25.78213
#
# Velocity S-wave (km/s) = 3.32747 3.59928 3.46604
# Velocity P-wave (km/s) = 5.97824 6.45957 6.22356
#
# Compressibility (1/GPa) = 0.02221327
#
# Stress axis : x y z
#
# Youngs Moduli (GPa) = 110.62161 68.49320 39.65557
#
# Poissons Ratio (x) = 0.11167 0.21569
# Poissons Ratio (y) = 0.18035 0.24795
# Poissons Ratio (z) = 0.60167 0.42826
#
# Static dielectric constant tensor:
#      x y z
#    x 4.349430 0.000000 0.000000 
#    y 0.000000 3.733840 0.000000 
#    z 0.000000 0.000000 3.655000 
# 
# 
# High freq. dielectric constant tensor:
#      x y z
#    x 1.867040 0.000000 0.000000 
#    y 0.000000 1.841830 0.000000 
#    z 0.000000 0.000000 1.804210 
# 
# From -- ./inp_files/29292.got.cif
#   From: 2010.03.12/outbox.cif.g09.slc.cpg/sg62_15_cif.got.tgz:29292.got - 2010.04.10 19:12:36.
