data_PCOD8252584
_publ_section_title
;
Structure prediction by ZEFSAII (Michael W. Deem and Ramdas Pophale) SiO2 
 PCOD8252584
Probable space group: P N M A
;
_chemical_formula_sum "Si O2"
_cell_formula_units_Z 56
_cell_length_a 14.627466
_cell_length_b 9.022920
_cell_length_c 21.049494
_cell_angle_alpha 90.000000
_cell_angle_beta 90.000000
_cell_angle_gamma 90.000000
_cell_volume 2778.163906
_symmetry_space_group_name_H-M "P N M A"
_symmetry_group_IT_number 62
_symmetry_cell_setting 'orthorhombic'
loop_
_space_group_symop_operation_xyz
x,y,z
1/2-x,-y,1/2+z
1/2+x,1/2-y,1/2-z
-x,1/2+y,-z
-x,-y,-z
1/2+x,y,1/2-z
1/2-x,1/2+y,1/2+z
x,1/2-y,z
loop_
_atom_site_type_symbol
_atom_site_label
_atom_site_fract_x
_atom_site_fract_y
_atom_site_fract_z
Si Si1 0.038978 0.920070 0.913663
Si Si2 0.490041 0.576314 0.067836
Si Si3 0.402525 0.082008 0.275463
Si Si4 0.782341 0.921396 0.401320
Si Si5 0.433246 0.922668 0.815598
Si Si6 0.858164 0.923760 0.984254
Si Si7 0.227128 0.575692 0.239042
O O1 0.054668 0.750000 0.932505
O O2 0.039334 0.946475 0.838814
O O3 0.940264 0.974531 0.937799
O O4 0.120677 0.013053 0.945841
O O5 0.510987 0.750000 0.061081
O O6 0.389826 0.546176 0.096173
O O7 0.563655 0.504642 0.116315
O O8 0.500000 0.500000 0.000000
O O9 0.364311 0.250000 0.273755
O O10 0.468759 0.052477 0.216645
O O11 0.319192 0.967953 0.275855
O O12 0.761423 0.750000 0.412281
O O13 0.740494 0.974284 0.334086
O O14 0.736056 0.011226 0.458233
O O15 0.411355 0.750000 0.826120
O O16 0.357109 0.990837 0.769900
O O17 0.846727 0.750000 0.988968
O O18 0.210915 0.750000 0.245333
#
# Coordination Sequence:
#
# PCOD8252584 Si02
#       7
#     8   8   8   8   8   8   8
#     4   9  19  36  55  82 120 156 192 243 302 357
#     4  11  24  44  66  91 124 165 212 261 316 378
#     4  10  21  38  61  87 119 157 198 249 304 363
#     4  10  22  40  61  86 120 160 202 251 310 372
#     4  11  23  41  65  94 126 163 208 261 318 375
#     4  10  20  34  57  86 116 153 200 246 293 359
#     4  11  23  39  62  91 122 159 203 254 312 374
#
# _framework density 20.157197
#
# number of rings (size 3 to 8) (size 9 to 14) (size 15 to 20)
#    0.000    1.714    1.429    2.571    0.000    6.286 
#    0.000    1.429    0.000    0.000    0.000    0.000 
#    0.000    0.000    0.000    0.000    0.000    0.000 
#
# Total GULP energy -694623.940632 kJ/mol
# GULP energy per Si atom -12403.998940 kJ/mol
# Density = 2.011132 g / cm^3
# Si number density = 20.157197 Si / 1000 Ang^3
#
#
#
# Elastic Constant Matrix: (Units=GPa)
#
#
# Indices 1 2 3 4 5 6 
#
# 1 61.1668 45.7493 21.3938 0.0000 0.0000 0.0000
# 2 45.7493 101.4272 54.1482 0.0000 0.0000 0.0000
# 3 21.3938 54.1482 112.3695 0.0000 0.0000 0.0000
# 4 0.0000 0.0000 0.0000 35.7506 0.0000 0.0000
# 5 0.0000 0.0000 0.0000 0.0000 34.7527 0.0000
# 6 0.0000 0.0000 0.0000 0.0000 0.0000 35.1230
#
#
#
# Elastic Compliance Matrix: (Units=1/GPa)
#
#
# Indices 1 2 3 4 5 6 
#
# 1 0.024739 -0.011638 0.000898 0.000000 0.000000 0.000000
# 2 -0.011638 0.018749 -0.006819 0.000000 0.000000 0.000000
# 3 0.000898 -0.006819 0.012014 0.000000 0.000000 0.000000
# 4 0.000000 0.000000 0.000000 0.027972 0.000000 0.000000
# 5 0.000000 0.000000 0.000000 0.000000 0.028775 0.000000
# 6 0.000000 0.000000 0.000000 0.000000 0.000000 0.028471
#
#
# Mechanical properties :
#
#
# Convention : Reuss Voigt Hill
#
# Bulk Modulus (GPa) = 49.05713 57.50510 53.28112
# Shear Modulus (GPa) = 27.37722 31.37008 29.37365
#
# Velocity S-wave (km/s) = 3.68936 3.94924 3.82151
# Velocity P-wave (km/s) = 6.52216 7.02749 6.77953
#
# Compressibility (1/GPa) = 0.02038440
#
# Stress axis : x y z
#
# Youngs Moduli (GPa) = 40.42134 53.33551 83.23534
#
# Poissons Ratio (x) = 0.62074 -0.07476
# Poissons Ratio (y) = 0.47044 0.56758
# Poissons Ratio (z) = -0.03630 0.36370
#
# Static dielectric constant tensor:
#      x y z
#    x 3.549380 0.000000 0.000000 
#    y 0.000000 3.741550 0.000000 
#    z 0.000000 0.000000 3.689890 
# 
# 
# High freq. dielectric constant tensor:
#      x y z
#    x 1.781230 0.000000 0.000000 
#    y 0.000000 1.791310 0.000000 
#    z 0.000000 0.000000 1.793770 
# 
# From -- ./inp_files/27161.got.cif
#   From: 2010.03.12/outbox.cif.g09.slc.cpg/sg62_14_cif.got.tgz:27161.got - 2010.04.10 19:12:36.
