data_PCOD8252173
_publ_section_title
;
Structure prediction by ZEFSAII (Michael W. Deem and Ramdas Pophale) SiO2 
 PCOD8252173
Probable space group: P N M A
;
_chemical_formula_sum "Si O2"
_cell_formula_units_Z 44
_cell_length_a 14.711985
_cell_length_b 7.595015
_cell_length_c 18.932844
_cell_angle_alpha 90.000000
_cell_angle_beta 90.000000
_cell_angle_gamma 90.000000
_cell_volume 2115.513328
_symmetry_space_group_name_H-M "P N M A"
_symmetry_group_IT_number 62
_symmetry_cell_setting 'orthorhombic'
loop_
_space_group_symop_operation_xyz
x,y,z
1/2-x,-y,1/2+z
1/2+x,1/2-y,1/2-z
-x,1/2+y,-z
-x,-y,-z
1/2+x,y,1/2-z
1/2-x,1/2+y,1/2+z
x,1/2-y,z
loop_
_atom_site_type_symbol
_atom_site_label
_atom_site_fract_x
_atom_site_fract_y
_atom_site_fract_z
Si Si1 0.337244 0.250000 0.873234
Si Si2 0.985917 0.250000 0.730037
Si Si3 0.923856 0.047299 0.054539
Si Si4 0.446644 0.947800 0.673202
Si Si5 0.201901 0.250000 0.736758
Si Si6 0.250808 0.549123 0.628244
Si Si7 0.227036 0.456459 0.472632
O O1 0.443027 0.250000 0.848003
O O2 0.259787 0.250000 0.810290
O O3 0.334312 0.425671 0.921382
O O4 0.937664 0.421766 0.762171
O O5 0.092763 0.250000 0.743743
O O6 0.902553 0.250000 0.048136
O O7 0.827181 0.957997 0.040719
O O8 0.962046 0.997647 0.131434
O O9 0.000000 0.000000 0.000000
O O10 0.453740 0.750000 0.702932
O O11 0.360171 0.964695 0.620846
O O12 0.222354 0.427253 0.693460
O O13 0.220773 0.750000 0.644783
O O14 0.204421 0.484290 0.555514
O O15 0.215304 0.250000 0.453220
#
# Coordination Sequence:
#
# PCOD8252173 Si02
#       7
#     4   4   8   8   4   8   8
#     4  12  26  44  66 102 135 170 219 285 337 383
#     4  12  26  44  68  94 130 177 227 275 331 392
#     4  10  20  29  53  95 128 163 200 253 326 400
#     4  10  21  38  62  94 132 168 215 266 334 401
#     4  12  26  46  70  98 135 181 228 270 334 401
#     4  11  21  40  70  97 128 181 222 266 331 406
#     4  11  23  39  64  96 139 172 217 274 337 392
#
# _framework density 20.798732999999999
#
# number of rings (size 3 to 8) (size 9 to 14) (size 15 to 20)
#    0.000    1.091    5.455    1.091    2.545    2.182 
#    0.000    0.909    0.000    0.000    0.000    0.000 
#    0.000    0.000    0.000    0.000    0.000    0.000 
#
# Total GULP energy -545245.705347 kJ/mol
# GULP energy per Si atom -12391.947849 kJ/mol
# Density = 2.075139 g / cm^3
# Si number density = 20.798733 Si / 1000 Ang^3
#
#
#
# Elastic Constant Matrix: (Units=GPa)
#
#
# Indices 1 2 3 4 5 6 
#
# 1 41.1775 12.3686 -0.8981 0.0000 0.0000 0.0000
# 2 12.3686 126.9078 51.0051 0.0000 0.0000 0.0000
# 3 -0.8981 51.0051 83.8176 0.0000 0.0000 0.0000
# 4 0.0000 0.0000 0.0000 7236.0583 0.0000 0.0000
# 5 0.0000 0.0000 0.0000 0.0000 24.4191 0.0000
# 6 0.0000 0.0000 0.0000 0.0000 0.0000 24.8993
#
#
#
# Elastic Compliance Matrix: (Units=1/GPa)
#
#
# Indices 1 2 3 4 5 6 
#
# 1 0.025363 -0.003417 0.002351 0.000000 0.000000 0.000000
# 2 -0.003417 0.010891 -0.006664 0.000000 0.000000 0.000000
# 3 0.002351 -0.006664 0.016011 0.000000 0.000000 0.000000
# 4 0.000000 0.000000 0.000000 0.000138 0.000000 0.000000
# 5 0.000000 0.000000 0.000000 0.000000 0.040952 0.000000
# 6 0.000000 0.000000 0.000000 0.000000 0.000000 0.040162
#
#
# Mechanical properties :
#
#
# Convention : Reuss Voigt Hill
#
# Bulk Modulus (GPa) = 27.17019 41.87269 34.52144
# Shear Modulus (GPa) = 31.00881 1469.70383 750.35632
#
# Velocity S-wave (km/s) = 3.86541 26.61138 19.01456
# Velocity P-wave (km/s) = 5.74574 31.05474 22.33171
#
# Compressibility (1/GPa) = 0.03680505
#
# Stress axis : x y z
#
# Youngs Moduli (GPa) = 39.42805 91.81824 62.45654
#
# Poissons Ratio (x) = 0.31372 -0.14683
# Poissons Ratio (y) = 0.13472 0.41622
# Poissons Ratio (z) = -0.09269 0.61189
#
# Static dielectric constant tensor:
#      x y z
#    x 3.621260 0.000000 0.000000 
#    y 0.000000 3.975100 0.000000 
#    z 0.000000 0.000000 3.666740 
# 
# 
# High freq. dielectric constant tensor:
#      x y z
#    x 1.789500 0.000000 0.000000 
#    y 0.000000 1.829430 0.000000 
#    z 0.000000 0.000000 1.805060 
# 
# From -- ./inp_files/23605.got.cif
#   From: 2010.03.12/outbox.cif.g09.slc.cpg/sg62_12_cif.got.tgz:23605.got - 2010.04.10 19:12:36.
