data_PCOD8252561
_publ_section_title
;
Structure prediction by ZEFSAII (Michael W. Deem and Ramdas Pophale) SiO2 
 PCOD8252561
Probable space group: P N M A
;
_chemical_formula_sum "Si O2"
_cell_formula_units_Z 48
_cell_length_a 9.121898
_cell_length_b 22.065209
_cell_length_c 12.125976
_cell_angle_alpha 90.000000
_cell_angle_beta 90.000000
_cell_angle_gamma 90.000000
_cell_volume 2440.675049
_symmetry_space_group_name_H-M "P N M A"
_symmetry_group_IT_number 62
_symmetry_cell_setting 'orthorhombic'
loop_
_space_group_symop_operation_xyz
x,y,z
1/2-x,-y,1/2+z
1/2+x,1/2-y,1/2-z
-x,1/2+y,-z
-x,-y,-z
1/2+x,y,1/2-z
1/2-x,1/2+y,1/2+z
x,1/2-y,z
loop_
_atom_site_type_symbol
_atom_site_label
_atom_site_fract_x
_atom_site_fract_y
_atom_site_fract_z
Si Si1 0.760174 0.991797 0.033994
Si Si2 0.024090 0.437083 0.117539
Si Si3 0.401969 0.050930 0.757457
Si Si4 0.419433 0.181023 0.283799
Si Si5 0.376024 0.681607 0.905185
Si Si6 0.157914 0.089353 0.602856
O O1 0.875356 0.046220 0.054436
O O2 0.710437 0.960561 0.144506
O O3 0.633650 0.025668 0.963324
O O4 0.836166 0.939375 0.962645
O O5 0.041947 0.485248 0.217221
O O6 0.018696 0.367459 0.152545
O O7 0.318225 0.088260 0.661443
O O8 0.534416 0.092425 0.802213
O O9 0.461611 0.250000 0.319022
O O10 0.465250 0.171936 0.154418
O O11 0.249040 0.167408 0.311666
O O12 0.358600 0.750000 0.946312
O O13 0.359431 0.643576 0.016568
#
# Coordination Sequence:
#
# PCOD8252561 Si02
#       6
#     8   8   8   8   8   8
#     4  10  20  35  54  85 117 152 187 236 291 337
#     4  10  20  34  56  84 121 146 190 239 289 342
#     4  11  22  36  57  86 116 154 192 234 290 349
#     4  10  21  37  60  85 113 151 190 236 291 344
#     4  10  22  40  60  85 115 150 193 242 290 342
#     4  11  22  38  58  84 117 152 193 239 288 345
#
# _framework density 19.666689999999999
#
# number of rings (size 3 to 8) (size 9 to 14) (size 15 to 20)
#    0.000    1.667    3.333    1.500    0.000    1.333 
#    0.000    0.833    0.000    1.000    0.000    0.000 
#    0.000    0.000    0.000    0.000    0.000    0.000 
#
# Total GULP energy -594800.784798 kJ/mol
# GULP energy per Si atom -12391.683017 kJ/mol
# Density = 1.962193 g / cm^3
# Si number density = 19.666690 Si / 1000 Ang^3
#
#
#
# Elastic Constant Matrix: (Units=GPa)
#
#
# Indices 1 2 3 4 5 6 
#
# 1 69.1580 33.3104 47.1772 0.0000 0.0000 0.0000
# 2 33.3104 77.9784 38.8219 0.0000 0.0000 0.0000
# 3 47.1772 38.8219 103.0474 0.0000 0.0000 0.0000
# 4 0.0000 0.0000 0.0000 33.5036 0.0000 0.0000
# 5 0.0000 0.0000 0.0000 0.0000 39.2805 0.0000
# 6 0.0000 0.0000 0.0000 0.0000 0.0000 13.2406
#
#
#
# Elastic Compliance Matrix: (Units=1/GPa)
#
#
# Indices 1 2 3 4 5 6 
#
# 1 0.022858 -0.005606 -0.008353 0.000000 0.000000 0.000000
# 2 -0.005606 0.017159 -0.003898 0.000000 0.000000 0.000000
# 3 -0.008353 -0.003898 0.014997 0.000000 0.000000 0.000000
# 4 0.000000 0.000000 0.000000 0.029848 0.000000 0.000000
# 5 0.000000 0.000000 0.000000 0.000000 0.025458 0.000000
# 6 0.000000 0.000000 0.000000 0.000000 0.000000 0.075525
#
#
# Mechanical properties :
#
#
# Convention : Reuss Voigt Hill
#
# Bulk Modulus (GPa) = 51.81190 54.31140 53.06165
# Shear Modulus (GPa) = 21.93060 25.92989 23.93024
#
# Velocity S-wave (km/s) = 3.34295 3.63501 3.49204
# Velocity P-wave (km/s) = 6.42671 6.73005 6.58013
#
# Compressibility (1/GPa) = 0.01930059
#
# Stress axis : x y z
#
# Youngs Moduli (GPa) = 43.74897 58.27700 66.68025
#
# Poissons Ratio (x) = 0.32669 0.55697
# Poissons Ratio (y) = 0.24525 0.25993
# Poissons Ratio (z) = 0.36543 0.22717
#
# Static dielectric constant tensor:
#      x y z
#    x 3.731780 0.000000 0.000000 
#    y 0.000000 3.348060 0.000000 
#    z 0.000000 0.000000 3.702520 
# 
# 
# High freq. dielectric constant tensor:
#      x y z
#    x 1.771130 0.000000 0.000000 
#    y 0.000000 1.738570 0.000000 
#    z 0.000000 0.000000 1.769830 
# 
# From -- ./inp_files/11283.got.cif
#   From: 2010.03.12/outbox.cif.g09.slc.cpg/sg62_6_cif.got.tgz:11283.got - 2010.04.10 19:12:36.
