data_PCOD8252156
_publ_section_title
;
Structure prediction by ZEFSAII (Michael W. Deem and Ramdas Pophale) SiO2 
 PCOD8252156
Probable space group: P N M A
;
_chemical_formula_sum "Si O2"
_cell_formula_units_Z 64
_cell_length_a 15.347953
_cell_length_b 8.883961
_cell_length_c 24.023006
_cell_angle_alpha 90.000000
_cell_angle_beta 90.000000
_cell_angle_gamma 90.000000
_cell_volume 3275.551663
_symmetry_space_group_name_H-M "P N M A"
_symmetry_group_IT_number 62
_symmetry_cell_setting 'orthorhombic'
loop_
_space_group_symop_operation_xyz
x,y,z
1/2-x,-y,1/2+z
1/2+x,1/2-y,1/2-z
-x,1/2+y,-z
-x,-y,-z
1/2+x,y,1/2-z
1/2-x,1/2+y,1/2+z
x,1/2-y,z
loop_
_atom_site_type_symbol
_atom_site_label
_atom_site_fract_x
_atom_site_fract_y
_atom_site_fract_z
Si Si1 0.749682 0.428565 0.926202
Si Si2 0.082737 0.921481 0.763464
Si Si3 0.093121 0.074593 0.494710
Si Si4 0.590792 0.925432 0.235191
Si Si5 0.336422 0.078900 0.379269
Si Si6 0.245440 0.427995 0.195280
Si Si7 0.147557 0.425898 0.370563
Si Si8 0.406343 0.071442 0.493532
O O1 0.746563 0.250000 0.918700
O O2 0.748943 0.505502 0.866349
O O3 0.838408 0.476092 0.958196
O O4 0.664909 0.485181 0.960982
O O5 0.057350 0.750000 0.747032
O O6 0.096257 0.933025 0.829406
O O7 0.167651 0.972960 0.729017
O O8 0.006131 0.038607 0.754692
O O9 0.080736 0.250000 0.503765
O O10 0.125561 0.035485 0.433525
O O11 0.000000 0.000000 0.500000
O O12 0.609413 0.750000 0.240655
O O13 0.661484 0.011347 0.272381
O O14 0.588982 0.978237 0.171192
O O15 0.314883 0.250000 0.396046
O O16 0.244685 0.011140 0.359639
O O17 0.372408 0.002255 0.435089
O O18 0.235646 0.250000 0.191392
O O19 0.135293 0.250000 0.356509
O O20 0.417084 0.250000 0.491512
O O21 0.500000 0.000000 0.500000
#
# Coordination Sequence:
#
# PCOD8252156 Si02
#       8
#     8   8   8   8   8   8   8   8
#     4  10  22  41  61  87 128 165 196 246 312 365
#     4  10  22  41  65  90 117 156 207 256 298 357
#     4  10  22  39  63  90 122 162 204 251 304 362
#     4  12  26  41  61  92 128 161 196 252 315 368
#     4   9  17  37  66  87 109 149 203 253 293 343
#     4  11  24  43  66  89 119 163 211 254 299 363
#     4  10  19  40  67  88 115 159 210 254 299 360
#     4  10  21  38  61  89 119 156 198 243 297 354
#
# _framework density 19.538692999999999
#
# number of rings (size 3 to 8) (size 9 to 14) (size 15 to 20)
#    0.000    1.750    2.500    1.500    3.500    2.500 
#    0.000    0.625    0.000    0.000    0.000    0.000 
#    0.000    0.000    0.000    0.000    0.000    0.000 
#
# Total GULP energy -793483.198141 kJ/mol
# GULP energy per Si atom -12398.174971 kJ/mol
# Density = 1.949422 g / cm^3
# Si number density = 19.538693 Si / 1000 Ang^3
#
#
#
# Elastic Constant Matrix: (Units=GPa)
#
#
# Indices 1 2 3 4 5 6 
#
# 1 127.8701 40.3360 48.4251 0.0000 0.0000 0.0000
# 2 40.3360 55.3607 43.9999 0.0000 0.0000 0.0000
# 3 48.4251 43.9999 130.7773 0.0000 0.0000 0.0000
# 4 0.0000 0.0000 0.0000 31.1973 0.0000 0.0000
# 5 0.0000 0.0000 0.0000 0.0000 29.1058 0.0000
# 6 0.0000 0.0000 0.0000 0.0000 0.0000 31.0906
#
#
#
# Elastic Compliance Matrix: (Units=1/GPa)
#
#
# Indices 1 2 3 4 5 6 
#
# 1 0.010451 -0.006196 -0.001785 0.000000 0.000000 0.000000
# 2 -0.006196 0.028330 -0.007237 0.000000 0.000000 0.000000
# 3 -0.001785 -0.007237 0.010743 0.000000 0.000000 0.000000
# 4 0.000000 0.000000 0.000000 0.032054 0.000000 0.000000
# 5 0.000000 0.000000 0.000000 0.000000 0.034357 0.000000
# 6 0.000000 0.000000 0.000000 0.000000 0.000000 0.032164
#
#
# Mechanical properties :
#
#
# Convention : Reuss Voigt Hill
#
# Bulk Modulus (GPa) = 52.39260 64.39222 58.39241
# Shear Modulus (GPa) = 27.04202 30.36189 28.70195
#
# Velocity S-wave (km/s) = 3.72428 3.94628 3.83689
# Velocity P-wave (km/s) = 6.73548 7.33430 7.04126
#
# Compressibility (1/GPa) = 0.01908666
#
# Stress axis : x y z
#
# Youngs Moduli (GPa) = 95.68526 35.29876 93.08688
#
# Poissons Ratio (x) = 0.21870 0.16619
# Poissons Ratio (y) = 0.59283 0.67370
# Poissons Ratio (z) = 0.17083 0.25547
#
# Static dielectric constant tensor:
#      x y z
#    x 3.677180 0.000000 0.000000 
#    y 0.000000 3.370370 0.000000 
#    z 0.000000 0.000000 3.745290 
# 
# 
# High freq. dielectric constant tensor:
#      x y z
#    x 1.773910 0.000000 0.000000 
#    y 0.000000 1.735880 0.000000 
#    z 0.000000 0.000000 1.778620 
# 
# From -- ./inp_files/29881.got.cif
#   From: 2010.03.12/outbox.cif.g09.slc.cpg/sg62_15_cif.got.tgz:29881.got - 2010.04.10 19:12:36.
