data_PCOD8252869
_publ_section_title
;
Structure prediction by ZEFSAII (Michael W. Deem and Ramdas Pophale) SiO2 
 PCOD8252869
Probable space group: P N M A
;
_chemical_formula_sum "Si O2"
_cell_formula_units_Z 64
_cell_length_a 28.982014
_cell_length_b 8.740890
_cell_length_c 12.836915
_cell_angle_alpha 90.000000
_cell_angle_beta 90.000000
_cell_angle_gamma 90.000000
_cell_volume 3251.957658
_symmetry_space_group_name_H-M "P N M A"
_symmetry_group_IT_number 62
_symmetry_cell_setting 'orthorhombic'
loop_
_space_group_symop_operation_xyz
x,y,z
1/2-x,-y,1/2+z
1/2+x,1/2-y,1/2-z
-x,1/2+y,-z
-x,-y,-z
1/2+x,y,1/2-z
1/2-x,1/2+y,1/2+z
x,1/2-y,z
loop_
_atom_site_type_symbol
_atom_site_label
_atom_site_fract_x
_atom_site_fract_y
_atom_site_fract_z
Si Si1 0.608740 0.070616 0.112149
Si Si2 0.789875 0.926707 0.547865
Si Si3 0.894152 0.570034 0.041148
Si Si4 0.422476 0.075481 0.094747
Si Si5 0.936804 0.931758 0.826951
Si Si6 0.465652 0.568893 0.287194
Si Si7 0.701195 0.427946 0.636098
Si Si8 0.681242 0.576383 0.847869
O O1 0.602903 0.250000 0.095936
O O2 0.662703 0.025181 0.105608
O O3 0.590673 0.014729 0.224014
O O4 0.578518 0.992116 0.021696
O O5 0.777174 0.750000 0.568275
O O6 0.749735 0.039716 0.582886
O O7 0.795759 0.955584 0.425567
O O8 0.900473 0.750000 0.039849
O O9 0.926157 0.504639 0.134493
O O10 0.840872 0.524759 0.059988
O O11 0.909222 0.506435 0.928132
O O12 0.438281 0.250000 0.085687
O O13 0.373442 0.056277 0.150162
O O14 0.458653 0.989732 0.169103
O O15 0.942501 0.750000 0.828045
O O16 0.986408 0.008550 0.831020
O O17 0.465766 0.750000 0.284371
O O18 0.697212 0.250000 0.667219
O O19 0.699765 0.536150 0.735300
O O20 0.695444 0.750000 0.876711
#
# Coordination Sequence:
#
# PCOD8252869 Si02
#       8
#     8   8   8   8   8   8   8   8
#     4   9  20  38  59  81 114 155 191 236 295 351
#     4  10  21  37  57  85 116 151 193 239 292 352
#     4   9  20  37  58  83 116 154 192 234 288 350
#     4  10  20  35  59  85 111 146 192 242 285 337
#     4  10  21  39  59  82 113 153 195 235 286 348
#     4  11  21  36  58  86 116 151 192 238 293 347
#     4  11  21  36  59  87 117 153 192 238 291 350
#     4  10  20  36  57  82 111 147 190 241 292 340
#
# _framework density 19.680453
#
# number of rings (size 3 to 8) (size 9 to 14) (size 15 to 20)
#    0.000    2.000    1.250    2.250    0.000    3.500 
#    0.000    4.375    0.000    0.000    0.000    0.000 
#    0.000    0.000    0.000    0.000    0.000    0.000 
#
# Total GULP energy -793706.272799 kJ/mol
# GULP energy per Si atom -12401.660512 kJ/mol
# Density = 1.963566 g / cm^3
# Si number density = 19.680453 Si / 1000 Ang^3
#
#
#
# Elastic Constant Matrix: (Units=GPa)
#
#
# Indices 1 2 3 4 5 6 
#
# 1 68.1870 19.9984 44.9161 0.0000 0.0000 0.0000
# 2 19.9984 46.1542 25.6074 0.0000 0.0000 0.0000
# 3 44.9161 25.6074 129.0792 0.0000 0.0000 0.0000
# 4 0.0000 0.0000 0.0000 26.3936 0.0000 0.0000
# 5 0.0000 0.0000 0.0000 0.0000 23.3676 0.0000
# 6 0.0000 0.0000 0.0000 0.0000 0.0000 30.2285
#
#
#
# Elastic Compliance Matrix: (Units=1/GPa)
#
#
# Indices 1 2 3 4 5 6 
#
# 1 0.020176 -0.005446 -0.005940 0.000000 0.000000 0.000000
# 2 -0.005446 0.025816 -0.003226 0.000000 0.000000 0.000000
# 3 -0.005940 -0.003226 0.010454 0.000000 0.000000 0.000000
# 4 0.000000 0.000000 0.000000 0.037888 0.000000 0.000000
# 5 0.000000 0.000000 0.000000 0.000000 0.042794 0.000000
# 6 0.000000 0.000000 0.000000 0.000000 0.000000 0.033081
#
#
# Mechanical properties :
#
#
# Convention : Reuss Voigt Hill
#
# Bulk Modulus (GPa) = 36.73679 47.16270 41.94974
# Shear Modulus (GPa) = 23.97972 26.19118 25.08545
#
# Velocity S-wave (km/s) = 3.49442 3.65200 3.57408
# Velocity P-wave (km/s) = 5.91511 6.46522 6.19627
#
# Compressibility (1/GPa) = 0.02722067
#
# Stress axis : x y z
#
# Youngs Moduli (GPa) = 49.56429 38.73497 95.65466
#
# Poissons Ratio (x) = 0.21096 0.56820
# Poissons Ratio (y) = 0.26994 0.30862
# Poissons Ratio (z) = 0.29442 0.12498
#
# Static dielectric constant tensor:
#      x y z
#    x 3.590600 0.000000 0.000000 
#    y 0.000000 3.407350 0.000000 
#    z 0.000000 0.000000 3.690170 
# 
# 
# High freq. dielectric constant tensor:
#      x y z
#    x 1.764900 0.000000 0.000000 
#    y 0.000000 1.757320 0.000000 
#    z 0.000000 0.000000 1.773330 
# 
# From -- ./inp_files/15750.got.cif
#   From: 2010.03.12/outbox.cif.g09.slc.cpg/sg62_8_cif.got.tgz:15750.got - 2010.04.10 19:12:36.
