data_PCOD8252566
_publ_section_title
;
Structure prediction by ZEFSAII (Michael W. Deem and Ramdas Pophale) SiO2 
 PCOD8252566
Probable space group: P N M A
;
_chemical_formula_sum "Si O2"
_cell_formula_units_Z 56
_cell_length_a 15.073886
_cell_length_b 8.915079
_cell_length_c 20.711357
_cell_angle_alpha 90.000000
_cell_angle_beta 90.000000
_cell_angle_gamma 90.000000
_cell_volume 2783.293319
_symmetry_space_group_name_H-M "P N M A"
_symmetry_group_IT_number 62
_symmetry_cell_setting 'orthorhombic'
loop_
_space_group_symop_operation_xyz
x,y,z
1/2-x,-y,1/2+z
1/2+x,1/2-y,1/2-z
-x,1/2+y,-z
-x,-y,-z
1/2+x,y,1/2-z
1/2-x,1/2+y,1/2+z
x,1/2-y,z
loop_
_atom_site_type_symbol
_atom_site_label
_atom_site_fract_x
_atom_site_fract_y
_atom_site_fract_z
Si Si1 0.443652 0.081285 0.447256
Si Si2 0.192600 0.425806 0.165352
Si Si3 0.491676 0.425721 0.307700
Si Si4 0.870410 0.928414 0.300159
Si Si5 0.881258 0.413473 0.529876
Si Si6 0.221282 0.920205 0.031263
Si Si7 0.983575 0.414330 0.403400
O O1 0.479612 0.250000 0.443691
O O2 0.456672 0.011022 0.376394
O O3 0.342743 0.070879 0.469592
O O4 0.500000 0.000000 0.500000
O O5 0.214470 0.250000 0.163900
O O6 0.269861 0.508534 0.206417
O O7 0.187711 0.481947 0.091467
O O8 0.097313 0.457063 0.198898
O O9 0.470780 0.250000 0.299433
O O10 0.436730 0.517210 0.255236
O O11 0.866939 0.750000 0.300669
O O12 0.908172 0.990317 0.367477
O O13 0.841543 0.250000 0.549959
O O14 0.811704 0.522183 0.497497
O O15 0.956296 0.384777 0.476741
O O16 0.924077 0.492203 0.593523
O O17 0.232140 0.750000 0.056244
O O18 0.997809 0.250000 0.369793
#
# Coordination Sequence:
#
# PCOD8252566 Si02
#       7
#     8   8   8   8   8   8   8
#     4  10  21  38  62  92 123 157 198 251 310 364
#     4  11  22  40  67  92 118 161 208 251 304 372
#     4  10  23  44  66  89 122 165 210 256 311 373
#     4  12  25  41  64  92 126 164 208 260 312 373
#     4  10  20  34  56  86 121 160 202 251 303 361
#     4  11  21  34  59  92 125 158 197 251 305 365
#     4  10  20  36  59  85 119 159 201 250 305 363
#
# _framework density 20.120049000000002
#
# number of rings (size 3 to 8) (size 9 to 14) (size 15 to 20)
#    0.000    1.429    2.857    3.000    0.000    3.429 
#    2.571    0.000    0.000    0.000    0.000    0.000 
#    0.000    0.000    0.000    0.000    0.000    0.000 
#
# Total GULP energy -694221.202618 kJ/mol
# GULP energy per Si atom -12396.807190 kJ/mol
# Density = 2.007425 g / cm^3
# Si number density = 20.120049 Si / 1000 Ang^3
#
#
#
# Elastic Constant Matrix: (Units=GPa)
#
#
# Indices 1 2 3 4 5 6 
#
# 1 100.4072 60.8854 51.3734 0.0000 0.0000 0.0000
# 2 60.8854 138.3724 47.7130 0.0000 0.0000 0.0000
# 3 51.3734 47.7130 63.0830 0.0000 0.0000 0.0000
# 4 0.0000 0.0000 0.0000 30.9196 0.0000 0.0000
# 5 0.0000 0.0000 0.0000 0.0000 35.9226 0.0000
# 6 0.0000 0.0000 0.0000 0.0000 0.0000 30.0863
#
#
#
# Elastic Compliance Matrix: (Units=1/GPa)
#
#
# Indices 1 2 3 4 5 6 
#
# 1 0.018579 -0.004001 -0.012104 0.000000 0.000000 0.000000
# 2 -0.004001 0.010638 -0.004788 0.000000 0.000000 0.000000
# 3 -0.012104 -0.004788 0.029330 0.000000 0.000000 0.000000
# 4 0.000000 0.000000 0.000000 0.032342 0.000000 0.000000
# 5 0.000000 0.000000 0.000000 0.000000 0.027838 0.000000
# 6 0.000000 0.000000 0.000000 0.000000 0.000000 0.033238
#
#
# Mechanical properties :
#
#
# Convention : Reuss Voigt Hill
#
# Bulk Modulus (GPa) = 59.65919 69.08958 64.37438
# Shear Modulus (GPa) = 25.08311 28.84508 26.96410
#
# Velocity S-wave (km/s) = 3.53466 3.79046 3.66479
# Velocity P-wave (km/s) = 6.80987 7.31916 7.06910
#
# Compressibility (1/GPa) = 0.01676188
#
# Stress axis : x y z
#
# Youngs Moduli (GPa) = 53.82551 93.99914 34.09440
#
# Poissons Ratio (x) = 0.37611 0.41267
# Poissons Ratio (y) = 0.21537 0.16324
# Poissons Ratio (z) = 0.65148 0.45005
#
# Static dielectric constant tensor:
#      x y z
#    x 3.149420 0.000000 0.000000 
#    y 0.000000 3.946860 0.000000 
#    z 0.000000 0.000000 4.200120 
# 
# 
# High freq. dielectric constant tensor:
#      x y z
#    x 1.787950 0.000000 0.000000 
#    y 0.000000 1.798180 0.000000 
#    z 0.000000 0.000000 1.764640 
# 
# From -- ./inp_files/27220.got.cif
#   From: 2010.03.12/outbox.cif.g09.slc.cpg/sg62_14_cif.got.tgz:27220.got - 2010.04.10 19:12:36.
