data_PCOD8252310
_publ_section_title
;
Structure prediction by ZEFSAII (Michael W. Deem and Ramdas Pophale) SiO2 
 PCOD8252310
Probable space group: P N M A
;
_chemical_formula_sum "Si O2"
_cell_formula_units_Z 48
_cell_length_a 30.324100
_cell_length_b 9.086991
_cell_length_c 9.939991
_cell_angle_alpha 90.000000
_cell_angle_beta 90.000000
_cell_angle_gamma 90.000000
_cell_volume 2739.012468
_symmetry_space_group_name_H-M "P N M A"
_symmetry_group_IT_number 62
_symmetry_cell_setting 'orthorhombic'
loop_
_space_group_symop_operation_xyz
x,y,z
1/2-x,-y,1/2+z
1/2+x,1/2-y,1/2-z
-x,1/2+y,-z
-x,-y,-z
1/2+x,y,1/2-z
1/2-x,1/2+y,1/2+z
x,1/2-y,z
loop_
_atom_site_type_symbol
_atom_site_label
_atom_site_fract_x
_atom_site_fract_y
_atom_site_fract_z
Si Si1 0.714518 0.576617 0.364447
Si Si2 0.124022 0.422522 0.159210
Si Si3 0.215407 0.076798 0.861401
Si Si4 0.957102 0.923265 0.339527
Si Si5 0.453660 0.577879 0.852678
Si Si6 0.882868 0.921692 0.144604
O O1 0.709319 0.750000 0.382235
O O2 0.668672 0.510388 0.311818
O O3 0.730386 0.506487 0.504150
O O4 0.751657 0.534908 0.256809
O O5 0.134499 0.250000 0.173575
O O6 0.087982 0.476340 0.266317
O O7 0.105830 0.459008 0.010174
O O8 0.214835 0.250000 0.893536
O O9 0.166338 0.021449 0.820469
O O10 0.962493 0.750000 0.319353
O O11 0.944243 0.962971 0.492469
O O12 0.919265 0.993048 0.243436
O O13 0.003195 0.996094 0.298284
O O14 0.461668 0.750000 0.832880
O O15 0.884504 0.750000 0.172320
#
# Coordination Sequence:
#
# PCOD8252310 Si02
#       6
#     8   8   8   8   8   8
#     4  10  20  33  52  77 101 129 167 206 244 289
#     4   9  18  33  50  67  94 129 160 195 240 290
#     4   9  19  35  52  72 101 132 162 201 246 293
#     4   9  17  30  48  68  91 120 156 197 236 281
#     4   9  18  31  47  68  93 123 157 192 238 291
#     4   8  15  30  49  66  88 122 158 189 230 283
#
# _framework density 17.524564999999999
#
# number of rings (size 3 to 8) (size 9 to 14) (size 15 to 20)
#    0.000    3.000    0.000    1.500    0.000    4.000 
#    0.000    6.667    0.000    0.000    0.000    0.000 
#    0.000    0.000    0.000    0.000    0.000    0.000 
#
# Total GULP energy -595143.712371 kJ/mol
# GULP energy per Si atom -12398.827341 kJ/mol
# Density = 1.748468 g / cm^3
# Si number density = 17.524565 Si / 1000 Ang^3
#
#
#
# Elastic Constant Matrix: (Units=GPa)
#
#
# Indices 1 2 3 4 5 6 
#
# 1 119.3213 43.9563 81.5573 0.0000 0.0000 0.0000
# 2 43.9563 39.8666 38.6601 0.0000 0.0000 0.0000
# 3 81.5573 38.6601 98.6731 0.0000 0.0000 0.0000
# 4 0.0000 0.0000 0.0000 22.1692 0.0000 0.0000
# 5 0.0000 0.0000 0.0000 0.0000 42.8118 0.0000
# 6 0.0000 0.0000 0.0000 0.0000 0.0000 28.2141
#
#
#
# Elastic Compliance Matrix: (Units=1/GPa)
#
#
# Indices 1 2 3 4 5 6 
#
# 1 0.021700 -0.010536 -0.013808 0.000000 0.000000 0.000000
# 2 -0.010536 0.045569 -0.009146 0.000000 0.000000 0.000000
# 3 -0.013808 -0.009146 0.025130 0.000000 0.000000 0.000000
# 4 0.000000 0.000000 0.000000 0.045108 0.000000 0.000000
# 5 0.000000 0.000000 0.000000 0.000000 0.023358 0.000000
# 6 0.000000 0.000000 0.000000 0.000000 0.000000 0.035443
#
#
# Mechanical properties :
#
#
# Convention : Reuss Voigt Hill
#
# Bulk Modulus (GPa) = 39.33796 65.13427 52.23611
# Shear Modulus (GPa) = 18.39855 24.88485 21.64170
#
# Velocity S-wave (km/s) = 3.24369 3.77237 3.51798
# Velocity P-wave (km/s) = 6.04357 7.49817 6.80982
#
# Compressibility (1/GPa) = 0.02542074
#
# Stress axis : x y z
#
# Youngs Moduli (GPa) = 46.08346 21.94462 39.79239
#
# Poissons Ratio (x) = 0.23121 0.54944
# Poissons Ratio (y) = 0.48553 0.36393
# Poissons Ratio (z) = 0.63631 0.20070
#
# Static dielectric constant tensor:
#      x y z
#    x 3.444810 0.000000 0.000000 
#    y 0.000000 3.052380 0.000000 
#    z 0.000000 0.000000 3.360090 
# 
# 
# High freq. dielectric constant tensor:
#      x y z
#    x 1.682770 0.000000 0.000000 
#    y 0.000000 1.656840 0.000000 
#    z 0.000000 0.000000 1.679150 
# 
# From -- ./inp_files/10206.got.cif
#   From: 2010.03.12/outbox.cif.g09.slc.cpg/sg62_6_cif.got.tgz:10206.got - 2010.04.10 19:12:36.
