data_PCOD8252733
_publ_section_title
;
Structure prediction by ZEFSAII (Michael W. Deem and Ramdas Pophale) SiO2 
 PCOD8252733
Probable space group: P N M A
;
_chemical_formula_sum "Si O2"
_cell_formula_units_Z 56
_cell_length_a 11.709958
_cell_length_b 10.447188
_cell_length_c 23.582433
_cell_angle_alpha 90.000000
_cell_angle_beta 90.000000
_cell_angle_gamma 90.000000
_cell_volume 2884.983653
_symmetry_space_group_name_H-M "P N M A"
_symmetry_group_IT_number 62
_symmetry_cell_setting 'orthorhombic'
loop_
_space_group_symop_operation_xyz
x,y,z
1/2-x,-y,1/2+z
1/2+x,1/2-y,1/2-z
-x,1/2+y,-z
-x,-y,-z
1/2+x,y,1/2-z
1/2-x,1/2+y,1/2+z
x,1/2-y,z
loop_
_atom_site_type_symbol
_atom_site_label
_atom_site_fract_x
_atom_site_fract_y
_atom_site_fract_z
Si Si1 0.229242 0.401011 0.045669
Si Si2 0.012852 0.609508 0.218340
Si Si3 0.200907 0.104089 0.918901
Si Si4 0.863017 0.007596 0.678992
Si Si5 0.166780 0.891441 0.759124
Si Si6 0.553473 0.898345 0.406485
Si Si7 0.594140 0.605958 0.862851
O O1 0.197461 0.250000 0.057681
O O2 0.128647 0.499240 0.059884
O O3 0.338891 0.445530 0.082131
O O4 0.259670 0.421928 0.979661
O O5 0.953120 0.750000 0.219582
O O6 0.916910 0.500276 0.217671
O O7 0.099095 0.605046 0.271562
O O8 0.084528 0.595959 0.160295
O O9 0.176041 0.250000 0.908489
O O10 0.282730 0.063056 0.868789
O O11 0.074302 0.044736 0.915644
O O12 0.791602 0.897996 0.711971
O O13 0.975812 0.964971 0.646580
O O14 0.115701 0.750000 0.772348
O O15 0.177783 0.908542 0.691317
O O16 0.569888 0.750000 0.428552
O O17 0.558384 0.750000 0.874337
#
# Coordination Sequence:
#
# PCOD8252733 Si02
#       7
#     8   8   8   8   8   8   8
#     4  10  21  39  60  82 112 157 198 237 287 341
#     4  10  21  35  57  85 116 151 186 235 292 346
#     4  10  21  37  58  83 117 153 192 239 289 341
#     4  11  20  35  58  86 117 153 193 229 292 353
#     4  10  20  35  56  82 114 149 187 235 285 342
#     4  10  20  38  59  85 116 148 190 248 292 333
#     4   9  20  37  56  82 116 149 190 240 287 339
#
# _framework density 19.410855999999999
#
# number of rings (size 3 to 8) (size 9 to 14) (size 15 to 20)
#    0.000    2.000    1.429    2.143    0.000    2.286 
#    0.000    6.429    0.000    0.000    0.000    0.000 
#    0.000    0.000    0.000    0.000    0.000    0.000 
#
# Total GULP energy -693827.193463 kJ/mol
# GULP energy per Si atom -12389.771312 kJ/mol
# Density = 1.936668 g / cm^3
# Si number density = 19.410856 Si / 1000 Ang^3
#
#
#
# Elastic Constant Matrix: (Units=GPa)
#
#
# Indices 1 2 3 4 5 6 
#
# 1 91.9299 25.0697 45.6207 0.0000 0.0000 0.0000
# 2 25.0697 70.6432 31.9648 0.0000 0.0000 0.0000
# 3 45.6207 31.9648 102.4864 0.0000 0.0000 0.0000
# 4 0.0000 0.0000 0.0000 22.5982 0.0000 0.0000
# 5 0.0000 0.0000 0.0000 0.0000 32.9710 0.0000
# 6 0.0000 0.0000 0.0000 0.0000 0.0000 24.8171
#
#
#
# Elastic Compliance Matrix: (Units=1/GPa)
#
#
# Indices 1 2 3 4 5 6 
#
# 1 0.014350 -0.002564 -0.005588 0.000000 0.000000 0.000000
# 2 -0.002564 0.016940 -0.004142 0.000000 0.000000 0.000000
# 3 -0.005588 -0.004142 0.013537 0.000000 0.000000 0.000000
# 4 0.000000 0.000000 0.000000 0.044251 0.000000 0.000000
# 5 0.000000 0.000000 0.000000 0.000000 0.030330 0.000000
# 6 0.000000 0.000000 0.000000 0.000000 0.000000 0.040295
#
#
# Mechanical properties :
#
#
# Convention : Reuss Voigt Hill
#
# Bulk Modulus (GPa) = 49.41125 52.26334 50.83730
# Shear Modulus (GPa) = 26.17291 26.90420 26.53856
#
# Velocity S-wave (km/s) = 3.67599 3.72699 3.70158
# Velocity P-wave (km/s) = 6.59757 6.74566 6.67203
#
# Compressibility (1/GPa) = 0.02023830
#
# Stress axis : x y z
#
# Youngs Moduli (GPa) = 69.68536 59.03270 73.87289
#
# Poissons Ratio (x) = 0.15136 0.41281
# Poissons Ratio (y) = 0.17868 0.30598
# Poissons Ratio (z) = 0.38941 0.24452
#
# Static dielectric constant tensor:
#      x y z
#    x 3.634350 0.000000 0.000000 
#    y 0.000000 3.544300 0.000000 
#    z 0.000000 0.000000 3.725200 
# 
# 
# High freq. dielectric constant tensor:
#      x y z
#    x 1.741880 0.000000 0.000000 
#    y 0.000000 1.748070 0.000000 
#    z 0.000000 0.000000 1.767550 
# 
# From -- ./inp_files/26629.got.cif
#   From: 2010.03.12/outbox.cif.g09.slc.cpg/sg62_14_cif.got.tgz:26629.got - 2010.04.10 19:12:36.
