data_PCOD8252204
_publ_section_title
;
Structure prediction by ZEFSAII (Michael W. Deem and Ramdas Pophale) SiO2 
 PCOD8252204
Probable space group: P N M A
;
_chemical_formula_sum "Si O2"
_cell_formula_units_Z 56
_cell_length_a 18.501391
_cell_length_b 9.190727
_cell_length_c 18.678484
_cell_angle_alpha 90.000000
_cell_angle_beta 90.000000
_cell_angle_gamma 90.000000
_cell_volume 3176.112465
_symmetry_space_group_name_H-M "P N M A"
_symmetry_group_IT_number 62
_symmetry_cell_setting 'orthorhombic'
loop_
_space_group_symop_operation_xyz
x,y,z
1/2-x,-y,1/2+z
1/2+x,1/2-y,1/2-z
-x,1/2+y,-z
-x,-y,-z
1/2+x,y,1/2-z
1/2-x,1/2+y,1/2+z
x,1/2-y,z
loop_
_atom_site_type_symbol
_atom_site_label
_atom_site_fract_x
_atom_site_fract_y
_atom_site_fract_z
Si Si1 0.538438 0.079074 0.064794
Si Si2 0.636931 0.587196 0.249342
Si Si3 0.455672 0.919443 0.350174
Si Si4 0.814920 0.416958 0.599828
Si Si5 0.336618 0.577478 0.459735
Si Si6 0.497982 0.082690 0.219618
Si Si7 0.616718 0.585993 0.402729
O O1 0.546753 0.250000 0.049230
O O2 0.487618 0.052412 0.134780
O O3 0.618109 0.013031 0.074270
O O4 0.500000 0.000000 0.000000
O O5 0.600592 0.750000 0.244831
O O6 0.696552 0.573395 0.186591
O O7 0.579640 0.461295 0.236472
O O8 0.666407 0.569165 0.330670
O O9 0.443329 0.750000 0.338924
O O10 0.396287 0.984248 0.404605
O O11 0.534332 0.954893 0.382674
O O12 0.444836 0.992548 0.271824
O O13 0.829297 0.250000 0.576932
O O14 0.742241 0.478265 0.564008
O O15 0.339690 0.750000 0.460933
O O16 0.352649 0.522581 0.538973
O O17 0.486488 0.250000 0.238293
O O18 0.620511 0.750000 0.432890
#
# Coordination Sequence:
#
# PCOD8252204 Si02
#       7
#     8   8   8   8   8   8   8
#     4  10  20  34  54  78 101 127 163 206 250 296
#     4   8  15  30  50  68  89 121 159 196 238 292
#     4   9  18  32  48  69  99 135 171 201 239 295
#     4   9  18  34  53  71  96 130 165 203 249 297
#     4  10  20  32  48  72 102 134 165 201 247 297
#     4   9  17  29  48  74  97 118 153 200 243 283
#     4   9  17  29  47  70  96 129 168 207 243 286
#
# _framework density 17.631618
#
# number of rings (size 3 to 8) (size 9 to 14) (size 15 to 20)
#    0.000    2.857    0.000    2.143    0.000    5.143 
#    0.000    1.429    0.000    1.714    0.000    0.000 
#    0.000    0.000    0.000    0.000    0.000    0.000 
#
# Total GULP energy -693912.998379 kJ/mol
# GULP energy per Si atom -12391.303542 kJ/mol
# Density = 1.759149 g / cm^3
# Si number density = 17.631618 Si / 1000 Ang^3
#
#
#
# Elastic Constant Matrix: (Units=GPa)
#
#
# Indices 1 2 3 4 5 6 
#
# 1 73.3757 34.4221 61.3863 0.0000 0.0000 0.0000
# 2 34.4221 58.3503 58.2506 0.0000 0.0000 0.0000
# 3 61.3863 58.2506 149.2148 0.0000 0.0000 0.0000
# 4 0.0000 0.0000 0.0000 34.4474 0.0000 0.0000
# 5 0.0000 0.0000 0.0000 0.0000 17.1637 0.0000
# 6 0.0000 0.0000 0.0000 0.0000 0.0000 18.0303
#
#
#
# Elastic Compliance Matrix: (Units=1/GPa)
#
#
# Indices 1 2 3 4 5 6 
#
# 1 0.022197 -0.006519 -0.006587 0.000000 0.000000 0.000000
# 2 -0.006519 0.029996 -0.009028 0.000000 0.000000 0.000000
# 3 -0.006587 -0.009028 0.012936 0.000000 0.000000 0.000000
# 4 0.000000 0.000000 0.000000 0.029030 0.000000 0.000000
# 5 0.000000 0.000000 0.000000 0.000000 0.058262 0.000000
# 6 0.000000 0.000000 0.000000 0.000000 0.000000 0.055462
#
#
# Mechanical properties :
#
#
# Convention : Reuss Voigt Hill
#
# Bulk Modulus (GPa) = 47.93519 65.45098 56.69308
# Shear Modulus (GPa) = 19.29712 22.38707 20.84210
#
# Velocity S-wave (km/s) = 3.31185 3.56717 3.44188
# Velocity P-wave (km/s) = 6.47075 7.35990 6.92960
#
# Compressibility (1/GPa) = 0.02086150
#
# Stress axis : x y z
#
# Youngs Moduli (GPa) = 45.05033 33.33758 77.30354
#
# Poissons Ratio (x) = 0.21732 0.50920
# Poissons Ratio (y) = 0.29368 0.69790
# Poissons Ratio (z) = 0.29675 0.30097
#
# Static dielectric constant tensor:
#      x y z
#    x 3.027160 0.000000 0.000000 
#    y 0.000000 3.224250 0.000000 
#    z 0.000000 0.000000 3.603700 
# 
# 
# High freq. dielectric constant tensor:
#      x y z
#    x 1.638670 0.000000 0.000000 
#    y 0.000000 1.680810 0.000000 
#    z 0.000000 0.000000 1.697330 
# 
# From -- ./inp_files/24647.got.cif
#   From: 2010.03.12/outbox.cif.g09.slc.cpg/sg62_13_cif.got.tgz:24647.got - 2010.04.10 19:12:36.
