data_PCOD8252257
_publ_section_title
;
Structure prediction by ZEFSAII (Michael W. Deem and Ramdas Pophale) SiO2 
 PCOD8252257
Probable space group: P N M A
;
_chemical_formula_sum "Si O2"
_cell_formula_units_Z 64
_cell_length_a 29.833122
_cell_length_b 8.781595
_cell_length_c 14.711308
_cell_angle_alpha 90.000000
_cell_angle_beta 90.000000
_cell_angle_gamma 90.000000
_cell_volume 3854.103703
_symmetry_space_group_name_H-M "P N M A"
_symmetry_group_IT_number 62
_symmetry_cell_setting 'orthorhombic'
loop_
_space_group_symop_operation_xyz
x,y,z
1/2-x,-y,1/2+z
1/2+x,1/2-y,1/2-z
-x,1/2+y,-z
-x,-y,-z
1/2+x,y,1/2-z
1/2-x,1/2+y,1/2+z
x,1/2-y,z
loop_
_atom_site_type_symbol
_atom_site_label
_atom_site_fract_x
_atom_site_fract_y
_atom_site_fract_z
Si Si1 0.204390 0.927910 0.316276
Si Si2 0.221019 0.919655 0.510147
Si Si3 0.045887 0.426158 0.896476
Si Si4 0.868124 0.073068 0.164600
Si Si5 0.452182 0.926550 0.606766
Si Si6 0.866390 0.073754 0.829831
Si Si7 0.174043 0.420139 0.001198
Si Si8 0.287482 0.068648 0.209387
O O1 0.216699 0.750000 0.322628
O O2 0.199787 0.996715 0.419244
O O3 0.156472 0.953743 0.268143
O O4 0.244711 0.005057 0.261869
O O5 0.201403 0.750000 0.518954
O O6 0.273378 0.917285 0.491487
O O7 0.210556 0.001478 0.606616
O O8 0.035094 0.250000 0.881696
O O9 0.085640 0.478867 0.829447
O O10 0.002056 0.520484 0.869835
O O11 0.059682 0.459768 0.001101
O O12 0.879636 0.250000 0.172909
O O13 0.833941 0.019311 0.243057
O O14 0.845424 0.042140 0.068156
O O15 0.447835 0.750000 0.630037
O O16 0.417942 0.019677 0.670542
O O17 0.863682 0.250000 0.858157
O O18 0.838286 0.970440 0.898143
O O19 0.154211 0.250000 0.982736
O O20 0.281805 0.250000 0.207751
#
# Coordination Sequence:
#
# PCOD8252257 Si02
#       8
#     8   8   8   8   8   8   8   8
#     4  10  20  33  49  70  96 130 168 205 242 285
#     4   9  18  33  49  66  95 132 169 205 242 284
#     4  10  20  33  50  71  98 130 162 196 242 293
#     4  11  21  31  47  72 101 130 165 204 243 287
#     4  10  20  33  50  71  98 130 162 196 242 293
#     4  11  21  31  47  72 101 130 165 204 243 287
#     4  11  19  29  48  68  95 134 170 201 240 286
#     4  10  20  33  49  70  96 130 168 205 242 285
#
# _framework density 16.605675000000002
#
# number of rings (size 3 to 8) (size 9 to 14) (size 15 to 20)
#    0.000    1.750    3.750    1.875    0.000    2.000 
#    0.000    0.625    0.000    0.000    0.000    0.875 
#    0.000    0.000    0.000    0.000    0.000    0.000 
#
# Total GULP energy -793421.849650 kJ/mol
# GULP energy per Si atom -12397.216401 kJ/mol
# Density = 1.656788 g / cm^3
# Si number density = 16.605675 Si / 1000 Ang^3
#
#
#
# Elastic Constant Matrix: (Units=GPa)
#
#
# Indices 1 2 3 4 5 6 
#
# 1 95.6850 29.2611 45.5873 0.0000 0.0000 0.0000
# 2 29.2611 43.1432 15.4692 0.0000 0.0000 0.0000
# 3 45.5873 15.4692 99.9620 0.0000 0.0000 0.0000
# 4 0.0000 0.0000 0.0000 15.0739 0.0000 0.0000
# 5 0.0000 0.0000 0.0000 0.0000 21.8204 0.0000
# 6 0.0000 0.0000 0.0000 0.0000 0.0000 27.5689
#
#
#
# Elastic Compliance Matrix: (Units=1/GPa)
#
#
# Indices 1 2 3 4 5 6 
#
# 1 0.015925 -0.008678 -0.005920 0.000000 0.000000 0.000000
# 2 -0.008678 0.029270 -0.000572 0.000000 0.000000 0.000000
# 3 -0.005920 -0.000572 0.012792 0.000000 0.000000 0.000000
# 4 0.000000 0.000000 0.000000 0.066340 0.000000 0.000000
# 5 0.000000 0.000000 0.000000 0.000000 0.045829 0.000000
# 6 0.000000 0.000000 0.000000 0.000000 0.000000 0.036273
#
#
# Mechanical properties :
#
#
# Convention : Reuss Voigt Hill
#
# Bulk Modulus (GPa) = 36.17017 46.60283 41.38650
# Shear Modulus (GPa) = 20.32658 22.79080 21.55869
#
# Velocity S-wave (km/s) = 3.50247 3.70871 3.60706
# Velocity P-wave (km/s) = 6.17944 6.81650 6.50577
#
# Compressibility (1/GPa) = 0.02764709
#
# Stress axis : x y z
#
# Youngs Moduli (GPa) = 62.79355 34.16513 78.17443
#
# Poissons Ratio (x) = 0.29650 0.46276
# Poissons Ratio (y) = 0.54495 0.04469
# Poissons Ratio (z) = 0.37172 0.01953
#
# Static dielectric constant tensor:
#      x y z
#    x 3.118720 0.000000 0.000000 
#    y 0.000000 3.163110 0.000000 
#    z 0.000000 0.000000 3.211640 
# 
# 
# High freq. dielectric constant tensor:
#      x y z
#    x 1.633500 0.000000 0.000000 
#    y 0.000000 1.638190 0.000000 
#    z 0.000000 0.000000 1.615180 
# 
# From -- ./inp_files/21252.got.cif
#   From: 2010.03.12/outbox.cif.g09.slc.cpg/sg62_11_cif.got.tgz:21252.got - 2010.04.10 19:12:36.
