data_PCOD8252237
_publ_section_title
;
Structure prediction by ZEFSAII (Michael W. Deem and Ramdas Pophale) SiO2 
 PCOD8252237
Probable space group: P N M A
;
_chemical_formula_sum "Si O2"
_cell_formula_units_Z 64
_cell_length_a 22.818889
_cell_length_b 8.772664
_cell_length_c 16.383009
_cell_angle_alpha 90.000000
_cell_angle_beta 90.000000
_cell_angle_gamma 90.000000
_cell_volume 3279.590815
_symmetry_space_group_name_H-M "P N M A"
_symmetry_group_IT_number 62
_symmetry_cell_setting 'orthorhombic'
loop_
_space_group_symop_operation_xyz
x,y,z
1/2-x,-y,1/2+z
1/2+x,1/2-y,1/2-z
-x,1/2+y,-z
-x,-y,-z
1/2+x,y,1/2-z
1/2-x,1/2+y,1/2+z
x,1/2-y,z
loop_
_atom_site_type_symbol
_atom_site_label
_atom_site_fract_x
_atom_site_fract_y
_atom_site_fract_z
Si Si1 0.514749 0.428656 0.248777
Si Si2 0.336828 0.575614 0.051071
Si Si3 0.169040 0.569798 0.943877
Si Si4 0.719290 0.574416 0.100427
Si Si5 0.030920 0.070039 0.580279
Si Si6 0.138723 0.930047 0.253700
Si Si7 0.217890 0.925159 0.112342
Si Si8 0.536485 0.568790 0.576116
O O1 0.504579 0.250000 0.236747
O O2 0.491806 0.510783 0.167089
O O3 0.582183 0.467825 0.257202
O O4 0.485650 0.484697 0.334163
O O5 0.337801 0.750000 0.018607
O O6 0.312118 0.464078 0.983541
O O7 0.400701 0.524611 0.079825
O O8 0.288489 0.558078 0.123360
O O9 0.168783 0.750000 0.939892
O O10 0.218903 0.511015 0.880901
O O11 0.103548 0.508780 0.927700
O O12 0.191931 0.500991 0.029838
O O13 0.734996 0.750000 0.106632
O O14 0.668705 0.527561 0.162222
O O15 0.020625 0.250000 0.576711
O O16 0.000000 0.000000 0.500000
O O17 0.123930 0.750000 0.246023
O O18 0.184726 0.995989 0.188390
O O19 0.200002 0.750000 0.107811
O O20 0.500000 0.500000 0.500000
O O21 0.532332 0.750000 0.567487
#
# Coordination Sequence:
#
# PCOD8252237 Si02
#       8
#     8   8   8   8   8   8   8   8
#     4  11  24  39  56  84 119 151 191 239 284 340
#     4   9  19  36  56  77 104 142 184 223 273 336
#     4   9  18  35  56  76 105 145 183 221 276 338
#     4  10  20  32  52  82 109 135 175 229 280 331
#     4  11  23  39  61  86 115 154 195 236 285 340
#     4  10  20  35  55  78 105 139 181 228 280 334
#     4   8  15  31  55  77  98 131 176 222 267 325
#     4  10  22  39  60  86 117 155 195 238 286 338
#
# _framework density 19.51463
#
# number of rings (size 3 to 8) (size 9 to 14) (size 15 to 20)
#    0.000    2.250    0.000    3.375    0.000    7.500 
#    0.000    5.000    0.000    0.000    0.000    0.000 
#    0.000    0.000    0.000    0.000    0.000    0.000 
#
# Total GULP energy -792979.692736 kJ/mol
# GULP energy per Si atom -12390.307699 kJ/mol
# Density = 1.947021 g / cm^3
# Si number density = 19.514630 Si / 1000 Ang^3
#
#
#
# Elastic Constant Matrix: (Units=GPa)
#
#
# Indices 1 2 3 4 5 6 
#
# 1 150.6554 27.0198 50.5266 0.0000 0.0000 0.0000
# 2 27.0198 32.6054 25.5518 0.0000 0.0000 0.0000
# 3 50.5266 25.5518 104.9838 0.0000 0.0000 0.0000
# 4 0.0000 0.0000 0.0000 25.2553 0.0000 0.0000
# 5 0.0000 0.0000 0.0000 0.0000 32.1581 0.0000
# 6 0.0000 0.0000 0.0000 0.0000 0.0000 28.9725
#
#
#
# Elastic Compliance Matrix: (Units=1/GPa)
#
#
# Indices 1 2 3 4 5 6 
#
# 1 0.008466 -0.004723 -0.002925 0.000000 0.000000 0.000000
# 2 -0.004723 0.040534 -0.007592 0.000000 0.000000 0.000000
# 3 -0.002925 -0.007592 0.012781 0.000000 0.000000 0.000000
# 4 0.000000 0.000000 0.000000 0.039596 0.000000 0.000000
# 5 0.000000 0.000000 0.000000 0.000000 0.031096 0.000000
# 6 0.000000 0.000000 0.000000 0.000000 0.000000 0.034516
#
#
# Mechanical properties :
#
#
# Convention : Reuss Voigt Hill
#
# Bulk Modulus (GPa) = 31.94932 54.93788 43.44360
# Shear Modulus (GPa) = 24.04984 29.62025 26.83505
#
# Velocity S-wave (km/s) = 3.51436 3.90018 3.71229
# Velocity P-wave (km/s) = 5.73369 6.96385 6.37849
#
# Compressibility (1/GPa) = 0.03129957
#
# Stress axis : x y z
#
# Youngs Moduli (GPa) = 118.12365 24.67080 78.24278
#
# Poissons Ratio (x) = 0.11653 0.22884
# Poissons Ratio (y) = 0.55795 0.59403
# Poissons Ratio (z) = 0.34548 0.18730
#
# Static dielectric constant tensor:
#      x y z
#    x 3.926940 0.000000 0.000000 
#    y 0.000000 3.431330 0.000000 
#    z 0.000000 0.000000 3.744610 
# 
# 
# High freq. dielectric constant tensor:
#      x y z
#    x 1.780660 0.000000 0.000000 
#    y 0.000000 1.741850 0.000000 
#    z 0.000000 0.000000 1.756660 
# 
# From -- ./inp_files/20882.got.cif
#   From: 2010.03.12/outbox.cif.g09.slc.cpg/sg62_11_cif.got.tgz:20882.got - 2010.04.10 19:12:36.
