data_PCOD8252961
_publ_section_title
;
Structure prediction by ZEFSAII (Michael W. Deem and Ramdas Pophale) SiO2 
 PCOD8252961
Probable space group: P N M A
;
_chemical_formula_sum "Si O2"
_cell_formula_units_Z 40
_cell_length_a 25.518716
_cell_length_b 8.938004
_cell_length_c 8.942555
_cell_angle_alpha 90.000000
_cell_angle_beta 90.000000
_cell_angle_gamma 90.000000
_cell_volume 2039.675049
_symmetry_space_group_name_H-M "P N M A"
_symmetry_group_IT_number 62
_symmetry_cell_setting 'orthorhombic'
loop_
_space_group_symop_operation_xyz
x,y,z
1/2-x,-y,1/2+z
1/2+x,1/2-y,1/2-z
-x,1/2+y,-z
-x,-y,-z
1/2+x,y,1/2-z
1/2-x,1/2+y,1/2+z
x,1/2-y,z
loop_
_atom_site_type_symbol
_atom_site_label
_atom_site_fract_x
_atom_site_fract_y
_atom_site_fract_z
Si Si1 0.791025 0.572645 0.333435
Si Si2 0.995007 0.927301 0.338994
Si Si3 0.911288 0.924464 0.829854
Si Si4 0.107446 0.072597 0.834657
Si Si5 0.303102 0.923474 0.828664
O O1 0.790972 0.750000 0.326188
O O2 0.838634 0.507148 0.233580
O O3 0.798745 0.516996 0.502690
O O4 0.735930 0.513605 0.276217
O O5 0.996121 0.750000 0.356855
O O6 0.940837 0.983451 0.265808
O O7 0.041274 0.978278 0.231100
O O8 0.000000 0.000000 0.500000
O O9 0.927098 0.750000 0.830607
O O10 0.861844 0.953599 0.724510
O O11 0.898642 0.984247 0.995882
O O12 0.109820 0.250000 0.833127
O O13 0.288379 0.750000 0.815750
#
# Coordination Sequence:
#
# PCOD8252961 Si02
#       5
#     8   8   8   8   8
#     4  10  20  36  57  80 108 143 183 223 267 323
#     4  11  22  37  57  82 112 145 183 224 271 325
#     4  10  20  37  59  81 108 142 180 223 275 327
#     4   9  19  36  58  81 107 142 180 224 276 325
#     4  10  21  36  56  82 111 144 181 224 274 324
#
# _framework density 19.610966999999999
#
# number of rings (size 3 to 8) (size 9 to 14) (size 15 to 20)
#    0.000    2.000    0.000    3.600    0.000    6.400 
#    0.000    6.000    0.000    0.000    0.000    0.000 
#    0.000    0.000    0.000    0.000    0.000    0.000 
#
# Total GULP energy -496151.560792 kJ/mol
# GULP energy per Si atom -12403.789020 kJ/mol
# Density = 1.956633 g / cm^3
# Si number density = 19.610967 Si / 1000 Ang^3
#
#
#
# Elastic Constant Matrix: (Units=GPa)
#
#
# Indices 1 2 3 4 5 6 
#
# 1 60.0238 17.6802 -1.3019 0.0000 0.0000 0.0000
# 2 17.6802 33.9712 18.1855 0.0000 0.0000 0.0000
# 3 -1.3019 18.1855 96.5664 0.0000 0.0000 0.0000
# 4 0.0000 0.0000 0.0000 29.2439 0.0000 0.0000
# 5 0.0000 0.0000 0.0000 0.0000 41.8525 0.0000
# 6 0.0000 0.0000 0.0000 0.0000 0.0000 32.7154
#
#
#
# Elastic Compliance Matrix: (Units=1/GPa)
#
#
# Indices 1 2 3 4 5 6 
#
# 1 0.020207 -0.011858 0.002506 0.000000 0.000000 0.000000
# 2 -0.011858 0.039696 -0.007635 0.000000 0.000000 0.000000
# 3 0.002506 -0.007635 0.011827 0.000000 0.000000 0.000000
# 4 0.000000 0.000000 0.000000 0.034195 0.000000 0.000000
# 5 0.000000 0.000000 0.000000 0.000000 0.023893 0.000000
# 6 0.000000 0.000000 0.000000 0.000000 0.000000 0.030567
#
#
# Mechanical properties :
#
#
# Convention : Reuss Voigt Hill
#
# Bulk Modulus (GPa) = 26.48707 28.85433 27.67070
# Shear Modulus (GPa) = 24.16093 31.16221 27.66157
#
# Velocity S-wave (km/s) = 3.51381 3.99058 3.75976
# Velocity P-wave (km/s) = 5.47705 5.99819 5.74353
#
# Compressibility (1/GPa) = 0.03775428
#
# Stress axis : x y z
#
# Youngs Moduli (GPa) = 49.48723 25.19176 84.55049
#
# Poissons Ratio (x) = 0.29872 -0.21184
# Poissons Ratio (y) = 0.58682 0.64557
# Poissons Ratio (z) = -0.12399 0.19235
#
# Static dielectric constant tensor:
#      x y z
#    x 3.718880 0.000000 0.000000 
#    y 0.000000 3.294180 0.000000 
#    z 0.000000 0.000000 3.952960 
# 
# 
# High freq. dielectric constant tensor:
#      x y z
#    x 1.779060 0.000000 0.000000 
#    y 0.000000 1.734570 0.000000 
#    z 0.000000 0.000000 1.786440 
# 
# From -- ./inp_files/9062.got.cif
#   From: 2010.03.12/outbox.cif.g09.slc.cpg/sg62_5_cif.got.tgz:9062.got - 2010.04.10 19:12:36.
