data_PCOD8252208
_publ_section_title
;
Structure prediction by ZEFSAII (Michael W. Deem and Ramdas Pophale) SiO2 
 PCOD8252208
Probable space group: P N M A
;
_chemical_formula_sum "Si O2"
_cell_formula_units_Z 64
_cell_length_a 17.563829
_cell_length_b 9.047533
_cell_length_c 22.973472
_cell_angle_alpha 90.000000
_cell_angle_beta 90.000000
_cell_angle_gamma 90.000000
_cell_volume 3650.698871
_symmetry_space_group_name_H-M "P N M A"
_symmetry_group_IT_number 62
_symmetry_cell_setting 'orthorhombic'
loop_
_space_group_symop_operation_xyz
x,y,z
1/2-x,-y,1/2+z
1/2+x,1/2-y,1/2-z
-x,1/2+y,-z
-x,-y,-z
1/2+x,y,1/2-z
1/2-x,1/2+y,1/2+z
x,1/2-y,z
loop_
_atom_site_type_symbol
_atom_site_label
_atom_site_fract_x
_atom_site_fract_y
_atom_site_fract_z
Si Si1 0.887440 0.584217 0.021505
Si Si2 0.680106 0.916890 0.138513
Si Si3 0.906478 0.082059 0.529294
Si Si4 0.539106 0.918337 0.911796
Si Si5 0.326584 0.077579 0.371381
Si Si6 0.517065 0.577468 0.193147
Si Si7 0.948985 0.415994 0.919532
Si Si8 0.984536 0.076209 0.186283
O O1 0.856967 0.750000 0.011375
O O2 0.832537 0.502249 0.066514
O O3 0.971759 0.587908 0.047009
O O4 0.887117 0.498348 0.959973
O O5 0.702984 0.750000 0.154579
O O6 0.669356 0.935102 0.068383
O O7 0.602106 0.960395 0.171295
O O8 0.748889 0.022094 0.159376
O O9 0.938805 0.250000 0.540179
O O10 0.891946 0.060692 0.459357
O O11 0.964268 0.957092 0.551131
O O12 0.534958 0.750000 0.889436
O O13 0.544346 0.023925 0.855454
O O14 0.322526 0.250000 0.383287
O O15 0.397495 0.037229 0.330079
O O16 0.505104 0.750000 0.204458
O O17 0.501600 0.488139 0.251050
O O18 0.920420 0.250000 0.906378
O O19 0.957115 0.503529 0.859195
O O20 0.998957 0.250000 0.185760
#
# Coordination Sequence:
#
# PCOD8252208 Si02
#       8
#     8   8   8   8   8   8   8   8
#     4   9  16  27  45  68  94 123 152 185 231 284
#     4   9  18  32  49  70  97 127 159 199 247 298
#     4   8  15  27  43  66  94 121 150 186 230 281
#     4   9  15  25  44  68  93 120 150 188 233 278
#     4  10  20  32  48  72  99 126 160 204 250 298
#     4  10  20  33  49  71  98 129 168 209 247 291
#     4   9  16  27  45  69  95 121 151 190 234 278
#     4  10  20  33  49  71  98 129 168 208 246 291
#
# _framework density 17.530889999999999
#
# number of rings (size 3 to 8) (size 9 to 14) (size 15 to 20)
#    0.000    2.750    0.000    3.000    0.000    7.500 
#    0.000    0.000    0.000    1.500    0.000    5.250 
#    0.000    0.000    0.000    0.000    0.000    0.000 
#
# Total GULP energy -793147.954829 kJ/mol
# GULP energy per Si atom -12392.936794 kJ/mol
# Density = 1.749099 g / cm^3
# Si number density = 17.530890 Si / 1000 Ang^3
#
#
#
# Elastic Constant Matrix: (Units=GPa)
#
#
# Indices 1 2 3 4 5 6 
#
# 1 49.4457 33.2642 30.1737 0.0000 0.0000 0.0000
# 2 33.2642 103.5593 53.8289 0.0000 0.0000 0.0000
# 3 30.1737 53.8289 123.6374 0.0000 0.0000 0.0000
# 4 0.0000 0.0000 0.0000 34.0750 0.0000 0.0000
# 5 0.0000 0.0000 0.0000 0.0000 13.8112 0.0000
# 6 0.0000 0.0000 0.0000 0.0000 0.0000 23.1006
#
#
#
# Elastic Compliance Matrix: (Units=1/GPa)
#
#
# Indices 1 2 3 4 5 6 
#
# 1 0.027008 -0.006785 -0.003638 0.000000 0.000000 0.000000
# 2 -0.006785 0.014185 -0.004520 0.000000 0.000000 0.000000
# 3 -0.003638 -0.004520 0.010944 0.000000 0.000000 0.000000
# 4 0.000000 0.000000 0.000000 0.029347 0.000000 0.000000
# 5 0.000000 0.000000 0.000000 0.000000 0.072405 0.000000
# 6 0.000000 0.000000 0.000000 0.000000 0.000000 0.043289
#
#
# Mechanical properties :
#
#
# Convention : Reuss Voigt Hill
#
# Bulk Modulus (GPa) = 44.93813 56.79731 50.86772
# Shear Modulus (GPa) = 21.32377 24.82240 23.07308
#
# Velocity S-wave (km/s) = 3.49141 3.76696 3.63180
# Velocity P-wave (km/s) = 6.47631 7.16859 6.83123
#
# Compressibility (1/GPa) = 0.02225282
#
# Stress axis : x y z
#
# Youngs Moduli (GPa) = 37.02579 70.49676 91.37562
#
# Poissons Ratio (x) = 0.47829 0.33238
# Poissons Ratio (y) = 0.25120 0.41302
# Poissons Ratio (z) = 0.13468 0.31865
#
# Static dielectric constant tensor:
#      x y z
#    x 2.928650 0.000000 0.000000 
#    y 0.000000 3.401440 0.000000 
#    z 0.000000 0.000000 3.330010 
# 
# 
# High freq. dielectric constant tensor:
#      x y z
#    x 1.627430 0.000000 0.000000 
#    y 0.000000 1.693940 0.000000 
#    z 0.000000 0.000000 1.671410 
# 
# From -- ./inp_files/30077.got.cif
#   From: 2010.03.12/outbox.cif.g09.slc.cpg/sg62_16_cif.got.tgz:30077.got - 2010.04.10 19:12:36.
