data_PCOD8252276
_publ_section_title
;
Structure prediction by ZEFSAII (Michael W. Deem and Ramdas Pophale) SiO2 
 PCOD8252276
Probable space group: P N M A
;
_chemical_formula_sum "Si O2"
_cell_formula_units_Z 40
_cell_length_a 4.983755
_cell_length_b 21.526944
_cell_length_c 19.429228
_cell_angle_alpha 90.000000
_cell_angle_beta 90.000000
_cell_angle_gamma 90.000000
_cell_volume 2084.465013
_symmetry_space_group_name_H-M "P N M A"
_symmetry_group_IT_number 62
_symmetry_cell_setting 'orthorhombic'
loop_
_space_group_symop_operation_xyz
x,y,z
1/2-x,-y,1/2+z
1/2+x,1/2-y,1/2-z
-x,1/2+y,-z
-x,-y,-z
1/2+x,y,1/2-z
1/2-x,1/2+y,1/2+z
x,1/2-y,z
loop_
_atom_site_type_symbol
_atom_site_label
_atom_site_fract_x
_atom_site_fract_y
_atom_site_fract_z
Si Si1 0.972674 0.149783 0.707257
Si Si2 0.004039 0.180281 0.556653
Si Si3 0.793768 0.514055 0.562274
Si Si4 0.483662 0.896342 0.476705
Si Si5 0.510681 0.503615 0.206845
O O1 0.757663 0.171390 0.763713
O O2 0.965237 0.076585 0.694431
O O3 0.903981 0.182849 0.635309
O O4 0.040539 0.250000 0.527811
O O5 0.287458 0.144882 0.558489
O O6 0.781309 0.145496 0.509299
O O7 0.601268 0.453772 0.573037
O O8 0.605612 0.573655 0.546299
O O9 0.948196 0.529010 0.632801
O O10 0.000000 0.500000 0.500000
O O11 0.227283 0.481916 0.236678
#
# Coordination Sequence:
#
# PCOD8252276 Si02
#       5
#     8   8   8   8   8
#     4  10  20  33  51  72 108 155 200 234 273 327
#     4  12  24  39  54  78 116 150 201 251 280 329
#     4  11  22  38  65  83 119 152 200 242 291 376
#     4  11  23  37  59  84 106 153 199 231 304 332
#     4  10  22  33  54  85 120 150 186 239 295 339
#
# _framework density 19.189575999999999
#
# number of rings (size 3 to 8) (size 9 to 14) (size 15 to 20)
#    0.000    1.200    4.000    1.800   11.200    0.800 
#    0.000    0.000    0.000    0.000    0.000    0.000 
#    0.000   16.000    0.000    0.000    0.000    0.000 
#
# Total GULP energy -495966.417424 kJ/mol
# GULP energy per Si atom -12399.160436 kJ/mol
# Density = 1.914590 g / cm^3
# Si number density = 19.189576 Si / 1000 Ang^3
#
#
#
# Elastic Constant Matrix: (Units=GPa)
#
#
# Indices 1 2 3 4 5 6 
#
# 1 93.7549 32.6108 7.0414 0.0000 0.0000 0.0000
# 2 32.6108 84.7783 21.2555 0.0000 0.0000 0.0000
# 3 7.0414 21.2555 65.1738 0.0000 0.0000 0.0000
# 4 0.0000 0.0000 0.0000 17.9501 0.0000 0.0000
# 5 0.0000 0.0000 0.0000 0.0000 27.2488 0.0000
# 6 0.0000 0.0000 0.0000 0.0000 0.0000 22.5719
#
#
#
# Elastic Compliance Matrix: (Units=1/GPa)
#
#
# Indices 1 2 3 4 5 6 
#
# 1 0.012317 -0.004796 0.000234 0.000000 0.000000 0.000000
# 2 -0.004796 0.014714 -0.004280 0.000000 0.000000 0.000000
# 3 0.000234 -0.004280 0.016714 0.000000 0.000000 0.000000
# 4 0.000000 0.000000 0.000000 0.055710 0.000000 0.000000
# 5 0.000000 0.000000 0.000000 0.000000 0.036699 0.000000
# 6 0.000000 0.000000 0.000000 0.000000 0.000000 0.044303
#
#
# Mechanical properties :
#
#
# Convention : Reuss Voigt Hill
#
# Bulk Modulus (GPa) = 38.37543 40.61362 39.49453
# Shear Modulus (GPa) = 24.17453 25.74078 24.95766
#
# Velocity S-wave (km/s) = 3.55318 3.66648 3.61027
# Velocity P-wave (km/s) = 6.07247 6.25575 6.16479
#
# Compressibility (1/GPa) = 0.02605834
#
# Stress axis : x y z
#
# Youngs Moduli (GPa) = 81.18933 67.96417 59.82881
#
# Poissons Ratio (x) = 0.32598 -0.01397
# Poissons Ratio (y) = 0.38941 0.25609
# Poissons Ratio (z) = -0.01896 0.29092
#
# Static dielectric constant tensor:
#      x y z
#    x 3.831540 0.000000 0.000000 
#    y 0.000000 3.380350 0.000000 
#    z 0.000000 0.000000 3.276290 
# 
# 
# High freq. dielectric constant tensor:
#      x y z
#    x 1.773000 0.000000 0.000000 
#    y 0.000000 1.707810 0.000000 
#    z 0.000000 0.000000 1.715450 
# 
# From -- ./inp_files/21550.got.cif
#   From: 2010.03.12/outbox.cif.g09.slc.cpg/sg62_11_cif.got.tgz:21550.got - 2010.04.10 19:12:36.
