data_PCOD8252098
_publ_section_title
;
Structure prediction by ZEFSAII (Michael W. Deem and Ramdas Pophale) SiO2 
 PCOD8252098
Probable space group: P N M A
;
_chemical_formula_sum "Si O2"
_cell_formula_units_Z 40
_cell_length_a 18.420720
_cell_length_b 14.194324
_cell_length_c 7.216653
_cell_angle_alpha 90.000000
_cell_angle_beta 90.000000
_cell_angle_gamma 90.000000
_cell_volume 1886.935864
_symmetry_space_group_name_H-M "P N M A"
_symmetry_group_IT_number 62
_symmetry_cell_setting 'orthorhombic'
loop_
_space_group_symop_operation_xyz
x,y,z
1/2-x,-y,1/2+z
1/2+x,1/2-y,1/2-z
-x,1/2+y,-z
-x,-y,-z
1/2+x,y,1/2-z
1/2-x,1/2+y,1/2+z
x,1/2-y,z
loop_
_atom_site_type_symbol
_atom_site_label
_atom_site_fract_x
_atom_site_fract_y
_atom_site_fract_z
Si Si1 0.382831 0.643792 0.610757
Si Si2 0.923574 0.986777 0.595139
Si Si3 0.673849 0.048915 0.746740
Si Si4 0.724361 0.648978 0.760540
Si Si5 0.179407 0.854623 0.317806
O O1 0.410375 0.750000 0.586157
O O2 0.374096 0.601653 0.405770
O O3 0.310385 0.636195 0.733607
O O4 0.439387 0.587011 0.738390
O O5 0.866966 0.949306 0.441990
O O6 0.892658 0.080974 0.695666
O O7 0.000000 0.000000 0.500000
O O8 0.751387 0.098981 0.787142
O O9 0.686839 0.942128 0.667513
O O10 0.704117 0.750000 0.663022
O O11 0.699111 0.654523 0.969978
O O12 0.164105 0.750000 0.235141
#
# Coordination Sequence:
#
# PCOD8252098 Si02
#       5
#     8   8   8   8   8
#     4  10  21  37  58  85 119 160 206 252 305 370
#     4  11  24  39  61  93 129 164 202 261 325 379
#     4  10  19  37  63  88 119 160 209 258 304 374
#     4   8  15  30  56  87 115 148 199 253 300 352
#     4   9  18  35  59  87 119 161 206 256 304 363
#
# _framework density 21.198388000000001
#
# number of rings (size 3 to 8) (size 9 to 14) (size 15 to 20)
#    0.000    2.400    2.000    1.800    0.000    3.200 
#    0.000    3.000    0.000    0.000    0.000    0.000 
#    0.000    0.000    0.000    0.000    0.000    0.000 
#
# Total GULP energy -495699.744743 kJ/mol
# GULP energy per Si atom -12392.493619 kJ/mol
# Density = 2.115014 g / cm^3
# Si number density = 21.198388 Si / 1000 Ang^3
#
#
#
# Elastic Constant Matrix: (Units=GPa)
#
#
# Indices 1 2 3 4 5 6 
#
# 1 37.1911 23.4296 5.8115 0.0000 0.0000 0.0000
# 2 23.4296 171.9465 32.9752 0.0000 0.0000 0.0000
# 3 5.8115 32.9752 50.1159 0.0000 0.0000 0.0000
# 4 0.0000 0.0000 0.0000 23.7443 0.0000 0.0000
# 5 0.0000 0.0000 0.0000 0.0000 23.7415 0.0000
# 6 0.0000 0.0000 0.0000 0.0000 0.0000 12.5091
#
#
#
# Elastic Compliance Matrix: (Units=1/GPa)
#
#
# Indices 1 2 3 4 5 6 
#
# 1 0.029447 -0.003843 -0.000886 0.000000 0.000000 0.000000
# 2 -0.003843 0.007157 -0.004264 0.000000 0.000000 0.000000
# 3 -0.000886 -0.004264 0.022862 0.000000 0.000000 0.000000
# 4 0.000000 0.000000 0.000000 0.042115 0.000000 0.000000
# 5 0.000000 0.000000 0.000000 0.000000 0.042120 0.000000
# 6 0.000000 0.000000 0.000000 0.000000 0.000000 0.079942
#
#
# Mechanical properties :
#
#
# Convention : Reuss Voigt Hill
#
# Bulk Modulus (GPa) = 24.10730 42.63179 33.36954
# Shear Modulus (GPa) = 19.57285 25.13480 22.35382
#
# Velocity S-wave (km/s) = 3.04191 3.44713 3.25084
# Velocity P-wave (km/s) = 4.87181 5.99984 5.46501
#
# Compressibility (1/GPa) = 0.04148120
#
# Stress axis : x y z
#
# Youngs Moduli (GPa) = 33.95883 139.72324 43.74093
#
# Poissons Ratio (x) = 0.53689 0.03877
# Poissons Ratio (y) = 0.13049 0.18649
# Poissons Ratio (z) = 0.03010 0.59572
#
# Static dielectric constant tensor:
#      x y z
#    x 3.699300 0.000000 0.000000 
#    y 0.000000 4.182360 0.000000 
#    z 0.000000 0.000000 3.539310 
# 
# 
# High freq. dielectric constant tensor:
#      x y z
#    x 1.781640 0.000000 0.000000 
#    y 0.000000 1.850740 0.000000 
#    z 0.000000 0.000000 1.823590 
# 
# From -- ./inp_files/7477.got.cif
#   From: 2010.03.12/outbox.cif.g09.slc.cpg/sg62_4_cif.got.tgz:7477.got - 2010.04.10 19:12:36.
