data_PCOD8252479
_publ_section_title
;
Structure prediction by ZEFSAII (Michael W. Deem and Ramdas Pophale) SiO2 
 PCOD8252479
Probable space group: P N M A
;
_chemical_formula_sum "Si O2"
_cell_formula_units_Z 40
_cell_length_a 12.658907
_cell_length_b 9.494372
_cell_length_c 16.598441
_cell_angle_alpha 90.000000
_cell_angle_beta 90.000000
_cell_angle_gamma 90.000000
_cell_volume 1994.939604
_symmetry_space_group_name_H-M "P N M A"
_symmetry_group_IT_number 62
_symmetry_cell_setting 'orthorhombic'
loop_
_space_group_symop_operation_xyz
x,y,z
1/2-x,-y,1/2+z
1/2+x,1/2-y,1/2-z
-x,1/2+y,-z
-x,-y,-z
1/2+x,y,1/2-z
1/2-x,1/2+y,1/2+z
x,1/2-y,z
loop_
_atom_site_type_symbol
_atom_site_label
_atom_site_fract_x
_atom_site_fract_y
_atom_site_fract_z
Si Si1 0.393848 0.594705 0.416526
Si Si2 0.493925 0.415061 0.083095
Si Si3 0.211342 0.916508 0.676484
Si Si4 0.424060 0.594513 0.601872
Si Si5 0.777155 0.913199 0.646595
O O1 0.379533 0.750000 0.377772
O O2 0.432969 0.612289 0.506915
O O3 0.482606 0.507425 0.366631
O O4 0.283898 0.509325 0.417878
O O5 0.479790 0.250000 0.062305
O O6 0.396620 0.475079 0.136859
O O7 0.598235 0.440045 0.136998
O O8 0.500000 0.500000 0.000000
O O9 0.206125 0.750000 0.673311
O O10 0.310996 0.971308 0.624851
O O11 0.232313 0.966582 0.767559
O O12 0.438765 0.750000 0.642441
O O13 0.749974 0.750000 0.631294
#
# Coordination Sequence:
#
# PCOD8252479 Si02
#       5
#     8   8   8   8   8
#     4  10  20  34  54  82 113 143 178 226 283 334
#     4  10  21  38  60  87 116 151 193 235 285 341
#     4   9  19  35  58  84 109 143 191 238 274 323
#     4   9  18  34  57  80 106 144 185 224 269 330
#     4  10  21  35  57  84 110 146 192 235 276 331
#
# _framework density 20.050733999999999
#
# number of rings (size 3 to 8) (size 9 to 14) (size 15 to 20)
#    0.000    2.400    0.000    1.800    2.800    3.200 
#    0.000    3.000    0.000    0.000    0.000    0.000 
#    0.000    0.000    0.000    0.000    0.000    0.000 
#
# Total GULP energy -495840.104340 kJ/mol
# GULP energy per Si atom -12396.002608 kJ/mol
# Density = 2.000510 g / cm^3
# Si number density = 20.050734 Si / 1000 Ang^3
#
#
#
# Elastic Constant Matrix: (Units=GPa)
#
#
# Indices 1 2 3 4 5 6 
#
# 1 148.1862 62.1299 27.8333 0.0000 0.0000 0.0000
# 2 62.1299 92.0318 25.0863 0.0000 0.0000 0.0000
# 3 27.8333 25.0863 64.4879 0.0000 0.0000 0.0000
# 4 0.0000 0.0000 0.0000 17.7344 0.0000 0.0000
# 5 0.0000 0.0000 0.0000 0.0000 36.4321 0.0000
# 6 0.0000 0.0000 0.0000 0.0000 0.0000 22.9324
#
#
#
# Elastic Compliance Matrix: (Units=1/GPa)
#
#
# Indices 1 2 3 4 5 6 
#
# 1 0.009599 -0.005985 -0.001814 0.000000 0.000000 0.000000
# 2 -0.005985 0.015887 -0.003597 0.000000 0.000000 0.000000
# 3 -0.001814 -0.003597 0.017689 0.000000 0.000000 0.000000
# 4 0.000000 0.000000 0.000000 0.056388 0.000000 0.000000
# 5 0.000000 0.000000 0.000000 0.000000 0.027448 0.000000
# 6 0.000000 0.000000 0.000000 0.000000 0.000000 0.043606
#
#
# Mechanical properties :
#
#
# Convention : Reuss Voigt Hill
#
# Bulk Modulus (GPa) = 49.06447 59.42278 54.24363
# Shear Modulus (GPa) = 24.97456 28.06354 26.51905
#
# Velocity S-wave (km/s) = 3.53309 3.74522 3.64070
# Velocity P-wave (km/s) = 6.41615 6.95721 6.69215
#
# Compressibility (1/GPa) = 0.02038135
#
# Stress axis : x y z
#
# Youngs Moduli (GPa) = 104.18277 62.94509 56.53199
#
# Poissons Ratio (x) = 0.37674 0.10257
# Poissons Ratio (y) = 0.62356 0.20334
# Poissons Ratio (z) = 0.18903 0.22640
#
# Static dielectric constant tensor:
#      x y z
#    x 3.899760 0.000000 0.000000 
#    y 0.000000 3.719310 0.000000 
#    z 0.000000 0.000000 3.452970 
# 
# 
# High freq. dielectric constant tensor:
#      x y z
#    x 1.800010 0.000000 0.000000 
#    y 0.000000 1.757270 0.000000 
#    z 0.000000 0.000000 1.763470 
# 
# From -- ./inp_files/17810.got.cif
#   From: 2010.03.12/outbox.cif.g09.slc.cpg/sg62_9_cif.got.tgz:17810.got - 2010.04.10 19:12:36.
