data_PCOD8252936
_publ_section_title
;
Structure prediction by ZEFSAII (Michael W. Deem and Ramdas Pophale) SiO2 
 PCOD8252936
Probable space group: P N M A
;
_chemical_formula_sum "Si O2"
_cell_formula_units_Z 40
_cell_length_a 9.658935
_cell_length_b 8.585445
_cell_length_c 25.645845
_cell_angle_alpha 90.000000
_cell_angle_beta 90.000000
_cell_angle_gamma 90.000000
_cell_volume 2126.713887
_symmetry_space_group_name_H-M "P N M A"
_symmetry_group_IT_number 62
_symmetry_cell_setting 'orthorhombic'
loop_
_space_group_symop_operation_xyz
x,y,z
1/2-x,-y,1/2+z
1/2+x,1/2-y,1/2-z
-x,1/2+y,-z
-x,-y,-z
1/2+x,y,1/2-z
1/2-x,1/2+y,1/2+z
x,1/2-y,z
loop_
_atom_site_type_symbol
_atom_site_label
_atom_site_fract_x
_atom_site_fract_y
_atom_site_fract_z
Si Si1 0.792999 0.930884 0.139186
Si Si2 0.510197 0.932564 0.557145
Si Si3 0.698625 0.930627 0.365195
Si Si4 0.993101 0.570731 0.326624
Si Si5 0.497727 0.569075 0.715266
O O1 0.829241 0.750000 0.145153
O O2 0.628659 0.960784 0.138525
O O3 0.856688 0.992904 0.085371
O O4 0.857961 0.020381 0.188509
O O5 0.532250 0.750000 0.554349
O O6 0.500000 0.000000 0.500000
O O7 0.369798 0.970132 0.588579
O O8 0.673652 0.750000 0.377321
O O9 0.861109 0.971222 0.362270
O O10 0.628433 0.972740 0.309968
O O11 0.985367 0.750000 0.307964
O O12 0.994718 0.461992 0.276340
O O13 0.471007 0.750000 0.704966
#
# Coordination Sequence:
#
# PCOD8252936 Si02
#       5
#     8   8   8   8   8
#     4  10  20  36  56  79 107 140 179 220 263 311
#     4  11  22  39  61  82 103 133 174 217 265 318
#     4  10  20  36  56  79 107 140 179 220 263 311
#     4  10  21  35  53  78 110 145 178 216 263 312
#     4  11  21  32  50  78 111 148 185 217 255 308
#
# _framework density 18.808361000000001
#
# number of rings (size 3 to 8) (size 9 to 14) (size 15 to 20)
#    0.000    1.600    0.000    8.400    0.000    8.000 
#    0.000    1.000    0.000    0.000    0.000    0.000 
#    0.000    0.000    0.000    0.000    0.000    0.000 
#
# Total GULP energy -496156.174025 kJ/mol
# GULP energy per Si atom -12403.904351 kJ/mol
# Density = 1.876555 g / cm^3
# Si number density = 18.808361 Si / 1000 Ang^3
#
#
#
# Elastic Constant Matrix: (Units=GPa)
#
#
# Indices 1 2 3 4 5 6 
#
# 1 151.2786 22.9735 45.6693 0.0000 0.0000 0.0000
# 2 22.9735 63.6811 22.8878 0.0000 0.0000 0.0000
# 3 45.6693 22.8878 111.3314 0.0000 0.0000 0.0000
# 4 0.0000 0.0000 0.0000 32.5678 0.0000 0.0000
# 5 0.0000 0.0000 0.0000 0.0000 9.6529 0.0000
# 6 0.0000 0.0000 0.0000 0.0000 0.0000 13.2068
#
#
#
# Elastic Compliance Matrix: (Units=1/GPa)
#
#
# Indices 1 2 3 4 5 6 
#
# 1 0.007727 -0.001780 -0.002804 0.000000 0.000000 0.000000
# 2 -0.001780 0.017366 -0.002840 0.000000 0.000000 0.000000
# 3 -0.002804 -0.002840 0.010716 0.000000 0.000000 0.000000
# 4 0.000000 0.000000 0.000000 0.030705 0.000000 0.000000
# 5 0.000000 0.000000 0.000000 0.000000 0.103596 0.000000
# 6 0.000000 0.000000 0.000000 0.000000 0.000000 0.075719
#
#
# Mechanical properties :
#
#
# Convention : Reuss Voigt Hill
#
# Bulk Modulus (GPa) = 47.70556 56.59468 52.15012
# Shear Modulus (GPa) = 18.68018 26.73620 22.70819
#
# Velocity S-wave (km/s) = 3.15490 3.77438 3.47846
# Velocity P-wave (km/s) = 6.22015 7.01071 6.62723
#
# Compressibility (1/GPa) = 0.02096192
#
# Stress axis : x y z
#
# Youngs Moduli (GPa) = 129.41535 57.58342 93.31655
#
# Poissons Ratio (x) = 0.10249 0.26164
# Poissons Ratio (y) = 0.23034 0.26502
# Poissons Ratio (z) = 0.36286 0.16354
#
# Static dielectric constant tensor:
#      x y z
#    x 3.581860 0.000000 0.000000 
#    y 0.000000 3.557380 0.000000 
#    z 0.000000 0.000000 3.212960 
# 
# 
# High freq. dielectric constant tensor:
#      x y z
#    x 1.736430 0.000000 0.000000 
#    y 0.000000 1.743660 0.000000 
#    z 0.000000 0.000000 1.709190 
# 
# From -- ./inp_files/30677.got.cif
#   From: 2010.03.12/outbox.cif.g09.slc.cpg/sg62_16_cif.got.tgz:30677.got - 2010.04.10 19:12:36.
