data_PCOD8252756
_publ_section_title
;
Structure prediction by ZEFSAII (Michael W. Deem and Ramdas Pophale) SiO2 
 PCOD8252756
Probable space group: P N M A
;
_chemical_formula_sum "Si O2"
_cell_formula_units_Z 64
_cell_length_a 12.763002
_cell_length_b 8.714784
_cell_length_c 29.283690
_cell_angle_alpha 90.000000
_cell_angle_beta 90.000000
_cell_angle_gamma 90.000000
_cell_volume 3257.131296
_symmetry_space_group_name_H-M "P N M A"
_symmetry_group_IT_number 62
_symmetry_cell_setting 'orthorhombic'
loop_
_space_group_symop_operation_xyz
x,y,z
1/2-x,-y,1/2+z
1/2+x,1/2-y,1/2-z
-x,1/2+y,-z
-x,-y,-z
1/2+x,y,1/2-z
1/2-x,1/2+y,1/2+z
x,1/2-y,z
loop_
_atom_site_type_symbol
_atom_site_label
_atom_site_fract_x
_atom_site_fract_y
_atom_site_fract_z
Si Si1 0.203449 0.929098 0.467682
Si Si2 0.824787 0.431088 0.431100
Si Si3 0.054603 0.075859 0.205380
Si Si4 0.123002 0.572974 0.297565
Si Si5 0.536300 0.567934 0.105519
Si Si6 0.874811 0.073490 0.886464
Si Si7 0.603345 0.073977 0.589312
Si Si8 0.326459 0.077694 0.321807
O O1 0.181660 0.750000 0.470240
O O2 0.180797 0.000336 0.517488
O O3 0.326071 0.959840 0.455456
O O4 0.123174 0.999086 0.430014
O O5 0.839857 0.250000 0.431414
O O6 0.921881 0.506126 0.405481
O O7 0.717702 0.468985 0.405204
O O8 0.089481 0.250000 0.194862
O O9 0.929912 0.060858 0.208378
O O10 0.091489 0.028575 0.255006
O O11 0.102406 0.968151 0.166136
O O12 0.098569 0.750000 0.287686
O O13 0.246472 0.549198 0.303957
O O14 0.064798 0.513979 0.343316
O O15 0.536231 0.750000 0.103247
O O16 0.839701 0.250000 0.888485
O O17 0.978983 0.045475 0.917733
O O18 0.621304 0.250000 0.605736
O O19 0.645309 0.955153 0.626087
O O20 0.280099 0.250000 0.318355
#
# Coordination Sequence:
#
# PCOD8252756 Si02
#       8
#     8   8   8   8   8   8   8   8
#     4   9  18  36  60  86 115 153 195 243 298 349
#     4  11  23  37  57  84 121 161 196 241 299 350
#     4  10  22  39  59  85 117 149 186 236 293 347
#     4  11  22  37  61  87 112 150 194 237 286 346
#     4  10  21  39  60  82 115 154 200 247 288 347
#     4  10  21  38  60  84 115 155 197 239 288 351
#     4   9  17  35  61  84 110 148 194 240 286 343
#     4  10  20  35  56  83 115 148 183 235 293 342
#
# _framework density 19.649193
#
# number of rings (size 3 to 8) (size 9 to 14) (size 15 to 20)
#    0.000    2.000    1.250    2.250    0.000    4.500 
#    0.000    4.375    0.000    0.000    0.000    0.000 
#    0.000    0.000    0.000    0.000    0.000    0.000 
#
# Total GULP energy -793524.225598 kJ/mol
# GULP energy per Si atom -12398.816025 kJ/mol
# Density = 1.960447 g / cm^3
# Si number density = 19.649193 Si / 1000 Ang^3
#
#
#
# Elastic Constant Matrix: (Units=GPa)
#
#
# Indices 1 2 3 4 5 6 
#
# 1 107.8599 7.8639 36.1525 0.0000 0.0000 0.0000
# 2 7.8639 13.2249 -1.8871 0.0000 0.0000 0.0000
# 3 36.1525 -1.8871 67.5444 0.0000 0.0000 0.0000
# 4 0.0000 0.0000 0.0000 22.4705 0.0000 0.0000
# 5 0.0000 0.0000 0.0000 0.0000 17.0979 0.0000
# 6 0.0000 0.0000 0.0000 0.0000 0.0000 26.1409
#
#
#
# Elastic Compliance Matrix: (Units=1/GPa)
#
#
# Indices 1 2 3 4 5 6 
#
# 1 0.012117 -0.008163 -0.006713 0.000000 0.000000 0.000000
# 2 -0.008163 0.081417 0.006644 0.000000 0.000000 0.000000
# 3 -0.006713 0.006644 0.018584 0.000000 0.000000 0.000000
# 4 0.000000 0.000000 0.000000 0.044503 0.000000 0.000000
# 5 0.000000 0.000000 0.000000 0.000000 0.058487 0.000000
# 6 0.000000 0.000000 0.000000 0.000000 0.000000 0.038254
#
#
# Mechanical properties :
#
#
# Convention : Reuss Voigt Hill
#
# Bulk Modulus (GPa) = 10.45452 30.32088 20.38770
# Shear Modulus (GPa) = 16.57220 22.90852 19.74036
#
# Velocity S-wave (km/s) = 2.90729 3.41820 3.17304
# Velocity P-wave (km/s) = 4.07455 5.57166 4.88085
#
# Compressibility (1/GPa) = 0.09565242
#
# Stress axis : x y z
#
# Youngs Moduli (GPa) = 82.53135 12.28248 53.80988
#
# Poissons Ratio (x) = 0.10026 0.36125
# Poissons Ratio (y) = 0.67369 -0.35750
# Poissons Ratio (z) = 0.55406 -0.08160
#
# Static dielectric constant tensor:
#      x y z
#    x 3.756010 0.000000 0.000000 
#    y 0.000000 3.452870 0.000000 
#    z 0.000000 0.000000 3.603850 
# 
# 
# High freq. dielectric constant tensor:
#      x y z
#    x 1.772290 0.000000 0.000000 
#    y 0.000000 1.757200 0.000000 
#    z 0.000000 0.000000 1.759880 
# 
# From -- ./inp_files/32592.got.cif
#   From: 2010.03.12/outbox.cif.g09.slc.cpg/sg62_17_cif.got.tgz:32592.got - 2010.04.10 19:12:36.
