data_PCOD8252387
_publ_section_title
;
Structure prediction by ZEFSAII (Michael W. Deem and Ramdas Pophale) SiO2 
 PCOD8252387
Probable space group: P N M A
;
_chemical_formula_sum "Si O2"
_cell_formula_units_Z 64
_cell_length_a 8.800766
_cell_length_b 26.970992
_cell_length_c 14.623718
_cell_angle_alpha 90.000000
_cell_angle_beta 90.000000
_cell_angle_gamma 90.000000
_cell_volume 3471.164517
_symmetry_space_group_name_H-M "P N M A"
_symmetry_group_IT_number 62
_symmetry_cell_setting 'orthorhombic'
loop_
_space_group_symop_operation_xyz
x,y,z
1/2-x,-y,1/2+z
1/2+x,1/2-y,1/2-z
-x,1/2+y,-z
-x,-y,-z
1/2+x,y,1/2-z
1/2-x,1/2+y,1/2+z
x,1/2-y,z
loop_
_atom_site_type_symbol
_atom_site_label
_atom_site_fract_x
_atom_site_fract_y
_atom_site_fract_z
Si Si1 0.174170 0.082894 0.650929
Si Si2 0.333729 0.692179 0.836642
Si Si3 0.167023 0.976672 0.590325
Si Si4 0.685471 0.807858 0.853401
Si Si5 0.314594 0.079966 0.835597
Si Si6 0.185356 0.884319 0.966086
Si Si7 0.328649 0.886523 0.522830
Si Si8 0.836952 0.977987 0.605681
O O1 0.251113 0.104723 0.742547
O O2 0.230490 0.113440 0.563308
O O3 0.993750 0.088519 0.655560
O O4 0.227352 0.025470 0.641800
O O5 0.303967 0.750000 0.852482
O O6 0.273407 0.675519 0.737798
O O7 0.509779 0.678086 0.842063
O O8 0.240874 0.664677 0.915453
O O9 0.286040 0.931302 0.593077
O O10 0.005421 0.958089 0.632385
O O11 0.142325 0.989946 0.485309
O O12 0.707915 0.750000 0.872848
O O13 0.755112 0.836203 0.939761
O O14 0.231033 0.105418 0.920529
O O15 0.276825 0.020613 0.825479
O O16 0.221762 0.932442 0.903301
O O17 0.007822 0.881488 0.982136
#
# Coordination Sequence:
#
# PCOD8252387 Si02
#       8
#     8   8   8   8   8   8   8   8
#     4  10  20  34  52  75 106 143 182 221 260 305
#     4  10  21  38  59  81 105 133 168 213 264 316
#     4   8  16  31  48  68  99 136 173 214 254 295
#     4  10  21  38  59  81 105 133 168 213 264 316
#     4  10  20  34  52  75 106 143 182 221 260 305
#     4  11  21  33  53  79 108 141 176 215 260 313
#     4  11  21  33  53  79 108 141 176 215 260 313
#     4   8  16  31  48  68  99 136 173 214 254 295
#
# _framework density 18.437615999999998
#
# number of rings (size 3 to 8) (size 9 to 14) (size 15 to 20)
#    0.000    2.250    0.000    5.250    0.000    8.000 
#    0.000    2.500    0.000    0.750    0.000    0.000 
#    0.000    0.000    0.000    0.000    0.000    0.000 
#
# Total GULP energy -793409.111534 kJ/mol
# GULP energy per Si atom -12397.017368 kJ/mol
# Density = 1.839565 g / cm^3
# Si number density = 18.437616 Si / 1000 Ang^3
#
#
#
# Elastic Constant Matrix: (Units=GPa)
#
#
# Indices 1 2 3 4 5 6 
#
# 1 113.2066 32.5757 33.8797 0.0000 0.0000 0.0000
# 2 32.5757 56.3858 31.0427 0.0000 0.0000 0.0000
# 3 33.8797 31.0427 81.4849 0.0000 0.0000 0.0000
# 4 0.0000 0.0000 0.0000 24.3618 0.0000 0.0000
# 5 0.0000 0.0000 0.0000 0.0000 30.4977 0.0000
# 6 0.0000 0.0000 0.0000 0.0000 0.0000 25.7703
#
#
#
# Elastic Compliance Matrix: (Units=1/GPa)
#
#
# Indices 1 2 3 4 5 6 
#
# 1 0.011057 -0.004881 -0.002738 0.000000 0.000000 0.000000
# 2 -0.004881 0.024596 -0.007341 0.000000 0.000000 0.000000
# 3 -0.002738 -0.007341 0.016207 0.000000 0.000000 0.000000
# 4 0.000000 0.000000 0.000000 0.041048 0.000000 0.000000
# 5 0.000000 0.000000 0.000000 0.000000 0.032789 0.000000
# 6 0.000000 0.000000 0.000000 0.000000 0.000000 0.038804
#
#
# Mechanical properties :
#
#
# Convention : Reuss Voigt Hill
#
# Bulk Modulus (GPa) = 45.57598 49.56372 47.56985
# Shear Modulus (GPa) = 24.78495 26.36457 25.57476
#
# Velocity S-wave (km/s) = 3.67039 3.78555 3.72842
# Velocity P-wave (km/s) = 6.53721 6.78582 6.66267
#
# Compressibility (1/GPa) = 0.02194138
#
# Stress axis : x y z
#
# Youngs Moduli (GPa) = 90.43832 40.65677 61.70088
#
# Poissons Ratio (x) = 0.19843 0.16894
# Poissons Ratio (y) = 0.44140 0.45294
# Poissons Ratio (z) = 0.24762 0.29846
#
# Static dielectric constant tensor:
#      x y z
#    x 3.436820 0.000000 0.000000 
#    y 0.000000 3.240020 0.000000 
#    z 0.000000 0.000000 3.404730 
# 
# 
# High freq. dielectric constant tensor:
#      x y z
#    x 1.726710 0.000000 0.000000 
#    y 0.000000 1.689990 0.000000 
#    z 0.000000 0.000000 1.709030 
# 
# From -- ./inp_files/17363.got.cif
#   From: 2010.03.12/outbox.cif.g09.slc.cpg/sg62_9_cif.got.tgz:17363.got - 2010.04.10 19:12:36.
