data_PCOD8252470
_publ_section_title
;
Structure prediction by ZEFSAII (Michael W. Deem and Ramdas Pophale) SiO2 
 PCOD8252470
Probable space group: P N M A
;
_chemical_formula_sum "Si O2"
_cell_formula_units_Z 64
_cell_length_a 24.691768
_cell_length_b 9.179094
_cell_length_c 15.245592
_cell_angle_alpha 90.000000
_cell_angle_beta 90.000000
_cell_angle_gamma 90.000000
_cell_volume 3455.383843
_symmetry_space_group_name_H-M "P N M A"
_symmetry_group_IT_number 62
_symmetry_cell_setting 'orthorhombic'
loop_
_space_group_symop_operation_xyz
x,y,z
1/2-x,-y,1/2+z
1/2+x,1/2-y,1/2-z
-x,1/2+y,-z
-x,-y,-z
1/2+x,y,1/2-z
1/2-x,1/2+y,1/2+z
x,1/2-y,z
loop_
_atom_site_type_symbol
_atom_site_label
_atom_site_fract_x
_atom_site_fract_y
_atom_site_fract_z
Si Si1 0.862053 0.916366 0.316814
Si Si2 0.838011 0.578805 0.508798
Si Si3 0.438590 0.076555 0.315547
Si Si4 0.359331 0.419738 0.817884
Si Si5 0.549920 0.576709 0.319389
Si Si6 0.896537 0.422530 0.996272
Si Si7 0.718801 0.921660 0.540428
Si Si8 0.261285 0.914620 0.290924
O O1 0.881412 0.750000 0.300571
O O2 0.869077 0.959828 0.418852
O O3 0.797614 0.929591 0.296335
O O4 0.896346 0.025132 0.257692
O O5 0.838987 0.750000 0.527036
O O6 0.867604 0.500726 0.589539
O O7 0.775573 0.523291 0.500044
O O8 0.442946 0.250000 0.311920
O O9 0.420621 0.019786 0.411729
O O10 0.495653 0.004793 0.292071
O O11 0.364654 0.250000 0.837437
O O12 0.405110 0.471376 0.750827
O O13 0.301242 0.458803 0.773663
O O14 0.540926 0.750000 0.319601
O O15 0.568833 0.517356 0.414755
O O16 0.899174 0.250000 0.994995
O O17 0.833743 0.473585 0.984987
O O18 0.718086 0.750000 0.548724
O O19 0.711256 0.982347 0.637852
O O20 0.262896 0.750000 0.327178
#
# Coordination Sequence:
#
# PCOD8252470 Si02
#       8
#     8   8   8   8   8   8   8   8
#     4  10  20  34  54  81 109 142 181 219 264 319
#     4   9  19  33  54  80 110 144 177 218 265 317
#     4  11  22  37  55  79 109 142 181 226 269 315
#     4   9  19  35  55  79 108 140 178 222 269 316
#     4  10  21  37  57  78 104 144 184 223 267 319
#     4   9  18  32  53  80 109 141 176 213 262 320
#     4   9  16  30  51  77 109 141 173 208 255 317
#     4   9  17  30  50  77 108 138 170 213 261 312
#
# _framework density 18.521820999999999
#
# number of rings (size 3 to 8) (size 9 to 14) (size 15 to 20)
#    0.000    2.500    1.250    0.750    1.750    1.000 
#    0.000    1.875    0.000    0.000    0.000    0.000 
#    0.000    0.000    0.000    0.000    0.000    0.000 
#
# Total GULP energy -793368.233956 kJ/mol
# GULP energy per Si atom -12396.378656 kJ/mol
# Density = 1.847966 g / cm^3
# Si number density = 18.521821 Si / 1000 Ang^3
#
#
#
# Elastic Constant Matrix: (Units=GPa)
#
#
# Indices 1 2 3 4 5 6 
#
# 1 107.3405 34.7802 62.5385 0.0000 0.0000 0.0000
# 2 34.7802 32.7016 34.5999 0.0000 0.0000 0.0000
# 3 62.5385 34.5999 122.4319 0.0000 0.0000 0.0000
# 4 0.0000 0.0000 0.0000 27.2835 0.0000 0.0000
# 5 0.0000 0.0000 0.0000 0.0000 24.7215 0.0000
# 6 0.0000 0.0000 0.0000 0.0000 0.0000 24.1505
#
#
#
# Elastic Compliance Matrix: (Units=1/GPa)
#
#
# Indices 1 2 3 4 5 6 
#
# 1 0.015967 -0.011915 -0.004789 0.000000 0.000000 0.000000
# 2 -0.011915 0.052515 -0.008755 0.000000 0.000000 0.000000
# 3 -0.004789 -0.008755 0.013088 0.000000 0.000000 0.000000
# 4 0.000000 0.000000 0.000000 0.036652 0.000000 0.000000
# 5 0.000000 0.000000 0.000000 0.000000 0.040451 0.000000
# 6 0.000000 0.000000 0.000000 0.000000 0.000000 0.041407
#
#
# Mechanical properties :
#
#
# Convention : Reuss Voigt Hill
#
# Bulk Modulus (GPa) = 32.62339 58.47903 45.55121
# Shear Modulus (GPa) = 19.14138 23.93478 21.53808
#
# Velocity S-wave (km/s) = 3.21822 3.59868 3.41376
# Velocity P-wave (km/s) = 5.60901 6.99349 6.33916
#
# Compressibility (1/GPa) = 0.03065285
#
# Stress axis : x y z
#
# Youngs Moduli (GPa) = 62.63006 19.04217 76.40598
#
# Poissons Ratio (x) = 0.22689 0.36588
# Poissons Ratio (y) = 0.74624 0.66892
# Poissons Ratio (z) = 0.29991 0.16671
#
# Static dielectric constant tensor:
#      x y z
#    x 3.485210 0.000000 0.000000 
#    y 0.000000 3.202010 0.000000 
#    z 0.000000 0.000000 3.416750 
# 
# 
# High freq. dielectric constant tensor:
#      x y z
#    x 1.718500 0.000000 0.000000 
#    y 0.000000 1.697710 0.000000 
#    z 0.000000 0.000000 1.712570 
# 
# From -- ./inp_files/20771.got.cif
#   From: 2010.03.12/outbox.cif.g09.slc.cpg/sg62_11_cif.got.tgz:20771.got - 2010.04.10 19:12:36.
