data_PCOD8252396
_publ_section_title
;
Structure prediction by ZEFSAII (Michael W. Deem and Ramdas Pophale) SiO2 
 PCOD8252396
Probable space group: P N M A
;
_chemical_formula_sum "Si O2"
_cell_formula_units_Z 40
_cell_length_a 8.799349
_cell_length_b 9.675106
_cell_length_c 25.321853
_cell_angle_alpha 90.000000
_cell_angle_beta 90.000000
_cell_angle_gamma 90.000000
_cell_volume 2155.766695
_symmetry_space_group_name_H-M "P N M A"
_symmetry_group_IT_number 62
_symmetry_cell_setting 'orthorhombic'
loop_
_space_group_symop_operation_xyz
x,y,z
1/2-x,-y,1/2+z
1/2+x,1/2-y,1/2-z
-x,1/2+y,-z
-x,-y,-z
1/2+x,y,1/2-z
1/2-x,1/2+y,1/2+z
x,1/2-y,z
loop_
_atom_site_type_symbol
_atom_site_label
_atom_site_fract_x
_atom_site_fract_y
_atom_site_fract_z
Si Si1 0.200888 0.033975 0.616596
Si Si2 0.146553 0.750000 0.043231
Si Si3 0.690449 0.750000 0.579378
Si Si4 0.162830 0.250000 0.094918
Si Si5 0.206931 0.250000 0.972426
Si Si6 0.844380 0.467199 0.600565
Si Si7 0.835875 0.750000 0.297377
Si Si8 0.315224 0.250000 0.813611
O O1 0.291455 0.111735 0.570334
O O2 0.223098 0.114392 0.671781
O O3 0.025829 0.027408 0.599884
O O4 0.270905 0.883044 0.624769
O O5 0.965630 0.750000 0.047396
O O6 0.202928 0.750000 0.983419
O O7 0.518007 0.750000 0.598969
O O8 0.775481 0.618706 0.603253
O O9 0.220569 0.250000 0.035059
O O10 0.290519 0.112250 0.952070
O O11 0.781561 0.385462 0.651462
O O12 0.789390 0.750000 0.237055
O O13 0.014745 0.750000 0.294037
#
# Coordination Sequence:
#
# PCOD8252396 Si02
#       8
#     8   4   4   4   4   8   4   4
#     4  10  21  36  54  79 108 139 178 218 259 311
#     4  10  20  34  52  77 110 145 181 216 252 305
#     4  11  22  34  51  79 112 144 177 215 260 307
#     4  11  22  34  51  79 112 144 177 215 260 307
#     4  10  20  34  52  77 110 145 181 216 252 305
#     4  10  21  36  54  79 108 139 178 218 259 311
#     4   9  20  38  59  80 100 129 172 219 265 316
#     4   9  20  38  59  80 100 129 172 219 265 316
#
# _framework density 18.554883
#
# number of rings (size 3 to 8) (size 9 to 14) (size 15 to 20)
#    0.000    2.000    0.000    4.800    0.000   12.800 
#    0.000    1.000    0.000    0.000    0.000    0.000 
#    0.000    0.000    0.000    0.000    0.000    0.000 
#
# Total GULP energy -496149.806602 kJ/mol
# GULP energy per Si atom -12403.745165 kJ/mol
# Density = 1.851265 g / cm^3
# Si number density = 18.554883 Si / 1000 Ang^3
#
#
#
# Elastic Constant Matrix: (Units=GPa)
#
#
# Indices 1 2 3 4 5 6 
#
# 1 32.1835 17.5568 -6.3531 0.0000 0.0000 0.0000
# 2 17.5568 144.6968 11.0163 0.0000 0.0000 0.0000
# 3 -6.3531 11.0163 34.1763 0.0000 0.0000 0.0000
# 4 0.0000 0.0000 0.0000 10.3257 0.0000 0.0000
# 5 0.0000 0.0000 0.0000 0.0000 30.5112 0.0000
# 6 0.0000 0.0000 0.0000 0.0000 0.0000 39.3397
#
#
#
# Elastic Compliance Matrix: (Units=1/GPa)
#
#
# Indices 1 2 3 4 5 6 
#
# 1 0.035361 -0.004912 0.008157 0.000000 0.000000 0.000000
# 2 -0.004912 0.007767 -0.003417 0.000000 0.000000 0.000000
# 3 0.008157 -0.003417 0.031878 0.000000 0.000000 0.000000
# 4 0.000000 0.000000 0.000000 0.096845 0.000000 0.000000
# 5 0.000000 0.000000 0.000000 0.000000 0.032775 0.000000
# 6 0.000000 0.000000 0.000000 0.000000 0.000000 0.025420
#
#
# Mechanical properties :
#
#
# Convention : Reuss Voigt Hill
#
# Bulk Modulus (GPa) = 13.39360 28.38852 20.89106
# Shear Modulus (GPa) = 19.58660 28.62443 24.10552
#
# Velocity S-wave (km/s) = 3.25253 3.93197 3.60828
# Velocity P-wave (km/s) = 4.61945 5.99557 5.35192
#
# Compressibility (1/GPa) = 0.07466254
#
# Stress axis : x y z
#
# Youngs Moduli (GPa) = 28.27956 128.74871 31.37005
#
# Poissons Ratio (x) = 0.63235 -0.25587
# Poissons Ratio (y) = 0.13890 0.10718
# Poissons Ratio (z) = -0.23066 0.43989
#
# Static dielectric constant tensor:
#      x y z
#    x 3.484360 0.000000 0.000000 
#    y 0.000000 3.531880 0.000000 
#    z 0.000000 0.000000 3.272280 
# 
# 
# High freq. dielectric constant tensor:
#      x y z
#    x 1.734710 0.000000 0.000000 
#    y 0.000000 1.729580 0.000000 
#    z 0.000000 0.000000 1.700570 
# 
# From -- ./inp_files/28670.got.cif
#   From: 2010.03.12/outbox.cif.g09.slc.cpg/sg62_15_cif.got.tgz:28670.got - 2010.04.10 19:12:36.
