data_PCOD8252378
_publ_section_title
;
Structure prediction by ZEFSAII (Michael W. Deem and Ramdas Pophale) SiO2 
 PCOD8252378
Probable space group: P N M A
;
_chemical_formula_sum "Si O2"
_cell_formula_units_Z 64
_cell_length_a 23.604562
_cell_length_b 13.269146
_cell_length_c 11.954590
_cell_angle_alpha 90.000000
_cell_angle_beta 90.000000
_cell_angle_gamma 90.000000
_cell_volume 3744.325579
_symmetry_space_group_name_H-M "P N M A"
_symmetry_group_IT_number 62
_symmetry_cell_setting 'orthorhombic'
loop_
_space_group_symop_operation_xyz
x,y,z
1/2-x,-y,1/2+z
1/2+x,1/2-y,1/2-z
-x,1/2+y,-z
-x,-y,-z
1/2+x,y,1/2-z
1/2-x,1/2+y,1/2+z
x,1/2-y,z
loop_
_atom_site_type_symbol
_atom_site_label
_atom_site_fract_x
_atom_site_fract_y
_atom_site_fract_z
Si Si1 0.401301 0.003994 0.192805
Si Si2 0.190895 0.451260 0.304830
Si Si3 0.394614 0.865430 0.640622
Si Si4 0.888875 0.635070 0.519036
Si Si5 0.511235 0.136064 0.189489
Si Si6 0.292611 0.367991 0.174035
Si Si7 0.261857 0.134237 0.922963
Si Si8 0.129943 0.134739 0.890640
O O1 0.401252 0.937318 0.303997
O O2 0.461809 0.055753 0.180205
O O3 0.354552 0.090029 0.197956
O O4 0.388641 0.933614 0.088662
O O5 0.148043 0.443065 0.200575
O O6 0.167095 0.386339 0.408105
O O7 0.251736 0.409552 0.269978
O O8 0.197958 0.567515 0.342965
O O9 0.371987 0.750000 0.658848
O O10 0.457407 0.876270 0.691177
O O11 0.396763 0.892127 0.510650
O O12 0.887172 0.750000 0.478983
O O13 0.944479 0.611983 0.591449
O O14 0.487703 0.250000 0.177245
O O15 0.296322 0.250000 0.186068
O O16 0.269993 0.398879 0.051548
O O17 0.280032 0.250000 0.905017
O O18 0.196985 0.116080 0.890155
O O19 0.116600 0.250000 0.858855
#
# Coordination Sequence:
#
# PCOD8252378 Si02
#       8
#     8   8   8   8   8   8   8   8
#     4  12  21  33  53  79 114 138 171 222 278 322
#     4  11  18  34  58  80 104 140 181 221 256 311
#     4   9  18  35  59  78 100 140 187 222 254 316
#     4  10  21  36  55  80 106 138 182 225 262 315
#     4   9  20  37  55  76 101 135 182 229 269 313
#     4  11  21  33  52  79 109 143 176 213 263 321
#     4  10  20  34  51  78 113 141 174 215 264 322
#     4  10  20  34  53  77 106 142 179 218 264 319
#
# _framework density 17.092531000000001
#
# number of rings (size 3 to 8) (size 9 to 14) (size 15 to 20)
#    0.000    1.750    3.750    3.000    0.000    0.500 
#    0.000    0.000    0.000    4.500    0.000    0.000 
#    0.000    0.000    0.000    0.000    0.000    0.000 
#
# Total GULP energy -793703.378733 kJ/mol
# GULP energy per Si atom -12401.615293 kJ/mol
# Density = 1.705363 g / cm^3
# Si number density = 17.092531 Si / 1000 Ang^3
#
#
#
# Elastic Constant Matrix: (Units=GPa)
#
#
# Indices 1 2 3 4 5 6 
#
# 1 67.3656 33.6891 23.5847 0.0000 0.0000 0.0000
# 2 33.6891 78.6132 43.1295 0.0000 0.0000 0.0000
# 3 23.5847 43.1295 93.3089 0.0000 0.0000 0.0000
# 4 0.0000 0.0000 0.0000 31.3432 0.0000 0.0000
# 5 0.0000 0.0000 0.0000 0.0000 16.6697 0.0000
# 6 0.0000 0.0000 0.0000 0.0000 0.0000 24.2035
#
#
#
# Elastic Compliance Matrix: (Units=1/GPa)
#
#
# Indices 1 2 3 4 5 6 
#
# 1 0.019028 -0.007389 -0.001394 0.000000 0.000000 0.000000
# 2 -0.007389 0.019912 -0.007336 0.000000 0.000000 0.000000
# 3 -0.001394 -0.007336 0.014460 0.000000 0.000000 0.000000
# 4 0.000000 0.000000 0.000000 0.031905 0.000000 0.000000
# 5 0.000000 0.000000 0.000000 0.000000 0.059989 0.000000
# 6 0.000000 0.000000 0.000000 0.000000 0.000000 0.041316
#
#
# Mechanical properties :
#
#
# Convention : Reuss Voigt Hill
#
# Bulk Modulus (GPa) = 47.25605 48.89936 48.07770
# Shear Modulus (GPa) = 22.13342 23.70224 22.91783
#
# Velocity S-wave (km/s) = 3.60240 3.72788 3.66568
# Velocity P-wave (km/s) = 6.70897 6.87024 6.79008
#
# Compressibility (1/GPa) = 0.02116131
#
# Stress axis : x y z
#
# Youngs Moduli (GPa) = 52.55471 50.22110 69.15506
#
# Poissons Ratio (x) = 0.37111 0.09639
# Poissons Ratio (y) = 0.38835 0.50732
# Poissons Ratio (z) = 0.07325 0.36842
#
# Static dielectric constant tensor:
#      x y z
#    x 3.074680 0.000000 0.000000 
#    y 0.000000 3.191630 0.000000 
#    z 0.000000 0.000000 3.265170 
# 
# 
# High freq. dielectric constant tensor:
#      x y z
#    x 1.652080 0.000000 0.000000 
#    y 0.000000 1.658330 0.000000 
#    z 0.000000 0.000000 1.663290 
# 
# From -- ./inp_files/15302.got.cif
#   From: 2010.03.12/outbox.cif.g09.slc.cpg/sg62_8_cif.got.tgz:15302.got - 2010.04.10 19:12:36.
