data_PCOD8252947
_publ_section_title
;
Structure prediction by ZEFSAII (Michael W. Deem and Ramdas Pophale) SiO2 
 PCOD8252947
Probable space group: P N M A
;
_chemical_formula_sum "Si O2"
_cell_formula_units_Z 48
_cell_length_a 14.225468
_cell_length_b 12.215787
_cell_length_c 14.574959
_cell_angle_alpha 90.000000
_cell_angle_beta 90.000000
_cell_angle_gamma 90.000000
_cell_volume 2532.767684
_symmetry_space_group_name_H-M "P N M A"
_symmetry_group_IT_number 62
_symmetry_cell_setting 'orthorhombic'
loop_
_space_group_symop_operation_xyz
x,y,z
1/2-x,-y,1/2+z
1/2+x,1/2-y,1/2-z
-x,1/2+y,-z
-x,-y,-z
1/2+x,y,1/2-z
1/2-x,1/2+y,1/2+z
x,1/2-y,z
loop_
_atom_site_type_symbol
_atom_site_label
_atom_site_fract_x
_atom_site_fract_y
_atom_site_fract_z
Si Si1 0.682177 0.125425 0.469449
Si Si2 0.853902 0.521678 0.456126
Si Si3 0.107552 0.477639 0.207399
Si Si4 0.442116 0.876703 0.361746
Si Si5 0.719706 0.376116 0.777471
Si Si6 0.524075 0.377997 0.111931
O O1 0.714696 0.250000 0.482480
O O2 0.770351 0.050976 0.497852
O O3 0.651417 0.107267 0.364723
O O4 0.595297 0.098837 0.536285
O O5 0.812202 0.605429 0.381940
O O6 0.897199 0.593138 0.537320
O O7 0.929162 0.442877 0.408421
O O8 0.189159 0.553480 0.249253
O O9 0.059698 0.408934 0.287480
O O10 0.034743 0.553419 0.153581
O O11 0.468920 0.750000 0.348446
O O12 0.363623 0.913176 0.289122
O O13 0.745798 0.250000 0.762439
O O14 0.501559 0.250000 0.108083
#
# Coordination Sequence:
#
# PCOD8252947 Si02
#       6
#     8   8   8   8   8   8
#     4  10  21  37  58  81 113 154 191 236 286 343
#     4  10  21  38  58  82 115 150 193 239 288 339
#     4  11  21  36  57  84 117 150 189 235 292 343
#     4  10  20  36  56  82 112 147 194 237 284 340
#     4  10  20  36  58  84 114 149 193 239 286 335
#     4  11  22  37  58  85 116 151 192 238 290 345
#
# _framework density 18.951599999999999
#
# number of rings (size 3 to 8) (size 9 to 14) (size 15 to 20)
#    0.000    1.667    1.667    3.500    0.000    0.000 
#    0.000    1.667    0.000    4.000    0.000    0.000 
#    0.000    0.000    0.000    0.000    0.000    0.000 
#
# Total GULP energy -595440.487847 kJ/mol
# GULP energy per Si atom -12405.010163 kJ/mol
# Density = 1.890846 g / cm^3
# Si number density = 18.951600 Si / 1000 Ang^3
#
#
#
# Elastic Constant Matrix: (Units=GPa)
#
#
# Indices 1 2 3 4 5 6 
#
# 1 60.2574 12.9799 -0.8659 0.0000 0.0000 0.0000
# 2 12.9799 61.1899 7.2714 0.0000 0.0000 0.0000
# 3 -0.8659 7.2714 57.3248 0.0000 0.0000 0.0000
# 4 0.0000 0.0000 0.0000 26.5729 0.0000 0.0000
# 5 0.0000 0.0000 0.0000 0.0000 19.0216 0.0000
# 6 0.0000 0.0000 0.0000 0.0000 0.0000 4.3954
#
#
#
# Elastic Compliance Matrix: (Units=1/GPa)
#
#
# Indices 1 2 3 4 5 6 
#
# 1 0.017421 -0.003784 0.000743 0.000000 0.000000 0.000000
# 2 -0.003784 0.017414 -0.002266 0.000000 0.000000 0.000000
# 3 0.000743 -0.002266 0.017743 0.000000 0.000000 0.000000
# 4 0.000000 0.000000 0.000000 0.037632 0.000000 0.000000
# 5 0.000000 0.000000 0.000000 0.000000 0.052572 0.000000
# 6 0.000000 0.000000 0.000000 0.000000 0.000000 0.227510
#
#
# Mechanical properties :
#
#
# Convention : Reuss Voigt Hill
#
# Bulk Modulus (GPa) = 23.82923 24.17144 24.00034
# Shear Modulus (GPa) = 12.66160 20.62375 16.64267
#
# Velocity S-wave (km/s) = 2.58757 3.30242 2.96660
# Velocity P-wave (km/s) = 4.63987 5.22717 4.94225
#
# Compressibility (1/GPa) = 0.04196526
#
# Stress axis : x y z
#
# Youngs Moduli (GPa) = 57.40128 57.42349 56.35989
#
# Poissons Ratio (x) = 0.21728 -0.04188
# Poissons Ratio (y) = 0.21719 0.12772
# Poissons Ratio (z) = -0.04266 0.13013
#
# Static dielectric constant tensor:
#      x y z
#    x 3.492610 0.000000 0.000000 
#    y 0.000000 3.361710 0.000000 
#    z 0.000000 0.000000 3.488140 
# 
# 
# High freq. dielectric constant tensor:
#      x y z
#    x 1.743750 0.000000 0.000000 
#    y 0.000000 1.736610 0.000000 
#    z 0.000000 0.000000 1.744660 
# 
# From -- ./inp_files/18874.got.cif
#   From: 2010.03.12/outbox.cif.g09.slc.cpg/sg62_10_cif.got.tgz:18874.got - 2010.04.10 19:12:36.
