data_PCOD8252461
_publ_section_title
;
Structure prediction by ZEFSAII (Michael W. Deem and Ramdas Pophale) SiO2 
 PCOD8252461
Probable space group: P N M A
;
_chemical_formula_sum "Si O2"
_cell_formula_units_Z 64
_cell_length_a 19.574420
_cell_length_b 8.571723
_cell_length_c 20.210779
_cell_angle_alpha 90.000000
_cell_angle_beta 90.000000
_cell_angle_gamma 90.000000
_cell_volume 3391.095994
_symmetry_space_group_name_H-M "P N M A"
_symmetry_group_IT_number 62
_symmetry_cell_setting 'orthorhombic'
loop_
_space_group_symop_operation_xyz
x,y,z
1/2-x,-y,1/2+z
1/2+x,1/2-y,1/2-z
-x,1/2+y,-z
-x,-y,-z
1/2+x,y,1/2-z
1/2-x,1/2+y,1/2+z
x,1/2-y,z
loop_
_atom_site_type_symbol
_atom_site_label
_atom_site_fract_x
_atom_site_fract_y
_atom_site_fract_z
Si Si1 0.174342 0.566138 0.929660
Si Si2 0.674516 0.567278 0.421963
Si Si3 0.579604 0.069174 0.823460
Si Si4 0.179820 0.930863 0.573042
Si Si5 0.327217 0.567952 0.934870
Si Si6 0.920627 0.930414 0.812356
Si Si7 0.423314 0.066395 0.316181
Si Si8 0.079208 0.570383 0.325567
O O1 0.168244 0.750000 0.926886
O O2 0.251508 0.513780 0.912123
O O3 0.121682 0.495755 0.876317
O O4 0.155504 0.510857 0.003797
O O5 0.661370 0.750000 0.411592
O O6 0.753782 0.531717 0.408143
O O7 0.627451 0.469830 0.373294
O O8 0.596021 0.250000 0.835044
O O9 0.500204 0.031319 0.834700
O O10 0.620816 0.964755 0.874648
O O11 0.601146 0.021781 0.749539
O O12 0.199356 0.750000 0.575153
O O13 0.151203 0.975387 0.500727
O O14 0.327350 0.750000 0.952545
O O15 0.379926 0.534889 0.876829
O O16 0.913439 0.750000 0.793700
O O17 0.998080 0.971850 0.832601
O O18 0.897395 0.029085 0.748658
O O19 0.411368 0.250000 0.305941
O O20 0.095731 0.750000 0.339454
#
# Coordination Sequence:
#
# PCOD8252461 Si02
#       8
#     8   8   8   8   8   8   8   8
#     4   8  17  34  55  78 105 139 175 216 265 314
#     4  10  20  36  56  78 108 143 179 221 269 320
#     4  10  21  37  55  78 108 141 179 222 270 320
#     4  11  22  37  57  80 107 139 178 221 268 324
#     4  10  20  36  57  80 109 141 176 221 271 322
#     4  10  20  34  54  80 109 142 180 223 269 317
#     4   9  18  35  56  78 107 142 181 222 266 318
#     4  10  21  37  56  78 107 143 182 223 266 318
#
# _framework density 18.872955000000001
#
# number of rings (size 3 to 8) (size 9 to 14) (size 15 to 20)
#    0.000    2.250    0.000    3.750    0.000    4.000 
#    0.000    7.500    0.000    0.000    0.000    0.000 
#    0.000    0.000    0.000    0.000    0.000    0.000 
#
# Total GULP energy -793783.634909 kJ/mol
# GULP energy per Si atom -12402.869295 kJ/mol
# Density = 1.883000 g / cm^3
# Si number density = 18.872955 Si / 1000 Ang^3
#
#
#
# Elastic Constant Matrix: (Units=GPa)
#
#
# Indices 1 2 3 4 5 6 
#
# 1 76.3736 15.6254 70.7402 0.0000 0.0000 0.0000
# 2 15.6254 45.1508 18.7053 0.0000 0.0000 0.0000
# 3 70.7402 18.7053 122.0434 0.0000 0.0000 0.0000
# 4 0.0000 0.0000 0.0000 32.3586 0.0000 0.0000
# 5 0.0000 0.0000 0.0000 0.0000 42.6282 0.0000
# 6 0.0000 0.0000 0.0000 0.0000 0.0000 25.8559
#
#
#
# Elastic Compliance Matrix: (Units=1/GPa)
#
#
# Indices 1 2 3 4 5 6 
#
# 1 0.028711 -0.003248 -0.016144 0.000000 0.000000 0.000000
# 2 -0.003248 0.024017 -0.001798 0.000000 0.000000 0.000000
# 3 -0.016144 -0.001798 0.017827 0.000000 0.000000 0.000000
# 4 0.000000 0.000000 0.000000 0.030904 0.000000 0.000000
# 5 0.000000 0.000000 0.000000 0.000000 0.023459 0.000000
# 6 0.000000 0.000000 0.000000 0.000000 0.000000 0.038676
#
#
# Mechanical properties :
#
#
# Convention : Reuss Voigt Hill
#
# Bulk Modulus (GPa) = 35.49312 50.41218 42.95265
# Shear Modulus (GPa) = 23.21623 29.40169 26.30896
#
# Velocity S-wave (km/s) = 3.51113 3.95127 3.73769
# Velocity P-wave (km/s) = 5.94008 6.89827 6.43703
#
# Compressibility (1/GPa) = 0.02817448
#
# Stress axis : x y z
#
# Youngs Moduli (GPa) = 34.82929 41.63706 56.09410
#
# Poissons Ratio (x) = 0.13523 0.90560
# Poissons Ratio (y) = 0.11312 0.10088
# Poissons Ratio (z) = 0.56229 0.07488
#
# Static dielectric constant tensor:
#      x y z
#    x 3.466880 0.000000 0.000000 
#    y 0.000000 3.361980 0.000000 
#    z 0.000000 0.000000 3.551510 
# 
# 
# High freq. dielectric constant tensor:
#      x y z
#    x 1.729430 0.000000 0.000000 
#    y 0.000000 1.731590 0.000000 
#    z 0.000000 0.000000 1.738850 
# 
# From -- ./inp_files/24696.got.cif
#   From: 2010.03.12/outbox.cif.g09.slc.cpg/sg62_13_cif.got.tgz:24696.got - 2010.04.10 19:12:36.
