data_PCOD8252848
_publ_section_title
;
Structure prediction by ZEFSAII (Michael W. Deem and Ramdas Pophale) SiO2 
 PCOD8252848
Probable space group: P N M A
;
_chemical_formula_sum "Si O2"
_cell_formula_units_Z 56
_cell_length_a 14.909496
_cell_length_b 8.958981
_cell_length_c 21.097269
_cell_angle_alpha 90.000000
_cell_angle_beta 90.000000
_cell_angle_gamma 90.000000
_cell_volume 2818.044318
_symmetry_space_group_name_H-M "P N M A"
_symmetry_group_IT_number 62
_symmetry_cell_setting 'orthorhombic'
loop_
_space_group_symop_operation_xyz
x,y,z
1/2-x,-y,1/2+z
1/2+x,1/2-y,1/2-z
-x,1/2+y,-z
-x,-y,-z
1/2+x,y,1/2-z
1/2-x,1/2+y,1/2+z
x,1/2-y,z
loop_
_atom_site_type_symbol
_atom_site_label
_atom_site_fract_x
_atom_site_fract_y
_atom_site_fract_z
Si Si1 0.043304 0.919621 0.916757
Si Si2 0.472303 0.425133 0.065688
Si Si3 0.399644 0.079976 0.277383
Si Si4 0.786985 0.927043 0.398606
Si Si5 0.438448 0.922320 0.807335
Si Si6 0.858644 0.924087 0.979503
Si Si7 0.227301 0.574997 0.239948
O O1 0.062825 0.750000 0.938236
O O2 0.046919 0.939999 0.842199
O O3 0.943131 0.966720 0.935763
O O4 0.117335 0.025835 0.949159
O O5 0.455827 0.250000 0.054660
O O6 0.383150 0.497263 0.094235
O O7 0.552669 0.450508 0.116965
O O8 0.500000 0.500000 0.000000
O O9 0.367720 0.250000 0.267092
O O10 0.466602 0.027819 0.222282
O O11 0.313283 0.975696 0.279685
O O12 0.799207 0.750000 0.401527
O O13 0.740156 0.979288 0.332769
O O14 0.726045 0.981850 0.456428
O O15 0.419920 0.750000 0.792027
O O16 0.359870 0.012780 0.774443
O O17 0.834703 0.750000 0.977810
O O18 0.219018 0.750000 0.242346
#
# Coordination Sequence:
#
# PCOD8252848 Si02
#       7
#     8   8   8   8   8   8   8
#     4   9  19  35  56  85 120 155 194 247 306 359
#     4  11  24  43  67  92 122 163 208 258 313 370
#     4  10  20  38  62  86 116 155 198 246 297 362
#     4  11  23  40  61  88 122 161 206 254 308 370
#     4  10  22  41  65  91 121 161 207 254 307 370
#     4  10  20  35  58  85 117 157 201 247 298 362
#     4  11  24  38  60  92 123 157 198 253 312 364
#
# _framework density 19.871938
#
# number of rings (size 3 to 8) (size 9 to 14) (size 15 to 20)
#    0.000    1.714    1.429    2.571    0.000    6.857 
#    0.000    1.429    0.000    0.000    0.000    0.000 
#    0.000    0.000    0.000    0.000    0.000    0.000 
#
# Total GULP energy -694522.563952 kJ/mol
# GULP energy per Si atom -12402.188642 kJ/mol
# Density = 1.982671 g / cm^3
# Si number density = 19.871938 Si / 1000 Ang^3
#
#
#
# Elastic Constant Matrix: (Units=GPa)
#
#
# Indices 1 2 3 4 5 6 
#
# 1 97.0746 51.2293 42.7706 0.0000 0.0000 0.0000
# 2 51.2293 90.1978 50.6291 0.0000 0.0000 0.0000
# 3 42.7706 50.6291 108.4146 0.0000 0.0000 0.0000
# 4 0.0000 0.0000 0.0000 33.8621 0.0000 0.0000
# 5 0.0000 0.0000 0.0000 0.0000 30.7552 0.0000
# 6 0.0000 0.0000 0.0000 0.0000 0.0000 26.8749
#
#
#
# Elastic Compliance Matrix: (Units=1/GPa)
#
#
# Indices 1 2 3 4 5 6 
#
# 1 0.015262 -0.007167 -0.002674 0.000000 0.000000 0.000000
# 2 -0.007167 0.018391 -0.005761 0.000000 0.000000 0.000000
# 3 -0.002674 -0.005761 0.012969 0.000000 0.000000 0.000000
# 4 0.000000 0.000000 0.000000 0.029532 0.000000 0.000000
# 5 0.000000 0.000000 0.000000 0.000000 0.032515 0.000000
# 6 0.000000 0.000000 0.000000 0.000000 0.000000 0.037209
#
#
# Mechanical properties :
#
#
# Convention : Reuss Voigt Hill
#
# Bulk Modulus (GPa) = 64.86027 64.99389 64.92708
# Shear Modulus (GPa) = 27.43908 28.36898 27.90403
#
# Velocity S-wave (km/s) = 3.71994 3.78245 3.75132
# Velocity P-wave (km/s) = 7.15266 7.20092 7.17683
#
# Compressibility (1/GPa) = 0.01541776
#
# Stress axis : x y z
#
# Youngs Moduli (GPa) = 65.52277 54.37353 77.10648
#
# Poissons Ratio (x) = 0.38972 0.20617
# Poissons Ratio (y) = 0.46963 0.44421
# Poissons Ratio (z) = 0.17520 0.31325
#
# Static dielectric constant tensor:
#      x y z
#    x 3.543350 0.000000 0.000000 
#    y 0.000000 3.671210 0.000000 
#    z 0.000000 0.000000 3.779580 
# 
# 
# High freq. dielectric constant tensor:
#      x y z
#    x 1.772440 0.000000 0.000000 
#    y 0.000000 1.776590 0.000000 
#    z 0.000000 0.000000 1.783140 
# 
# From -- ./inp_files/27158.got.cif
#   From: 2010.03.12/outbox.cif.g09.slc.cpg/sg62_14_cif.got.tgz:27158.got - 2010.04.10 19:12:36.
