data_PCOD8252466
_publ_section_title
;
Structure prediction by ZEFSAII (Michael W. Deem and Ramdas Pophale) SiO2 
 PCOD8252466
Probable space group: P N M A
;
_chemical_formula_sum "Si O2"
_cell_formula_units_Z 64
_cell_length_a 16.800816
_cell_length_b 8.948291
_cell_length_c 21.935714
_cell_angle_alpha 90.000000
_cell_angle_beta 90.000000
_cell_angle_gamma 90.000000
_cell_volume 3297.784327
_symmetry_space_group_name_H-M "P N M A"
_symmetry_group_IT_number 62
_symmetry_cell_setting 'orthorhombic'
loop_
_space_group_symop_operation_xyz
x,y,z
1/2-x,-y,1/2+z
1/2+x,1/2-y,1/2-z
-x,1/2+y,-z
-x,-y,-z
1/2+x,y,1/2-z
1/2-x,1/2+y,1/2+z
x,1/2-y,z
loop_
_atom_site_type_symbol
_atom_site_label
_atom_site_fract_x
_atom_site_fract_y
_atom_site_fract_z
Si Si1 0.212257 0.074624 0.650883
Si Si2 0.629868 0.927428 0.402291
Si Si3 0.536321 0.077097 0.143118
Si Si4 0.107955 0.581908 0.558674
Si Si5 0.665804 0.577893 0.072550
Si Si6 0.829687 0.427332 0.037628
Si Si7 0.924026 0.574216 0.264004
Si Si8 0.046469 0.426035 0.874359
O O1 0.215363 0.250000 0.656198
O O2 0.303218 0.013817 0.646329
O O3 0.160036 0.013077 0.707795
O O4 0.169660 0.033540 0.587695
O O5 0.630000 0.750000 0.403712
O O6 0.652129 0.986754 0.469585
O O7 0.543987 0.984699 0.381010
O O8 0.553080 0.250000 0.155528
O O9 0.479821 0.051165 0.084555
O O10 0.619948 0.996258 0.129378
O O11 0.497622 0.007156 0.203580
O O12 0.134917 0.750000 0.576083
O O13 0.109359 0.558781 0.486365
O O14 0.682392 0.750000 0.088174
O O15 0.749498 0.498419 0.063110
O O16 0.821877 0.250000 0.040027
O O17 0.902513 0.479525 0.078856
O O18 0.934538 0.750000 0.275783
O O19 0.923292 0.535538 0.193142
O O20 0.053846 0.250000 0.888523
#
# Coordination Sequence:
#
# PCOD8252466 Si02
#       8
#     8   8   8   8   8   8   8   8
#     4   9  16  31  55  80 107 145 187 227 272 330
#     4   9  18  34  58  83 109 143 186 233 284 336
#     4  10  20  34  54  80 113 150 187 229 279 334
#     4   9  18  31  50  79 112 145 180 226 280 330
#     4  11  21  34  53  80 114 147 184 229 279 336
#     4  11  22  37  57  83 111 146 185 232 292 342
#     4   9  19  36  57  81 111 149 194 232 274 329
#     4  10  21  39  58  82 113 148 189 237 285 334
#
# _framework density 19.406969
#
# number of rings (size 3 to 8) (size 9 to 14) (size 15 to 20)
#    0.000    2.250    1.250    1.875    0.000    1.500 
#    2.250    1.250    0.000    0.000    0.000    0.000 
#    0.000    0.000    0.000    0.000    0.000    0.000 
#
# Total GULP energy -793442.266248 kJ/mol
# GULP energy per Si atom -12397.535410 kJ/mol
# Density = 1.936280 g / cm^3
# Si number density = 19.406969 Si / 1000 Ang^3
#
#
#
# Elastic Constant Matrix: (Units=GPa)
#
#
# Indices 1 2 3 4 5 6 
#
# 1 129.2000 36.7050 54.7378 0.0000 0.0000 0.0000
# 2 36.7050 49.3721 27.4414 0.0000 0.0000 0.0000
# 3 54.7378 27.4414 81.1542 0.0000 0.0000 0.0000
# 4 0.0000 0.0000 0.0000 23.1481 0.0000 0.0000
# 5 0.0000 0.0000 0.0000 0.0000 22.5692 0.0000
# 6 0.0000 0.0000 0.0000 0.0000 0.0000 29.5530
#
#
#
# Elastic Compliance Matrix: (Units=1/GPa)
#
#
# Indices 1 2 3 4 5 6 
#
# 1 0.011902 -0.005402 -0.006201 0.000000 0.000000 0.000000
# 2 -0.005402 0.027393 -0.005619 0.000000 0.000000 0.000000
# 3 -0.006201 -0.005619 0.018405 0.000000 0.000000 0.000000
# 4 0.000000 0.000000 0.000000 0.043200 0.000000 0.000000
# 5 0.000000 0.000000 0.000000 0.000000 0.044308 0.000000
# 6 0.000000 0.000000 0.000000 0.000000 0.000000 0.033838
#
#
# Mechanical properties :
#
#
# Convention : Reuss Voigt Hill
#
# Bulk Modulus (GPa) = 42.99998 55.27717 49.13858
# Shear Modulus (GPa) = 22.59966 24.44352 23.52159
#
# Velocity S-wave (km/s) = 3.41620 3.55283 3.48518
# Velocity P-wave (km/s) = 6.14537 6.73610 6.44751
#
# Compressibility (1/GPa) = 0.02325583
#
# Stress axis : x y z
#
# Youngs Moduli (GPa) = 84.02161 36.50512 54.33305
#
# Poissons Ratio (x) = 0.19718 0.33693
# Poissons Ratio (y) = 0.45384 0.30532
# Poissons Ratio (z) = 0.52103 0.20514
#
# Static dielectric constant tensor:
#      x y z
#    x 3.820770 0.000000 0.000000 
#    y 0.000000 3.396450 0.000000 
#    z 0.000000 0.000000 3.462510 
# 
# 
# High freq. dielectric constant tensor:
#      x y z
#    x 1.762710 0.000000 0.000000 
#    y 0.000000 1.740810 0.000000 
#    z 0.000000 0.000000 1.741430 
# 
# From -- ./inp_files/29794.got.cif
#   From: 2010.03.12/outbox.cif.g09.slc.cpg/sg62_15_cif.got.tgz:29794.got - 2010.04.10 19:12:36.
