data_PCOD8252370
_publ_section_title
;
Structure prediction by ZEFSAII (Michael W. Deem and Ramdas Pophale) SiO2 
 PCOD8252370
Probable space group: P N M A
;
_chemical_formula_sum "Si O2"
_cell_formula_units_Z 48
_cell_length_a 31.168659
_cell_length_b 9.184458
_cell_length_c 9.773198
_cell_angle_alpha 90.000000
_cell_angle_beta 90.000000
_cell_angle_gamma 90.000000
_cell_volume 2797.746413
_symmetry_space_group_name_H-M "P N M A"
_symmetry_group_IT_number 62
_symmetry_cell_setting 'orthorhombic'
loop_
_space_group_symop_operation_xyz
x,y,z
1/2-x,-y,1/2+z
1/2+x,1/2-y,1/2-z
-x,1/2+y,-z
-x,-y,-z
1/2+x,y,1/2-z
1/2-x,1/2+y,1/2+z
x,1/2-y,z
loop_
_atom_site_type_symbol
_atom_site_label
_atom_site_fract_x
_atom_site_fract_y
_atom_site_fract_z
Si Si1 0.782174 0.416800 0.611696
Si Si2 0.624198 0.585729 0.129538
Si Si3 0.536211 0.921713 0.413735
Si Si4 0.880777 0.581987 0.899232
Si Si5 0.785801 0.580008 0.896031
Si Si6 0.968150 0.085648 0.595455
O O1 0.770165 0.250000 0.640470
O O2 0.830758 0.429731 0.548603
O O3 0.778586 0.498815 0.754247
O O4 0.748905 0.483138 0.502904
O O5 0.621661 0.750000 0.196200
O O6 0.623602 0.459442 0.240968
O O7 0.580961 0.565915 0.038906
O O8 0.534390 0.750000 0.438888
O O9 0.530062 0.963951 0.254184
O O10 0.500000 0.000000 0.500000
O O11 0.582267 0.982458 0.467376
O O12 0.894341 0.750000 0.913769
O O13 0.833253 0.553207 0.961480
O O14 0.778510 0.750000 0.867224
O O15 0.983710 0.250000 0.584726
O O16 0.000000 0.000000 0.500000
#
# Coordination Sequence:
#
# PCOD8252370 Si02
#       6
#     8   8   8   8   8   8
#     4   9  17  31  50  69  93 125 157 193 236 279
#     4   8  15  29  47  66  90 122 160 195 228 275
#     4  10  20  34  51  72  96 124 159 196 234 278
#     4   9  16  28  47  69  94 124 157 193 233 280
#     4   9  18  31  48  72  98 123 156 197 238 281
#     4   9  18  31  48  70  94 120 153 192 232 277
#
# _framework density 17.156666000000001
#
# number of rings (size 3 to 8) (size 9 to 14) (size 15 to 20)
#    0.000    3.000    0.000    2.000    0.000    4.667 
#    0.000    1.667    0.000    4.000    0.000    0.000 
#    0.000    0.000    0.000    0.000    0.000    0.000 
#
# Total GULP energy -594641.618192 kJ/mol
# GULP energy per Si atom -12388.367046 kJ/mol
# Density = 1.711762 g / cm^3
# Si number density = 17.156666 Si / 1000 Ang^3
#
#
#
# Elastic Constant Matrix: (Units=GPa)
#
#
# Indices 1 2 3 4 5 6 
#
# 1 174.2079 60.4459 68.1070 0.0000 0.0000 0.0000
# 2 60.4459 68.7630 36.0791 0.0000 0.0000 0.0000
# 3 68.1070 36.0791 61.5652 0.0000 0.0000 0.0000
# 4 0.0000 0.0000 0.0000 24.3799 0.0000 0.0000
# 5 0.0000 0.0000 0.0000 0.0000 31.5658 0.0000
# 6 0.0000 0.0000 0.0000 0.0000 0.0000 28.1266
#
#
#
# Elastic Compliance Matrix: (Units=1/GPa)
#
#
# Indices 1 2 3 4 5 6 
#
# 1 0.011110 -0.004790 -0.009483 0.000000 0.000000 0.000000
# 2 -0.004790 0.023065 -0.008218 0.000000 0.000000 0.000000
# 3 -0.009483 -0.008218 0.031549 0.000000 0.000000 0.000000
# 4 0.000000 0.000000 0.000000 0.041017 0.000000 0.000000
# 5 0.000000 0.000000 0.000000 0.000000 0.031680 0.000000
# 6 0.000000 0.000000 0.000000 0.000000 0.000000 0.035553
#
#
# Mechanical properties :
#
#
# Convention : Reuss Voigt Hill
#
# Bulk Modulus (GPa) = 48.21008 70.42222 59.31615
# Shear Modulus (GPa) = 22.13648 26.14141 24.13894
#
# Velocity S-wave (km/s) = 3.59591 3.90768 3.75503
# Velocity P-wave (km/s) = 6.73808 7.84191 7.31086
#
# Compressibility (1/GPa) = 0.02074255
#
# Stress axis : x y z
#
# Youngs Moduli (GPa) = 90.01035 43.35496 31.69639
#
# Poissons Ratio (x) = 0.20769 0.30058
# Poissons Ratio (y) = 0.43119 0.26047
# Poissons Ratio (z) = 0.85357 0.35627
#
# Static dielectric constant tensor:
#      x y z
#    x 3.744550 0.000000 0.000000 
#    y 0.000000 3.254410 0.000000 
#    z 0.000000 0.000000 2.754940 
# 
# 
# High freq. dielectric constant tensor:
#      x y z
#    x 1.687960 0.000000 0.000000 
#    y 0.000000 1.667720 0.000000 
#    z 0.000000 0.000000 1.605430 
# 
# From -- ./inp_files/15611.got.cif
#   From: 2010.03.12/outbox.cif.g09.slc.cpg/sg62_8_cif.got.tgz:15611.got - 2010.04.10 19:12:36.
