data_PCOD8252811
_publ_section_title
;
Structure prediction by ZEFSAII (Michael W. Deem and Ramdas Pophale) SiO2 
 PCOD8252811
Probable space group: P N M A
;
_chemical_formula_sum "Si O2"
_cell_formula_units_Z 64
_cell_length_a 9.429543
_cell_length_b 16.735628
_cell_length_c 21.391603
_cell_angle_alpha 90.000000
_cell_angle_beta 90.000000
_cell_angle_gamma 90.000000
_cell_volume 3375.794406
_symmetry_space_group_name_H-M "P N M A"
_symmetry_group_IT_number 62
_symmetry_cell_setting 'orthorhombic'
loop_
_space_group_symop_operation_xyz
x,y,z
1/2-x,-y,1/2+z
1/2+x,1/2-y,1/2-z
-x,1/2+y,-z
-x,-y,-z
1/2+x,y,1/2-z
1/2-x,1/2+y,1/2+z
x,1/2-y,z
loop_
_atom_site_type_symbol
_atom_site_label
_atom_site_fract_x
_atom_site_fract_y
_atom_site_fract_z
Si Si1 0.208091 0.340132 0.525139
Si Si2 0.912396 0.961035 0.554228
Si Si3 0.995453 0.840885 0.960052
Si Si4 0.482848 0.927786 0.251185
Si Si5 0.168735 0.083115 0.934435
Si Si6 0.350731 0.527024 0.127422
Si Si7 0.743603 0.841181 0.187099
Si Si8 0.956361 0.522712 0.869067
O O1 0.163985 0.250000 0.541825
O O2 0.118896 0.368967 0.463901
O O3 0.372846 0.345592 0.507464
O O4 0.165494 0.394338 0.584371
O O5 0.761226 0.003940 0.556758
O O6 0.000000 0.000000 0.500000
O O7 0.009929 0.971881 0.615048
O O8 0.969088 0.750000 0.938311
O O9 0.016492 0.893606 0.896798
O O10 0.860178 0.872471 0.999981
O O11 0.368048 0.947623 0.198546
O O12 0.629931 0.896906 0.222307
O O13 0.403679 0.857896 0.289605
O O14 0.507660 0.005729 0.295832
O O15 0.254586 0.141023 0.887241
O O16 0.019107 0.052019 0.907527
O O17 0.211744 0.473506 0.120506
O O18 0.701532 0.750000 0.198791
#
# Coordination Sequence:
#
# PCOD8252811 Si02
#       8
#     8   8   8   8   8   8   8   8
#     4  10  21  36  58  90 123 151 187 241 302 354
#     4  10  20  35  57  84 117 153 197 235 290 353
#     4  11  21  36  62  93 120 153 195 249 304 346
#     4  11  23  40  59  84 113 167 204 234 292 348
#     4  11  20  37  59  86 119 155 196 238 294 355
#     4  11  21  40  59  86 114 157 200 240 290 353
#     4  11  23  38  56  86 120 152 197 248 294 351
#     4  11  22  39  62  83 120 157 206 242 282 358
#
# _framework density 18.958500999999998
#
# number of rings (size 3 to 8) (size 9 to 14) (size 15 to 20)
#    0.000    1.250    5.000    2.625    0.000    1.000 
#    0.000    3.750    0.000    1.500    0.000    0.000 
#    0.000    0.000    0.000    0.000    0.000    0.000 
#
# Total GULP energy -793150.834005 kJ/mol
# GULP energy per Si atom -12392.981781 kJ/mol
# Density = 1.891535 g / cm^3
# Si number density = 18.958501 Si / 1000 Ang^3
#
#
#
# Elastic Constant Matrix: (Units=GPa)
#
#
# Indices 1 2 3 4 5 6 
#
# 1 77.6049 24.1846 23.0434 0.0000 0.0000 0.0000
# 2 24.1846 96.2531 58.3288 0.0000 0.0000 0.0000
# 3 23.0434 58.3288 98.3293 0.0000 0.0000 0.0000
# 4 0.0000 0.0000 0.0000 20.1618 0.0000 0.0000
# 5 0.0000 0.0000 0.0000 0.0000 32.0971 0.0000
# 6 0.0000 0.0000 0.0000 0.0000 0.0000 21.9562
#
#
#
# Elastic Compliance Matrix: (Units=1/GPa)
#
#
# Indices 1 2 3 4 5 6 
#
# 1 0.014202 -0.002422 -0.001891 0.000000 0.000000 0.000000
# 2 -0.002422 0.016633 -0.009299 0.000000 0.000000 0.000000
# 3 -0.001891 -0.009299 0.016129 0.000000 0.000000 0.000000
# 4 0.000000 0.000000 0.000000 0.049599 0.000000 0.000000
# 5 0.000000 0.000000 0.000000 0.000000 0.031155 0.000000
# 6 0.000000 0.000000 0.000000 0.000000 0.000000 0.045545
#
#
# Mechanical properties :
#
#
# Convention : Reuss Voigt Hill
#
# Bulk Modulus (GPa) = 50.66057 53.70008 52.18033
# Shear Modulus (GPa) = 24.14650 25.95172 25.04911
#
# Velocity S-wave (km/s) = 3.57270 3.70384 3.63886
# Velocity P-wave (km/s) = 6.61806 6.83211 6.72594
#
# Compressibility (1/GPa) = 0.01973922
#
# Stress axis : x y z
#
# Youngs Moduli (GPa) = 70.41119 60.12116 61.99886
#
# Poissons Ratio (x) = 0.14563 0.11726
# Poissons Ratio (y) = 0.17056 0.57653
# Poissons Ratio (z) = 0.13317 0.55907
#
# Static dielectric constant tensor:
#      x y z
#    x 3.810100 0.000000 0.000000 
#    y 0.000000 3.393770 0.000000 
#    z 0.000000 0.000000 3.786300 
# 
# 
# High freq. dielectric constant tensor:
#      x y z
#    x 1.750960 0.000000 0.000000 
#    y 0.000000 1.706610 0.000000 
#    z 0.000000 0.000000 1.730200 
# 
# From -- ./inp_files/28982.got.cif
#   From: 2010.03.12/outbox.cif.g09.slc.cpg/sg62_15_cif.got.tgz:28982.got - 2010.04.10 19:12:36.
