data_PCOD8252581
_publ_section_title
;
Structure prediction by ZEFSAII (Michael W. Deem and Ramdas Pophale) SiO2 
 PCOD8252581
Probable space group: P N M A
;
_chemical_formula_sum "Si O2"
_cell_formula_units_Z 48
_cell_length_a 18.970514
_cell_length_b 13.616924
_cell_length_c 9.888288
_cell_angle_alpha 90.000000
_cell_angle_beta 90.000000
_cell_angle_gamma 90.000000
_cell_volume 2554.343025
_symmetry_space_group_name_H-M "P N M A"
_symmetry_group_IT_number 62
_symmetry_cell_setting 'orthorhombic'
loop_
_space_group_symop_operation_xyz
x,y,z
1/2-x,-y,1/2+z
1/2+x,1/2-y,1/2-z
-x,1/2+y,-z
-x,-y,-z
1/2+x,y,1/2-z
1/2-x,1/2+y,1/2+z
x,1/2-y,z
loop_
_atom_site_type_symbol
_atom_site_label
_atom_site_fract_x
_atom_site_fract_y
_atom_site_fract_z
Si Si1 0.251088 0.364335 0.148617
Si Si2 0.490781 0.639438 0.039068
Si Si3 0.866583 0.482664 0.853280
Si Si4 0.363312 0.365560 0.371889
Si Si5 0.654171 0.860187 0.095519
Si Si6 0.507949 0.967541 0.775599
O O1 0.235636 0.250000 0.134212
O O2 0.175973 0.416391 0.139749
O O3 0.292370 0.386324 0.287701
O O4 0.298280 0.403291 0.024444
O O5 0.460866 0.750000 0.058631
O O6 0.574833 0.637673 0.042674
O O7 0.461373 0.568757 0.158092
O O8 0.469264 0.597050 0.892338
O O9 0.834552 0.423729 0.728088
O O10 0.949231 0.506400 0.836193
O O11 0.855297 0.417644 0.985252
O O12 0.375909 0.250000 0.392964
O O13 0.430110 0.407842 0.292885
O O14 0.677041 0.750000 0.131882
#
# Coordination Sequence:
#
# PCOD8252581 Si02
#       6
#     8   8   8   8   8   8
#     4  10  21  37  57  78 107 149 189 228 277 330
#     4   9  17  33  57  83 108 141 189 231 273 335
#     4  11  22  35  55  86 114 142 181 237 280 321
#     4  11  22  39  60  83 114 152 188 222 275 343
#     4   9  17  34  57  77 102 143 187 223 269 332
#     4  10  20  34  57  85 113 149 183 230 286 329
#
# _framework density 18.791523999999999
#
# number of rings (size 3 to 8) (size 9 to 14) (size 15 to 20)
#    0.000    2.000    1.667    2.500    0.000    2.000 
#    0.000    0.833    0.000    1.000    0.000    0.000 
#    0.000    0.000    0.000    0.000    0.000    0.000 
#
# Total GULP energy -595224.337271 kJ/mol
# GULP energy per Si atom -12400.507026 kJ/mol
# Density = 1.874875 g / cm^3
# Si number density = 18.791524 Si / 1000 Ang^3
#
#
#
# Elastic Constant Matrix: (Units=GPa)
#
#
# Indices 1 2 3 4 5 6 
#
# 1 32.7372 39.2797 28.8672 0.0000 0.0000 0.0000
# 2 39.2797 114.4957 54.5176 0.0000 0.0000 0.0000
# 3 28.8672 54.5176 114.5331 0.0000 0.0000 0.0000
# 4 0.0000 0.0000 0.0000 31.3100 0.0000 0.0000
# 5 0.0000 0.0000 0.0000 0.0000 19.7346 0.0000
# 6 0.0000 0.0000 0.0000 0.0000 0.0000 32.9194
#
#
#
# Elastic Compliance Matrix: (Units=1/GPa)
#
#
# Indices 1 2 3 4 5 6 
#
# 1 0.055263 -0.015939 -0.006342 0.000000 0.000000 0.000000
# 2 -0.015939 0.015891 -0.003547 0.000000 0.000000 0.000000
# 3 -0.006342 -0.003547 0.012018 0.000000 0.000000 0.000000
# 4 0.000000 0.000000 0.000000 0.031939 0.000000 0.000000
# 5 0.000000 0.000000 0.000000 0.000000 0.050672 0.000000
# 6 0.000000 0.000000 0.000000 0.000000 0.000000 0.030377
#
#
# Mechanical properties :
#
#
# Convention : Reuss Voigt Hill
#
# Bulk Modulus (GPa) = 31.72941 56.34389 44.03665
# Shear Modulus (GPa) = 19.35579 26.06623 22.71101
#
# Velocity S-wave (km/s) = 3.21289 3.72846 3.48023
# Velocity P-wave (km/s) = 5.53942 6.97022 6.29560
#
# Compressibility (1/GPa) = 0.03151650
#
# Stress axis : x y z
#
# Youngs Moduli (GPa) = 18.09528 62.92869 83.21090
#
# Poissons Ratio (x) = 1.00304 0.52768
# Poissons Ratio (y) = 0.28843 0.29512
# Poissons Ratio (z) = 0.11475 0.22319
#
# Static dielectric constant tensor:
#      x y z
#    x 3.158460 0.000000 0.000000 
#    y 0.000000 3.669910 0.000000 
#    z 0.000000 0.000000 3.584110 
# 
# 
# High freq. dielectric constant tensor:
#      x y z
#    x 1.703900 0.000000 0.000000 
#    y 0.000000 1.739750 0.000000 
#    z 0.000000 0.000000 1.738080 
# 
# From -- ./inp_files/7608.got.cif
#   From: 2010.03.12/outbox.cif.g09.slc.cpg/sg62_4_cif.got.tgz:7608.got - 2010.04.10 19:12:36.
