data_PCOD8252126
_publ_section_title
;
Structure prediction by ZEFSAII (Michael W. Deem and Ramdas Pophale) SiO2 
 PCOD8252126
Probable space group: P N M A
;
_chemical_formula_sum "Si O2"
_cell_formula_units_Z 40
_cell_length_a 11.588809
_cell_length_b 10.152547
_cell_length_c 15.834963
_cell_angle_alpha 90.000000
_cell_angle_beta 90.000000
_cell_angle_gamma 90.000000
_cell_volume 1863.077267
_symmetry_space_group_name_H-M "P N M A"
_symmetry_group_IT_number 62
_symmetry_cell_setting 'orthorhombic'
loop_
_space_group_symop_operation_xyz
x,y,z
1/2-x,-y,1/2+z
1/2+x,1/2-y,1/2-z
-x,1/2+y,-z
-x,-y,-z
1/2+x,y,1/2-z
1/2-x,1/2+y,1/2+z
x,1/2-y,z
loop_
_atom_site_type_symbol
_atom_site_label
_atom_site_fract_x
_atom_site_fract_y
_atom_site_fract_z
Si Si1 0.258524 0.250000 0.876024
Si Si2 0.788045 0.481116 0.374021
Si Si3 0.376384 0.750000 0.068046
Si Si4 0.412477 0.250000 0.041170
Si Si5 0.467243 0.250000 0.770271
Si Si6 0.463762 0.602089 0.571332
Si Si7 0.388334 0.967814 0.305311
O O1 0.331551 0.250000 0.788507
O O2 0.183720 0.117111 0.873545
O O3 0.331937 0.250000 0.959610
O O4 0.797748 0.619850 0.423913
O O5 0.886897 0.381641 0.406182
O O6 0.662484 0.423841 0.391205
O O7 0.808268 0.494172 0.273631
O O8 0.468204 0.750000 0.141642
O O9 0.450972 0.750000 0.981426
O O10 0.500669 0.381199 0.720594
O O11 0.500000 0.500000 0.500000
O O12 0.466747 0.750000 0.534296
O O13 0.558280 0.593458 0.646894
#
# Coordination Sequence:
#
# PCOD8252126 Si02
#       7
#     4   8   4   4   4   8   8
#     4  10  19  38  63  92 125 175 220 271 325 401
#     4  11  23  43  68  99 136 175 221 284 332 397
#     4   9  21  38  65  99 127 178 218 263 332 402
#     4  11  21  39  67  96 142 168 216 279 341 387
#     4   8  17  35  61  95 124 167 220 267 322 396
#     4  12  28  45  68  97 136 180 223 281 345 408
#     4  10  22  38  67  94 130 173 228 268 332 401
#
# _framework density 21.469856
#
# number of rings (size 3 to 8) (size 9 to 14) (size 15 to 20)
#    0.000    1.600    1.000    3.600    5.600    0.000 
#    0.000    2.000    0.000    0.000    0.000    0.000 
#    0.000    0.000    0.000    0.000    0.000    0.000 
#
# Total GULP energy -495994.530716 kJ/mol
# GULP energy per Si atom -12399.863268 kJ/mol
# Density = 2.142099 g / cm^3
# Si number density = 21.469856 Si / 1000 Ang^3
#
#
#
# Elastic Constant Matrix: (Units=GPa)
#
#
# Indices 1 2 3 4 5 6 
#
# 1 75.0182 32.3282 18.5154 0.0000 0.0000 0.0000
# 2 32.3282 153.4932 37.4675 0.0000 0.0000 0.0000
# 3 18.5154 37.4675 74.0852 0.0000 0.0000 0.0000
# 4 0.0000 0.0000 0.0000 26.8784 0.0000 0.0000
# 5 0.0000 0.0000 0.0000 0.0000 35.4107 0.0000
# 6 0.0000 0.0000 0.0000 0.0000 0.0000 0.7626
#
#
#
# Elastic Compliance Matrix: (Units=1/GPa)
#
#
# Indices 1 2 3 4 5 6 
#
# 1 0.015044 -0.002568 -0.002461 0.000000 0.000000 0.000000
# 2 -0.002568 0.007871 -0.003339 0.000000 0.000000 0.000000
# 3 -0.002461 -0.003339 0.015802 0.000000 0.000000 0.000000
# 4 0.000000 0.000000 0.000000 0.037205 0.000000 0.000000
# 5 0.000000 0.000000 0.000000 0.000000 0.028240 0.000000
# 6 0.000000 0.000000 0.000000 0.000000 0.000000 1.311324
#
#
# Mechanical properties :
#
#
# Convention : Reuss Voigt Hill
#
# Bulk Modulus (GPa) = 45.49393 53.24652 49.37023
# Shear Modulus (GPa) = 3.47331 26.89604 15.18468
#
# Velocity S-wave (km/s) = 1.27329 3.54324 2.66231
# Velocity P-wave (km/s) = 4.83708 6.44933 5.70049
#
# Compressibility (1/GPa) = 0.02198095
#
# Stress axis : x y z
#
# Youngs Moduli (GPa) = 66.47122 127.05273 63.28466
#
# Poissons Ratio (x) = 0.32624 0.15576
# Poissons Ratio (y) = 0.17068 0.21129
# Poissons Ratio (z) = 0.16360 0.42420
#
# Static dielectric constant tensor:
#      x y z
#    x 3.953570 0.000000 0.000000 
#    y 0.000000 3.893130 0.000000 
#    z 0.000000 0.000000 3.954740 
# 
# 
# High freq. dielectric constant tensor:
#      x y z
#    x 1.844890 0.000000 0.000000 
#    y 0.000000 1.841100 0.000000 
#    z 0.000000 0.000000 1.842050 
# 
# From -- ./inp_files/22850.got.cif
#   From: 2010.03.12/outbox.cif.g09.slc.cpg/sg62_12_cif.got.tgz:22850.got - 2010.04.10 19:12:36.
