data_PCOD8252071
_publ_section_title
;
Structure prediction by ZEFSAII (Michael W. Deem and Ramdas Pophale) SiO2 
 PCOD8252071
Probable space group: P N M A
;
_chemical_formula_sum "Si O2"
_cell_formula_units_Z 48
_cell_length_a 9.977498
_cell_length_b 17.388104
_cell_length_c 14.986195
_cell_angle_alpha 90.000000
_cell_angle_beta 90.000000
_cell_angle_gamma 90.000000
_cell_volume 2599.951567
_symmetry_space_group_name_H-M "P N M A"
_symmetry_group_IT_number 62
_symmetry_cell_setting 'orthorhombic'
loop_
_space_group_symop_operation_xyz
x,y,z
1/2-x,-y,1/2+z
1/2+x,1/2-y,1/2-z
-x,1/2+y,-z
-x,-y,-z
1/2+x,y,1/2-z
1/2-x,1/2+y,1/2+z
x,1/2-y,z
loop_
_atom_site_type_symbol
_atom_site_label
_atom_site_fract_x
_atom_site_fract_y
_atom_site_fract_z
Si Si1 0.864535 0.445310 0.154644
Si Si2 0.617268 0.549480 0.148209
Si Si3 0.780536 0.339974 0.501635
Si Si4 0.896554 0.445350 0.851811
Si Si5 0.138238 0.954061 0.641685
Si Si6 0.535911 0.838793 0.505674
O O1 0.716227 0.477078 0.138273
O O2 0.884096 0.423060 0.258151
O O3 0.965300 0.512309 0.126584
O O4 0.893093 0.371562 0.094151
O O5 0.610695 0.581316 0.249233
O O6 0.475409 0.515959 0.115475
O O7 0.664415 0.622625 0.092217
O O8 0.815037 0.250000 0.502752
O O9 0.861343 0.379076 0.420449
O O10 0.622500 0.354579 0.491998
O O11 0.777106 0.502825 0.874033
O O12 0.893978 0.372606 0.917148
O O13 0.569405 0.750000 0.504376
#
# Coordination Sequence:
#
# PCOD8252071 Si02
#       6
#     8   8   8   8   8   8
#     4  10  19  37  61  83 110 145 193 234 268 330
#     4  10  21  36  60  87 110 147 189 235 282 326
#     4  11  22  37  57  84 118 151 183 230 290 341
#     4  10  19  37  61  83 110 145 193 234 268 330
#     4  10  21  36  60  87 110 147 189 235 282 326
#     4  11  22  36  59  85 114 153 189 228 280 341
#
# _framework density 18.461881999999999
#
# number of rings (size 3 to 8) (size 9 to 14) (size 15 to 20)
#    0.000    1.667    3.333    2.000    0.000    1.333 
#    0.000    3.333    0.000    0.000    0.000    0.000 
#    0.000    0.000    0.000    0.000    0.000    0.000 
#
# Total GULP energy -595290.259946 kJ/mol
# GULP energy per Si atom -12401.880416 kJ/mol
# Density = 1.841986 g / cm^3
# Si number density = 18.461882 Si / 1000 Ang^3
#
#
#
# Elastic Constant Matrix: (Units=GPa)
#
#
# Indices 1 2 3 4 5 6 
#
# 1 47.1428 20.9884 31.1905 0.0000 0.0000 0.0000
# 2 20.9884 114.9055 75.8284 0.0000 0.0000 0.0000
# 3 31.1905 75.8284 109.8562 0.0000 0.0000 0.0000
# 4 0.0000 0.0000 0.0000 18.0405 0.0000 0.0000
# 5 0.0000 0.0000 0.0000 0.0000 27.6574 0.0000
# 6 0.0000 0.0000 0.0000 0.0000 0.0000 24.9366
#
#
#
# Elastic Compliance Matrix: (Units=1/GPa)
#
#
# Indices 1 2 3 4 5 6 
#
# 1 0.026122 0.000226 -0.007572 0.000000 0.000000 0.000000
# 2 0.000226 0.015985 -0.011098 0.000000 0.000000 0.000000
# 3 -0.007572 -0.011098 0.018913 0.000000 0.000000 0.000000
# 4 0.000000 0.000000 0.000000 0.055431 0.000000 0.000000
# 5 0.000000 0.000000 0.000000 0.000000 0.036157 0.000000
# 6 0.000000 0.000000 0.000000 0.000000 0.000000 0.040102
#
#
# Mechanical properties :
#
#
# Convention : Reuss Voigt Hill
#
# Bulk Modulus (GPa) = 41.44039 58.65768 50.04904
# Shear Modulus (GPa) = 21.04002 23.72005 22.38004
#
# Velocity S-wave (km/s) = 3.37953 3.58832 3.48549
# Velocity P-wave (km/s) = 6.14194 7.00067 6.58532
#
# Compressibility (1/GPa) = 0.02413104
#
# Stress axis : x y z
#
# Youngs Moduli (GPa) = 38.28248 62.55716 52.87304
#
# Poissons Ratio (x) = -0.01413 0.40037
# Poissons Ratio (y) = -0.00865 0.58679
# Poissons Ratio (z) = 0.28989 0.69426
#
# Static dielectric constant tensor:
#      x y z
#    x 3.537080 0.000000 0.000000 
#    y 0.000000 3.120480 0.000000 
#    z 0.000000 0.000000 3.606080 
# 
# 
# High freq. dielectric constant tensor:
#      x y z
#    x 1.723860 0.000000 0.000000 
#    y 0.000000 1.693150 0.000000 
#    z 0.000000 0.000000 1.731500 
# 
# From -- ./inp_files/16990.got.cif
#   From: 2010.03.12/outbox.cif.g09.slc.cpg/sg62_9_cif.got.tgz:16990.got - 2010.04.10 19:12:36.
