data_PCOD8252140
_publ_section_title
;
Structure prediction by ZEFSAII (Michael W. Deem and Ramdas Pophale) SiO2 
 PCOD8252140
Probable space group: P N M A
;
_chemical_formula_sum "Si O2"
_cell_formula_units_Z 64
_cell_length_a 17.429081
_cell_length_b 16.599495
_cell_length_c 11.366467
_cell_angle_alpha 90.000000
_cell_angle_beta 90.000000
_cell_angle_gamma 90.000000
_cell_volume 3288.477385
_symmetry_space_group_name_H-M "P N M A"
_symmetry_group_IT_number 62
_symmetry_cell_setting 'orthorhombic'
loop_
_space_group_symop_operation_xyz
x,y,z
1/2-x,-y,1/2+z
1/2+x,1/2-y,1/2-z
-x,1/2+y,-z
-x,-y,-z
1/2+x,y,1/2-z
1/2-x,1/2+y,1/2+z
x,1/2-y,z
loop_
_atom_site_type_symbol
_atom_site_label
_atom_site_fract_x
_atom_site_fract_y
_atom_site_fract_z
Si Si1 0.953054 0.568282 0.343709
Si Si2 0.736793 0.656422 0.901425
Si Si3 0.570187 0.058030 0.097811
Si Si4 0.958741 0.420031 0.043473
Si Si5 0.596365 0.342199 0.318577
Si Si6 0.078491 0.655558 0.200256
Si Si7 0.310474 0.070039 0.871485
Si Si8 0.669006 0.526982 0.724655
O O1 0.947004 0.604773 0.475810
O O2 0.869856 0.549416 0.290018
O O3 0.993514 0.480383 0.346650
O O4 0.999313 0.631352 0.264506
O O5 0.717440 0.750000 0.873976
O O6 0.827621 0.639327 0.893240
O O7 0.690268 0.600115 0.811670
O O8 0.715484 0.637528 0.036035
O O9 0.607347 0.116169 0.192654
O O10 0.626131 0.984505 0.064355
O O11 0.886595 0.438742 0.124877
O O12 0.021701 0.368761 0.111706
O O13 0.926013 0.369316 0.935089
O O14 0.000000 0.500000 0.000000
O O15 0.586899 0.250000 0.288500
O O16 0.090061 0.750000 0.211269
O O17 0.152144 0.612142 0.257423
O O18 0.243688 0.009881 0.834578
#
# Coordination Sequence:
#
# PCOD8252140 Si02
#       8
#     8   8   8   8   8   8   8   8
#     4  10  21  38  63  93 120 160 213 255 304 377
#     4  11  25  42  64  98 131 167 216 272 330 383
#     4  10  19  39  62  90 121 164 212 252 307 380
#     4  12  23  41  68  96 123 168 224 265 314 383
#     4  11  23  41  63  93 133 168 207 269 329 378
#     4  11  25  43  62  93 133 168 210 265 322 379
#     4  11  23  40  67  88 129 172 212 257 323 384
#     4  12  23  39  69  95 123 166 217 268 313 386
#
# _framework density 19.461894000000001
#
# number of rings (size 3 to 8) (size 9 to 14) (size 15 to 20)
#    0.000    1.000    5.000    2.250    1.750    1.500 
#    0.000    0.625    0.000    0.000    0.000    0.000 
#    0.000    0.000    0.000    0.000    0.000    0.000 
#
# Total GULP energy -793714.801474 kJ/mol
# GULP energy per Si atom -12401.793773 kJ/mol
# Density = 1.941760 g / cm^3
# Si number density = 19.461894 Si / 1000 Ang^3
#
#
#
# Elastic Constant Matrix: (Units=GPa)
#
#
# Indices 1 2 3 4 5 6 
#
# 1 100.6421 42.9878 46.1319 0.0000 0.0000 0.0000
# 2 42.9878 88.4581 45.8446 0.0000 0.0000 0.0000
# 3 46.1319 45.8446 117.2401 0.0000 0.0000 0.0000
# 4 0.0000 0.0000 0.0000 29.4553 0.0000 0.0000
# 5 0.0000 0.0000 0.0000 0.0000 34.3585 0.0000
# 6 0.0000 0.0000 0.0000 0.0000 0.0000 31.1492
#
#
#
# Elastic Compliance Matrix: (Units=1/GPa)
#
#
# Indices 1 2 3 4 5 6 
#
# 1 0.013575 -0.004802 -0.003464 0.000000 0.000000 0.000000
# 2 -0.004802 0.015877 -0.004319 0.000000 0.000000 0.000000
# 3 -0.003464 -0.004319 0.011581 0.000000 0.000000 0.000000
# 4 0.000000 0.000000 0.000000 0.033950 0.000000 0.000000
# 5 0.000000 0.000000 0.000000 0.000000 0.029105 0.000000
# 6 0.000000 0.000000 0.000000 0.000000 0.000000 0.032104
#
#
# Mechanical properties :
#
#
# Convention : Reuss Voigt Hill
#
# Bulk Modulus (GPa) = 63.03638 64.02989 63.53313
# Shear Modulus (GPa) = 30.00338 30.41768 30.21053
#
# Velocity S-wave (km/s) = 3.93064 3.95769 3.94419
# Velocity P-wave (km/s) = 7.28422 7.33866 7.31149
#
# Compressibility (1/GPa) = 0.01586386
#
# Stress axis : x y z
#
# Youngs Moduli (GPa) = 73.66498 62.98580 86.34633
#
# Poissons Ratio (x) = 0.30245 0.29909
# Poissons Ratio (y) = 0.35373 0.37291
# Poissons Ratio (z) = 0.25516 0.27202
#
# Static dielectric constant tensor:
#      x y z
#    x 3.639550 0.000000 0.000000 
#    y 0.000000 3.285830 0.000000 
#    z 0.000000 0.000000 3.835180 
# 
# 
# High freq. dielectric constant tensor:
#      x y z
#    x 1.768710 0.000000 0.000000 
#    y 0.000000 1.745260 0.000000 
#    z 0.000000 0.000000 1.772040 
# 
# From -- ./inp_files/14356.got.cif
#   From: 2010.03.12/outbox.cif.g09.slc.cpg/sg62_8_cif.got.tgz:14356.got - 2010.04.10 19:12:36.
