data_PCOD8252672
_publ_section_title
;
Structure prediction by ZEFSAII (Michael W. Deem and Ramdas Pophale) SiO2 
 PCOD8252672
Probable space group: P N M A
;
_chemical_formula_sum "Si O2"
_cell_formula_units_Z 48
_cell_length_a 9.685282
_cell_length_b 8.746823
_cell_length_c 30.907286
_cell_angle_alpha 90.000000
_cell_angle_beta 90.000000
_cell_angle_gamma 90.000000
_cell_volume 2618.324560
_symmetry_space_group_name_H-M "P N M A"
_symmetry_group_IT_number 62
_symmetry_cell_setting 'orthorhombic'
loop_
_space_group_symop_operation_xyz
x,y,z
1/2-x,-y,1/2+z
1/2+x,1/2-y,1/2-z
-x,1/2+y,-z
-x,-y,-z
1/2+x,y,1/2-z
1/2-x,1/2+y,1/2+z
x,1/2-y,z
loop_
_atom_site_type_symbol
_atom_site_label
_atom_site_fract_x
_atom_site_fract_y
_atom_site_fract_z
Si Si1 0.419369 0.918141 0.378600
Si Si2 0.906802 0.081788 0.629585
Si Si3 0.083100 0.430336 0.782921
Si Si4 0.100780 0.931061 0.464978
Si Si5 0.598905 0.929187 0.535289
Si Si6 0.619835 0.427933 0.215117
O O1 0.479955 0.750000 0.389536
O O2 0.256074 0.906398 0.375583
O O3 0.471380 0.972507 0.331285
O O4 0.461919 0.033534 0.416801
O O5 0.966389 0.250000 0.641395
O O6 0.962116 0.027042 0.582573
O O7 0.945687 0.964900 0.667835
O O8 0.068377 0.250000 0.773906
O O9 0.242695 0.474764 0.776705
O O10 0.992367 0.528677 0.750548
O O11 0.113240 0.750000 0.470349
O O12 0.250609 0.002011 0.471704
O O13 0.000000 0.000000 0.500000
O O14 0.605804 0.750000 0.529086
O O15 0.500000 0.000000 0.500000
O O16 0.655367 0.250000 0.217783
#
# Coordination Sequence:
#
# PCOD8252672 Si02
#       6
#     8   8   8   8   8   8
#     4   8  16  32  53  75  99 132 174 212 250 305
#     4   8  16  32  52  73 101 138 173 204 250 313
#     4  10  20  36  56  76 104 141 174 207 256 315
#     4  10  20  35  55  79 106 136 173 214 256 306
#     4  11  21  34  54  78 106 138 172 213 258 305
#     4  11  21  33  53  81 108 133 171 220 258 296
#
# _framework density 18.332332999999998
#
# number of rings (size 3 to 8) (size 9 to 14) (size 15 to 20)
#    0.000    2.333    0.000    6.000    0.000    7.333 
#    0.000    1.667    0.000   10.000    0.000    0.000 
#    0.000    0.000    0.000    0.000    0.000    0.000 
#
# Total GULP energy -594973.874961 kJ/mol
# GULP energy per Si atom -12395.289062 kJ/mol
# Density = 1.829061 g / cm^3
# Si number density = 18.332333 Si / 1000 Ang^3
#
#
#
# Elastic Constant Matrix: (Units=GPa)
#
#
# Indices 1 2 3 4 5 6 
#
# 1 47.1304 28.3310 47.9776 0.0000 0.0000 0.0000
# 2 28.3310 108.8296 60.0935 0.0000 0.0000 0.0000
# 3 47.9776 60.0935 151.8036 0.0000 0.0000 0.0000
# 4 0.0000 0.0000 0.0000 34.0717 0.0000 0.0000
# 5 0.0000 0.0000 0.0000 0.0000 31.5842 0.0000
# 6 0.0000 0.0000 0.0000 0.0000 0.0000 27.0091
#
#
#
# Elastic Compliance Matrix: (Units=1/GPa)
#
#
# Indices 1 2 3 4 5 6 
#
# 1 0.032319 -0.003549 -0.008809 0.000000 0.000000 0.000000
# 2 -0.003549 0.012149 -0.003688 0.000000 0.000000 0.000000
# 3 -0.008809 -0.003688 0.010831 0.000000 0.000000 0.000000
# 4 0.000000 0.000000 0.000000 0.029350 0.000000 0.000000
# 5 0.000000 0.000000 0.000000 0.000000 0.031661 0.000000
# 6 0.000000 0.000000 0.000000 0.000000 0.000000 0.037025
#
#
# Mechanical properties :
#
#
# Convention : Reuss Voigt Hill
#
# Bulk Modulus (GPa) = 43.09036 64.50752 53.79894
# Shear Modulus (GPa) = 25.88489 29.95711 27.92100
#
# Velocity S-wave (km/s) = 3.76171 4.04680 3.90686
# Velocity P-wave (km/s) = 6.51333 7.55643 7.05419
#
# Compressibility (1/GPa) = 0.02320705
#
# Stress axis : x y z
#
# Youngs Moduli (GPa) = 30.94161 82.31281 92.32347
#
# Poissons Ratio (x) = 0.29213 0.81332
# Poissons Ratio (y) = 0.10981 0.34045
# Poissons Ratio (z) = 0.27258 0.30354
#
# Static dielectric constant tensor:
#      x y z
#    x 2.976990 0.000000 0.000000 
#    y 0.000000 3.433220 0.000000 
#    z 0.000000 0.000000 4.095940 
# 
# 
# High freq. dielectric constant tensor:
#      x y z
#    x 1.666290 0.000000 0.000000 
#    y 0.000000 1.716940 0.000000 
#    z 0.000000 0.000000 1.731520 
# 
# From -- ./inp_files/31003.got.cif
#   From: 2010.03.12/outbox.cif.g09.slc.cpg/sg62_16_cif.got.tgz:31003.got - 2010.04.10 19:12:36.
