data_PCOD8252992
_publ_section_title
;
Structure prediction by ZEFSAII (Michael W. Deem and Ramdas Pophale) SiO2 
 PCOD8252992
Probable space group: P N M A
;
_chemical_formula_sum "Si O2"
_cell_formula_units_Z 56
_cell_length_a 12.294206
_cell_length_b 15.120487
_cell_length_c 14.190407
_cell_angle_alpha 90.000000
_cell_angle_beta 90.000000
_cell_angle_gamma 90.000000
_cell_volume 2637.916940
_symmetry_space_group_name_H-M "P N M A"
_symmetry_group_IT_number 62
_symmetry_cell_setting 'orthorhombic'
loop_
_space_group_symop_operation_xyz
x,y,z
1/2-x,-y,1/2+z
1/2+x,1/2-y,1/2-z
-x,1/2+y,-z
-x,-y,-z
1/2+x,y,1/2-z
1/2-x,1/2+y,1/2+z
x,1/2-y,z
loop_
_atom_site_type_symbol
_atom_site_label
_atom_site_fract_x
_atom_site_fract_y
_atom_site_fract_z
Si Si1 0.212699 0.352382 0.869988
Si Si2 0.740804 0.429384 0.298724
Si Si3 0.400962 0.006791 0.855227
Si Si4 0.155766 0.152339 0.471428
Si Si5 0.094495 0.351360 0.053180
Si Si6 0.369231 0.592946 0.169889
Si Si7 0.126044 0.648165 0.864686
O O1 0.248130 0.250000 0.886603
O O2 0.315860 0.416243 0.881722
O O3 0.155480 0.359733 0.768683
O O4 0.126754 0.385540 0.949074
O O5 0.637767 0.451291 0.234320
O O6 0.697784 0.361772 0.377172
O O7 0.782729 0.516095 0.351385
O O8 0.840778 0.394071 0.235439
O O9 0.510652 0.054633 0.828560
O O10 0.417358 0.931110 0.936418
O O11 0.120284 0.250000 0.431153
O O12 0.146084 0.160776 0.584090
O O13 0.279516 0.132628 0.441093
O O14 0.064946 0.250000 0.042895
O O15 0.984182 0.397275 0.093638
O O16 0.105453 0.750000 0.842804
#
# Coordination Sequence:
#
# PCOD8252992 Si02
#       7
#     8   8   8   8   8   8   8
#     4  10  23  40  59  88 123 160 204 248 298 368
#     4  10  20  36  57  85 115 150 196 249 300 362
#     4  10  22  40  60  86 120 157 201 255 309 360
#     4  10  21  38  60  86 118 156 203 257 305 358
#     4  10  20  36  59  86 119 157 195 245 305 361
#     4  11  22  38  58  84 119 162 206 250 302 359
#     4   9  19  36  58  85 115 150 196 248 305 362
#
# _framework density 21.228871000000002
#
# number of rings (size 3 to 8) (size 9 to 14) (size 15 to 20)
#    0.000    2.000    0.000    3.000    0.000    4.000 
#    0.000   12.143    0.000    0.857    0.000    0.000 
#    0.000    0.000    0.000    0.000    0.000    0.000 
#
# Total GULP energy -694125.207293 kJ/mol
# GULP energy per Si atom -12395.092987 kJ/mol
# Density = 2.118055 g / cm^3
# Si number density = 21.228871 Si / 1000 Ang^3
#
#
#
# Elastic Constant Matrix: (Units=GPa)
#
#
# Indices 1 2 3 4 5 6 
#
# 1 38.1998 3.9377 37.6745 0.0000 0.0000 0.0000
# 2 3.9377 76.4414 35.6631 0.0000 0.0000 0.0000
# 3 37.6745 35.6631 91.5060 0.0000 0.0000 0.0000
# 4 0.0000 0.0000 0.0000 23.0267 0.0000 0.0000
# 5 0.0000 0.0000 0.0000 0.0000 21.4221 0.0000
# 6 0.0000 0.0000 0.0000 0.0000 0.0000 24.2218
#
#
#
# Elastic Compliance Matrix: (Units=1/GPa)
#
#
# Indices 1 2 3 4 5 6 
#
# 1 0.047979 0.008243 -0.022966 0.000000 0.000000 0.000000
# 2 0.008243 0.017405 -0.010177 0.000000 0.000000 0.000000
# 3 -0.022966 -0.010177 0.024350 0.000000 0.000000 0.000000
# 4 0.000000 0.000000 0.000000 0.043428 0.000000 0.000000
# 5 0.000000 0.000000 0.000000 0.000000 0.046681 0.000000
# 6 0.000000 0.000000 0.000000 0.000000 0.000000 0.041285
#
#
# Mechanical properties :
#
#
# Convention : Reuss Voigt Hill
#
# Bulk Modulus (GPa) = 25.04154 40.07754 32.55954
# Shear Modulus (GPa) = 17.59073 22.32558 19.95816
#
# Velocity S-wave (km/s) = 2.88170 3.24645 3.06950
# Velocity P-wave (km/s) = 4.78476 5.74216 5.28518
#
# Compressibility (1/GPa) = 0.03993365
#
# Stress axis : x y z
#
# Youngs Moduli (GPa) = 20.84252 57.45326 41.06723
#
# Poissons Ratio (x) = -0.47360 0.94316
# Poissons Ratio (y) = -0.17181 0.41796
# Poissons Ratio (z) = 0.47868 0.58472
#
# Static dielectric constant tensor:
#      x y z
#    x 3.782950 0.000000 0.000000 
#    y 0.000000 3.868390 0.000000 
#    z 0.000000 0.000000 3.947250 
# 
# 
# High freq. dielectric constant tensor:
#      x y z
#    x 1.822200 0.000000 0.000000 
#    y 0.000000 1.834570 0.000000 
#    z 0.000000 0.000000 1.836930 
# 
# From -- ./inp_files/18094.got.cif
#   From: 2010.03.12/outbox.cif.g09.slc.cpg/sg62_10_cif.got.tgz:18094.got - 2010.04.10 19:12:36.
