data_PCOD8252530
_publ_section_title
;
Structure prediction by ZEFSAII (Michael W. Deem and Ramdas Pophale) SiO2 
 PCOD8252530
Probable space group: P N M A
;
_chemical_formula_sum "Si O2"
_cell_formula_units_Z 56
_cell_length_a 14.898223
_cell_length_b 8.752388
_cell_length_c 21.200328
_cell_angle_alpha 90.000000
_cell_angle_beta 90.000000
_cell_angle_gamma 90.000000
_cell_volume 2764.417368
_symmetry_space_group_name_H-M "P N M A"
_symmetry_group_IT_number 62
_symmetry_cell_setting 'orthorhombic'
loop_
_space_group_symop_operation_xyz
x,y,z
1/2-x,-y,1/2+z
1/2+x,1/2-y,1/2-z
-x,1/2+y,-z
-x,-y,-z
1/2+x,y,1/2-z
1/2-x,1/2+y,1/2+z
x,1/2-y,z
loop_
_atom_site_type_symbol
_atom_site_label
_atom_site_fract_x
_atom_site_fract_y
_atom_site_fract_z
Si Si1 0.233673 0.070203 0.256291
Si Si2 0.286676 0.431371 0.393638
Si Si3 0.911793 0.573215 0.282077
Si Si4 0.934364 0.428964 0.814557
Si Si5 0.863730 0.574869 0.513532
Si Si6 0.483192 0.431356 0.431654
Si Si7 0.959269 0.423281 0.405518
O O1 0.215933 0.250000 0.255418
O O2 0.248038 0.005750 0.327347
O O3 0.323472 0.031019 0.218029
O O4 0.150188 0.988708 0.224131
O O5 0.285096 0.250000 0.390240
O O6 0.223987 0.488534 0.450804
O O7 0.386805 0.491144 0.406704
O O8 0.884494 0.750000 0.281168
O O9 0.964718 0.533838 0.345747
O O10 0.975478 0.531438 0.223665
O O11 0.922338 0.250000 0.825265
O O12 0.941259 0.509929 0.882755
O O13 0.851486 0.750000 0.492241
O O14 0.878328 0.473231 0.451582
O O15 0.946378 0.557638 0.560595
O O16 0.500000 0.500000 0.500000
O O17 0.487024 0.250000 0.435965
O O18 0.942599 0.250000 0.383842
#
# Coordination Sequence:
#
# PCOD8252530 Si02
#       7
#     8   8   8   8   8   8   8
#     4  11  22  39  65  93 120 157 208 259 313 374
#     4   9  19  37  62  88 115 155 206 257 310 369
#     4  11  23  39  60  87 123 161 199 250 308 368
#     4  11  24  42  63  92 128 165 207 259 321 382
#     4   9  18  35  57  82 115 155 199 250 307 365
#     4  11  23  42  65  90 123 165 213 265 318 377
#     4  10  20  34  55  85 120 156 200 250 304 366
#
# _framework density 20.257432000000001
#
# number of rings (size 3 to 8) (size 9 to 14) (size 15 to 20)
#    0.000    1.714    1.429    3.000    0.000    4.571 
#    0.000    7.143    0.000    0.000    0.000    0.000 
#    0.000    0.000    0.000    0.000    0.000    0.000 
#
# Total GULP energy -694589.019353 kJ/mol
# GULP energy per Si atom -12403.375346 kJ/mol
# Density = 2.021133 g / cm^3
# Si number density = 20.257432 Si / 1000 Ang^3
#
#
#
# Elastic Constant Matrix: (Units=GPa)
#
#
# Indices 1 2 3 4 5 6 
#
# 1 99.4773 44.6900 44.1560 0.0000 0.0000 0.0000
# 2 44.6900 65.2934 47.3265 0.0000 0.0000 0.0000
# 3 44.1560 47.3265 134.0952 0.0000 0.0000 0.0000
# 4 0.0000 0.0000 0.0000 35.6644 0.0000 0.0000
# 5 0.0000 0.0000 0.0000 0.0000 32.7193 0.0000
# 6 0.0000 0.0000 0.0000 0.0000 0.0000 28.3657
#
#
#
# Elastic Compliance Matrix: (Units=1/GPa)
#
#
# Indices 1 2 3 4 5 6 
#
# 1 0.014814 -0.008874 -0.001746 0.000000 0.000000 0.000000
# 2 -0.008874 0.025896 -0.006217 0.000000 0.000000 0.000000
# 3 -0.001746 -0.006217 0.010227 0.000000 0.000000 0.000000
# 4 0.000000 0.000000 0.000000 0.028039 0.000000 0.000000
# 5 0.000000 0.000000 0.000000 0.000000 0.030563 0.000000
# 6 0.000000 0.000000 0.000000 0.000000 0.000000 0.035254
#
#
# Mechanical properties :
#
#
# Convention : Reuss Voigt Hill
#
# Bulk Modulus (GPa) = 57.93183 63.46788 60.69985
# Shear Modulus (GPa) = 27.14123 30.19610 28.66866
#
# Velocity S-wave (km/s) = 3.66432 3.86504 3.76602
# Velocity P-wave (km/s) = 6.82370 7.16357 6.99570
#
# Compressibility (1/GPa) = 0.01726167
#
# Stress axis : x y z
#
# Youngs Moduli (GPa) = 67.50254 38.61649 97.78293
#
# Poissons Ratio (x) = 0.34268 0.17076
# Poissons Ratio (y) = 0.59901 0.60795
# Poissons Ratio (z) = 0.11788 0.24009
#
# Static dielectric constant tensor:
#      x y z
#    x 3.701800 0.000000 0.000000 
#    y 0.000000 3.594310 0.000000 
#    z 0.000000 0.000000 3.773330 
# 
# 
# High freq. dielectric constant tensor:
#      x y z
#    x 1.790940 0.000000 0.000000 
#    y 0.000000 1.782970 0.000000 
#    z 0.000000 0.000000 1.801380 
# 
# From -- ./inp_files/27270.got.cif
#   From: 2010.03.12/outbox.cif.g09.slc.cpg/sg62_14_cif.got.tgz:27270.got - 2010.04.10 19:12:36.
