data_PCOD8252593
_publ_section_title
;
Structure prediction by ZEFSAII (Michael W. Deem and Ramdas Pophale) SiO2 
 PCOD8252593
Probable space group: P N M A
;
_chemical_formula_sum "Si O2"
_cell_formula_units_Z 32
_cell_length_a 5.151039
_cell_length_b 7.605171
_cell_length_c 34.458256
_cell_angle_alpha 90.000000
_cell_angle_beta 90.000000
_cell_angle_gamma 90.000000
_cell_volume 1349.886067
_symmetry_space_group_name_H-M "P N M A"
_symmetry_group_IT_number 62
_symmetry_cell_setting 'orthorhombic'
loop_
_space_group_symop_operation_xyz
x,y,z
1/2-x,-y,1/2+z
1/2+x,1/2-y,1/2-z
-x,1/2+y,-z
-x,-y,-z
1/2+x,y,1/2-z
1/2-x,1/2+y,1/2+z
x,1/2-y,z
loop_
_atom_site_type_symbol
_atom_site_label
_atom_site_fract_x
_atom_site_fract_y
_atom_site_fract_z
Si Si1 0.490180 0.456232 0.455133
Si Si2 0.717924 0.250000 0.275552
Si Si3 0.989214 0.040416 0.412089
Si Si4 0.277699 0.750000 0.275945
Si Si5 0.936979 0.553480 0.674537
O O1 0.500000 0.500000 0.500000
O O2 0.490534 0.250000 0.448894
O O3 0.232929 0.536942 0.435786
O O4 0.735823 0.539603 0.432885
O O5 0.423711 0.250000 0.260929
O O6 0.790544 0.076854 0.301353
O O7 0.982410 0.250000 0.413369
O O8 0.000424 0.974409 0.367712
O O9 0.060800 0.750000 0.242566
O O10 0.251747 0.576345 0.302455
O O11 0.804979 0.750000 0.670914
#
# Coordination Sequence:
#
# PCOD8252593 Si02
#       5
#     8   4   8   4   8
#     4  10  20  36  58  85 115 150 190 236 288 348
#     4  10  20  34  58  84 109 148 193 232 290 348
#     4   9  19  37  58  83 114 151 193 236 287 349
#     4  12  26  42  62  92 125 158 205 254 298 362
#     4   9  22  42  63  90 120 164 199 252 304 356
#
# _framework density 23.705705999999999
#
# number of rings (size 3 to 8) (size 9 to 14) (size 15 to 20)
#    0.750    1.500    0.000    2.250    0.000    4.000 
#    4.500    0.000    0.000    0.000    0.000    0.000 
#    0.000    0.000    0.000    0.000    0.000    0.000 
#
# Total GULP energy -396584.224729 kJ/mol
# GULP energy per Si atom -12393.257023 kJ/mol
# Density = 2.365175 g / cm^3
# Si number density = 23.705706 Si / 1000 Ang^3
#
#
#
# Elastic Constant Matrix: (Units=GPa)
#
#
# Indices 1 2 3 4 5 6 
#
# 1 123.1312 2.6072 57.5056 0.0000 0.0000 0.0000
# 2 2.6072 58.8548 5.8178 0.0000 0.0000 0.0000
# 3 57.5056 5.8178 200.8097 0.0000 0.0000 0.0000
# 4 0.0000 0.0000 0.0000 35.3409 0.0000 0.0000
# 5 0.0000 0.0000 0.0000 0.0000 16.5938 0.0000
# 6 0.0000 0.0000 0.0000 0.0000 0.0000 6.6445
#
#
#
# Elastic Compliance Matrix: (Units=1/GPa)
#
#
# Indices 1 2 3 4 5 6 
#
# 1 0.009377 -0.000150 -0.002681 0.000000 0.000000 0.000000
# 2 -0.000150 0.017042 -0.000451 0.000000 0.000000 0.000000
# 3 -0.002681 -0.000451 0.005761 0.000000 0.000000 0.000000
# 4 0.000000 0.000000 0.000000 0.028296 0.000000 0.000000
# 5 0.000000 0.000000 0.000000 0.000000 0.060264 0.000000
# 6 0.000000 0.000000 0.000000 0.000000 0.000000 0.150500
#
#
# Mechanical properties :
#
#
# Convention : Reuss Voigt Hill
#
# Bulk Modulus (GPa) = 39.03860 57.18410 48.11135
# Shear Modulus (GPa) = 17.46167 32.84018 25.15092
#
# Velocity S-wave (km/s) = 2.71699 3.72604 3.26078
# Velocity P-wave (km/s) = 5.13288 6.53345 5.87505
#
# Compressibility (1/GPa) = 0.02561568
#
# Stress axis : x y z
#
# Youngs Moduli (GPa) = 106.64827 58.67790 173.59308
#
# Poissons Ratio (x) = 0.00882 0.46537
# Poissons Ratio (y) = 0.01604 0.07824
# Poissons Ratio (z) = 0.28590 0.02645
#
# Static dielectric constant tensor:
#      x y z
#    x 4.269470 0.000000 0.000000 
#    y 0.000000 3.946630 0.000000 
#    z 0.000000 0.000000 4.409900 
# 
# 
# High freq. dielectric constant tensor:
#      x y z
#    x 1.929430 0.000000 0.000000 
#    y 0.000000 1.911640 0.000000 
#    z 0.000000 0.000000 1.954580 
# 
# From -- ./inp_files/31436.got.cif
#   From: 2010.03.12/outbox.cif.g09.slc.cpg/sg62_16_cif.got.tgz:31436.got - 2010.04.10 19:12:36.
