data_PCOD8252080
_publ_section_title
;
Structure prediction by ZEFSAII (Michael W. Deem and Ramdas Pophale) SiO2 
 PCOD8252080
Probable space group: P N M A
;
_chemical_formula_sum "Si O2"
_cell_formula_units_Z 56
_cell_length_a 16.640707
_cell_length_b 8.756395
_cell_length_c 19.697220
_cell_angle_alpha 90.000000
_cell_angle_beta 90.000000
_cell_angle_gamma 90.000000
_cell_volume 2870.133209
_symmetry_space_group_name_H-M "P N M A"
_symmetry_group_IT_number 62
_symmetry_cell_setting 'orthorhombic'
loop_
_space_group_symop_operation_xyz
x,y,z
1/2-x,-y,1/2+z
1/2+x,1/2-y,1/2-z
-x,1/2+y,-z
-x,-y,-z
1/2+x,y,1/2-z
1/2-x,1/2+y,1/2+z
x,1/2-y,z
loop_
_atom_site_type_symbol
_atom_site_label
_atom_site_fract_x
_atom_site_fract_y
_atom_site_fract_z
Si Si1 0.253535 0.073557 0.529455
Si Si2 0.484989 0.069193 0.840067
Si Si3 0.678332 0.427703 0.116231
Si Si4 0.150290 0.929178 0.645368
Si Si5 0.564182 0.929494 0.450217
Si Si6 0.247013 0.569266 0.256008
Si Si7 0.421612 0.430224 0.698737
O O1 0.245059 0.250000 0.551926
O O2 0.214540 0.041682 0.457212
O O3 0.346647 0.025850 0.525582
O O4 0.209518 0.970582 0.584569
O O5 0.493754 0.250000 0.847824
O O6 0.478832 0.018406 0.760683
O O7 0.405491 0.017549 0.879669
O O8 0.561199 0.986976 0.873398
O O9 0.662910 0.250000 0.130088
O O10 0.742808 0.492171 0.170053
O O11 0.150112 0.750000 0.656696
O O12 0.175471 0.010605 0.715619
O O13 0.551718 0.750000 0.451279
O O14 0.549553 0.996105 0.373827
O O15 0.500000 0.000000 0.500000
O O16 0.251758 0.750000 0.265795
O O17 0.169146 0.515368 0.213406
O O18 0.419881 0.250000 0.694073
#
# Coordination Sequence:
#
# PCOD8252080 Si02
#       7
#     8   8   8   8   8   8   8
#     4  10  22  41  62  83 120 165 198 242 306 371
#     4  10  21  38  60  86 115 158 202 245 304 363
#     4  10  21  38  60  90 123 155 198 252 305 355
#     4  12  24  37  59  90 120 153 204 261 304 356
#     4  10  20  37  58  84 116 152 193 238 291 354
#     4  10  19  37  62  83 112 158 201 242 299 365
#     4   8  16  34  59  80 105 144 193 235 279 347
#
# _framework density 19.511289000000001
#
# number of rings (size 3 to 8) (size 9 to 14) (size 15 to 20)
#    0.000    2.000    1.429    3.429    0.000    3.429 
#    0.000    4.286    0.000    0.000    0.000    0.000 
#    0.000    0.000    0.000    0.000    0.000    0.000 
#
# Total GULP energy -694450.642306 kJ/mol
# GULP energy per Si atom -12400.904327 kJ/mol
# Density = 1.946688 g / cm^3
# Si number density = 19.511289 Si / 1000 Ang^3
#
#
#
# Elastic Constant Matrix: (Units=GPa)
#
#
# Indices 1 2 3 4 5 6 
#
# 1 98.1909 33.2000 48.8064 0.0000 0.0000 0.0000
# 2 33.2000 73.2412 47.4792 0.0000 0.0000 0.0000
# 3 48.8064 47.4792 83.2515 0.0000 0.0000 0.0000
# 4 0.0000 0.0000 0.0000 31.5177 0.0000 0.0000
# 5 0.0000 0.0000 0.0000 0.0000 25.4508 0.0000
# 6 0.0000 0.0000 0.0000 0.0000 0.0000 31.6970
#
#
#
# Elastic Compliance Matrix: (Units=1/GPa)
#
#
# Indices 1 2 3 4 5 6 
#
# 1 0.014502 -0.001686 -0.007541 0.000000 0.000000 0.000000
# 2 -0.001686 0.021858 -0.011478 0.000000 0.000000 0.000000
# 3 -0.007541 -0.011478 0.022978 0.000000 0.000000 0.000000
# 4 0.000000 0.000000 0.000000 0.031728 0.000000 0.000000
# 5 0.000000 0.000000 0.000000 0.000000 0.039292 0.000000
# 6 0.000000 0.000000 0.000000 0.000000 0.000000 0.031549
#
#
# Mechanical properties :
#
#
# Convention : Reuss Voigt Hill
#
# Bulk Modulus (GPa) = 55.76986 57.07276 56.42131
# Shear Modulus (GPa) = 23.89003 26.07962 24.98483
#
# Velocity S-wave (km/s) = 3.50297 3.65998 3.58233
# Velocity P-wave (km/s) = 6.70869 6.86842 6.78903
#
# Compressibility (1/GPa) = 0.01793083
#
# Stress axis : x y z
#
# Youngs Moduli (GPa) = 68.95445 45.74966 43.51905
#
# Poissons Ratio (x) = 0.07711 0.32817
# Poissons Ratio (y) = 0.11622 0.49950
# Poissons Ratio (z) = 0.51997 0.52510
#
# Static dielectric constant tensor:
#      x y z
#    x 3.608130 0.000000 0.000000 
#    y 0.000000 3.433960 0.000000 
#    z 0.000000 0.000000 3.892730 
# 
# 
# High freq. dielectric constant tensor:
#      x y z
#    x 1.758270 0.000000 0.000000 
#    y 0.000000 1.750230 0.000000 
#    z 0.000000 0.000000 1.766240 
# 
# From -- ./inp_files/27282.got.cif
#   From: 2010.03.12/outbox.cif.g09.slc.cpg/sg62_14_cif.got.tgz:27282.got - 2010.04.10 19:12:36.
