data_PCOD8252354
_publ_section_title
;
Structure prediction by ZEFSAII (Michael W. Deem and Ramdas Pophale) SiO2 
 PCOD8252354
Probable space group: P N M A
;
_chemical_formula_sum "Si O2"
_cell_formula_units_Z 56
_cell_length_a 10.373502
_cell_length_b 11.272783
_cell_length_c 24.589883
_cell_angle_alpha 90.000000
_cell_angle_beta 90.000000
_cell_angle_gamma 90.000000
_cell_volume 2875.497566
_symmetry_space_group_name_H-M "P N M A"
_symmetry_group_IT_number 62
_symmetry_cell_setting 'orthorhombic'
loop_
_space_group_symop_operation_xyz
x,y,z
1/2-x,-y,1/2+z
1/2+x,1/2-y,1/2-z
-x,1/2+y,-z
-x,-y,-z
1/2+x,y,1/2-z
1/2-x,1/2+y,1/2+z
x,1/2-y,z
loop_
_atom_site_type_symbol
_atom_site_label
_atom_site_fract_x
_atom_site_fract_y
_atom_site_fract_z
Si Si1 0.132375 0.118292 0.139980
Si Si2 0.185266 0.539871 0.469332
Si Si3 0.925848 0.615500 0.979555
Si Si4 0.413388 0.391300 0.283201
Si Si5 0.411934 0.046505 0.164359
Si Si6 0.914299 0.883022 0.434327
Si Si7 0.193680 0.382801 0.366723
O O1 0.078329 0.250000 0.139820
O O2 0.110137 0.068657 0.080211
O O3 0.283074 0.121289 0.153856
O O4 0.038150 0.057539 0.184268
O O5 0.298391 0.630685 0.483753
O O6 0.164787 0.461029 0.523223
O O7 0.229626 0.459632 0.418934
O O8 0.062249 0.616714 0.453195
O O9 0.990379 0.750000 0.980754
O O10 0.000000 0.500000 0.000000
O O11 0.421032 0.250000 0.268521
O O12 0.414746 0.472634 0.229101
O O13 0.281713 0.421738 0.315649
O O14 0.541824 0.114055 0.146748
O O15 0.401130 0.927339 0.128167
O O16 0.860557 0.750000 0.435798
O O17 0.231073 0.250000 0.382865
#
# Coordination Sequence:
#
# PCOD8252354 Si02
#       7
#     8   8   8   8   8   8   8
#     4  10  20  35  55  82 116 148 190 241 299 354
#     4  10  20  37  58  86 114 153 188 243 301 358
#     4  11  23  39  59  86 121 160 198 241 298 364
#     4  10  20  34  54  82 115 151 190 245 304 359
#     4  11  20  34  55  82 113 150 194 241 302 354
#     4  10  21  36  57  85 116 149 193 245 301 360
#     4  10  20  33  56  87 116 150 194 245 307 361
#
# _framework density 19.474889999999998
#
# number of rings (size 3 to 8) (size 9 to 14) (size 15 to 20)
#    0.000    1.714    1.429    3.857    0.000    4.571 
#    0.000    0.000    0.000   11.143    0.000    0.000 
#    0.000    0.000    0.000    0.000    0.000    0.000 
#
# Total GULP energy -693778.942069 kJ/mol
# GULP energy per Si atom -12388.909680 kJ/mol
# Density = 1.943056 g / cm^3
# Si number density = 19.474890 Si / 1000 Ang^3
#
#
#
# Elastic Constant Matrix: (Units=GPa)
#
#
# Indices 1 2 3 4 5 6 
#
# 1 90.2755 20.0703 45.7574 0.0000 0.0000 0.0000
# 2 20.0703 70.0827 37.6278 0.0000 0.0000 0.0000
# 3 45.7574 37.6278 155.9609 0.0000 0.0000 0.0000
# 4 0.0000 0.0000 0.0000 10.9425 0.0000 0.0000
# 5 0.0000 0.0000 0.0000 0.0000 38.8101 0.0000
# 6 0.0000 0.0000 0.0000 0.0000 0.0000 19.9751
#
#
#
# Elastic Compliance Matrix: (Units=1/GPa)
#
#
# Indices 1 2 3 4 5 6 
#
# 1 0.013243 -0.001960 -0.003412 0.000000 0.000000 0.000000
# 2 -0.001960 0.016682 -0.003450 0.000000 0.000000 0.000000
# 3 -0.003412 -0.003450 0.008245 0.000000 0.000000 0.000000
# 4 0.000000 0.000000 0.000000 0.091387 0.000000 0.000000
# 5 0.000000 0.000000 0.000000 0.000000 0.025767 0.000000
# 6 0.000000 0.000000 0.000000 0.000000 0.000000 0.050062
#
#
# Mechanical properties :
#
#
# Convention : Reuss Voigt Hill
#
# Bulk Modulus (GPa) = 48.71963 58.13668 53.42815
# Shear Modulus (GPa) = 21.75119 28.13644 24.94382
#
# Velocity S-wave (km/s) = 3.34561 3.80512 3.58274
# Velocity P-wave (km/s) = 6.32416 7.01585 6.67897
#
# Compressibility (1/GPa) = 0.02052561
#
# Stress axis : x y z
#
# Youngs Moduli (GPa) = 75.51386 59.94330 121.28129
#
# Poissons Ratio (x) = 0.11751 0.41385
# Poissons Ratio (y) = 0.14803 0.41839
# Poissons Ratio (z) = 0.25768 0.20679
#
# Static dielectric constant tensor:
#      x y z
#    x 3.734110 0.000000 0.000000 
#    y 0.000000 3.121040 0.000000 
#    z 0.000000 0.000000 4.127760 
# 
# 
# High freq. dielectric constant tensor:
#      x y z
#    x 1.770200 0.000000 0.000000 
#    y 0.000000 1.714190 0.000000 
#    z 0.000000 0.000000 1.772690 
# 
# From -- ./inp_files/26638.got.cif
#   From: 2010.03.12/outbox.cif.g09.slc.cpg/sg62_14_cif.got.tgz:26638.got - 2010.04.10 19:12:36.
