data_PCOD8252627
_publ_section_title
;
Structure prediction by ZEFSAII (Michael W. Deem and Ramdas Pophale) SiO2 
 PCOD8252627
Probable space group: P N M A
;
_chemical_formula_sum "Si O2"
_cell_formula_units_Z 28
_cell_length_a 4.962073
_cell_length_b 19.359049
_cell_length_c 15.493385
_cell_angle_alpha 90.000000
_cell_angle_beta 90.000000
_cell_angle_gamma 90.000000
_cell_volume 1488.310279
_symmetry_space_group_name_H-M "P N M A"
_symmetry_group_IT_number 62
_symmetry_cell_setting 'orthorhombic'
loop_
_space_group_symop_operation_xyz
x,y,z
1/2-x,-y,1/2+z
1/2+x,1/2-y,1/2-z
-x,1/2+y,-z
-x,-y,-z
1/2+x,y,1/2-z
1/2-x,1/2+y,1/2+z
x,1/2-y,z
loop_
_atom_site_type_symbol
_atom_site_label
_atom_site_fract_x
_atom_site_fract_y
_atom_site_fract_z
Si Si1 0.905947 0.750000 0.312175
Si Si2 0.145568 0.072722 0.015605
Si Si3 0.175657 0.113075 0.584033
Si Si4 0.684195 0.017331 0.307768
O O1 0.662056 0.750000 0.247553
O O2 0.911977 0.684023 0.373459
O O3 0.419623 0.078885 0.962265
O O4 0.921273 0.128346 0.983752
O O5 0.218077 0.075513 0.117236
O O6 0.000000 0.000000 0.000000
O O7 0.282189 0.060443 0.656730
O O8 0.388428 0.028775 0.270054
#
# Coordination Sequence:
#
# PCOD8252627 Si02
#       4
#     4   8   8   8
#     4  12  24  38  56  84 114 150 186 216 256 324
#     4  10  20  35  53  76 107 144 182 222 272 326
#     4  11  21  36  53  77 113 148 178 216 265 330
#     4  11  19  31  52  80 106 134 171 224 272 310
#
# _framework density 18.813282999999998
#
# number of rings (size 3 to 8) (size 9 to 14) (size 15 to 20)
#    0.000    1.143    0.000   12.000    0.000    0.000 
#    0.000    0.000    0.000    0.000    0.000   20.000 
#    0.000    0.000    0.000    0.000    0.000    0.000 
#
# Total GULP energy -347124.175434 kJ/mol
# GULP energy per Si atom -12397.291980 kJ/mol
# Density = 1.877046 g / cm^3
# Si number density = 18.813283 Si / 1000 Ang^3
#
#
#
# Elastic Constant Matrix: (Units=GPa)
#
#
# Indices 1 2 3 4 5 6 
#
# 1 104.2478 12.6047 37.3697 0.0000 0.0000 0.0000
# 2 12.6047 51.5255 43.0539 0.0000 0.0000 0.0000
# 3 37.3697 43.0539 116.3315 0.0000 0.0000 0.0000
# 4 0.0000 0.0000 0.0000 6.8061 0.0000 0.0000
# 5 0.0000 0.0000 0.0000 0.0000 56.8042 0.0000
# 6 0.0000 0.0000 0.0000 0.0000 0.0000 22.0517
#
#
#
# Elastic Compliance Matrix: (Units=1/GPa)
#
#
# Indices 1 2 3 4 5 6 
#
# 1 0.010846 0.000373 -0.003622 0.000000 0.000000 0.000000
# 2 0.000373 0.028110 -0.010523 0.000000 0.000000 0.000000
# 3 -0.003622 -0.010523 0.013654 0.000000 0.000000 0.000000
# 4 0.000000 0.000000 0.000000 0.146927 0.000000 0.000000
# 5 0.000000 0.000000 0.000000 0.000000 0.017604 0.000000
# 6 0.000000 0.000000 0.000000 0.000000 0.000000 0.045348
#
#
# Mechanical properties :
#
#
# Convention : Reuss Voigt Hill
#
# Bulk Modulus (GPa) = 39.89516 50.90681 45.40099
# Shear Modulus (GPa) = 16.75667 29.07083 22.91375
#
# Velocity S-wave (km/s) = 2.98767 3.93520 3.49371
# Velocity P-wave (km/s) = 5.75790 6.91126 6.36078
#
# Compressibility (1/GPa) = 0.02506569
#
# Stress axis : x y z
#
# Youngs Moduli (GPa) = 92.20115 35.57512 73.23687
#
# Poissons Ratio (x) = -0.01329 0.26528
# Poissons Ratio (y) = -0.03444 0.77069
# Poissons Ratio (z) = 0.33398 0.37436
#
# Static dielectric constant tensor:
#      x y z
#    x 3.841870 0.000000 0.000000 
#    y 0.000000 3.256900 0.000000 
#    z 0.000000 0.000000 4.076660 
# 
# 
# High freq. dielectric constant tensor:
#      x y z
#    x 1.762330 0.000000 0.000000 
#    y 0.000000 1.677820 0.000000 
#    z 0.000000 0.000000 1.745410 
# 
# From -- ./inp_files/10616.got.cif
#   From: 2010.03.12/outbox.cif.g09.slc.cpg/sg62_6_cif.got.tgz:10616.got - 2010.04.10 19:12:36.
