data_PCOD8252167
_publ_section_title
;
Structure prediction by ZEFSAII (Michael W. Deem and Ramdas Pophale) SiO2 
 PCOD8252167
Probable space group: P N M A
;
_chemical_formula_sum "Si O2"
_cell_formula_units_Z 48
_cell_length_a 13.831139
_cell_length_b 18.187178
_cell_length_c 8.923353
_cell_angle_alpha 90.000000
_cell_angle_beta 90.000000
_cell_angle_gamma 90.000000
_cell_volume 2244.663977
_symmetry_space_group_name_H-M "P N M A"
_symmetry_group_IT_number 62
_symmetry_cell_setting 'orthorhombic'
loop_
_space_group_symop_operation_xyz
x,y,z
1/2-x,-y,1/2+z
1/2+x,1/2-y,1/2-z
-x,1/2+y,-z
-x,-y,-z
1/2+x,y,1/2-z
1/2-x,1/2+y,1/2+z
x,1/2-y,z
loop_
_atom_site_type_symbol
_atom_site_label
_atom_site_fract_x
_atom_site_fract_y
_atom_site_fract_z
Si Si1 0.435035 0.407439 0.359945
Si Si2 0.726610 0.250000 0.848112
Si Si3 0.759528 0.750000 0.695589
Si Si4 0.842756 0.358895 0.650900
Si Si5 0.458268 0.250000 0.255809
Si Si6 0.505387 0.250000 0.917236
Si Si7 0.252458 0.110749 0.157863
Si Si8 0.103534 0.513169 0.161212
O O1 0.480265 0.324907 0.349259
O O2 0.337580 0.416950 0.265825
O O3 0.415706 0.426182 0.533335
O O4 0.508524 0.467733 0.294356
O O5 0.770439 0.322066 0.770455
O O6 0.610355 0.250000 0.840214
O O7 0.759701 0.250000 0.019814
O O8 0.655542 0.750000 0.780097
O O9 0.809797 0.674714 0.754305
O O10 0.793633 0.353065 0.491002
O O11 0.860588 0.443558 0.692756
O O12 0.947518 0.320879 0.640795
O O13 0.518231 0.250000 0.098925
O O14 0.185395 0.043649 0.109976
#
# Coordination Sequence:
#
# PCOD8252167 Si02
#       8
#     8   4   4   8   4   4   8   8
#     4  10  23  43  64  98 129 180 227 270 337 404
#     4  11  26  39  71 102 125 173 235 275 342 395
#     4  10  20  40  67  93 128 169 225 279 325 399
#     4  11  23  45  63  98 139 170 221 292 330 396
#     4  10  19  44  67  88 124 173 226 273 321 398
#     4  11  23  43  69  97 131 175 230 279 336 398
#     4  11  22  41  67  91 133 180 222 271 339 404
#     4  11  25  40  64  99 139 173 218 277 342 401
#
# _framework density 21.384046000000001
#
# number of rings (size 3 to 8) (size 9 to 14) (size 15 to 20)
#    0.000    1.333    3.333    3.500    2.333    5.333 
#    0.000    0.000    0.000    0.000    0.000    0.000 
#    0.000    0.000    0.000    0.000    0.000    0.000 
#
# Total GULP energy -595171.658967 kJ/mol
# GULP energy per Si atom -12399.409562 kJ/mol
# Density = 2.133537 g / cm^3
# Si number density = 21.384046 Si / 1000 Ang^3
#
#
#
# Elastic Constant Matrix: (Units=GPa)
#
#
# Indices 1 2 3 4 5 6 
#
# 1 94.9830 47.7937 27.6000 0.0000 0.0000 0.0000
# 2 47.7937 145.6133 55.3749 0.0000 0.0000 0.0000
# 3 27.6000 55.3749 96.1784 0.0000 0.0000 0.0000
# 4 0.0000 0.0000 0.0000 8.9100 0.0000 0.0000
# 5 0.0000 0.0000 0.0000 0.0000 25.6165 0.0000
# 6 0.0000 0.0000 0.0000 0.0000 0.0000 20.7174
#
#
#
# Elastic Compliance Matrix: (Units=1/GPa)
#
#
# Indices 1 2 3 4 5 6 
#
# 1 0.012802 -0.003591 -0.001606 0.000000 0.000000 0.000000
# 2 -0.003591 0.009800 -0.004612 0.000000 0.000000 0.000000
# 3 -0.001606 -0.004612 0.013514 0.000000 0.000000 0.000000
# 4 0.000000 0.000000 0.000000 0.112234 0.000000 0.000000
# 5 0.000000 0.000000 0.000000 0.000000 0.039037 0.000000
# 6 0.000000 0.000000 0.000000 0.000000 0.000000 0.048269
#
#
# Mechanical properties :
#
#
# Convention : Reuss Voigt Hill
#
# Bulk Modulus (GPa) = 60.61608 66.47909 63.54758
# Shear Modulus (GPa) = 19.17379 24.78250 21.97815
#
# Velocity S-wave (km/s) = 2.99764 3.40799 3.20938
# Velocity P-wave (km/s) = 6.35524 6.82946 6.59661
#
# Compressibility (1/GPa) = 0.01649727
#
# Stress axis : x y z
#
# Youngs Moduli (GPa) = 78.11353 102.04068 73.99993
#
# Poissons Ratio (x) = 0.36644 0.11885
# Poissons Ratio (y) = 0.28051 0.34128
# Poissons Ratio (z) = 0.12546 0.47060
#
# Static dielectric constant tensor:
#      x y z
#    x 3.766990 0.000000 0.000000 
#    y 0.000000 4.186470 0.000000 
#    z 0.000000 0.000000 3.745470 
# 
# 
# High freq. dielectric constant tensor:
#      x y z
#    x 1.834900 0.000000 0.000000 
#    y 0.000000 1.853510 0.000000 
#    z 0.000000 0.000000 1.837010 
# 
# From -- ./inp_files/6561.got.cif
#   From: 2010.03.12/outbox.cif.g09.slc.cpg/sg62_4_cif.got.tgz:6561.got - 2010.04.10 19:12:36.
