data_PCOD8252599
_publ_section_title
;
Structure prediction by ZEFSAII (Michael W. Deem and Ramdas Pophale) SiO2 
 PCOD8252599
Probable space group: P N M A
;
_chemical_formula_sum "Si O2"
_cell_formula_units_Z 40
_cell_length_a 17.419216
_cell_length_b 8.644104
_cell_length_c 12.584142
_cell_angle_alpha 90.000000
_cell_angle_beta 90.000000
_cell_angle_gamma 90.000000
_cell_volume 1894.838490
_symmetry_space_group_name_H-M "P N M A"
_symmetry_group_IT_number 62
_symmetry_cell_setting 'orthorhombic'
loop_
_space_group_symop_operation_xyz
x,y,z
1/2-x,-y,1/2+z
1/2+x,1/2-y,1/2-z
-x,1/2+y,-z
-x,-y,-z
1/2+x,y,1/2-z
1/2-x,1/2+y,1/2+z
x,1/2-y,z
loop_
_atom_site_type_symbol
_atom_site_label
_atom_site_fract_x
_atom_site_fract_y
_atom_site_fract_z
Si Si1 0.903538 0.421668 0.103256
Si Si2 0.586429 0.433193 0.989242
Si Si3 0.942944 0.423128 0.882464
Si Si4 0.335376 0.071891 0.808894
Si Si5 0.179089 0.072234 0.714670
O O1 0.881332 0.250000 0.144493
O O2 0.867846 0.552210 0.176906
O O3 0.995150 0.441810 0.106772
O O4 0.880349 0.442648 0.978693
O O5 0.577019 0.250000 0.981572
O O6 0.642293 0.476120 0.086615
O O7 0.500000 0.500000 0.000000
O O8 0.630945 0.500366 0.884193
O O9 0.978715 0.250000 0.892291
O O10 0.907043 0.442127 0.767832
O O11 0.318871 0.250000 0.841174
O O12 0.262573 0.999762 0.744104
O O13 0.191391 0.250000 0.686920
#
# Coordination Sequence:
#
# PCOD8252599 Si02
#       5
#     8   8   8   8   8
#     4  10  20  34  58  87 115 148 192 241 286 346
#     4  11  24  42  65  91 124 164 207 252 303 363
#     4   9  19  36  58  82 114 152 189 235 293 351
#     4  10  22  40  61  85 117 157 200 245 299 358
#     4  10  23  40  59  84 120 160 195 241 303 360
#
# _framework density 21.109978000000002
#
# number of rings (size 3 to 8) (size 9 to 14) (size 15 to 20)
#    0.000    2.000    0.000    2.400    2.800    8.800 
#    0.000    0.000    0.000    0.000    0.000    0.000 
#    0.000    0.000    0.000    0.000    0.000    0.000 
#
# Total GULP energy -495584.505150 kJ/mol
# GULP energy per Si atom -12389.612629 kJ/mol
# Density = 2.106193 g / cm^3
# Si number density = 21.109978 Si / 1000 Ang^3
#
#
#
# Elastic Constant Matrix: (Units=GPa)
#
#
# Indices 1 2 3 4 5 6 
#
# 1 83.6710 17.9704 24.7001 0.0000 0.0000 0.0000
# 2 17.9704 39.8437 24.0668 0.0000 0.0000 0.0000
# 3 24.7001 24.0668 91.0573 0.0000 0.0000 0.0000
# 4 0.0000 0.0000 0.0000 28.3846 0.0000 0.0000
# 5 0.0000 0.0000 0.0000 0.0000 39.4838 0.0000
# 6 0.0000 0.0000 0.0000 0.0000 0.0000 27.4913
#
#
#
# Elastic Compliance Matrix: (Units=1/GPa)
#
#
# Indices 1 2 3 4 5 6 
#
# 1 0.013687 -0.004677 -0.002477 0.000000 0.000000 0.000000
# 2 -0.004677 0.031464 -0.007047 0.000000 0.000000 0.000000
# 3 -0.002477 -0.007047 0.013517 0.000000 0.000000 0.000000
# 4 0.000000 0.000000 0.000000 0.035230 0.000000 0.000000
# 5 0.000000 0.000000 0.000000 0.000000 0.025327 0.000000
# 6 0.000000 0.000000 0.000000 0.000000 0.000000 0.036375
#
#
# Mechanical properties :
#
#
# Convention : Reuss Voigt Hill
#
# Bulk Modulus (GPa) = 33.04072 38.67184 35.85628
# Shear Modulus (GPa) = 25.76103 28.92760 27.34432
#
# Velocity S-wave (km/s) = 3.49710 3.70581 3.60297
# Velocity P-wave (km/s) = 5.65615 6.05555 5.85925
#
# Compressibility (1/GPa) = 0.03026568
#
# Stress axis : x y z
#
# Youngs Moduli (GPa) = 73.06083 31.78187 73.98350
#
# Poissons Ratio (x) = 0.14865 0.18322
# Poissons Ratio (y) = 0.34173 0.52139
# Poissons Ratio (z) = 0.18094 0.22398
#
# Static dielectric constant tensor:
#      x y z
#    x 3.828920 0.000000 0.000000 
#    y 0.000000 3.617940 0.000000 
#    z 0.000000 0.000000 4.132240 
# 
# 
# High freq. dielectric constant tensor:
#      x y z
#    x 1.817690 0.000000 0.000000 
#    y 0.000000 1.807840 0.000000 
#    z 0.000000 0.000000 1.845860 
# 
# From -- ./inp_files/13847.got.cif
#   From: 2010.03.12/outbox.cif.g09.slc.cpg/sg62_7_cif.got.tgz:13847.got - 2010.04.10 19:12:36.
