data_PCOD8252746
_publ_section_title
;
Structure prediction by ZEFSAII (Michael W. Deem and Ramdas Pophale) SiO2 
 PCOD8252746
Probable space group: P N M A
;
_chemical_formula_sum "Si O2"
_cell_formula_units_Z 40
_cell_length_a 18.461867
_cell_length_b 12.604510
_cell_length_c 8.789829
_cell_angle_alpha 90.000000
_cell_angle_beta 90.000000
_cell_angle_gamma 90.000000
_cell_volume 2045.417707
_symmetry_space_group_name_H-M "P N M A"
_symmetry_group_IT_number 62
_symmetry_cell_setting 'orthorhombic'
loop_
_space_group_symop_operation_xyz
x,y,z
1/2-x,-y,1/2+z
1/2+x,1/2-y,1/2-z
-x,1/2+y,-z
-x,-y,-z
1/2+x,y,1/2-z
1/2-x,1/2+y,1/2+z
x,1/2-y,z
loop_
_atom_site_type_symbol
_atom_site_label
_atom_site_fract_x
_atom_site_fract_y
_atom_site_fract_z
Si Si1 0.013878 0.368960 0.824912
Si Si2 0.850391 0.126841 0.208424
Si Si3 0.419248 0.525136 0.058957
Si Si4 0.181097 0.373223 0.301980
Si Si5 0.096867 0.485441 0.062841
O O1 0.983977 0.250000 0.819197
O O2 0.947731 0.452308 0.805305
O O3 0.072190 0.386474 0.690920
O O4 0.049936 0.390790 0.989262
O O5 0.871335 0.250000 0.212014
O O6 0.765773 0.109947 0.178150
O O7 0.880154 0.077663 0.366388
O O8 0.886819 0.072138 0.064660
O O9 0.500000 0.500000 0.000000
O O10 0.365363 0.572214 0.934100
O O11 0.159834 0.250000 0.294718
O O12 0.165056 0.430454 0.141418
#
# Coordination Sequence:
#
# PCOD8252746 Si02
#       5
#     8   8   8   8   8
#     4  10  20  35  56  83 113 149 192 241 297 349
#     4  10  23  40  61  86 121 163 201 244 305 368
#     4  11  22  40  59  89 121 155 201 254 302 353
#     4  11  22  39  61  88 120 159 200 249 307 364
#     4  10  20  37  57  83 116 152 195 243 292 355
#
# _framework density 19.555909
#
# number of rings (size 3 to 8) (size 9 to 14) (size 15 to 20)
#    0.000    1.600    2.000    3.000    0.000    1.600 
#    0.000    0.000    0.000    8.400    0.000    0.000 
#    0.000    0.000    0.000    0.000    0.000    0.000 
#
# Total GULP energy -495845.759927 kJ/mol
# GULP energy per Si atom -12396.143998 kJ/mol
# Density = 1.951140 g / cm^3
# Si number density = 19.555909 Si / 1000 Ang^3
#
#
#
# Elastic Constant Matrix: (Units=GPa)
#
#
# Indices 1 2 3 4 5 6 
#
# 1 93.9580 43.5616 38.4398 0.0000 0.0000 0.0000
# 2 43.5616 115.0612 53.9861 0.0000 0.0000 0.0000
# 3 38.4398 53.9861 76.4574 0.0000 0.0000 0.0000
# 4 0.0000 0.0000 0.0000 27.3149 0.0000 0.0000
# 5 0.0000 0.0000 0.0000 0.0000 36.0310 0.0000
# 6 0.0000 0.0000 0.0000 0.0000 0.0000 28.2488
#
#
#
# Elastic Compliance Matrix: (Units=1/GPa)
#
#
# Indices 1 2 3 4 5 6 
#
# 1 0.014059 -0.003000 -0.004950 0.000000 0.000000 0.000000
# 2 -0.003000 0.013637 -0.008121 0.000000 0.000000 0.000000
# 3 -0.004950 -0.008121 0.021302 0.000000 0.000000 0.000000
# 4 0.000000 0.000000 0.000000 0.036610 0.000000 0.000000
# 5 0.000000 0.000000 0.000000 0.000000 0.027754 0.000000
# 6 0.000000 0.000000 0.000000 0.000000 0.000000 0.035400
#
#
# Mechanical properties :
#
#
# Convention : Reuss Voigt Hill
#
# Bulk Modulus (GPa) = 59.32497 61.93910 60.63203
# Shear Modulus (GPa) = 26.80646 28.28486 27.54566
#
# Velocity S-wave (km/s) = 3.70639 3.80723 3.75715
# Velocity P-wave (km/s) = 6.97986 7.14620 7.06352
#
# Compressibility (1/GPa) = 0.01685631
#
# Stress axis : x y z
#
# Youngs Moduli (GPa) = 71.12802 73.32956 46.94449
#
# Poissons Ratio (x) = 0.22001 0.23237
# Poissons Ratio (y) = 0.21340 0.38122
# Poissons Ratio (z) = 0.35208 0.59548
#
# Static dielectric constant tensor:
#      x y z
#    x 3.670910 0.000000 0.000000 
#    y 0.000000 3.541460 0.000000 
#    z 0.000000 0.000000 3.633100 
# 
# 
# High freq. dielectric constant tensor:
#      x y z
#    x 1.763600 0.000000 0.000000 
#    y 0.000000 1.764610 0.000000 
#    z 0.000000 0.000000 1.769390 
# 
# From -- ./inp_files/7266.got.cif
#   From: 2010.03.12/outbox.cif.g09.slc.cpg/sg62_4_cif.got.tgz:7266.got - 2010.04.10 19:12:36.
