data_PCOD8252834
_publ_section_title
;
Structure prediction by ZEFSAII (Michael W. Deem and Ramdas Pophale) SiO2 
 PCOD8252834
Probable space group: P N M A
;
_chemical_formula_sum "Si O2"
_cell_formula_units_Z 56
_cell_length_a 14.327308
_cell_length_b 19.646672
_cell_length_c 9.488022
_cell_angle_alpha 90.000000
_cell_angle_beta 90.000000
_cell_angle_gamma 90.000000
_cell_volume 2670.725634
_symmetry_space_group_name_H-M "P N M A"
_symmetry_group_IT_number 62
_symmetry_cell_setting 'orthorhombic'
loop_
_space_group_symop_operation_xyz
x,y,z
1/2-x,-y,1/2+z
1/2+x,1/2-y,1/2-z
-x,1/2+y,-z
-x,-y,-z
1/2+x,y,1/2-z
1/2-x,1/2+y,1/2+z
x,1/2-y,z
loop_
_atom_site_type_symbol
_atom_site_label
_atom_site_fract_x
_atom_site_fract_y
_atom_site_fract_z
Si Si1 0.136451 0.612879 0.443454
Si Si2 0.772692 0.082525 0.086423
Si Si3 0.592201 0.474897 0.194197
Si Si4 0.033087 0.325037 0.009153
Si Si5 0.657090 0.826479 0.352200
Si Si6 0.172934 0.054942 0.015507
Si Si7 0.935235 0.374227 0.273005
O O1 0.082364 0.546971 0.383518
O O2 0.162839 0.662307 0.315697
O O3 0.226495 0.589052 0.531735
O O4 0.075807 0.651986 0.564662
O O5 0.661872 0.078553 0.116038
O O6 0.832740 0.123202 0.201919
O O7 0.778243 0.120078 0.935102
O O8 0.817680 0.006631 0.095158
O O9 0.639532 0.484650 0.345946
O O10 0.487626 0.446836 0.211934
O O11 0.078200 0.250000 0.986933
O O12 0.103123 0.385324 0.968655
O O13 0.000145 0.327601 0.173199
O O14 0.948656 0.336163 0.902369
O O15 0.692145 0.750000 0.383947
#
# Coordination Sequence:
#
# PCOD8252834 Si02
#       7
#     8   8   8   8   8   8   8
#     4  11  21  36  56  90 119 146 191 238 290 347
#     4  10  20  38  59  85 120 152 200 234 287 351
#     4  10  20  35  57  91 120 147 190 243 284 340
#     4   9  21  40  58  80 111 151 200 239 288 353
#     4  10  22  39  58  81 118 156 190 236 290 351
#     4  10  20  35  62  85 115 155 193 244 282 342
#     4  10  21  35  61  84 114 151 190 239 299 333
#
# _framework density 20.968084999999999
#
# number of rings (size 3 to 8) (size 9 to 14) (size 15 to 20)
#    0.000    2.000    2.857    0.429    2.000    2.857 
#    2.571    2.857    0.000    0.000    0.000    0.000 
#    0.000    0.000    0.000    0.000    0.000    0.000 
#
# Total GULP energy -693885.240435 kJ/mol
# GULP energy per Si atom -12390.807865 kJ/mol
# Density = 2.092036 g / cm^3
# Si number density = 20.968085 Si / 1000 Ang^3
#
#
#
# Elastic Constant Matrix: (Units=GPa)
#
#
# Indices 1 2 3 4 5 6 
#
# 1 23.7774 -5.2498 8.3014 0.0000 0.0000 0.0000
# 2 -5.2498 51.1032 -9.7237 0.0000 0.0000 0.0000
# 3 8.3014 -9.7237 79.1490 0.0000 0.0000 0.0000
# 4 0.0000 0.0000 0.0000 14.2932 0.0000 0.0000
# 5 0.0000 0.0000 0.0000 0.0000 28.3002 0.0000
# 6 0.0000 0.0000 0.0000 0.0000 0.0000 14.1291
#
#
#
# Elastic Compliance Matrix: (Units=1/GPa)
#
#
# Indices 1 2 3 4 5 6 
#
# 1 0.044349 0.003759 -0.004190 0.000000 0.000000 0.000000
# 2 0.003759 0.020355 0.002106 0.000000 0.000000 0.000000
# 3 -0.004190 0.002106 0.013333 0.000000 0.000000 0.000000
# 4 0.000000 0.000000 0.000000 0.069963 0.000000 0.000000
# 5 0.000000 0.000000 0.000000 0.000000 0.035335 0.000000
# 6 0.000000 0.000000 0.000000 0.000000 0.000000 0.070776
#
#
# Mechanical properties :
#
#
# Convention : Reuss Voigt Hill
#
# Bulk Modulus (GPa) = 12.28679 15.63171 13.95925
# Shear Modulus (GPa) = 17.99272 22.05794 20.02533
#
# Velocity S-wave (km/s) = 2.93251 3.24694 3.09372
# Velocity P-wave (km/s) = 4.16397 4.63983 4.40832
#
# Compressibility (1/GPa) = 0.08138820
#
# Stress axis : x y z
#
# Youngs Moduli (GPa) = 22.54822 49.12755 75.00403
#
# Poissons Ratio (x) = -0.18466 0.31425
# Poissons Ratio (y) = -0.08475 -0.15799
# Poissons Ratio (z) = 0.09447 -0.10349
#
# Static dielectric constant tensor:
#      x y z
#    x 3.653040 0.000000 0.000000 
#    y 0.000000 3.609660 0.000000 
#    z 0.000000 0.000000 3.844650 
# 
# 
# High freq. dielectric constant tensor:
#      x y z
#    x 1.804970 0.000000 0.000000 
#    y 0.000000 1.801130 0.000000 
#    z 0.000000 0.000000 1.826080 
# 
# From -- ./inp_files/6753.got.cif
#   From: 2010.03.12/outbox.cif.g09.slc.cpg/sg62_4_cif.got.tgz:6753.got - 2010.04.10 19:12:36.
