data_PCOD8253725
_publ_section_title
;
Structure prediction by ZEFSAII (Michael W. Deem and Ramdas Pophale) SiO2 
 PCOD8253725
Probable space group: P N M A
;
_chemical_formula_sum "Si O2"
_cell_formula_units_Z 64
_cell_length_a 12.536874
_cell_length_b 8.920718
_cell_length_c 29.192143
_cell_angle_alpha 90.000000
_cell_angle_beta 90.000000
_cell_angle_gamma 90.000000
_cell_volume 3264.788482
_symmetry_space_group_name_H-M "P N M A"
_symmetry_group_IT_number 62
_symmetry_cell_setting 'orthorhombic'
loop_
_space_group_symop_operation_xyz
x,y,z
1/2-x,-y,1/2+z
1/2+x,1/2-y,1/2-z
-x,1/2+y,-z
-x,-y,-z
1/2+x,y,1/2-z
1/2-x,1/2+y,1/2+z
x,1/2-y,z
loop_
_atom_site_type_symbol
_atom_site_label
_atom_site_fract_x
_atom_site_fract_y
_atom_site_fract_z
Si Si1 0.577672 0.916814 0.579295
Si Si2 0.551457 0.927813 0.100999
Si Si3 0.238051 0.573776 0.466192
Si Si4 0.050394 0.574600 0.211769
Si Si5 0.650174 0.917008 0.679018
Si Si6 0.340292 0.425806 0.065302
Si Si7 0.863745 0.926364 0.875262
Si Si8 0.609674 0.425930 0.194483
O O1 0.564540 0.750000 0.559146
O O2 0.650913 0.916350 0.624311
O O3 0.460180 0.982989 0.591518
O O4 0.642158 0.013297 0.542172
O O5 0.551507 0.750000 0.105535
O O6 0.652439 0.984214 0.071157
O O7 0.444325 0.979133 0.076024
O O8 0.553435 0.999591 0.151036
O O9 0.246580 0.750000 0.464419
O O10 0.200820 0.519874 0.516019
O O11 0.071367 0.750000 0.216509
O O12 0.929397 0.543127 0.197091
O O13 0.131357 0.508061 0.173834
O O14 0.061969 0.494939 0.260035
O O15 0.618508 0.750000 0.696905
O O16 0.765882 0.963837 0.695939
O O17 0.368146 0.250000 0.065500
O O18 0.249419 0.463146 0.102494
O O19 0.881179 0.750000 0.866527
O O20 0.586632 0.250000 0.192379
#
# Coordination Sequence:
#
# PCOD8253725 Si02
#       8
#     8   8   8   8   8   8   8   8
#     4   9  17  33  58  85 111 145 192 241 286 341
#     4  11  23  38  57  86 122 152 192 250 300 345
#     4  10  21  36  57  87 119 154 195 244 298 348
#     4  11  23  37  58  88 119 149 185 238 299 350
#     4   9  19  37  59  82 110 149 193 235 282 344
#     4  10  22  40  60  82 117 164 204 239 289 355
#     4   9  20  40  60  81 114 156 200 243 288 349
#     4  11  22  39  63  86 111 151 198 237 284 351
#
# _framework density 19.603107999999999
#
# number of rings (size 3 to 8) (size 9 to 14) (size 15 to 20)
#    0.000    2.000    1.250    3.000    0.000    6.000 
#    0.000    1.250    0.000    0.000    0.000    0.000 
#    0.000    0.000    0.000    0.000    0.000    0.000 
#
# Total GULP energy -793652.127240 kJ/mol
# GULP energy per Si atom -12400.814488 kJ/mol
# Density = 1.955849 g / cm^3
# Si number density = 19.603108 Si / 1000 Ang^3
#
#
#
# Elastic Constant Matrix: (Units=GPa)
#
#
# Indices 1 2 3 4 5 6 
#
# 1 33.9211 15.7393 -2.0083 0.0000 0.0000 0.0000
# 2 15.7393 57.7136 20.6939 0.0000 0.0000 0.0000
# 3 -2.0083 20.6939 76.3359 0.0000 0.0000 0.0000
# 4 0.0000 0.0000 0.0000 30.4523 0.0000 0.0000
# 5 0.0000 0.0000 0.0000 0.0000 21.5867 0.0000
# 6 0.0000 0.0000 0.0000 0.0000 0.0000 26.4509
#
#
#
# Elastic Compliance Matrix: (Units=1/GPa)
#
#
# Indices 1 2 3 4 5 6 
#
# 1 0.034747 -0.010859 0.003858 0.000000 0.000000 0.000000
# 2 -0.010859 0.022586 -0.006409 0.000000 0.000000 0.000000
# 3 0.003858 -0.006409 0.014939 0.000000 0.000000 0.000000
# 4 0.000000 0.000000 0.000000 0.032838 0.000000 0.000000
# 5 0.000000 0.000000 0.000000 0.000000 0.046325 0.000000
# 6 0.000000 0.000000 0.000000 0.000000 0.000000 0.037806
#
#
# Mechanical properties :
#
#
# Convention : Reuss Voigt Hill
#
# Bulk Modulus (GPa) = 22.00099 26.31337 24.15718
# Shear Modulus (GPa) = 21.62515 24.60103 23.11309
#
# Velocity S-wave (km/s) = 3.32497 3.54638 3.43746
# Velocity P-wave (km/s) = 5.09786 5.49739 5.30139
#
# Compressibility (1/GPa) = 0.04545250
#
# Stress axis : x y z
#
# Youngs Moduli (GPa) = 28.77917 44.27458 66.93971
#
# Poissons Ratio (x) = 0.48080 -0.25826
# Poissons Ratio (y) = 0.31252 0.42899
# Poissons Ratio (z) = -0.11103 0.28374
#
# Static dielectric constant tensor:
#      x y z
#    x 3.562330 0.000000 0.000000 
#    y 0.000000 3.453790 0.000000 
#    z 0.000000 0.000000 3.611490 
# 
# 
# High freq. dielectric constant tensor:
#      x y z
#    x 1.767620 0.000000 0.000000 
#    y 0.000000 1.755320 0.000000 
#    z 0.000000 0.000000 1.764550 
# 
# From -- ./inp_files/32585.got.cif
#   From: 2010.03.12/outbox.cif.g09.slc.cpg/sg62_17_cif.got.tgz:32585.got - 2010.04.10 19:12:36.
