data_PCOD8253763
_publ_section_title
;
Structure prediction by ZEFSAII (Michael W. Deem and Ramdas Pophale) SiO2 
 PCOD8253763
Probable space group: P N M A
;
_chemical_formula_sum "Si O2"
_cell_formula_units_Z 64
_cell_length_a 9.398957
_cell_length_b 25.282494
_cell_length_c 14.894336
_cell_angle_alpha 90.000000
_cell_angle_beta 90.000000
_cell_angle_gamma 90.000000
_cell_volume 3539.327271
_symmetry_space_group_name_H-M "P N M A"
_symmetry_group_IT_number 62
_symmetry_cell_setting 'orthorhombic'
loop_
_space_group_symop_operation_xyz
x,y,z
1/2-x,-y,1/2+z
1/2+x,1/2-y,1/2-z
-x,1/2+y,-z
-x,-y,-z
1/2+x,y,1/2-z
1/2-x,1/2+y,1/2+z
x,1/2-y,z
loop_
_atom_site_type_symbol
_atom_site_label
_atom_site_fract_x
_atom_site_fract_y
_atom_site_fract_z
Si Si1 0.270373 0.355209 0.754566
Si Si2 0.514253 0.310532 0.632529
Si Si3 0.012078 0.890652 0.971808
Si Si4 0.520089 0.023196 0.616134
Si Si5 0.478592 0.475341 0.094248
Si Si6 0.476580 0.578597 0.208793
Si Si7 0.701647 0.066357 0.349346
Si Si8 0.737113 0.566750 0.646136
O O1 0.377008 0.319035 0.696350
O O2 0.164842 0.321915 0.818294
O O3 0.374813 0.392171 0.816393
O O4 0.167991 0.388718 0.686039
O O5 0.515697 0.250000 0.602730
O O6 0.497657 0.343362 0.540873
O O7 0.999312 0.950122 0.017253
O O8 0.158296 0.888994 0.914465
O O9 0.887943 0.886764 0.896440
O O10 0.525478 0.074191 0.682066
O O11 0.389756 0.987568 0.651483
O O12 0.666007 0.990534 0.627606
O O13 0.467876 0.520504 0.169054
O O14 0.336772 0.441620 0.087996
O O15 0.601456 0.434076 0.115101
O O16 0.500000 0.500000 0.000000
O O17 0.760696 0.081829 0.251153
#
# Coordination Sequence:
#
# PCOD8253763 Si02
#       8
#     8   8   8   8   8   8   8   8
#     4  10  21  36  62  82 114 144 184 222 289 338
#     4  11  24  42  63  85 107 139 187 242 292 344
#     4  11  23  37  59  78 110 153 195 228 280 341
#     4  11  18  35  53  76 118 158 190 213 265 327
#     4  12  22  28  48  78 119 149 194 215 253 309
#     4  11  19  32  54  84 119 158 180 223 265 324
#     4  11  21  35  50  78 115 156 185 224 264 320
#     4  11  21  35  50  78 115 156 185 224 264 320
#
# _framework density 18.082530999999999
#
# number of rings (size 3 to 8) (size 9 to 14) (size 15 to 20)
#    0.000    1.000    5.000    5.625    3.500    0.000 
#    0.000    0.000    0.000    0.750    0.000    0.000 
#    0.000    0.000    0.000    0.000    0.000    0.000 
#
# Total GULP energy -793326.529320 kJ/mol
# GULP energy per Si atom -12395.727021 kJ/mol
# Density = 1.804137 g / cm^3
# Si number density = 18.082531 Si / 1000 Ang^3
#
#
#
# Elastic Constant Matrix: (Units=GPa)
#
#
# Indices 1 2 3 4 5 6 
#
# 1 106.0152 35.6833 6.0481 0.0000 0.0000 0.0000
# 2 35.6833 69.5870 24.0789 0.0000 0.0000 0.0000
# 3 6.0481 24.0789 81.8326 0.0000 0.0000 0.0000
# 4 0.0000 0.0000 0.0000 21.0993 0.0000 0.0000
# 5 0.0000 0.0000 0.0000 0.0000 33.3524 0.0000
# 6 0.0000 0.0000 0.0000 0.0000 0.0000 13.2073
#
#
#
# Elastic Compliance Matrix: (Units=1/GPa)
#
#
# Indices 1 2 3 4 5 6 
#
# 1 0.011471 -0.006222 0.000983 0.000000 0.000000 0.000000
# 2 -0.006222 0.019375 -0.005241 0.000000 0.000000 0.000000
# 3 0.000983 -0.005241 0.013690 0.000000 0.000000 0.000000
# 4 0.000000 0.000000 0.000000 0.047395 0.000000 0.000000
# 5 0.000000 0.000000 0.000000 0.000000 0.029983 0.000000
# 6 0.000000 0.000000 0.000000 0.000000 0.000000 0.075716
#
#
# Mechanical properties :
#
#
# Convention : Reuss Voigt Hill
#
# Bulk Modulus (GPa) = 42.41841 43.22839 42.82340
# Shear Modulus (GPa) = 22.08019 26.30676 24.19347
#
# Velocity S-wave (km/s) = 3.49818 3.81834 3.66176
# Velocity P-wave (km/s) = 6.31075 6.58769 6.45071
#
# Compressibility (1/GPa) = 0.02357467
#
# Stress axis : x y z
#
# Youngs Moduli (GPa) = 87.17743 51.61359 73.04825
#
# Poissons Ratio (x) = 0.32115 -0.07181
# Poissons Ratio (y) = 0.54244 0.38285
# Poissons Ratio (z) = -0.08570 0.27051
#
# Static dielectric constant tensor:
#      x y z
#    x 3.619510 0.000000 0.000000 
#    y 0.000000 2.867520 0.000000 
#    z 0.000000 0.000000 4.739820 
# 
# 
# High freq. dielectric constant tensor:
#      x y z
#    x 1.724980 0.000000 0.000000 
#    y 0.000000 1.641310 0.000000 
#    z 0.000000 0.000000 1.702500 
# 
# From -- ./inp_files/17432.got.cif
#   From: 2010.03.12/outbox.cif.g09.slc.cpg/sg62_9_cif.got.tgz:17432.got - 2010.04.10 19:12:36.
