data_PCOD8253263
_publ_section_title
;
Structure prediction by ZEFSAII (Michael W. Deem and Ramdas Pophale) SiO2 
 PCOD8253263
Probable space group: P N M A
;
_chemical_formula_sum "Si O2"
_cell_formula_units_Z 56
_cell_length_a 19.357170
_cell_length_b 8.787503
_cell_length_c 17.243634
_cell_angle_alpha 90.000000
_cell_angle_beta 90.000000
_cell_angle_gamma 90.000000
_cell_volume 2933.162654
_symmetry_space_group_name_H-M "P N M A"
_symmetry_group_IT_number 62
_symmetry_cell_setting 'orthorhombic'
loop_
_space_group_symop_operation_xyz
x,y,z
1/2-x,-y,1/2+z
1/2+x,1/2-y,1/2-z
-x,1/2+y,-z
-x,-y,-z
1/2+x,y,1/2-z
1/2-x,1/2+y,1/2+z
x,1/2-y,z
loop_
_atom_site_type_symbol
_atom_site_label
_atom_site_fract_x
_atom_site_fract_y
_atom_site_fract_z
Si Si1 0.169701 0.072816 0.024998
Si Si2 0.535473 0.570986 0.193058
Si Si3 0.397819 0.424192 0.383198
Si Si4 0.553044 0.072574 0.352664
Si Si5 0.689924 0.427860 0.924296
Si Si6 0.388832 0.074414 0.206978
Si Si7 0.432753 0.571024 0.961787
O O1 0.187977 0.250000 0.030624
O O2 0.109516 0.026456 0.084436
O O3 0.235735 0.973401 0.044527
O O4 0.144824 0.034826 0.938586
O O5 0.540754 0.750000 0.184894
O O6 0.568549 0.519086 0.274208
O O7 0.455810 0.523008 0.185047
O O8 0.579180 0.494989 0.124085
O O9 0.388409 0.250000 0.410436
O O10 0.478197 0.472070 0.386261
O O11 0.368449 0.447807 0.296657
O O12 0.554098 0.250000 0.331338
O O13 0.688167 0.250000 0.906343
O O14 0.675044 0.517740 0.844622
O O15 0.633885 0.474794 0.988423
O O16 0.405966 0.250000 0.189811
O O17 0.442946 0.750000 0.957344
O O18 0.500000 0.500000 0.000000
#
# Coordination Sequence:
#
# PCOD8253263 Si02
#       7
#     8   8   8   8   8   8   8
#     4  11  23  39  60  87 119 157 198 241 296 354
#     4  11  21  34  58  91 119 148 191 241 293 345
#     4   9  19  37  62  89 117 151 194 242 292 346
#     4   9  20  39  61  87 118 155 196 242 296 349
#     4  11  24  40  59  84 117 157 198 241 295 353
#     4  10  20  37  61  86 116 153 191 237 291 347
#     4  11  22  37  60  86 115 153 195 244 292 345
#
# _framework density 19.092020000000002
#
# number of rings (size 3 to 8) (size 9 to 14) (size 15 to 20)
#    0.000    1.714    1.429    4.286    0.000    5.714 
#    2.571    0.000    0.000    0.000    0.000    0.000 
#    0.000    0.000    0.000    0.000    0.000    0.000 
#
# Total GULP energy -694702.589252 kJ/mol
# GULP energy per Si atom -12405.403380 kJ/mol
# Density = 1.904857 g / cm^3
# Si number density = 19.092020 Si / 1000 Ang^3
#
#
#
# Elastic Constant Matrix: (Units=GPa)
#
#
# Indices 1 2 3 4 5 6 
#
# 1 94.1784 33.3056 57.0516 0.0000 0.0000 0.0000
# 2 33.3056 79.5977 49.0985 0.0000 0.0000 0.0000
# 3 57.0516 49.0985 126.2183 0.0000 0.0000 0.0000
# 4 0.0000 0.0000 0.0000 38.2494 0.0000 0.0000
# 5 0.0000 0.0000 0.0000 0.0000 16.0379 0.0000
# 6 0.0000 0.0000 0.0000 0.0000 0.0000 29.5291
#
#
#
# Elastic Compliance Matrix: (Units=1/GPa)
#
#
# Indices 1 2 3 4 5 6 
#
# 1 0.015072 -0.002768 -0.005736 0.000000 0.000000 0.000000
# 2 -0.002768 0.017038 -0.005376 0.000000 0.000000 0.000000
# 3 -0.005736 -0.005376 0.012607 0.000000 0.000000 0.000000
# 4 0.000000 0.000000 0.000000 0.026144 0.000000 0.000000
# 5 0.000000 0.000000 0.000000 0.000000 0.062352 0.000000
# 6 0.000000 0.000000 0.000000 0.000000 0.000000 0.033865
#
#
# Mechanical properties :
#
#
# Convention : Reuss Voigt Hill
#
# Bulk Modulus (GPa) = 58.97786 64.32287 61.65037
# Shear Modulus (GPa) = 24.93888 27.46586 26.20237
#
# Velocity S-wave (km/s) = 3.61812 3.79701 3.70865
# Velocity P-wave (km/s) = 6.95794 7.27923 7.12039
#
# Compressibility (1/GPa) = 0.01695551
#
# Stress axis : x y z
#
# Youngs Moduli (GPa) = 66.34939 58.69288 79.32303
#
# Poissons Ratio (x) = 0.16249 0.45497
# Poissons Ratio (y) = 0.18369 0.42646
# Poissons Ratio (z) = 0.38055 0.31555
#
# Static dielectric constant tensor:
#      x y z
#    x 3.347930 0.000000 0.000000 
#    y 0.000000 3.487440 0.000000 
#    z 0.000000 0.000000 3.680500 
# 
# 
# High freq. dielectric constant tensor:
#      x y z
#    x 1.722780 0.000000 0.000000 
#    y 0.000000 1.750740 0.000000 
#    z 0.000000 0.000000 1.756270 
# 
# From -- ./inp_files/24608.got.cif
#   From: 2010.03.12/outbox.cif.g09.slc.cpg/sg62_13_cif.got.tgz:24608.got - 2010.04.10 19:12:36.
