data_PCOD8253100
_publ_section_title
;
Structure prediction by ZEFSAII (Michael W. Deem and Ramdas Pophale) SiO2 
 PCOD8253100
Probable space group: P N M A
;
_chemical_formula_sum "Si O2"
_cell_formula_units_Z 64
_cell_length_a 19.293739
_cell_length_b 8.883480
_cell_length_c 19.610325
_cell_angle_alpha 90.000000
_cell_angle_beta 90.000000
_cell_angle_gamma 90.000000
_cell_volume 3361.122332
_symmetry_space_group_name_H-M "P N M A"
_symmetry_group_IT_number 62
_symmetry_cell_setting 'orthorhombic'
loop_
_space_group_symop_operation_xyz
x,y,z
1/2-x,-y,1/2+z
1/2+x,1/2-y,1/2-z
-x,1/2+y,-z
-x,-y,-z
1/2+x,y,1/2-z
1/2-x,1/2+y,1/2+z
x,1/2-y,z
loop_
_atom_site_type_symbol
_atom_site_label
_atom_site_fract_x
_atom_site_fract_y
_atom_site_fract_z
Si Si1 0.975640 0.422899 0.431701
Si Si2 0.182868 0.921510 0.597815
Si Si3 0.062891 0.426479 0.039743
Si Si4 0.903428 0.077793 0.823677
Si Si5 0.219666 0.427845 0.354168
Si Si6 0.574771 0.927712 0.170207
Si Si7 0.249020 0.076588 0.716337
Si Si8 0.711502 0.072761 0.518603
O O1 0.999364 0.250000 0.430941
O O2 0.893641 0.439210 0.430631
O O3 0.000000 0.500000 0.500000
O O4 0.007821 0.506545 0.366821
O O5 0.200094 0.750000 0.618114
O O6 0.235296 0.977966 0.539920
O O7 0.189268 0.024252 0.664905
O O8 0.052800 0.250000 0.037563
O O9 0.061730 0.476081 0.118670
O O10 0.134577 0.475151 0.004179
O O11 0.000000 0.500000 0.000000
O O12 0.921166 0.250000 0.840630
O O13 0.933716 0.031791 0.749882
O O14 0.821324 0.050308 0.822419
O O15 0.210961 0.250000 0.356170
O O16 0.144157 0.502274 0.362004
O O17 0.255634 0.477163 0.283975
O O18 0.270229 0.481178 0.413904
O O19 0.580189 0.750000 0.159142
O O20 0.239124 0.250000 0.737179
O O21 0.717199 0.250000 0.533407
#
# Coordination Sequence:
#
# PCOD8253100 Si02
#       8
#     8   8   8   8   8   8   8   8
#     4  11  23  38  59  88 122 161 200 248 300 353
#     4  10  21  38  60  86 118 153 196 246 293 347
#     4  11  23  39  62  87 116 153 194 244 299 356
#     4   9  19  37  61  86 113 150 197 242 288 345
#     4  11  22  36  60  90 120 155 197 246 292 347
#     4  10  21  39  61  87 122 162 201 246 293 353
#     4  10  20  36  60  87 116 151 191 239 291 350
#     4  10  21  39  61  87 118 155 194 240 298 354
#
# _framework density 19.041257999999999
#
# number of rings (size 3 to 8) (size 9 to 14) (size 15 to 20)
#    0.000    1.750    1.250    4.125    0.000    6.000 
#    2.250    0.000    0.000    0.000    0.000    0.000 
#    0.000    0.000    0.000    0.000    0.000    0.000 
#
# Total GULP energy -793904.987005 kJ/mol
# GULP energy per Si atom -12404.765422 kJ/mol
# Density = 1.899792 g / cm^3
# Si number density = 19.041258 Si / 1000 Ang^3
#
#
#
# Elastic Constant Matrix: (Units=GPa)
#
#
# Indices 1 2 3 4 5 6 
#
# 1 99.7123 53.5722 67.4023 0.0000 0.0000 0.0000
# 2 53.5722 104.7844 63.1358 0.0000 0.0000 0.0000
# 3 67.4023 63.1358 127.8073 0.0000 0.0000 0.0000
# 4 0.0000 0.0000 0.0000 39.3093 0.0000 0.0000
# 5 0.0000 0.0000 0.0000 0.0000 32.7950 0.0000
# 6 0.0000 0.0000 0.0000 0.0000 0.0000 30.9145
#
#
#
# Elastic Compliance Matrix: (Units=1/GPa)
#
#
# Indices 1 2 3 4 5 6 
#
# 1 0.017071 -0.004703 -0.006679 0.000000 0.000000 0.000000
# 2 -0.004703 0.014883 -0.004872 0.000000 0.000000 0.000000
# 3 -0.006679 -0.004872 0.013754 0.000000 0.000000 0.000000
# 4 0.000000 0.000000 0.000000 0.025439 0.000000 0.000000
# 5 0.000000 0.000000 0.000000 0.000000 0.030492 0.000000
# 6 0.000000 0.000000 0.000000 0.000000 0.000000 0.032347
#
#
# Mechanical properties :
#
#
# Convention : Reuss Voigt Hill
#
# Bulk Modulus (GPa) = 75.76466 77.83607 76.80037
# Shear Modulus (GPa) = 29.25768 30.48334 29.87051
#
# Velocity S-wave (km/s) = 3.92413 4.00548 3.96501
# Velocity P-wave (km/s) = 7.77225 7.89672 7.83473
#
# Compressibility (1/GPa) = 0.01319877
#
# Stress axis : x y z
#
# Youngs Moduli (GPa) = 58.57985 67.18872 72.70840
#
# Poissons Ratio (x) = 0.31599 0.48565
# Poissons Ratio (y) = 0.27550 0.35424
# Poissons Ratio (z) = 0.39128 0.32735
#
# Static dielectric constant tensor:
#      x y z
#    x 3.424500 0.000000 0.000000 
#    y 0.000000 3.538410 0.000000 
#    z 0.000000 0.000000 3.513460 
# 
# 
# High freq. dielectric constant tensor:
#      x y z
#    x 1.729660 0.000000 0.000000 
#    y 0.000000 1.747370 0.000000 
#    z 0.000000 0.000000 1.750570 
# 
# From -- ./inp_files/24710.got.cif
#   From: 2010.03.12/outbox.cif.g09.slc.cpg/sg62_13_cif.got.tgz:24710.got - 2010.04.10 19:12:36.
