data_PCOD8253886
_publ_section_title
;
Structure prediction by ZEFSAII (Michael W. Deem and Ramdas Pophale) SiO2 
 PCOD8253886
Probable space group: P N M A
;
_chemical_formula_sum "Si O2"
_cell_formula_units_Z 64
_cell_length_a 18.789047
_cell_length_b 9.132086
_cell_length_c 18.975837
_cell_angle_alpha 90.000000
_cell_angle_beta 90.000000
_cell_angle_gamma 90.000000
_cell_volume 3255.934703
_symmetry_space_group_name_H-M "P N M A"
_symmetry_group_IT_number 62
_symmetry_cell_setting 'orthorhombic'
loop_
_space_group_symop_operation_xyz
x,y,z
1/2-x,-y,1/2+z
1/2+x,1/2-y,1/2-z
-x,1/2+y,-z
-x,-y,-z
1/2+x,y,1/2-z
1/2-x,1/2+y,1/2+z
x,1/2-y,z
loop_
_atom_site_type_symbol
_atom_site_label
_atom_site_fract_x
_atom_site_fract_y
_atom_site_fract_z
Si Si1 0.395978 0.578034 0.026082
Si Si2 0.474825 0.582193 0.634145
Si Si3 0.738647 0.080038 0.886862
Si Si4 0.602212 0.579922 0.241291
Si Si5 0.762943 0.580408 0.225775
Si Si6 0.864022 0.424629 0.114876
Si Si7 0.144936 0.080790 0.030798
Si Si8 0.040753 0.919730 0.404931
O O1 0.396625 0.750000 0.015718
O O2 0.325212 0.524838 0.064174
O O3 0.462608 0.525519 0.073293
O O4 0.399313 0.504363 0.949499
O O5 0.476142 0.750000 0.657731
O O6 0.428909 0.497761 0.691194
O O7 0.555320 0.521840 0.630062
O O8 0.436428 0.564021 0.558102
O O9 0.757825 0.250000 0.899486
O O10 0.713810 0.055988 0.806575
O O11 0.806103 0.981688 0.906375
O O12 0.606504 0.750000 0.260473
O O13 0.681191 0.526827 0.219769
O O14 0.549611 0.545225 0.177021
O O15 0.771403 0.750000 0.203338
O O16 0.812435 0.482713 0.175904
O O17 0.858426 0.250000 0.110761
O O18 0.840625 0.489994 0.039942
O O19 0.163665 0.250000 0.016624
O O20 0.052024 0.750000 0.420880
#
# Coordination Sequence:
#
# PCOD8253886 Si02
#       8
#     8   8   8   8   8   8   8   8
#     4   9  19  35  55  81 113 150 191 236 289 344
#     4  10  23  42  62  89 121 156 201 250 303 361
#     4  10  21  38  60  87 120 156 194 239 294 358
#     4  10  21  37  61  87 118 157 196 241 294 354
#     4  10  22  40  60  89 123 157 198 242 294 359
#     4  11  25  42  63  91 123 156 199 253 303 355
#     4  11  23  41  64  89 118 158 203 250 302 359
#     4   9  19  35  55  82 113 149 194 240 285 341
#
# _framework density 19.656414000000002
#
# number of rings (size 3 to 8) (size 9 to 14) (size 15 to 20)
#    0.000    2.000    1.250    1.125    3.500    3.500 
#    0.000    0.000    0.000    0.000    0.000    0.000 
#    0.000    0.000    0.000    0.000    0.000    0.000 
#
# Total GULP energy -793693.391176 kJ/mol
# GULP energy per Si atom -12401.459237 kJ/mol
# Density = 1.961168 g / cm^3
# Si number density = 19.656414 Si / 1000 Ang^3
#
#
#
# Elastic Constant Matrix: (Units=GPa)
#
#
# Indices 1 2 3 4 5 6 
#
# 1 87.0493 37.6754 38.4514 0.0000 0.0000 0.0000
# 2 37.6754 63.4758 40.9780 0.0000 0.0000 0.0000
# 3 38.4514 40.9780 91.5486 0.0000 0.0000 0.0000
# 4 0.0000 0.0000 0.0000 28.3317 0.0000 0.0000
# 5 0.0000 0.0000 0.0000 0.0000 34.9342 0.0000
# 6 0.0000 0.0000 0.0000 0.0000 0.0000 29.6473
#
#
#
# Elastic Compliance Matrix: (Units=1/GPa)
#
#
# Indices 1 2 3 4 5 6 
#
# 1 0.016228 -0.007358 -0.003523 0.000000 0.000000 0.000000
# 2 -0.007358 0.025493 -0.008320 0.000000 0.000000 0.000000
# 3 -0.003523 -0.008320 0.016127 0.000000 0.000000 0.000000
# 4 0.000000 0.000000 0.000000 0.035296 0.000000 0.000000
# 5 0.000000 0.000000 0.000000 0.000000 0.028625 0.000000
# 6 0.000000 0.000000 0.000000 0.000000 0.000000 0.033730
#
#
# Mechanical properties :
#
#
# Convention : Reuss Voigt Hill
#
# Bulk Modulus (GPa) = 51.42424 52.92037 52.17230
# Shear Modulus (GPa) = 24.95222 26.91391 25.93307
#
# Velocity S-wave (km/s) = 3.56676 3.70431 3.63618
# Velocity P-wave (km/s) = 6.57120 6.72882 6.65048
#
# Compressibility (1/GPa) = 0.01944608
#
# Stress axis : x y z
#
# Youngs Moduli (GPa) = 61.62061 39.22698 62.00831
#
# Poissons Ratio (x) = 0.28864 0.21842
# Poissons Ratio (y) = 0.45341 0.51592
# Poissons Ratio (z) = 0.21706 0.32638
#
# Static dielectric constant tensor:
#      x y z
#    x 3.775990 0.000000 0.000000 
#    y 0.000000 3.470120 0.000000 
#    z 0.000000 0.000000 3.554060 
# 
# 
# High freq. dielectric constant tensor:
#      x y z
#    x 1.772840 0.000000 0.000000 
#    y 0.000000 1.757540 0.000000 
#    z 0.000000 0.000000 1.772090 
# 
# From -- ./inp_files/24779.got.cif
#   From: 2010.03.12/outbox.cif.g09.slc.cpg/sg62_13_cif.got.tgz:24779.got - 2010.04.10 19:12:36.
