data_PCOD8253098
_publ_section_title
;
Structure prediction by ZEFSAII (Michael W. Deem and Ramdas Pophale) SiO2 
 PCOD8253098
Probable space group: P N M A
;
_chemical_formula_sum "Si O2"
_cell_formula_units_Z 40
_cell_length_a 12.364348
_cell_length_b 18.561556
_cell_length_c 8.789498
_cell_angle_alpha 90.000000
_cell_angle_beta 90.000000
_cell_angle_gamma 90.000000
_cell_volume 2017.203308
_symmetry_space_group_name_H-M "P N M A"
_symmetry_group_IT_number 62
_symmetry_cell_setting 'orthorhombic'
loop_
_space_group_symop_operation_xyz
x,y,z
1/2-x,-y,1/2+z
1/2+x,1/2-y,1/2-z
-x,1/2+y,-z
-x,-y,-z
1/2+x,y,1/2-z
1/2-x,1/2+y,1/2+z
x,1/2-y,z
loop_
_atom_site_type_symbol
_atom_site_label
_atom_site_fract_x
_atom_site_fract_y
_atom_site_fract_z
Si Si1 0.615734 0.331903 0.458644
Si Si2 0.382610 0.467251 0.984271
Si Si3 0.755964 0.930415 0.738265
Si Si4 0.369833 0.333172 0.495421
Si Si5 0.313048 0.331687 0.832457
O O1 0.619829 0.250000 0.398029
O O2 0.653494 0.383530 0.323276
O O3 0.495762 0.354026 0.509003
O O4 0.690804 0.341040 0.607225
O O5 0.322508 0.471575 0.145348
O O6 0.500000 0.500000 0.000000
O O7 0.313921 0.509254 0.859517
O O8 0.391612 0.384151 0.928618
O O9 0.683832 0.878883 0.635928
O O10 0.354837 0.250000 0.452173
O O11 0.312834 0.351669 0.654942
O O12 0.355790 0.250000 0.857093
#
# Coordination Sequence:
#
# PCOD8253098 Si02
#       5
#     8   8   8   8   8
#     4   9  19  37  59  84 115 150 187 231 281 332
#     4  11  24  40  59  85 116 151 190 234 287 339
#     4  11  22  38  57  84 116 150 188 236 281 337
#     4  10  20  36  60  87 115 151 192 233 281 334
#     4   9  20  39  60  82 111 148 192 236 278 334
#
# _framework density 19.829435
#
# number of rings (size 3 to 8) (size 9 to 14) (size 15 to 20)
#    0.000    2.000    0.000    3.000    0.000    5.600 
#    0.000   11.000    0.000    0.000    0.000    0.000 
#    0.000    0.000    0.000    0.000    0.000    0.000 
#
# Total GULP energy -496134.305313 kJ/mol
# GULP energy per Si atom -12403.357633 kJ/mol
# Density = 1.978430 g / cm^3
# Si number density = 19.829435 Si / 1000 Ang^3
#
#
#
# Elastic Constant Matrix: (Units=GPa)
#
#
# Indices 1 2 3 4 5 6 
#
# 1 113.6165 65.6119 73.8531 0.0000 0.0000 0.0000
# 2 65.6119 96.1979 70.5610 0.0000 0.0000 0.0000
# 3 73.8531 70.5610 150.0055 0.0000 0.0000 0.0000
# 4 0.0000 0.0000 0.0000 40.1089 0.0000 0.0000
# 5 0.0000 0.0000 0.0000 0.0000 22.8530 0.0000
# 6 0.0000 0.0000 0.0000 0.0000 0.0000 29.1640
#
#
#
# Elastic Compliance Matrix: (Units=1/GPa)
#
#
# Indices 1 2 3 4 5 6 
#
# 1 0.016095 -0.007887 -0.004215 0.000000 0.000000 0.000000
# 2 -0.007887 0.019736 -0.005401 0.000000 0.000000 0.000000
# 3 -0.004215 -0.005401 0.011282 0.000000 0.000000 0.000000
# 4 0.000000 0.000000 0.000000 0.024932 0.000000 0.000000
# 5 0.000000 0.000000 0.000000 0.000000 0.043758 0.000000
# 6 0.000000 0.000000 0.000000 0.000000 0.000000 0.034289
#
#
# Mechanical properties :
#
#
# Convention : Reuss Voigt Hill
#
# Bulk Modulus (GPa) = 82.58063 86.65242 84.61652
# Shear Modulus (GPa) = 26.43660 28.41145 27.42402
#
# Velocity S-wave (km/s) = 3.65526 3.78933 3.72290
# Velocity P-wave (km/s) = 7.71690 7.93342 7.82591
#
# Compressibility (1/GPa) = 0.01210938
#
# Stress axis : x y z
#
# Youngs Moduli (GPa) = 62.12918 50.66988 88.63807
#
# Poissons Ratio (x) = 0.39961 0.37358
# Poissons Ratio (y) = 0.48998 0.47870
# Poissons Ratio (z) = 0.26185 0.27365
#
# Static dielectric constant tensor:
#      x y z
#    x 3.572170 0.000000 0.000000 
#    y 0.000000 3.857690 0.000000 
#    z 0.000000 0.000000 3.760790 
# 
# 
# High freq. dielectric constant tensor:
#      x y z
#    x 1.767030 0.000000 0.000000 
#    y 0.000000 1.786690 0.000000 
#    z 0.000000 0.000000 1.780720 
# 
# From -- ./inp_files/5004.got.cif
#   From: 2010.03.12/outbox.cif.g09.slc.cpg/sg62_3_cif.got.tgz:5004.got - 2010.04.10 19:12:36.
