data_PCOD8253927
_publ_section_title
;
Structure prediction by ZEFSAII (Michael W. Deem and Ramdas Pophale) SiO2 
 PCOD8253927
Probable space group: P N M A
;
_chemical_formula_sum "Si O2"
_cell_formula_units_Z 48
_cell_length_a 30.223327
_cell_length_b 8.694017
_cell_length_c 9.341487
_cell_angle_alpha 90.000000
_cell_angle_beta 90.000000
_cell_angle_gamma 90.000000
_cell_volume 2454.588916
_symmetry_space_group_name_H-M "P N M A"
_symmetry_group_IT_number 62
_symmetry_cell_setting 'orthorhombic'
loop_
_space_group_symop_operation_xyz
x,y,z
1/2-x,-y,1/2+z
1/2+x,1/2-y,1/2-z
-x,1/2+y,-z
-x,-y,-z
1/2+x,y,1/2-z
1/2-x,1/2+y,1/2+z
x,1/2-y,z
loop_
_atom_site_type_symbol
_atom_site_label
_atom_site_fract_x
_atom_site_fract_y
_atom_site_fract_z
Si Si1 0.538204 0.078815 0.586748
Si Si2 0.960411 0.924663 0.415665
Si Si3 0.364102 0.567575 0.392911
Si Si4 0.133996 0.931583 0.589799
Si Si5 0.208839 0.570817 0.087287
Si Si6 0.706971 0.070125 0.104884
O O1 0.540620 0.250000 0.526790
O O2 0.524935 0.073022 0.751726
O O3 0.586978 0.004492 0.565077
O O4 0.500000 0.000000 0.500000
O O5 0.951841 0.750000 0.467417
O O6 0.916546 0.023974 0.439763
O O7 0.000000 0.000000 0.500000
O O8 0.365575 0.750000 0.366238
O O9 0.348969 0.490026 0.244260
O O10 0.331294 0.525017 0.519867
O O11 0.140196 0.750000 0.581801
O O12 0.162024 0.010829 0.465292
O O13 0.197006 0.750000 0.080107
O O14 0.216169 0.520098 0.249376
O O15 0.253171 0.532028 0.001872
O O16 0.703051 0.250000 0.138151
#
# Coordination Sequence:
#
# PCOD8253927 Si02
#       6
#     8   8   8   8   8   8
#     4   9  20  36  56  82 112 148 188 231 280 336
#     4  10  21  38  58  84 117 153 194 239 291 347
#     4  10  21  39  60  84 117 154 192 237 292 348
#     4  11  22  38  61  87 115 151 196 243 291 345
#     4  11  24  40  61  89 117 150 194 239 286 345
#     4  11  24  41  61  86 118 154 190 235 291 347
#
# _framework density 19.555209999999999
#
# number of rings (size 3 to 8) (size 9 to 14) (size 15 to 20)
#    0.000    1.667    0.000    5.500    0.000   10.667 
#    0.000    3.333    0.000    0.000    0.000    0.000 
#    0.000    0.000    0.000    0.000    0.000    0.000 
#
# Total GULP energy -595367.760691 kJ/mol
# GULP energy per Si atom -12403.495014 kJ/mol
# Density = 1.951070 g / cm^3
# Si number density = 19.555210 Si / 1000 Ang^3
#
#
#
# Elastic Constant Matrix: (Units=GPa)
#
#
# Indices 1 2 3 4 5 6 
#
# 1 94.9808 23.7865 49.9049 0.0000 0.0000 0.0000
# 2 23.7865 48.7804 13.6380 0.0000 0.0000 0.0000
# 3 49.9049 13.6380 90.2276 0.0000 0.0000 0.0000
# 4 0.0000 0.0000 0.0000 37.9094 0.0000 0.0000
# 5 0.0000 0.0000 0.0000 0.0000 44.0466 0.0000
# 6 0.0000 0.0000 0.0000 0.0000 0.0000 31.8454
#
#
#
# Elastic Compliance Matrix: (Units=1/GPa)
#
#
# Indices 1 2 3 4 5 6 
#
# 1 0.016199 -0.005632 -0.008109 0.000000 0.000000 0.000000
# 2 -0.005632 0.023363 -0.000416 0.000000 0.000000 0.000000
# 3 -0.008109 -0.000416 0.015631 0.000000 0.000000 0.000000
# 4 0.000000 0.000000 0.000000 0.026379 0.000000 0.000000
# 5 0.000000 0.000000 0.000000 0.000000 0.022703 0.000000
# 6 0.000000 0.000000 0.000000 0.000000 0.000000 0.031402
#
#
# Mechanical properties :
#
#
# Convention : Reuss Voigt Hill
#
# Bulk Modulus (GPa) = 37.20352 45.40527 41.30440
# Shear Modulus (GPa) = 28.91007 32.53756 30.72382
#
# Velocity S-wave (km/s) = 3.84914 4.08350 3.96805
# Velocity P-wave (km/s) = 6.23063 6.74557 6.49320
#
# Compressibility (1/GPa) = 0.02687918
#
# Stress axis : x y z
#
# Youngs Moduli (GPa) = 61.73089 42.80315 63.97613
#
# Poissons Ratio (x) = 0.24108 0.51875
# Poissons Ratio (y) = 0.34768 0.02662
# Poissons Ratio (z) = 0.50055 0.01781
#
# Static dielectric constant tensor:
#      x y z
#    x 3.662470 0.000000 0.000000 
#    y 0.000000 3.697290 0.000000 
#    z 0.000000 0.000000 9.697080 
# 
# 
# High freq. dielectric constant tensor:
#      x y z
#    x 1.773540 0.000000 0.000000 
#    y 0.000000 1.772240 0.000000 
#    z 0.000000 0.000000 1.761730 
# 
# From -- ./inp_files/10249.got.cif
#   From: 2010.03.12/outbox.cif.g09.slc.cpg/sg62_6_cif.got.tgz:10249.got - 2010.04.10 19:12:36.
