data_PCOD8253704
_publ_section_title
;
Structure prediction by ZEFSAII (Michael W. Deem and Ramdas Pophale) SiO2 
 PCOD8253704
Probable space group: P N M A
;
_chemical_formula_sum "Si O2"
_cell_formula_units_Z 56
_cell_length_a 19.829536
_cell_length_b 8.829068
_cell_length_c 16.388141
_cell_angle_alpha 90.000000
_cell_angle_beta 90.000000
_cell_angle_gamma 90.000000
_cell_volume 2869.175447
_symmetry_space_group_name_H-M "P N M A"
_symmetry_group_IT_number 62
_symmetry_cell_setting 'orthorhombic'
loop_
_space_group_symop_operation_xyz
x,y,z
1/2-x,-y,1/2+z
1/2+x,1/2-y,1/2-z
-x,1/2+y,-z
-x,-y,-z
1/2+x,y,1/2-z
1/2-x,1/2+y,1/2+z
x,1/2-y,z
loop_
_atom_site_type_symbol
_atom_site_label
_atom_site_fract_x
_atom_site_fract_y
_atom_site_fract_z
Si Si1 0.821809 0.073546 0.499203
Si Si2 0.353403 0.926188 0.340850
Si Si3 0.197911 0.577880 0.314658
Si Si4 0.328692 0.930112 0.520213
Si Si5 0.031018 0.928708 0.739497
Si Si6 0.951833 0.928658 0.433205
Si Si7 0.606935 0.071858 0.316501
O O1 0.832164 0.250000 0.478056
O O2 0.831284 0.045735 0.595526
O O3 0.748419 0.013839 0.471603
O O4 0.874927 0.975330 0.449067
O O5 0.373164 0.750000 0.331667
O O6 0.277381 0.954219 0.311419
O O7 0.361150 0.983011 0.434501
O O8 0.400822 0.028521 0.285519
O O9 0.182799 0.750000 0.289501
O O10 0.161267 0.469334 0.251626
O O11 0.326215 0.750000 0.518502
O O12 0.371925 0.997387 0.595423
O O13 0.029027 0.750000 0.723676
O O14 0.967539 0.985270 0.793388
O O15 0.024940 0.013977 0.654438
O O16 0.959226 0.750000 0.436594
O O17 0.000000 0.000000 0.500000
O O18 0.607356 0.250000 0.325096
#
# Coordination Sequence:
#
# PCOD8253704 Si02
#       7
#     8   8   8   8   8   8   8
#     4   9  18  36  60  84 112 148 189 233 291 351
#     4   9  19  38  60  83 114 151 192 236 287 346
#     4   9  19  35  57  84 115 148 186 236 288 346
#     4   8  17  36  60  84 112 149 190 236 290 343
#     4  11  24  39  56  84 120 155 195 240 289 346
#     4  12  25  40  59  84 117 153 194 240 291 351
#     4  10  21  36  56  83 113 150 195 239 286 342
#
# _framework density 19.517803000000001
#
# number of rings (size 3 to 8) (size 9 to 14) (size 15 to 20)
#    0.000    2.286    0.000    4.286    2.000    5.143 
#    0.000    2.857    0.000    0.000    0.000    0.000 
#    0.000    0.000    0.000    0.000    0.000    0.000 
#
# Total GULP energy -694459.896684 kJ/mol
# GULP energy per Si atom -12401.069584 kJ/mol
# Density = 1.947338 g / cm^3
# Si number density = 19.517803 Si / 1000 Ang^3
#
#
#
# Elastic Constant Matrix: (Units=GPa)
#
#
# Indices 1 2 3 4 5 6 
#
# 1 82.7801 33.5435 39.5616 0.0000 0.0000 0.0000
# 2 33.5435 64.0662 35.5182 0.0000 0.0000 0.0000
# 3 39.5616 35.5182 78.7026 0.0000 0.0000 0.0000
# 4 0.0000 0.0000 0.0000 28.1139 0.0000 0.0000
# 5 0.0000 0.0000 0.0000 0.0000 37.9116 0.0000
# 6 0.0000 0.0000 0.0000 0.0000 0.0000 28.4408
#
#
#
# Elastic Compliance Matrix: (Units=1/GPa)
#
#
# Indices 1 2 3 4 5 6 
#
# 1 0.017310 -0.005654 -0.006150 0.000000 0.000000 0.000000
# 2 -0.005654 0.022664 -0.007386 0.000000 0.000000 0.000000
# 3 -0.006150 -0.007386 0.019131 0.000000 0.000000 0.000000
# 4 0.000000 0.000000 0.000000 0.035570 0.000000 0.000000
# 5 0.000000 0.000000 0.000000 0.000000 0.026377 0.000000
# 6 0.000000 0.000000 0.000000 0.000000 0.000000 0.035161
#
#
# Mechanical properties :
#
#
# Convention : Reuss Voigt Hill
#
# Bulk Modulus (GPa) = 48.25000 49.19950 48.72475
# Shear Modulus (GPa) = 24.81382 26.68828 25.75105
#
# Velocity S-wave (km/s) = 3.56946 3.70182 3.63624
# Velocity P-wave (km/s) = 6.46241 6.59800 6.53055
#
# Compressibility (1/GPa) = 0.02072539
#
# Stress axis : x y z
#
# Youngs Moduli (GPa) = 57.76915 44.12298 52.27177
#
# Poissons Ratio (x) = 0.24946 0.32146
# Poissons Ratio (y) = 0.32661 0.38609
# Poissons Ratio (z) = 0.35527 0.32590
#
# Static dielectric constant tensor:
#      x y z
#    x 3.692820 0.000000 0.000000 
#    y 0.000000 3.305880 0.000000 
#    z 0.000000 0.000000 5.024130 
# 
# 
# High freq. dielectric constant tensor:
#      x y z
#    x 1.767600 0.000000 0.000000 
#    y 0.000000 1.738480 0.000000 
#    z 0.000000 0.000000 1.769700 
# 
# From -- ./inp_files/20409.got.cif
#   From: 2010.03.12/outbox.cif.g09.slc.cpg/sg62_11_cif.got.tgz:20409.got - 2010.04.10 19:12:36.
