data_PCOD8253063
_publ_section_title
;
Structure prediction by ZEFSAII (Michael W. Deem and Ramdas Pophale) SiO2 
 PCOD8253063
Probable space group: P N M A
;
_chemical_formula_sum "Si O2"
_cell_formula_units_Z 48
_cell_length_a 9.180535
_cell_length_b 14.117217
_cell_length_c 20.528972
_cell_angle_alpha 90.000000
_cell_angle_beta 90.000000
_cell_angle_gamma 90.000000
_cell_volume 2660.628773
_symmetry_space_group_name_H-M "P N M A"
_symmetry_group_IT_number 62
_symmetry_cell_setting 'orthorhombic'
loop_
_space_group_symop_operation_xyz
x,y,z
1/2-x,-y,1/2+z
1/2+x,1/2-y,1/2-z
-x,1/2+y,-z
-x,-y,-z
1/2+x,y,1/2-z
1/2-x,1/2+y,1/2+z
x,1/2-y,z
loop_
_atom_site_type_symbol
_atom_site_label
_atom_site_fract_x
_atom_site_fract_y
_atom_site_fract_z
Si Si1 0.565957 0.942920 0.182139
Si Si2 0.590713 0.068162 0.696660
Si Si3 0.587972 0.750000 0.319911
Si Si4 0.093665 0.250000 0.644039
Si Si5 0.599238 0.449809 0.550590
Si Si6 0.900399 0.953697 0.553302
Si Si7 0.319554 0.750000 0.992902
Si Si8 0.994717 0.250000 0.965370
O O1 0.734979 0.923022 0.200760
O O2 0.475101 0.991197 0.242468
O O3 0.499966 0.843796 0.157442
O O4 0.548230 0.022776 0.126504
O O5 0.499302 0.163567 0.711575
O O6 0.545007 0.031432 0.624946
O O7 0.763201 0.750000 0.308211
O O8 0.582120 0.750000 0.396618
O O9 0.133079 0.250000 0.567767
O O10 0.500000 0.500000 0.500000
O O11 0.754537 0.491020 0.539445
O O12 0.600764 0.339759 0.530224
O O13 0.883590 0.841261 0.544366
O O14 0.000000 0.000000 0.500000
O O15 0.142172 0.750000 0.984624
#
# Coordination Sequence:
#
# PCOD8253063 Si02
#       8
#     8   8   4   4   8   8   4   4
#     4  11  22  36  55  83 117 157 189 236 287 357
#     4  10  21  34  52  80 118 152 191 233 287 347
#     4   9  18  32  51  83 115 150 181 231 288 362
#     4  11  20  32  59  81 117 153 185 230 300 357
#     4  10  20  36  59  86 117 156 195 240 287 352
#     4  11  23  37  59  87 118 152 194 241 293 344
#     4  11  20  37  59  85 118 152 190 248 294 339
#     4   9  18  33  59  85 118 153 190 235 292 342
#
# _framework density 18.040848
#
# number of rings (size 3 to 8) (size 9 to 14) (size 15 to 20)
#    0.000    1.667    3.333    2.000    0.000    4.000 
#    0.000    0.000    0.000    5.000    0.000    0.000 
#    0.000    0.000    0.000    0.000    0.000    0.000 
#
# Total GULP energy -594666.193622 kJ/mol
# GULP energy per Si atom -12388.879034 kJ/mol
# Density = 1.799979 g / cm^3
# Si number density = 18.040848 Si / 1000 Ang^3
#
#
#
# Elastic Constant Matrix: (Units=GPa)
#
#
# Indices 1 2 3 4 5 6 
#
# 1 104.7281 47.0511 73.5273 0.0000 0.0000 0.0000
# 2 47.0511 118.5280 58.2375 0.0000 0.0000 0.0000
# 3 73.5273 58.2375 130.7622 0.0000 0.0000 0.0000
# 4 0.0000 0.0000 0.0000 21.9398 0.0000 0.0000
# 5 0.0000 0.0000 0.0000 0.0000 34.2824 0.0000
# 6 0.0000 0.0000 0.0000 0.0000 0.0000 18.5452
#
#
#
# Elastic Compliance Matrix: (Units=1/GPa)
#
#
# Indices 1 2 3 4 5 6 
#
# 1 0.016347 -0.002525 -0.008067 0.000000 0.000000 0.000000
# 2 -0.002525 0.011190 -0.003564 0.000000 0.000000 0.000000
# 3 -0.008067 -0.003564 0.013771 0.000000 0.000000 0.000000
# 4 0.000000 0.000000 0.000000 0.045579 0.000000 0.000000
# 5 0.000000 0.000000 0.000000 0.000000 0.029169 0.000000
# 6 0.000000 0.000000 0.000000 0.000000 0.000000 0.053922
#
#
# Mechanical properties :
#
#
# Convention : Reuss Voigt Hill
#
# Bulk Modulus (GPa) = 76.95020 79.07223 78.01121
# Shear Modulus (GPa) = 24.67631 26.63363 25.65497
#
# Velocity S-wave (km/s) = 3.70239 3.84643 3.77510
# Velocity P-wave (km/s) = 7.81171 7.97818 7.89539
#
# Compressibility (1/GPa) = 0.01299542
#
# Stress axis : x y z
#
# Youngs Moduli (GPa) = 61.17401 89.36263 72.61764
#
# Poissons Ratio (x) = 0.22568 0.58581
# Poissons Ratio (y) = 0.15449 0.25880
# Poissons Ratio (z) = 0.49349 0.31847
#
# Static dielectric constant tensor:
#      x y z
#    x 3.383460 0.000000 0.000000 
#    y 0.000000 3.024350 0.000000 
#    z 0.000000 0.000000 3.612320 
# 
# 
# High freq. dielectric constant tensor:
#      x y z
#    x 1.711290 0.000000 0.000000 
#    y 0.000000 1.668090 0.000000 
#    z 0.000000 0.000000 1.710310 
# 
# From -- ./inp_files/25905.got.cif
#   From: 2010.03.12/outbox.cif.g09.slc.cpg/sg62_13_cif.got.tgz:25905.got - 2010.04.10 19:12:36.
