data_PCOD8253182
_publ_section_title
;
Structure prediction by ZEFSAII (Michael W. Deem and Ramdas Pophale) SiO2 
 PCOD8253182
Probable space group: P N M A
;
_chemical_formula_sum "Si O2"
_cell_formula_units_Z 48
_cell_length_a 12.041962
_cell_length_b 8.398617
_cell_length_c 23.945937
_cell_angle_alpha 90.000000
_cell_angle_beta 90.000000
_cell_angle_gamma 90.000000
_cell_volume 2421.792136
_symmetry_space_group_name_H-M "P N M A"
_symmetry_group_IT_number 62
_symmetry_cell_setting 'orthorhombic'
loop_
_space_group_symop_operation_xyz
x,y,z
1/2-x,-y,1/2+z
1/2+x,1/2-y,1/2-z
-x,1/2+y,-z
-x,-y,-z
1/2+x,y,1/2-z
1/2-x,1/2+y,1/2+z
x,1/2-y,z
loop_
_atom_site_type_symbol
_atom_site_label
_atom_site_fract_x
_atom_site_fract_y
_atom_site_fract_z
Si Si1 0.282768 0.935195 0.077887
Si Si2 0.486506 0.933966 0.889055
Si Si3 0.291158 0.064212 0.957370
Si Si4 0.845821 0.438269 0.709696
Si Si5 0.103615 0.939712 0.166544
Si Si6 0.862323 0.562906 0.140276
O O1 0.264578 0.750000 0.065507
O O2 0.192674 0.001480 0.121764
O O3 0.404111 0.961447 0.102892
O O4 0.262901 0.031743 0.021203
O O5 0.519637 0.750000 0.891929
O O6 0.401674 0.970932 0.939325
O O7 0.435514 0.975603 0.829148
O O8 0.313462 0.250000 0.946846
O O9 0.188054 0.005523 0.919028
O O10 0.865160 0.250000 0.704194
O O11 0.861318 0.501697 0.772345
O O12 0.721900 0.485630 0.689927
O O13 0.101819 0.750000 0.167246
O O14 0.983134 0.013926 0.150986
O O15 0.878958 0.750000 0.139418
#
# Coordination Sequence:
#
# PCOD8253182 Si02
#       6
#     8   8   8   8   8   8
#     4  11  22  35  55  85 115 146 187 232 275 330
#     4  11  22  37  57  82 113 148 185 232 283 333
#     4  10  20  37  59  81 111 149 186 232 280 331
#     4   9  18  34  59  84 109 143 185 232 276 326
#     4   9  19  33  55  85 113 146 187 229 272 329
#     4   8  16  32  54  81 110 142 183 226 273 326
#
# _framework density 19.820032999999999
#
# number of rings (size 3 to 8) (size 9 to 14) (size 15 to 20)
#    0.000    2.333    0.000    4.000    2.333    0.667 
#    0.000    1.667    0.000   10.000    0.000    0.000 
#    0.000    0.000    0.000    0.000    0.000    0.000 
#
# Total GULP energy -595245.948622 kJ/mol
# GULP energy per Si atom -12400.957263 kJ/mol
# Density = 1.977492 g / cm^3
# Si number density = 19.820033 Si / 1000 Ang^3
#
#
#
# Elastic Constant Matrix: (Units=GPa)
#
#
# Indices 1 2 3 4 5 6 
#
# 1 148.1868 3.3620 92.4649 0.0000 0.0000 0.0000
# 2 3.3620 34.5441 9.0006 0.0000 0.0000 0.0000
# 3 92.4649 9.0006 143.2579 0.0000 0.0000 0.0000
# 4 0.0000 0.0000 0.0000 25.0626 0.0000 0.0000
# 5 0.0000 0.0000 0.0000 0.0000 21.4463 0.0000
# 6 0.0000 0.0000 0.0000 0.0000 0.0000 11.5065
#
#
#
# Elastic Compliance Matrix: (Units=1/GPa)
#
#
# Indices 1 2 3 4 5 6 
#
# 1 0.011321 0.000815 -0.007358 0.000000 0.000000 0.000000
# 2 0.000815 0.029489 -0.002379 0.000000 0.000000 0.000000
# 3 -0.007358 -0.002379 0.011879 0.000000 0.000000 0.000000
# 4 0.000000 0.000000 0.000000 0.039900 0.000000 0.000000
# 5 0.000000 0.000000 0.000000 0.000000 0.046628 0.000000
# 6 0.000000 0.000000 0.000000 0.000000 0.000000 0.086908
#
#
# Mechanical properties :
#
#
# Convention : Reuss Voigt Hill
#
# Bulk Modulus (GPa) = 28.69812 59.51599 44.10706
# Shear Modulus (GPa) = 19.56298 26.34715 22.95507
#
# Velocity S-wave (km/s) = 3.14511 3.64994 3.40689
# Velocity P-wave (km/s) = 5.26306 6.91781 6.14638
#
# Compressibility (1/GPa) = 0.03484548
#
# Stress axis : x y z
#
# Youngs Moduli (GPa) = 88.32960 33.91090 84.17966
#
# Poissons Ratio (x) = -0.02765 0.61943
# Poissons Ratio (y) = -0.07203 0.20027
# Poissons Ratio (z) = 0.64997 0.08068
#
# Static dielectric constant tensor:
#      x y z
#    x 3.826330 0.000000 0.000000 
#    y 0.000000 3.218480 0.000000 
#    z 0.000000 0.000000 3.733800 
# 
# 
# High freq. dielectric constant tensor:
#      x y z
#    x 1.776490 0.000000 0.000000 
#    y 0.000000 1.740490 0.000000 
#    z 0.000000 0.000000 1.781410 
# 
# From -- ./inp_files/29267.got.cif
#   From: 2010.03.12/outbox.cif.g09.slc.cpg/sg62_15_cif.got.tgz:29267.got - 2010.04.10 19:12:36.
