data_PCOD8253421
_publ_section_title
;
Structure prediction by ZEFSAII (Michael W. Deem and Ramdas Pophale) SiO2 
 PCOD8253421
Probable space group: P N M A
;
_chemical_formula_sum "Si O2"
_cell_formula_units_Z 56
_cell_length_a 19.587454
_cell_length_b 8.586895
_cell_length_c 16.405912
_cell_angle_alpha 90.000000
_cell_angle_beta 90.000000
_cell_angle_gamma 90.000000
_cell_volume 2759.399109
_symmetry_space_group_name_H-M "P N M A"
_symmetry_group_IT_number 62
_symmetry_cell_setting 'orthorhombic'
loop_
_space_group_symop_operation_xyz
x,y,z
1/2-x,-y,1/2+z
1/2+x,1/2-y,1/2-z
-x,1/2+y,-z
-x,-y,-z
1/2+x,y,1/2-z
1/2-x,1/2+y,1/2+z
x,1/2-y,z
loop_
_atom_site_type_symbol
_atom_site_label
_atom_site_fract_x
_atom_site_fract_y
_atom_site_fract_z
Si Si1 0.886592 0.569121 0.697604
Si Si2 0.943933 0.933214 0.059795
Si Si3 0.341097 0.929000 0.981690
Si Si4 0.023608 0.069518 0.755655
Si Si5 0.861181 0.429480 0.352392
Si Si6 0.752251 0.930333 0.243858
Si Si7 0.804456 0.431096 0.083410
O O1 0.903966 0.750000 0.710043
O O2 0.878415 0.527098 0.602445
O O3 0.816358 0.531868 0.744278
O O4 0.945138 0.463059 0.735277
O O5 0.937955 0.750000 0.047562
O O6 0.963587 0.980052 0.151496
O O7 0.872002 0.013237 0.036278
O O8 0.000000 0.000000 0.000000
O O9 0.354280 0.750000 0.003826
O O10 0.373132 0.035066 0.052265
O O11 0.260348 0.963527 0.973974
O O12 0.040644 0.250000 0.741963
O O13 0.070291 0.968599 0.696166
O O14 0.843977 0.250000 0.339292
O O15 0.796581 0.531160 0.323488
O O16 0.732300 0.750000 0.243413
O O17 0.799431 0.970100 0.166368
O O18 0.808189 0.250000 0.107270
#
# Coordination Sequence:
#
# PCOD8253421 Si02
#       7
#     8   8   8   8   8   8   8
#     4  10  22  41  64  91 124 163 207 257 310 368
#     4  11  24  40  62  90 123 164 205 254 313 371
#     4   9  21  40  61  89 123 159 202 255 310 362
#     4  11  24  42  63  90 125 166 206 253 315 374
#     4  12  24  38  62  92 122 163 212 256 306 368
#     4  11  21  37  62  88 119 160 203 253 310 368
#     4  10  20  38  63  88 118 155 200 251 305 366
#
# _framework density 20.294274000000001
#
# number of rings (size 3 to 8) (size 9 to 14) (size 15 to 20)
#    0.000    1.429    1.429    5.143    0.000    6.857 
#    0.000    1.429    0.000    0.000    0.000    0.000 
#    0.000    0.000    0.000    0.000    0.000    0.000 
#
# Total GULP energy -694778.646745 kJ/mol
# GULP energy per Si atom -12406.761549 kJ/mol
# Density = 2.024808 g / cm^3
# Si number density = 20.294274 Si / 1000 Ang^3
#
#
#
# Elastic Constant Matrix: (Units=GPa)
#
#
# Indices 1 2 3 4 5 6 
#
# 1 92.6532 19.3731 35.5346 0.0000 0.0000 0.0000
# 2 19.3731 83.4886 27.2010 0.0000 0.0000 0.0000
# 3 35.5346 27.2010 60.4520 0.0000 0.0000 0.0000
# 4 0.0000 0.0000 0.0000 32.2467 0.0000 0.0000
# 5 0.0000 0.0000 0.0000 0.0000 29.3018 0.0000
# 6 0.0000 0.0000 0.0000 0.0000 0.0000 38.7799
#
#
#
# Elastic Compliance Matrix: (Units=1/GPa)
#
#
# Indices 1 2 3 4 5 6 
#
# 1 0.013966 -0.000663 -0.007911 0.000000 0.000000 0.000000
# 2 -0.000663 0.014067 -0.005940 0.000000 0.000000 0.000000
# 3 -0.007911 -0.005940 0.023865 0.000000 0.000000 0.000000
# 4 0.000000 0.000000 0.000000 0.031011 0.000000 0.000000
# 5 0.000000 0.000000 0.000000 0.000000 0.034128 0.000000
# 6 0.000000 0.000000 0.000000 0.000000 0.000000 0.025787
#
#
# Mechanical properties :
#
#
# Convention : Reuss Voigt Hill
#
# Bulk Modulus (GPa) = 43.72581 44.53458 44.13019
# Shear Modulus (GPa) = 27.85942 30.36470 29.11206
#
# Velocity S-wave (km/s) = 3.70911 3.87230 3.79158
# Velocity P-wave (km/s) = 6.31950 6.47958 6.40004
#
# Compressibility (1/GPa) = 0.02286979
#
# Stress axis : x y z
#
# Youngs Moduli (GPa) = 71.60473 71.08968 41.90293
#
# Poissons Ratio (x) = 0.04715 0.33148
# Poissons Ratio (y) = 0.04749 0.24889
# Poissons Ratio (z) = 0.56644 0.42224
#
# Static dielectric constant tensor:
#      x y z
#    x 3.567540 0.000000 0.000000 
#    y 0.000000 3.638210 0.000000 
#    z 0.000000 0.000000 3.602290 
# 
# 
# High freq. dielectric constant tensor:
#      x y z
#    x 1.798280 0.000000 0.000000 
#    y 0.000000 1.800880 0.000000 
#    z 0.000000 0.000000 1.785280 
# 
# From -- ./inp_files/20242.got.cif
#   From: 2010.03.12/outbox.cif.g09.slc.cpg/sg62_11_cif.got.tgz:20242.got - 2010.04.10 19:12:36.
