data_PCOD8253152
_publ_section_title
;
Structure prediction by ZEFSAII (Michael W. Deem and Ramdas Pophale) SiO2 
 PCOD8253152
Probable space group: P N M A
;
_chemical_formula_sum "Si O2"
_cell_formula_units_Z 48
_cell_length_a 16.633763
_cell_length_b 8.842085
_cell_length_c 17.983042
_cell_angle_alpha 90.000000
_cell_angle_beta 90.000000
_cell_angle_gamma 90.000000
_cell_volume 2644.894499
_symmetry_space_group_name_H-M "P N M A"
_symmetry_group_IT_number 62
_symmetry_cell_setting 'orthorhombic'
loop_
_space_group_symop_operation_xyz
x,y,z
1/2-x,-y,1/2+z
1/2+x,1/2-y,1/2-z
-x,1/2+y,-z
-x,-y,-z
1/2+x,y,1/2-z
1/2-x,1/2+y,1/2+z
x,1/2-y,z
loop_
_atom_site_type_symbol
_atom_site_label
_atom_site_fract_x
_atom_site_fract_y
_atom_site_fract_z
Si Si1 0.004671 0.426539 0.419594
Si Si2 0.083828 0.569873 0.976985
Si Si3 0.136674 0.429096 0.670710
Si Si4 0.740044 0.924337 0.445437
Si Si5 0.834160 0.573224 0.160611
Si Si6 0.815391 0.577519 0.600377
O O1 0.988221 0.250000 0.429528
O O2 0.091851 0.457129 0.382954
O O3 0.000000 0.500000 0.500000
O O4 0.942443 0.496317 0.362221
O O5 0.078406 0.750000 0.978144
O O6 0.107706 0.518861 0.894190
O O7 0.152303 0.506596 0.034299
O O8 0.000000 0.500000 0.000000
O O9 0.130456 0.250000 0.658622
O O10 0.216438 0.492847 0.627675
O O11 0.142210 0.474287 0.756359
O O12 0.724296 0.750000 0.430960
O O13 0.801130 0.952380 0.513159
O O14 0.846689 0.750000 0.146578
O O15 0.740625 0.531923 0.149002
O O16 0.792244 0.750000 0.619988
#
# Coordination Sequence:
#
# PCOD8253152 Si02
#       6
#     8   8   8   8   8   8
#     4  11  21  34  56  85 115 148 185 229 276 330
#     4  10  20  37  60  81 109 145 189 235 277 330
#     4  10  20  37  56  80 113 146 183 229 280 334
#     4   8  15  32  56  76 101 140 178 219 270 319
#     4  10  21  36  57  82 111 145 184 231 282 333
#     4   9  18  35  56  76 107 146 180 220 271 324
#
# _framework density 18.148171000000001
#
# number of rings (size 3 to 8) (size 9 to 14) (size 15 to 20)
#    0.000    2.333    1.667    2.500    0.000    2.667 
#    3.000    0.833    0.000    0.000    0.000    0.000 
#    0.000    0.000    0.000    0.000    0.000    0.000 
#
# Total GULP energy -595040.877038 kJ/mol
# GULP energy per Si atom -12396.684938 kJ/mol
# Density = 1.810687 g / cm^3
# Si number density = 18.148171 Si / 1000 Ang^3
#
#
#
# Elastic Constant Matrix: (Units=GPa)
#
#
# Indices 1 2 3 4 5 6 
#
# 1 151.6244 44.1234 83.2676 0.0000 0.0000 0.0000
# 2 44.1234 60.6533 50.0731 0.0000 0.0000 0.0000
# 3 83.2676 50.0731 119.4379 0.0000 0.0000 0.0000
# 4 0.0000 0.0000 0.0000 26.9162 0.0000 0.0000
# 5 0.0000 0.0000 0.0000 0.0000 24.9514 0.0000
# 6 0.0000 0.0000 0.0000 0.0000 0.0000 33.2707
#
#
#
# Elastic Compliance Matrix: (Units=1/GPa)
#
#
# Indices 1 2 3 4 5 6 
#
# 1 0.010937 -0.002541 -0.006560 0.000000 0.000000 0.000000
# 2 -0.002541 0.025804 -0.009047 0.000000 0.000000 0.000000
# 3 -0.006560 -0.009047 0.016738 0.000000 0.000000 0.000000
# 4 0.000000 0.000000 0.000000 0.037152 0.000000 0.000000
# 5 0.000000 0.000000 0.000000 0.000000 0.040078 0.000000
# 6 0.000000 0.000000 0.000000 0.000000 0.000000 0.030056
#
#
# Mechanical properties :
#
#
# Convention : Reuss Voigt Hill
#
# Bulk Modulus (GPa) = 58.18992 76.29377 67.24184
# Shear Modulus (GPa) = 24.65613 27.31108 25.98361
#
# Velocity S-wave (km/s) = 3.68992 3.88351 3.78795
# Velocity P-wave (km/s) = 7.09136 7.88920 7.50090
#
# Compressibility (1/GPa) = 0.01718511
#
# Stress axis : x y z
#
# Youngs Moduli (GPa) = 91.43251 38.75335 59.74287
#
# Poissons Ratio (x) = 0.09847 0.39189
# Poissons Ratio (y) = 0.23233 0.54047
# Poissons Ratio (z) = 0.59976 0.35059
#
# Static dielectric constant tensor:
#      x y z
#    x 3.756040 0.000000 0.000000 
#    y 0.000000 3.264820 0.000000 
#    z 0.000000 0.000000 3.325380 
# 
# 
# High freq. dielectric constant tensor:
#      x y z
#    x 1.713260 0.000000 0.000000 
#    y 0.000000 1.692990 0.000000 
#    z 0.000000 0.000000 1.690950 
# 
# From -- ./inp_files/24229.got.cif
#   From: 2010.03.12/outbox.cif.g09.slc.cpg/sg62_13_cif.got.tgz:24229.got - 2010.04.10 19:12:36.
