data_PCOD8253657
_publ_section_title
;
Structure prediction by ZEFSAII (Michael W. Deem and Ramdas Pophale) SiO2 
 PCOD8253657
Probable space group: P N M A
;
_chemical_formula_sum "Si O2"
_cell_formula_units_Z 64
_cell_length_a 14.190842
_cell_length_b 9.048444
_cell_length_c 24.680976
_cell_angle_alpha 90.000000
_cell_angle_beta 90.000000
_cell_angle_gamma 90.000000
_cell_volume 3169.161690
_symmetry_space_group_name_H-M "P N M A"
_symmetry_group_IT_number 62
_symmetry_cell_setting 'orthorhombic'
loop_
_space_group_symop_operation_xyz
x,y,z
1/2-x,-y,1/2+z
1/2+x,1/2-y,1/2-z
-x,1/2+y,-z
-x,-y,-z
1/2+x,y,1/2-z
1/2-x,1/2+y,1/2+z
x,1/2-y,z
loop_
_atom_site_type_symbol
_atom_site_label
_atom_site_fract_x
_atom_site_fract_y
_atom_site_fract_z
Si Si1 0.313171 0.079163 0.703591
Si Si2 0.029486 0.412898 0.947841
Si Si3 0.834967 0.918458 0.596767
Si Si4 0.530342 0.920882 0.944712
Si Si5 0.228626 0.414276 0.989423
Si Si6 0.479738 0.924248 0.329143
Si Si7 0.720452 0.423089 0.911366
Si Si8 0.286705 0.075030 0.301125
O O1 0.296162 0.250000 0.718716
O O2 0.425104 0.043625 0.704203
O O3 0.267508 0.042007 0.645904
O O4 0.263297 0.974877 0.746447
O O5 0.984608 0.250000 0.952116
O O6 0.142028 0.408812 0.948449
O O7 0.001774 0.484861 0.890364
O O8 0.000000 0.500000 0.000000
O O9 0.803149 0.750000 0.586197
O O10 0.780397 0.979164 0.649619
O O11 0.948138 0.931384 0.601294
O O12 0.813546 0.013886 0.543561
O O13 0.551809 0.750000 0.957984
O O14 0.620623 0.996193 0.917428
O O15 0.500000 0.000000 0.000000
O O16 0.257386 0.250000 0.008212
O O17 0.208344 0.512483 0.042989
O O18 0.457212 0.750000 0.331786
O O19 0.391008 0.005905 0.302857
O O20 0.706044 0.250000 0.920407
O O21 0.297521 0.250000 0.300954
#
# Coordination Sequence:
#
# PCOD8253657 Si02
#       8
#     8   8   8   8   8   8   8   8
#     4  10  24  44  66  90 122 167 211 255 308 368
#     4  10  21  35  56  89 124 160 200 248 302 364
#     4  10  22  39  59  85 120 160 200 249 309 366
#     4  11  22  37  59  89 125 166 210 255 310 372
#     4  11  21  34  58  89 120 157 201 251 304 362
#     4  10  21  42  66  90 123 163 208 254 304 368
#     4  11  23  40  61  88 125 166 206 255 315 371
#     4  11  24  42  66  94 124 161 206 261 316 365
#
# _framework density 20.194616
#
# number of rings (size 3 to 8) (size 9 to 14) (size 15 to 20)
#    0.000    1.500    2.500    2.250    0.000    6.000 
#    0.000    2.500    0.000    0.000    0.000    0.000 
#    0.000    0.000    0.000    0.000    0.000    0.000 
#
# Total GULP energy -793476.287827 kJ/mol
# GULP energy per Si atom -12398.066997 kJ/mol
# Density = 2.014865 g / cm^3
# Si number density = 20.194616 Si / 1000 Ang^3
#
#
#
# Elastic Constant Matrix: (Units=GPa)
#
#
# Indices 1 2 3 4 5 6 
#
# 1 101.0936 41.1691 41.2405 0.0000 0.0000 0.0000
# 2 41.1691 98.2829 50.3523 0.0000 0.0000 0.0000
# 3 41.2405 50.3523 104.8852 0.0000 0.0000 0.0000
# 4 0.0000 0.0000 0.0000 33.6195 0.0000 0.0000
# 5 0.0000 0.0000 0.0000 0.0000 35.4718 0.0000
# 6 0.0000 0.0000 0.0000 0.0000 0.0000 30.2740
#
#
#
# Elastic Compliance Matrix: (Units=1/GPa)
#
#
# Indices 1 2 3 4 5 6 
#
# 1 0.012704 -0.003663 -0.003236 0.000000 0.000000 0.000000
# 2 -0.003663 0.014550 -0.005544 0.000000 0.000000 0.000000
# 3 -0.003236 -0.005544 0.013469 0.000000 0.000000 0.000000
# 4 0.000000 0.000000 0.000000 0.029745 0.000000 0.000000
# 5 0.000000 0.000000 0.000000 0.000000 0.028191 0.000000
# 6 0.000000 0.000000 0.000000 0.000000 0.000000 0.033032
#
#
# Mechanical properties :
#
#
# Convention : Reuss Voigt Hill
#
# Bulk Modulus (GPa) = 63.15678 63.30952 63.23315
# Shear Modulus (GPa) = 30.89153 31.30638 31.09895
#
# Velocity S-wave (km/s) = 3.91537 3.94157 3.92849
# Velocity P-wave (km/s) = 7.19598 7.22028 7.20814
#
# Compressibility (1/GPa) = 0.01583361
#
# Stress axis : x y z
#
# Youngs Moduli (GPa) = 78.71543 68.72951 74.24705
#
# Poissons Ratio (x) = 0.25178 0.24030
# Poissons Ratio (y) = 0.28836 0.41166
# Poissons Ratio (z) = 0.25476 0.38107
#
# Static dielectric constant tensor:
#      x y z
#    x 3.899020 0.000000 0.000000 
#    y 0.000000 3.721300 0.000000 
#    z 0.000000 0.000000 3.595660 
# 
# 
# High freq. dielectric constant tensor:
#      x y z
#    x 1.803990 0.000000 0.000000 
#    y 0.000000 1.788710 0.000000 
#    z 0.000000 0.000000 1.779540 
# 
# From -- ./inp_files/29769.got.cif
#   From: 2010.03.12/outbox.cif.g09.slc.cpg/sg62_15_cif.got.tgz:29769.got - 2010.04.10 19:12:36.
