data_PCOD8253864
_publ_section_title
;
Structure prediction by ZEFSAII (Michael W. Deem and Ramdas Pophale) SiO2 
 PCOD8253864
Probable space group: P N M A
;
_chemical_formula_sum "Si O2"
_cell_formula_units_Z 56
_cell_length_a 15.369947
_cell_length_b 8.918861
_cell_length_c 19.764988
_cell_angle_alpha 90.000000
_cell_angle_beta 90.000000
_cell_angle_gamma 90.000000
_cell_volume 2709.432404
_symmetry_space_group_name_H-M "P N M A"
_symmetry_group_IT_number 62
_symmetry_cell_setting 'orthorhombic'
loop_
_space_group_symop_operation_xyz
x,y,z
1/2-x,-y,1/2+z
1/2+x,1/2-y,1/2-z
-x,1/2+y,-z
-x,-y,-z
1/2+x,y,1/2-z
1/2-x,1/2+y,1/2+z
x,1/2-y,z
loop_
_atom_site_type_symbol
_atom_site_label
_atom_site_fract_x
_atom_site_fract_y
_atom_site_fract_z
Si Si1 0.323988 0.572267 0.425634
Si Si2 0.412308 0.085320 0.007637
Si Si3 0.495406 0.073225 0.210951
Si Si4 0.508524 0.575401 0.634054
Si Si5 0.838205 0.573025 0.370836
Si Si6 0.845501 0.085018 0.640831
Si Si7 0.320043 0.574254 0.580320
O O1 0.327920 0.750000 0.423233
O O2 0.417007 0.510564 0.405312
O O3 0.252268 0.516788 0.369118
O O4 0.302285 0.522091 0.502739
O O5 0.425183 0.250000 0.042032
O O6 0.371990 0.111103 0.935687
O O7 0.500000 0.000000 0.000000
O O8 0.353223 0.978190 0.052469
O O9 0.488678 0.250000 0.201688
O O10 0.495556 0.022746 0.288391
O O11 0.411127 0.998227 0.177175
O O12 0.587463 0.022753 0.178863
O O13 0.529095 0.750000 0.629460
O O14 0.418696 0.534040 0.598010
O O15 0.842535 0.750000 0.361239
O O16 0.739442 0.511664 0.362736
O O17 0.844490 0.250000 0.676491
O O18 0.300455 0.750000 0.588690
#
# Coordination Sequence:
#
# PCOD8253864 Si02
#       7
#     8   8   8   8   8   8   8
#     4  10  21  39  65  93 122 156 194 248 311 358
#     4  11  20  34  57  87 124 158 194 244 303 358
#     4  11  24  41  60  86 123 166 204 245 300 361
#     4  10  24  43  63  87 118 161 209 252 299 357
#     4  12  24  37  59  92 124 159 202 247 302 364
#     4  10  21  37  59  90 122 155 196 242 302 364
#     4  10  21  42  66  90 123 157 197 254 309 356
#
# _framework density 20.668536
#
# number of rings (size 3 to 8) (size 9 to 14) (size 15 to 20)
#    0.000    1.429    2.857    2.571    0.000    4.571 
#    0.000    4.286    0.000    0.000    0.000    0.000 
#    0.000    0.000    0.000    0.000    0.000    0.000 
#
# Total GULP energy -693970.731497 kJ/mol
# GULP energy per Si atom -12392.334491 kJ/mol
# Density = 2.062149 g / cm^3
# Si number density = 20.668536 Si / 1000 Ang^3
#
#
#
# Elastic Constant Matrix: (Units=GPa)
#
#
# Indices 1 2 3 4 5 6 
#
# 1 148.6661 57.0026 42.2194 0.0000 0.0000 0.0000
# 2 57.0026 89.5356 32.6491 0.0000 0.0000 0.0000
# 3 42.2194 32.6491 72.4447 0.0000 0.0000 0.0000
# 4 0.0000 0.0000 0.0000 21.2232 0.0000 0.0000
# 5 0.0000 0.0000 0.0000 0.0000 -13.1668 0.0000
# 6 0.0000 0.0000 0.0000 0.0000 0.0000 35.0516
#
#
#
# Elastic Compliance Matrix: (Units=1/GPa)
#
#
# Indices 1 2 3 4 5 6 
#
# 1 0.009543 -0.004844 -0.003379 0.000000 0.000000 0.000000
# 2 -0.004844 0.015823 -0.004309 0.000000 0.000000 0.000000
# 3 -0.003379 -0.004309 0.017714 0.000000 0.000000 0.000000
# 4 0.000000 0.000000 0.000000 0.047118 0.000000 0.000000
# 5 0.000000 0.000000 0.000000 0.000000 -0.075949 0.000000
# 6 0.000000 0.000000 0.000000 0.000000 0.000000 0.028529
#
#
# Mechanical properties :
#
#
# Convention : Reuss Voigt Hill
#
# Bulk Modulus (GPa) = 55.49547 63.82095 59.65821
# Shear Modulus (GPa) = 67.70666 20.53996 44.12331
#
# Velocity S-wave (km/s) = 5.72970 3.15585 4.62541
# Velocity P-wave (km/s) = 8.40720 6.65015 7.57976
#
# Compressibility (1/GPa) = 0.01801949
#
# Stress axis : x y z
#
# Youngs Moduli (GPa) = 104.78716 63.19720 56.45117
#
# Poissons Ratio (x) = 0.30610 0.19073
# Poissons Ratio (y) = 0.50755 0.24322
# Poissons Ratio (z) = 0.35404 0.27229
#
# Static dielectric constant tensor:
#      x y z
#    x 3.938240 0.000000 0.000000 
#    y 0.000000 3.641040 0.000000 
#    z 0.000000 0.000000 3.732600 
# 
# 
# High freq. dielectric constant tensor:
#      x y z
#    x 1.832470 0.000000 0.000000 
#    y 0.000000 1.801030 0.000000 
#    z 0.000000 0.000000 1.796970 
# 
# From -- ./inp_files/27205.got.cif
#   From: 2010.03.12/outbox.cif.g09.slc.cpg/sg62_14_cif.got.tgz:27205.got - 2010.04.10 19:12:36.
