data_PCOD8253255
_publ_section_title
;
Structure prediction by ZEFSAII (Michael W. Deem and Ramdas Pophale) SiO2 
 PCOD8253255
Probable space group: P N M A
;
_chemical_formula_sum "Si O2"
_cell_formula_units_Z 48
_cell_length_a 14.777787
_cell_length_b 8.774276
_cell_length_c 19.688093
_cell_angle_alpha 90.000000
_cell_angle_beta 90.000000
_cell_angle_gamma 90.000000
_cell_volume 2552.844408
_symmetry_space_group_name_H-M "P N M A"
_symmetry_group_IT_number 62
_symmetry_cell_setting 'orthorhombic'
loop_
_space_group_symop_operation_xyz
x,y,z
1/2-x,-y,1/2+z
1/2+x,1/2-y,1/2-z
-x,1/2+y,-z
-x,-y,-z
1/2+x,y,1/2-z
1/2-x,1/2+y,1/2+z
x,1/2-y,z
loop_
_atom_site_type_symbol
_atom_site_label
_atom_site_fract_x
_atom_site_fract_y
_atom_site_fract_z
Si Si1 0.415042 0.426552 0.464330
Si Si2 0.012696 0.572681 0.301612
Si Si3 0.067470 0.070336 0.554093
Si Si4 0.609758 0.923617 0.692464
Si Si5 0.773839 0.430108 0.517538
Si Si6 0.810000 0.928218 0.659531
O O1 0.500000 0.500000 0.500000
O O2 0.407455 0.250000 0.483411
O O3 0.423878 0.449755 0.383982
O O4 0.327173 0.510711 0.492824
O O5 0.036423 0.750000 0.300440
O O6 0.106462 0.479528 0.293397
O O7 0.963474 0.523813 0.370779
O O8 0.946607 0.535689 0.239672
O O9 0.070306 0.250000 0.543957
O O10 0.166750 0.000226 0.543141
O O11 0.000000 0.000000 0.500000
O O12 0.592952 0.750000 0.715453
O O13 0.716197 0.965108 0.698116
O O14 0.775862 0.250000 0.512792
O O15 0.816308 0.480205 0.589284
O O16 0.814577 0.750000 0.641854
#
# Coordination Sequence:
#
# PCOD8253255 Si02
#       6
#     8   8   8   8   8   8
#     4  10  21  40  64  89 116 152 196 242 292 348
#     4  11  23  37  58  87 117 151 193 241 290 345
#     4  11  22  36  56  86 119 153 192 236 288 345
#     4   9  21  40  60  84 114 152 193 233 288 349
#     4  11  21  35  58  87 116 151 192 238 288 345
#     4  10  20  37  61  83 111 153 193 236 287 346
#
# _framework density 18.802555000000002
#
# number of rings (size 3 to 8) (size 9 to 14) (size 15 to 20)
#    0.000    1.667    1.667    4.500    0.000    6.000 
#    3.000    0.000    0.000    0.000    0.000    0.000 
#    0.000    0.000    0.000    0.000    0.000    0.000 
#
# Total GULP energy -595431.346528 kJ/mol
# GULP energy per Si atom -12404.819719 kJ/mol
# Density = 1.875976 g / cm^3
# Si number density = 18.802555 Si / 1000 Ang^3
#
#
#
# Elastic Constant Matrix: (Units=GPa)
#
#
# Indices 1 2 3 4 5 6 
#
# 1 142.2779 54.7364 57.7229 0.0000 0.0000 0.0000
# 2 54.7364 106.3917 38.9907 0.0000 0.0000 0.0000
# 3 57.7229 38.9907 65.3353 0.0000 0.0000 0.0000
# 4 0.0000 0.0000 0.0000 30.4261 0.0000 0.0000
# 5 0.0000 0.0000 0.0000 0.0000 32.1632 0.0000
# 6 0.0000 0.0000 0.0000 0.0000 0.0000 38.4783
#
#
#
# Elastic Compliance Matrix: (Units=1/GPa)
#
#
# Indices 1 2 3 4 5 6 
#
# 1 0.011584 -0.002827 -0.008547 0.000000 0.000000 0.000000
# 2 -0.002827 0.012720 -0.005093 0.000000 0.000000 0.000000
# 3 -0.008547 -0.005093 0.025896 0.000000 0.000000 0.000000
# 4 0.000000 0.000000 0.000000 0.032867 0.000000 0.000000
# 5 0.000000 0.000000 0.000000 0.000000 0.031091 0.000000
# 6 0.000000 0.000000 0.000000 0.000000 0.000000 0.025989
#
#
# Mechanical properties :
#
#
# Convention : Reuss Voigt Hill
#
# Bulk Modulus (GPa) = 57.91917 68.54500 63.23209
# Shear Modulus (GPa) = 27.95842 31.05052 29.50447
#
# Velocity S-wave (km/s) = 3.86028 4.06815 3.96558
# Velocity P-wave (km/s) = 7.12319 7.65511 7.39393
#
# Compressibility (1/GPa) = 0.01726544
#
# Stress axis : x y z
#
# Youngs Moduli (GPa) = 86.32847 78.61332 38.61570
#
# Poissons Ratio (x) = 0.22227 0.33004
# Poissons Ratio (y) = 0.24408 0.19669
# Poissons Ratio (z) = 0.73782 0.40041
#
# Static dielectric constant tensor:
#      x y z
#    x 3.770370 0.000000 0.000000 
#    y 0.000000 3.509930 0.000000 
#    z 0.000000 0.000000 3.380790 
# 
# 
# High freq. dielectric constant tensor:
#      x y z
#    x 1.744600 0.000000 0.000000 
#    y 0.000000 1.744650 0.000000 
#    z 0.000000 0.000000 1.709020 
# 
# From -- ./inp_files/23758.got.cif
#   From: 2010.03.12/outbox.cif.g09.slc.cpg/sg62_12_cif.got.tgz:23758.got - 2010.04.10 19:12:36.
