data_PCOD8253197
_publ_section_title
;
Structure prediction by ZEFSAII (Michael W. Deem and Ramdas Pophale) SiO2 
 PCOD8253197
Probable space group: P N M A
;
_chemical_formula_sum "Si O2"
_cell_formula_units_Z 48
_cell_length_a 18.850169
_cell_length_b 8.683121
_cell_length_c 15.027536
_cell_angle_alpha 90.000000
_cell_angle_beta 90.000000
_cell_angle_gamma 90.000000
_cell_volume 2459.681520
_symmetry_space_group_name_H-M "P N M A"
_symmetry_group_IT_number 62
_symmetry_cell_setting 'orthorhombic'
loop_
_space_group_symop_operation_xyz
x,y,z
1/2-x,-y,1/2+z
1/2+x,1/2-y,1/2-z
-x,1/2+y,-z
-x,-y,-z
1/2+x,y,1/2-z
1/2-x,1/2+y,1/2+z
x,1/2-y,z
loop_
_atom_site_type_symbol
_atom_site_label
_atom_site_fract_x
_atom_site_fract_y
_atom_site_fract_z
Si Si1 0.023512 0.931246 0.092860
Si Si2 0.263386 0.568992 0.299049
Si Si3 0.814832 0.069587 0.878534
Si Si4 0.436353 0.931715 0.056105
Si Si5 0.581334 0.066322 0.744515
Si Si6 0.207804 0.568786 0.486386
O O1 0.014583 0.750000 0.087173
O O2 0.103681 0.978820 0.113677
O O3 0.974477 0.997410 0.172200
O O4 0.000000 0.000000 0.000000
O O5 0.272416 0.750000 0.308868
O O6 0.209792 0.525965 0.220355
O O7 0.341135 0.498151 0.279669
O O8 0.231027 0.503521 0.390183
O O9 0.802109 0.250000 0.898611
O O10 0.771477 0.966531 0.946916
O O11 0.442607 0.750000 0.054150
O O12 0.440880 0.993225 0.157619
O O13 0.500000 0.000000 0.000000
O O14 0.362134 0.979387 0.014082
O O15 0.583009 0.250000 0.744817
O O16 0.191858 0.750000 0.484588
#
# Coordination Sequence:
#
# PCOD8253197 Si02
#       6
#     8   8   8   8   8   8
#     4  10  21  36  59  86 114 151 196 240 289 347
#     4   9  18  34  58  84 110 149 197 237 284 349
#     4  10  20  37  59  84 115 152 195 240 288 347
#     4  11  23  40  62  86 119 158 199 243 291 347
#     4   9  18  36  61  83 110 157 201 234 279 351
#     4  11  22  37  62  90 117 150 195 245 293 350
#
# _framework density 19.514721000000002
#
# number of rings (size 3 to 8) (size 9 to 14) (size 15 to 20)
#    0.000    2.000    1.667    2.000    2.333    2.000 
#    0.000    3.333    0.000    0.000    0.000    0.000 
#    0.000    0.000    0.000    0.000    0.000    0.000 
#
# Total GULP energy -595286.515541 kJ/mol
# GULP energy per Si atom -12401.802407 kJ/mol
# Density = 1.947031 g / cm^3
# Si number density = 19.514721 Si / 1000 Ang^3
#
#
#
# Elastic Constant Matrix: (Units=GPa)
#
#
# Indices 1 2 3 4 5 6 
#
# 1 175.6299 24.7069 97.0793 0.0000 0.0000 0.0000
# 2 24.7069 30.1831 27.3764 0.0000 0.0000 0.0000
# 3 97.0793 27.3764 196.1284 0.0000 0.0000 0.0000
# 4 0.0000 0.0000 0.0000 29.3152 0.0000 0.0000
# 5 0.0000 0.0000 0.0000 0.0000 46.1037 0.0000
# 6 0.0000 0.0000 0.0000 0.0000 0.0000 29.2015
#
#
#
# Elastic Compliance Matrix: (Units=1/GPa)
#
#
# Indices 1 2 3 4 5 6 
#
# 1 0.008140 -0.003445 -0.003548 0.000000 0.000000 0.000000
# 2 -0.003445 0.039391 -0.003793 0.000000 0.000000 0.000000
# 3 -0.003548 -0.003793 0.007384 0.000000 0.000000 0.000000
# 4 0.000000 0.000000 0.000000 0.034112 0.000000 0.000000
# 5 0.000000 0.000000 0.000000 0.000000 0.021690 0.000000
# 6 0.000000 0.000000 0.000000 0.000000 0.000000 0.034245
#
#
# Mechanical properties :
#
#
# Convention : Reuss Voigt Hill
#
# Bulk Modulus (GPa) = 29.99118 77.80742 53.89930
# Shear Modulus (GPa) = 28.14538 37.77600 32.96069
#
# Velocity S-wave (km/s) = 3.80184 4.40451 4.11422
# Velocity P-wave (km/s) = 5.88845 8.11320 7.08864
#
# Compressibility (1/GPa) = 0.03334314
#
# Stress axis : x y z
#
# Youngs Moduli (GPa) = 122.85650 25.38628 135.42006
#
# Poissons Ratio (x) = 0.08745 0.48048
# Poissons Ratio (y) = 0.42319 0.51370
# Poissons Ratio (z) = 0.43591 0.09630
#
# Static dielectric constant tensor:
#      x y z
#    x 3.616670 0.000000 0.000000 
#    y 0.000000 3.226610 0.000000 
#    z 0.000000 0.000000 5.266510 
# 
# 
# High freq. dielectric constant tensor:
#      x y z
#    x 1.776120 0.000000 0.000000 
#    y 0.000000 1.723910 0.000000 
#    z 0.000000 0.000000 1.779450 
# 
# From -- ./inp_files/19587.got.cif
#   From: 2010.03.12/outbox.cif.g09.slc.cpg/sg62_10_cif.got.tgz:19587.got - 2010.04.10 19:12:36.
