data_PCOD8253306
_publ_section_title
;
Structure prediction by ZEFSAII (Michael W. Deem and Ramdas Pophale) SiO2 
 PCOD8253306
Probable space group: P N M A
;
_chemical_formula_sum "Si O2"
_cell_formula_units_Z 36
_cell_length_a 11.313927
_cell_length_b 13.653794
_cell_length_c 11.847889
_cell_angle_alpha 90.000000
_cell_angle_beta 90.000000
_cell_angle_gamma 90.000000
_cell_volume 1830.238536
_symmetry_space_group_name_H-M "P N M A"
_symmetry_group_IT_number 62
_symmetry_cell_setting 'orthorhombic'
loop_
_space_group_symop_operation_xyz
x,y,z
1/2-x,-y,1/2+z
1/2+x,1/2-y,1/2-z
-x,1/2+y,-z
-x,-y,-z
1/2+x,y,1/2-z
1/2-x,1/2+y,1/2+z
x,1/2-y,z
loop_
_atom_site_type_symbol
_atom_site_label
_atom_site_fract_x
_atom_site_fract_y
_atom_site_fract_z
Si Si1 0.679385 0.965698 0.512889
Si Si2 0.057781 0.750000 0.760991
Si Si3 0.921153 0.050134 0.591435
Si Si4 0.258417 0.250000 0.452730
Si Si5 0.034151 0.044039 0.175564
Si Si6 0.978452 0.250000 0.490146
O O1 0.696370 0.849356 0.486472
O O2 0.574828 0.987829 0.599196
O O3 0.789364 0.012333 0.576136
O O4 0.654152 0.021609 0.394933
O O5 0.183673 0.750000 0.826832
O O6 0.975356 0.657585 0.791189
O O7 0.091643 0.750000 0.628620
O O8 0.936484 0.164155 0.571362
O O9 0.967660 0.023701 0.714779
O O10 0.000000 0.000000 0.500000
O O11 0.116467 0.250000 0.453922
#
# Coordination Sequence:
#
# PCOD8253306 Si02
#       6
#     8   4   8   4   8   4
#     4  10  23  41  66  93 128 167 207 257 314 373
#     4  10  20  38  64  88 119 161 214 264 305 364
#     4  12  24  39  64  91 126 160 207 260 307 369
#     4  10  20  37  63  87 124 167 202 257 308 377
#     4  10  23  42  64  94 126 166 209 258 316 371
#     4  12  24  39  57  99 119 164 214 251 319 371
#
# _framework density 19.669567000000001
#
# number of rings (size 3 to 8) (size 9 to 14) (size 15 to 20)
#    0.000    1.333    4.444    0.000    3.111    3.556 
#    0.000    3.333    0.000    0.000    0.000    0.000 
#    0.000    0.000    0.000    0.000    0.000    0.000 
#
# Total GULP energy -446315.307668 kJ/mol
# GULP energy per Si atom -12397.647435 kJ/mol
# Density = 1.962480 g / cm^3
# Si number density = 19.669567 Si / 1000 Ang^3
#
#
#
# Elastic Constant Matrix: (Units=GPa)
#
#
# Indices 1 2 3 4 5 6 
#
# 1 78.0901 37.5773 28.5505 0.0000 0.0000 0.0000
# 2 37.5773 167.3493 66.9279 0.0000 0.0000 0.0000
# 3 28.5505 66.9279 128.9704 0.0000 0.0000 0.0000
# 4 0.0000 0.0000 0.0000 37.5025 0.0000 0.0000
# 5 0.0000 0.0000 0.0000 0.0000 18.7942 0.0000
# 6 0.0000 0.0000 0.0000 0.0000 0.0000 23.3149
#
#
#
# Elastic Compliance Matrix: (Units=1/GPa)
#
#
# Indices 1 2 3 4 5 6 
#
# 1 0.014736 -0.002529 -0.001950 0.000000 0.000000 0.000000
# 2 -0.002529 0.007975 -0.003578 0.000000 0.000000 0.000000
# 3 -0.001950 -0.003578 0.010042 0.000000 0.000000 0.000000
# 4 0.000000 0.000000 0.000000 0.026665 0.000000 0.000000
# 5 0.000000 0.000000 0.000000 0.000000 0.053208 0.000000
# 6 0.000000 0.000000 0.000000 0.000000 0.000000 0.042891
#
#
# Mechanical properties :
#
#
# Convention : Reuss Voigt Hill
#
# Bulk Modulus (GPa) = 60.10291 71.16903 65.63597
# Shear Modulus (GPa) = 28.22045 32.01258 30.11652
#
# Velocity S-wave (km/s) = 3.79189 4.03863 3.91720
# Velocity P-wave (km/s) = 7.05648 7.61631 7.34173
#
# Compressibility (1/GPa) = 0.01663813
#
# Stress axis : x y z
#
# Youngs Moduli (GPa) = 67.86321 125.39917 99.57870
#
# Poissons Ratio (x) = 0.31714 0.19414
# Poissons Ratio (y) = 0.17163 0.35634
# Poissons Ratio (z) = 0.13231 0.44873
#
# Static dielectric constant tensor:
#      x y z
#    x 3.460260 0.000000 0.000000 
#    y 0.000000 3.816430 0.000000 
#    z 0.000000 0.000000 3.440580 
# 
# 
# High freq. dielectric constant tensor:
#      x y z
#    x 1.768230 0.000000 0.000000 
#    y 0.000000 1.778040 0.000000 
#    z 0.000000 0.000000 1.766730 
# 
# From -- ./inp_files/11889.got.cif
#   From: 2010.03.12/outbox.cif.g09.slc.cpg/sg62_6_cif.got.tgz:11889.got - 2010.04.10 19:12:36.
