data_PCOD8253036
_publ_section_title
;
Structure prediction by ZEFSAII (Michael W. Deem and Ramdas Pophale) SiO2 
 PCOD8253036
Probable space group: P N M A
;
_chemical_formula_sum "Si O2"
_cell_formula_units_Z 64
_cell_length_a 10.080862
_cell_length_b 11.207712
_cell_length_c 28.243448
_cell_angle_alpha 90.000000
_cell_angle_beta 90.000000
_cell_angle_gamma 90.000000
_cell_volume 3191.040726
_symmetry_space_group_name_H-M "P N M A"
_symmetry_group_IT_number 62
_symmetry_cell_setting 'orthorhombic'
loop_
_space_group_symop_operation_xyz
x,y,z
1/2-x,-y,1/2+z
1/2+x,1/2-y,1/2-z
-x,1/2+y,-z
-x,-y,-z
1/2+x,y,1/2-z
1/2-x,1/2+y,1/2+z
x,1/2-y,z
loop_
_atom_site_type_symbol
_atom_site_label
_atom_site_fract_x
_atom_site_fract_y
_atom_site_fract_z
Si Si1 0.111827 0.619268 0.253259
Si Si2 0.839513 0.110127 0.468522
Si Si3 0.339370 0.110772 0.372509
Si Si4 0.361085 0.481037 0.269823
Si Si5 0.838574 0.118991 0.325991
Si Si6 0.388582 0.507523 0.934646
Si Si7 0.122016 0.384498 0.104074
Si Si8 0.990708 0.618548 0.353245
O O1 0.096791 0.750000 0.230587
O O2 0.263248 0.578929 0.246148
O O3 0.089376 0.621076 0.309292
O O4 0.008913 0.533482 0.226307
O O5 0.823431 0.250000 0.477081
O O6 0.724164 0.057591 0.433951
O O7 0.983194 0.087597 0.445623
O O8 0.822763 0.040878 0.517616
O O9 0.361410 0.250000 0.365401
O O10 0.307569 0.059165 0.320532
O O11 0.219034 0.088085 0.407791
O O12 0.476798 0.053266 0.393119
O O13 0.355392 0.375554 0.230859
O O14 0.894550 0.250000 0.344233
O O15 0.685939 0.111043 0.343179
O O16 0.904286 0.001528 0.348782
O O17 0.426536 0.394988 0.901701
O O18 0.099938 0.250000 0.086934
O O19 0.917200 0.750000 0.355738
#
# Coordination Sequence:
#
# PCOD8253036 Si02
#       8
#     8   8   8   8   8   8   8   8
#     4  10  21  37  57  81 118 161 203 244 300 361
#     4  10  21  38  62  88 115 154 203 257 315 371
#     4  11  23  38  57  87 125 161 201 255 311 367
#     4  11  21  37  56  89 118 161 207 255 296 356
#     4  10  20  36  60  87 120 164 207 249 298 359
#     4  11  21  37  61  91 115 155 204 257 306 371
#     4   9  19  37  58  83 121 161 197 246 313 370
#     4  10  20  36  58  87 120 156 198 253 305 355
#
# _framework density 20.056152000000001
#
# number of rings (size 3 to 8) (size 9 to 14) (size 15 to 20)
#    0.000    1.750    2.500    2.250    0.000    1.500 
#    0.000    1.250    0.000    1.500    0.000    0.000 
#    0.000    0.000    0.000    0.000    0.000    0.000 
#
# Total GULP energy -792921.762590 kJ/mol
# GULP energy per Si atom -12389.402540 kJ/mol
# Density = 2.001050 g / cm^3
# Si number density = 20.056152 Si / 1000 Ang^3
#
#
#
# Elastic Constant Matrix: (Units=GPa)
#
#
# Indices 1 2 3 4 5 6 
#
# 1 97.2110 31.6831 35.5030 0.0000 0.0000 0.0000
# 2 31.6831 102.4237 20.4745 0.0000 0.0000 0.0000
# 3 35.5030 20.4745 103.3297 0.0000 0.0000 0.0000
# 4 0.0000 0.0000 0.0000 12.0397 0.0000 0.0000
# 5 0.0000 0.0000 0.0000 0.0000 25.7615 0.0000
# 6 0.0000 0.0000 0.0000 0.0000 0.0000 24.5146
#
#
#
# Elastic Compliance Matrix: (Units=1/GPa)
#
#
# Indices 1 2 3 4 5 6 
#
# 1 0.012685 -0.003178 -0.003728 0.000000 0.000000 0.000000
# 2 -0.003178 0.010962 -0.001080 0.000000 0.000000 0.000000
# 3 -0.003728 -0.001080 0.011173 0.000000 0.000000 0.000000
# 4 0.000000 0.000000 0.000000 0.083059 0.000000 0.000000
# 5 0.000000 0.000000 0.000000 0.000000 0.038818 0.000000
# 6 0.000000 0.000000 0.000000 0.000000 0.000000 0.040792
#
#
# Mechanical properties :
#
#
# Convention : Reuss Voigt Hill
#
# Bulk Modulus (GPa) = 53.06215 53.14283 53.10249
# Shear Modulus (GPa) = 22.75376 26.81675 24.78525
#
# Velocity S-wave (km/s) = 3.37189 3.66058 3.51920
# Velocity P-wave (km/s) = 6.45552 6.66491 6.56105
#
# Compressibility (1/GPa) = 0.01884582
#
# Stress axis : x y z
#
# Youngs Moduli (GPa) = 78.83632 91.22029 89.50270
#
# Poissons Ratio (x) = 0.28994 0.33371
# Poissons Ratio (y) = 0.25057 0.09667
# Poissons Ratio (z) = 0.29394 0.09853
#
# Static dielectric constant tensor:
#      x y z
#    x 3.635810 0.000000 0.000000 
#    y 0.000000 3.704080 0.000000 
#    z 0.000000 0.000000 3.796250 
# 
# 
# High freq. dielectric constant tensor:
#      x y z
#    x 1.774520 0.000000 0.000000 
#    y 0.000000 1.771810 0.000000 
#    z 0.000000 0.000000 1.783240 
# 
# From -- ./inp_files/32247.got.cif
#   From: 2010.03.12/outbox.cif.g09.slc.cpg/sg62_17_cif.got.tgz:32247.got - 2010.04.10 19:12:36.
