data_PCOD8253411
_publ_section_title
;
Structure prediction by ZEFSAII (Michael W. Deem and Ramdas Pophale) SiO2 
 PCOD8253411
Probable space group: P N M A
;
_chemical_formula_sum "Si O2"
_cell_formula_units_Z 64
_cell_length_a 12.941794
_cell_length_b 13.764549
_cell_length_c 17.044458
_cell_angle_alpha 90.000000
_cell_angle_beta 90.000000
_cell_angle_gamma 90.000000
_cell_volume 3036.264938
_symmetry_space_group_name_H-M "P N M A"
_symmetry_group_IT_number 62
_symmetry_cell_setting 'orthorhombic'
loop_
_space_group_symop_operation_xyz
x,y,z
1/2-x,-y,1/2+z
1/2+x,1/2-y,1/2-z
-x,1/2+y,-z
-x,-y,-z
1/2+x,y,1/2-z
1/2-x,1/2+y,1/2+z
x,1/2-y,z
loop_
_atom_site_type_symbol
_atom_site_label
_atom_site_fract_x
_atom_site_fract_y
_atom_site_fract_z
Si Si1 0.265495 0.507591 0.903538
Si Si2 0.538536 0.971442 0.584819
Si Si3 0.357654 0.642094 0.656326
Si Si4 0.823705 0.359149 0.467058
Si Si5 0.290538 0.457071 0.731287
Si Si6 0.056715 0.136958 0.466258
Si Si7 0.490897 0.141316 0.702330
Si Si8 0.385689 0.861095 0.143729
O O1 0.157529 0.565554 0.918095
O O2 0.257096 0.451020 0.821095
O O3 0.362390 0.580185 0.911164
O O4 0.273281 0.423278 0.966432
O O5 0.539040 0.064838 0.641874
O O6 0.500000 0.000000 0.500000
O O7 0.463804 0.884638 0.612055
O O8 0.371519 0.750000 0.691720
O O9 0.254384 0.638242 0.604950
O O10 0.340608 0.564166 0.724528
O O11 0.835246 0.250000 0.500260
O O12 0.939645 0.394987 0.443501
O O13 0.368781 0.372522 0.707268
O O14 0.199940 0.439586 0.668689
O O15 0.075204 0.250000 0.450188
O O16 0.073483 0.110292 0.557826
O O17 0.517194 0.250000 0.672234
O O18 0.525498 0.126135 0.792010
O O19 0.343872 0.750000 0.144117
#
# Coordination Sequence:
#
# PCOD8253411 Si02
#       8
#     8   8   8   8   8   8   8   8
#     4  12  23  39  64  93 127 163 202 260 308 367
#     4  11  23  41  61  92 129 164 213 254 305 377
#     4  10  23  43  64  83 118 170 215 258 305 362
#     4  10  21  40  65  92 119 155 206 258 315 375
#     4  11  23  38  60  89 123 157 209 249 307 366
#     4  10  23  40  62  94 124 159 205 256 316 373
#     4  10  22  40  63  92 125 162 200 254 318 376
#     4  10  20  38  62  91 127 156 194 251 317 379
#
# _framework density 21.078530000000001
#
# number of rings (size 3 to 8) (size 9 to 14) (size 15 to 20)
#    0.000    1.500    2.500    2.250    1.750    5.000 
#    0.000    0.000    0.000    0.000    0.000    0.000 
#    0.000    0.000    0.000    0.000    0.000    0.000 
#
# Total GULP energy -793393.647789 kJ/mol
# GULP energy per Si atom -12396.775747 kJ/mol
# Density = 2.103055 g / cm^3
# Si number density = 21.078530 Si / 1000 Ang^3
#
#
#
# Elastic Constant Matrix: (Units=GPa)
#
#
# Indices 1 2 3 4 5 6 
#
# 1 146.8340 28.7836 15.9904 0.0000 0.0000 0.0000
# 2 28.7836 77.0635 1.9539 0.0000 0.0000 0.0000
# 3 15.9904 1.9539 44.0727 0.0000 0.0000 0.0000
# 4 0.0000 0.0000 0.0000 24.1328 0.0000 0.0000
# 5 0.0000 0.0000 0.0000 0.0000 27.4159 0.0000
# 6 0.0000 0.0000 0.0000 0.0000 0.0000 26.9944
#
#
#
# Elastic Compliance Matrix: (Units=1/GPa)
#
#
# Indices 1 2 3 4 5 6 
#
# 1 0.007646 -0.002788 -0.002650 0.000000 0.000000 0.000000
# 2 -0.002788 0.014008 0.000391 0.000000 0.000000 0.000000
# 3 -0.002650 0.000391 0.023634 0.000000 0.000000 0.000000
# 4 0.000000 0.000000 0.000000 0.041437 0.000000 0.000000
# 5 0.000000 0.000000 0.000000 0.000000 0.036475 0.000000
# 6 0.000000 0.000000 0.000000 0.000000 0.000000 0.037045
#
#
# Mechanical properties :
#
#
# Convention : Reuss Voigt Hill
#
# Bulk Modulus (GPa) = 28.41609 40.15844 34.28727
# Shear Modulus (GPa) = 27.46170 30.45810 28.95990
#
# Velocity S-wave (km/s) = 3.61339 3.80542 3.71064
# Velocity P-wave (km/s) = 5.56049 6.19689 5.88730
#
# Compressibility (1/GPa) = 0.03519133
#
# Stress axis : x y z
#
# Youngs Moduli (GPa) = 130.79311 71.38820 42.31183
#
# Poissons Ratio (x) = 0.19907 0.11214
# Poissons Ratio (y) = 0.36472 -0.01653
# Poissons Ratio (z) = 0.34665 -0.02789
#
# Static dielectric constant tensor:
#      x y z
#    x 3.898640 0.000000 0.000000 
#    y 0.000000 3.897970 0.000000 
#    z 0.000000 0.000000 3.613030 
# 
# 
# High freq. dielectric constant tensor:
#      x y z
#    x 1.841290 0.000000 0.000000 
#    y 0.000000 1.825700 0.000000 
#    z 0.000000 0.000000 1.815140 
# 
# From -- ./inp_files/23213.got.cif
#   From: 2010.03.12/outbox.cif.g09.slc.cpg/sg62_12_cif.got.tgz:23213.got - 2010.04.10 19:12:36.
