data_PCOD8253044
_publ_section_title
;
Structure prediction by ZEFSAII (Michael W. Deem and Ramdas Pophale) SiO2 
 PCOD8253044
Probable space group: P N M A
;
_chemical_formula_sum "Si O2"
_cell_formula_units_Z 56
_cell_length_a 15.155724
_cell_length_b 9.258323
_cell_length_c 21.160762
_cell_angle_alpha 90.000000
_cell_angle_beta 90.000000
_cell_angle_gamma 90.000000
_cell_volume 2969.205925
_symmetry_space_group_name_H-M "P N M A"
_symmetry_group_IT_number 62
_symmetry_cell_setting 'orthorhombic'
loop_
_space_group_symop_operation_xyz
x,y,z
1/2-x,-y,1/2+z
1/2+x,1/2-y,1/2-z
-x,1/2+y,-z
-x,-y,-z
1/2+x,y,1/2-z
1/2-x,1/2+y,1/2+z
x,1/2-y,z
loop_
_atom_site_type_symbol
_atom_site_label
_atom_site_fract_x
_atom_site_fract_y
_atom_site_fract_z
Si Si1 0.787971 0.580192 0.104177
Si Si2 0.523009 0.081887 0.563978
Si Si3 0.597838 0.581999 0.772651
Si Si4 0.523942 0.585141 0.909699
Si Si5 0.126460 0.918473 0.470851
Si Si6 0.547231 0.917759 0.304018
Si Si7 0.767945 0.421190 0.741939
O O1 0.798054 0.750000 0.109789
O O2 0.884775 0.516518 0.090868
O O3 0.725803 0.532287 0.045652
O O4 0.742941 0.526101 0.169357
O O5 0.532107 0.250000 0.546605
O O6 0.450068 0.059085 0.619615
O O7 0.500000 0.000000 0.500000
O O8 0.610658 0.750000 0.755750
O O9 0.552766 0.558775 0.839354
O O10 0.535738 0.508232 0.720889
O O11 0.691760 0.503991 0.779608
O O12 0.498806 0.750000 0.923381
O O13 0.438144 0.490861 0.920653
O O14 0.602570 0.537134 0.957555
O O15 0.116757 0.750000 0.458639
O O16 0.529475 0.750000 0.288259
O O17 0.638055 0.970437 0.271360
O O18 0.756027 0.250000 0.750070
#
# Coordination Sequence:
#
# PCOD8253044 Si02
#       7
#     8   8   8   8   8   8   8
#     4   9  17  33  56  79 104 140 186 230 272 328
#     4  10  21  38  58  82 112 146 187 236 287 342
#     4  11  22  35  54  82 117 150 180 229 291 344
#     4   9  19  33  48  76 114 142 173 224 278 328
#     4   9  17  32  55  77 100 141 187 219 265 330
#     4  10  21  39  62  85 112 149 197 245 284 339
#     4  10  20  36  59  83 108 145 193 241 284 333
#
# _framework density 18.860261000000001
#
# number of rings (size 3 to 8) (size 9 to 14) (size 15 to 20)
#    0.000    2.286    1.429    1.286    0.000    4.571 
#    0.000    2.857    0.000    0.000    0.000    0.000 
#    0.000    0.000    0.000    0.000    0.000    0.000 
#
# Total GULP energy -694189.537329 kJ/mol
# GULP energy per Si atom -12396.241738 kJ/mol
# Density = 1.881733 g / cm^3
# Si number density = 18.860261 Si / 1000 Ang^3
#
#
#
# Elastic Constant Matrix: (Units=GPa)
#
#
# Indices 1 2 3 4 5 6 
#
# 1 114.5021 30.1416 50.9005 0.0000 0.0000 0.0000
# 2 30.1416 43.4066 32.4788 0.0000 0.0000 0.0000
# 3 50.9005 32.4788 101.0139 0.0000 0.0000 0.0000
# 4 0.0000 0.0000 0.0000 27.5794 0.0000 0.0000
# 5 0.0000 0.0000 0.0000 0.0000 16.9955 0.0000
# 6 0.0000 0.0000 0.0000 0.0000 0.0000 23.0898
#
#
#
# Elastic Compliance Matrix: (Units=1/GPa)
#
#
# Indices 1 2 3 4 5 6 
#
# 1 0.012034 -0.005029 -0.004447 0.000000 0.000000 0.000000
# 2 -0.005029 0.032438 -0.007896 0.000000 0.000000 0.000000
# 3 -0.004447 -0.007896 0.014679 0.000000 0.000000 0.000000
# 4 0.000000 0.000000 0.000000 0.036259 0.000000 0.000000
# 5 0.000000 0.000000 0.000000 0.000000 0.058839 0.000000
# 6 0.000000 0.000000 0.000000 0.000000 0.000000 0.043309
#
#
# Mechanical properties :
#
#
# Convention : Reuss Voigt Hill
#
# Bulk Modulus (GPa) = 40.97027 53.99604 47.48315
# Shear Modulus (GPa) = 20.79541 23.22639 22.01090
#
# Velocity S-wave (km/s) = 3.32415 3.51308 3.41992
# Velocity P-wave (km/s) = 6.04182 6.71918 6.38948
#
# Compressibility (1/GPa) = 0.02440794
#
# Stress axis : x y z
#
# Youngs Moduli (GPa) = 83.09660 30.82805 68.12414
#
# Poissons Ratio (x) = 0.15504 0.30295
# Poissons Ratio (y) = 0.41790 0.53788
# Poissons Ratio (z) = 0.36953 0.24340
#
# Static dielectric constant tensor:
#      x y z
#    x 3.667230 0.000000 0.000000 
#    y 0.000000 3.289430 0.000000 
#    z 0.000000 0.000000 3.577760 
# 
# 
# High freq. dielectric constant tensor:
#      x y z
#    x 1.734010 0.000000 0.000000 
#    y 0.000000 1.711700 0.000000 
#    z 0.000000 0.000000 1.738980 
# 
# From -- ./inp_files/27213.got.cif
#   From: 2010.03.12/outbox.cif.g09.slc.cpg/sg62_14_cif.got.tgz:27213.got - 2010.04.10 19:12:36.
