data_PCOD8253605
_publ_section_title
;
Structure prediction by ZEFSAII (Michael W. Deem and Ramdas Pophale) SiO2 
 PCOD8253605
Probable space group: P N M A
;
_chemical_formula_sum "Si O2"
_cell_formula_units_Z 40
_cell_length_a 9.356943
_cell_length_b 9.307146
_cell_length_c 22.270097
_cell_angle_alpha 90.000000
_cell_angle_beta 90.000000
_cell_angle_gamma 90.000000
_cell_volume 1939.423346
_symmetry_space_group_name_H-M "P N M A"
_symmetry_group_IT_number 62
_symmetry_cell_setting 'orthorhombic'
loop_
_space_group_symop_operation_xyz
x,y,z
1/2-x,-y,1/2+z
1/2+x,1/2-y,1/2-z
-x,1/2+y,-z
-x,-y,-z
1/2+x,y,1/2-z
1/2-x,1/2+y,1/2+z
x,1/2-y,z
loop_
_atom_site_type_symbol
_atom_site_label
_atom_site_fract_x
_atom_site_fract_y
_atom_site_fract_z
Si Si1 0.577410 0.250000 0.512695
Si Si2 0.148511 0.916580 0.284863
Si Si3 0.144085 0.911979 0.701233
Si Si4 0.764287 0.454809 0.584720
Si Si5 0.260931 0.250000 0.472965
Si Si6 0.795180 0.250000 0.410384
Si Si7 0.027082 0.750000 0.474302
O O1 0.628708 0.388264 0.550066
O O2 0.408616 0.250000 0.508308
O O3 0.644980 0.250000 0.445833
O O4 0.122489 0.750000 0.266921
O O5 0.245559 0.923974 0.344640
O O6 0.230449 0.000017 0.232759
O O7 0.999385 0.995995 0.295411
O O8 0.123059 0.750000 0.729371
O O9 0.191343 0.892284 0.631462
O O10 0.760066 0.621671 0.573010
O O11 0.912346 0.390213 0.559212
O O12 0.144237 0.250000 0.526546
O O13 0.925854 0.250000 0.456495
#
# Coordination Sequence:
#
# PCOD8253605 Si02
#       7
#     4   8   8   8   4   4   4
#     4  10  22  46  61  98 142 164 218 276 335 396
#     4  12  23  45  67  97 136 176 224 274 343 393
#     4  10  24  41  69  96 130 174 227 276 325 394
#     4  10  23  41  65  94 137 175 213 273 327 407
#     4  12  22  33  70  96 128 179 220 270 332 386
#     4   8  20  41  68  90 134 171 222 268 326 394
#     4  10  20  44  63  94 138 168 222 264 323 408
#
# _framework density 20.624687999999999
#
# number of rings (size 3 to 8) (size 9 to 14) (size 15 to 20)
#    0.600    1.200    2.000    3.600    2.800    3.200 
#    0.000    2.000    8.800    0.000    0.000    0.000 
#    0.000    0.000    0.000    0.000    0.000    0.000 
#
# Total GULP energy -495896.394462 kJ/mol
# GULP energy per Si atom -12397.409862 kJ/mol
# Density = 2.057775 g / cm^3
# Si number density = 20.624688 Si / 1000 Ang^3
#
#
#
# Elastic Constant Matrix: (Units=GPa)
#
#
# Indices 1 2 3 4 5 6 
#
# 1 129.9841 32.9579 34.6512 0.0000 0.0000 0.0000
# 2 32.9579 165.9781 31.1223 0.0000 0.0000 0.0000
# 3 34.6512 31.1223 103.9364 0.0000 0.0000 0.0000
# 4 0.0000 0.0000 0.0000 26.9622 0.0000 0.0000
# 5 0.0000 0.0000 0.0000 0.0000 10.4112 0.0000
# 6 0.0000 0.0000 0.0000 0.0000 0.0000 25.2269
#
#
#
# Elastic Compliance Matrix: (Units=1/GPa)
#
#
# Indices 1 2 3 4 5 6 
#
# 1 0.008682 -0.001252 -0.002520 0.000000 0.000000 0.000000
# 2 -0.001252 0.006564 -0.001548 0.000000 0.000000 0.000000
# 3 -0.002520 -0.001548 0.010925 0.000000 0.000000 0.000000
# 4 0.000000 0.000000 0.000000 0.037089 0.000000 0.000000
# 5 0.000000 0.000000 0.000000 0.000000 0.096051 0.000000
# 6 0.000000 0.000000 0.000000 0.000000 0.000000 0.039640
#
#
# Mechanical properties :
#
#
# Convention : Reuss Voigt Hill
#
# Bulk Modulus (GPa) = 64.38365 66.37346 65.37856
# Shear Modulus (GPa) = 23.28103 32.59787 27.93945
#
# Velocity S-wave (km/s) = 3.36340 3.97990 3.68456
# Velocity P-wave (km/s) = 6.80939 7.30554 7.06182
#
# Compressibility (1/GPa) = 0.01553189
#
# Stress axis : x y z
#
# Youngs Moduli (GPa) = 115.17657 152.35314 91.53377
#
# Poissons Ratio (x) = 0.19068 0.23065
# Poissons Ratio (y) = 0.14415 0.14171
# Poissons Ratio (z) = 0.29023 0.23587
#
# Static dielectric constant tensor:
#      x y z
#    x 3.625770 0.000000 0.000000 
#    y 0.000000 3.713600 0.000000 
#    z 0.000000 0.000000 3.709270 
# 
# 
# High freq. dielectric constant tensor:
#      x y z
#    x 1.798380 0.000000 0.000000 
#    y 0.000000 1.821130 0.000000 
#    z 0.000000 0.000000 1.800840 
# 
# From -- ./inp_files/28660.got.cif
#   From: 2010.03.12/outbox.cif.g09.slc.cpg/sg62_15_cif.got.tgz:28660.got - 2010.04.10 19:12:36.
