data_PCOD8253449
_publ_section_title
;
Structure prediction by ZEFSAII (Michael W. Deem and Ramdas Pophale) SiO2 
 PCOD8253449
Probable space group: P N M A
;
_chemical_formula_sum "Si O2"
_cell_formula_units_Z 32
_cell_length_a 8.664787
_cell_length_b 18.350353
_cell_length_c 10.166057
_cell_angle_alpha 90.000000
_cell_angle_beta 90.000000
_cell_angle_gamma 90.000000
_cell_volume 1616.422380
_symmetry_space_group_name_H-M "P N M A"
_symmetry_group_IT_number 62
_symmetry_cell_setting 'orthorhombic'
loop_
_space_group_symop_operation_xyz
x,y,z
1/2-x,-y,1/2+z
1/2+x,1/2-y,1/2-z
-x,1/2+y,-z
-x,-y,-z
1/2+x,y,1/2-z
1/2-x,1/2+y,1/2+z
x,1/2-y,z
loop_
_atom_site_type_symbol
_atom_site_label
_atom_site_fract_x
_atom_site_fract_y
_atom_site_fract_z
Si Si1 0.071229 0.976100 0.865342
Si Si2 0.885481 0.331637 0.446438
Si Si3 0.422953 0.667539 0.708205
Si Si4 0.405381 0.033512 0.882860
O O1 0.036766 0.890441 0.857541
O O2 0.253017 0.986614 0.861919
O O3 0.001331 0.027136 0.750731
O O4 0.000000 0.000000 0.000000
O O5 0.867612 0.250000 0.501624
O O6 0.751758 0.349016 0.337745
O O7 0.871784 0.382911 0.574714
O O8 0.047912 0.341157 0.366829
O O9 0.471467 0.750000 0.666897
O O10 0.500000 0.000000 0.000000
#
# Coordination Sequence:
#
# PCOD8253449 Si02
#       4
#     8   8   8   8
#     4  12  23  40  63  96 126 164 208 257 322 373
#     4  10  21  39  62  93 127 166 209 262 318 374
#     4  10  20  38  64  93 124 159 209 259 310 373
#     4  12  24  41  63  91 129 163 211 265 311 381
#
# _framework density 19.796806
#
# number of rings (size 3 to 8) (size 9 to 14) (size 15 to 20)
#    0.000    1.000    5.000    3.000    0.000    0.000 
#    0.000    2.500    0.000    0.000    0.000    0.000 
#    0.000    0.000    0.000    0.000    0.000    0.000 
#
# Total GULP energy -396601.505566 kJ/mol
# GULP energy per Si atom -12393.797049 kJ/mol
# Density = 1.975175 g / cm^3
# Si number density = 19.796806 Si / 1000 Ang^3
#
#
#
# Elastic Constant Matrix: (Units=GPa)
#
#
# Indices 1 2 3 4 5 6 
#
# 1 109.4791 33.4443 45.6283 0.0000 0.0000 0.0000
# 2 33.4443 130.5742 52.8617 0.0000 0.0000 0.0000
# 3 45.6283 52.8617 126.7290 0.0000 0.0000 0.0000
# 4 0.0000 0.0000 0.0000 39.1713 0.0000 0.0000
# 5 0.0000 0.0000 0.0000 0.0000 37.9027 0.0000
# 6 0.0000 0.0000 0.0000 0.0000 0.0000 25.5821
#
#
#
# Elastic Compliance Matrix: (Units=1/GPa)
#
#
# Indices 1 2 3 4 5 6 
#
# 1 0.010972 -0.001457 -0.003343 0.000000 0.000000 0.000000
# 2 -0.001457 0.009408 -0.003400 0.000000 0.000000 0.000000
# 3 -0.003343 -0.003400 0.010513 0.000000 0.000000 0.000000
# 4 0.000000 0.000000 0.000000 0.025529 0.000000 0.000000
# 5 0.000000 0.000000 0.000000 0.000000 0.026383 0.000000
# 6 0.000000 0.000000 0.000000 0.000000 0.000000 0.039090
#
#
# Mechanical properties :
#
#
# Convention : Reuss Voigt Hill
#
# Bulk Modulus (GPa) = 68.99492 70.07231 69.53362
# Shear Modulus (GPa) = 34.93435 36.18775 35.56105
#
# Velocity S-wave (km/s) = 4.20533 4.28010 4.24288
# Velocity P-wave (km/s) = 7.64898 7.73940 7.69432
#
# Compressibility (1/GPa) = 0.01449382
#
# Stress axis : x y z
#
# Youngs Moduli (GPa) = 91.13699 106.29225 95.12477
#
# Poissons Ratio (x) = 0.15488 0.31798
# Poissons Ratio (y) = 0.13280 0.32339
# Poissons Ratio (z) = 0.30465 0.36136
#
# Static dielectric constant tensor:
#      x y z
#    x 10.193310 0.000000 0.000000 
#    y 0.000000 3.839920 0.000000 
#    z 0.000000 0.000000 3.358410 
# 
# 
# High freq. dielectric constant tensor:
#      x y z
#    x 1.779840 0.000000 0.000000 
#    y 0.000000 1.788700 0.000000 
#    z 0.000000 0.000000 1.750060 
# 
# From -- ./inp_files/4112.got.cif
#   From: 2010.03.12/outbox.cif.g09.slc.cpg/sg62_3_cif.got.tgz:4112.got - 2010.04.10 19:12:36.
