data_PCOD8253491
_publ_section_title
;
Structure prediction by ZEFSAII (Michael W. Deem and Ramdas Pophale) SiO2 
 PCOD8253491
Probable space group: P N M A
;
_chemical_formula_sum "Si O2"
_cell_formula_units_Z 56
_cell_length_a 14.128114
_cell_length_b 31.449164
_cell_length_c 6.588091
_cell_angle_alpha 90.000000
_cell_angle_beta 90.000000
_cell_angle_gamma 90.000000
_cell_volume 2927.203294
_symmetry_space_group_name_H-M "P N M A"
_symmetry_group_IT_number 62
_symmetry_cell_setting 'orthorhombic'
loop_
_space_group_symop_operation_xyz
x,y,z
1/2-x,-y,1/2+z
1/2+x,1/2-y,1/2-z
-x,1/2+y,-z
-x,-y,-z
1/2+x,y,1/2-z
1/2-x,1/2+y,1/2+z
x,1/2-y,z
loop_
_atom_site_type_symbol
_atom_site_label
_atom_site_fract_x
_atom_site_fract_y
_atom_site_fract_z
Si Si1 0.123725 0.298370 0.292460
Si Si2 0.729897 0.652750 0.443390
Si Si3 0.086616 0.798709 0.791752
Si Si4 0.970820 0.473044 0.194062
Si Si5 0.641595 0.005106 0.078006
Si Si6 0.682921 0.943059 0.437652
Si Si7 0.733652 0.796235 0.054934
O O1 0.126379 0.250000 0.380877
O O2 0.177021 0.330232 0.443287
O O3 0.017936 0.315034 0.259217
O O4 0.171107 0.299432 0.073626
O O5 0.633746 0.670998 0.540811
O O6 0.732549 0.602246 0.424286
O O7 0.734554 0.666444 0.212886
O O8 0.086590 0.750000 0.872988
O O9 0.142829 0.802352 0.584289
O O10 0.904062 0.496211 0.359013
O O11 0.070091 0.461552 0.305951
O O12 0.907127 0.436143 0.090569
O O13 0.000000 0.500000 0.000000
O O14 0.652744 0.962263 0.217232
O O15 0.744165 0.025155 0.047915
O O16 0.729167 0.750000 0.162551
#
# Coordination Sequence:
#
# PCOD8253491 Si02
#       7
#     8   8   8   8   8   8   8
#     4   9  19  37  58  82 116 155 189 225 277 338
#     4  11  22  34  54  87 116 146 189 240 281 334
#     4   9  19  37  59  81 114 156 190 229 283 338
#     4   9  20  39  62  84 105 141 192 238 283 347
#     4  10  20  39  61  83 110 147 194 233 294 358
#     4  11  22  37  60  83 113 152 190 240 295 344
#     4   9  18  35  56  80 111 145 184 229 280 335
#
# _framework density 19.130887999999999
#
# number of rings (size 3 to 8) (size 9 to 14) (size 15 to 20)
#    0.000    2.286    1.429    2.143    0.000    4.571 
#    0.000   11.429    0.000    0.000    0.000    0.000 
#    0.000    0.000    0.000    0.000    0.000    0.000 
#
# Total GULP energy -693850.862959 kJ/mol
# GULP energy per Si atom -12390.193981 kJ/mol
# Density = 1.908735 g / cm^3
# Si number density = 19.130888 Si / 1000 Ang^3
#
#
#
# Elastic Constant Matrix: (Units=GPa)
#
#
# Indices 1 2 3 4 5 6 
#
# 1 97.6002 8.7052 24.0095 0.0000 0.0000 0.0000
# 2 8.7052 69.3361 30.5835 0.0000 0.0000 0.0000
# 3 24.0095 30.5835 92.0953 0.0000 0.0000 0.0000
# 4 0.0000 0.0000 0.0000 3.7353 0.0000 0.0000
# 5 0.0000 0.0000 0.0000 0.0000 21.6116 0.0000
# 6 0.0000 0.0000 0.0000 0.0000 0.0000 18.6638
#
#
#
# Elastic Compliance Matrix: (Units=1/GPa)
#
#
# Indices 1 2 3 4 5 6 
#
# 1 0.010949 -0.000135 -0.002809 0.000000 0.000000 0.000000
# 2 -0.000135 0.016899 -0.005577 0.000000 0.000000 0.000000
# 3 -0.002809 -0.005577 0.013443 0.000000 0.000000 0.000000
# 4 0.000000 0.000000 0.000000 0.267718 0.000000 0.000000
# 5 0.000000 0.000000 0.000000 0.000000 0.046271 0.000000
# 6 0.000000 0.000000 0.000000 0.000000 0.000000 0.053580
#
#
# Mechanical properties :
#
#
# Convention : Reuss Voigt Hill
#
# Bulk Modulus (GPa) = 41.24074 42.84756 42.04415
# Shear Modulus (GPa) = 11.52110 21.85104 16.68607
#
# Velocity S-wave (km/s) = 2.45669 3.38329 2.95652
# Velocity P-wave (km/s) = 5.44528 6.14068 5.80340
#
# Compressibility (1/GPa) = 0.02424787
#
# Stress axis : x y z
#
# Youngs Moduli (GPa) = 91.33186 59.17393 74.38985
#
# Poissons Ratio (x) = 0.00801 0.20900
# Poissons Ratio (y) = 0.01237 0.41485
# Poissons Ratio (z) = 0.25659 0.33000
#
# Static dielectric constant tensor:
#      x y z
#    x 4.018720 0.000000 0.000000 
#    y 0.000000 3.180520 0.000000 
#    z 0.000000 0.000000 3.575960 
# 
# 
# High freq. dielectric constant tensor:
#      x y z
#    x 1.761930 0.000000 0.000000 
#    y 0.000000 1.706650 0.000000 
#    z 0.000000 0.000000 1.751190 
# 
# From -- ./inp_files/1284.got.cif
#   From: 2010.03.12/outbox.cif.g09.slc.cpg/sg62_1_cif.got.tgz:1284.got - 2010.04.10 19:12:36.
