data_PCOD8253186
_publ_section_title
;
Structure prediction by ZEFSAII (Michael W. Deem and Ramdas Pophale) SiO2 
 PCOD8253186
Probable space group: P N M A
;
_chemical_formula_sum "Si O2"
_cell_formula_units_Z 64
_cell_length_a 13.008445
_cell_length_b 9.103870
_cell_length_c 27.095834
_cell_angle_alpha 90.000000
_cell_angle_beta 90.000000
_cell_angle_gamma 90.000000
_cell_volume 3208.883540
_symmetry_space_group_name_H-M "P N M A"
_symmetry_group_IT_number 62
_symmetry_cell_setting 'orthorhombic'
loop_
_space_group_symop_operation_xyz
x,y,z
1/2-x,-y,1/2+z
1/2+x,1/2-y,1/2-z
-x,1/2+y,-z
-x,-y,-z
1/2+x,y,1/2-z
1/2-x,1/2+y,1/2+z
x,1/2-y,z
loop_
_atom_site_type_symbol
_atom_site_label
_atom_site_fract_x
_atom_site_fract_y
_atom_site_fract_z
Si Si1 0.213418 0.577059 0.443413
Si Si2 0.444999 0.587325 0.204619
Si Si3 0.994900 0.923350 0.404888
Si Si4 0.143525 0.586791 0.235115
Si Si5 0.125596 0.578986 0.122168
Si Si6 0.816566 0.421755 0.224123
Si Si7 0.392201 0.922656 0.371810
Si Si8 0.793073 0.076192 0.444282
O O1 0.210163 0.750000 0.436684
O O2 0.308351 0.515724 0.410823
O O3 0.233477 0.531946 0.499691
O O4 0.103346 0.514300 0.425282
O O5 0.396170 0.750000 0.198198
O O6 0.492854 0.536956 0.152908
O O7 0.526662 0.590103 0.248306
O O8 0.358915 0.473172 0.222256
O O9 0.983999 0.750000 0.414767
O O10 0.902149 0.005156 0.431669
O O11 0.191674 0.750000 0.240724
O O12 0.146909 0.534284 0.178624
O O13 0.198944 0.474929 0.272856
O O14 0.149809 0.750000 0.113360
O O15 0.200737 0.483143 0.088905
O O16 0.006965 0.543749 0.108222
O O17 0.825060 0.250000 0.217784
O O18 0.876787 0.495824 0.179636
O O19 0.378763 0.750000 0.362022
O O20 0.801928 0.250000 0.437340
#
# Coordination Sequence:
#
# PCOD8253186 Si02
#       8
#     8   8   8   8   8   8   8   8
#     4   9  20  39  64  89 113 151 201 254 302 350
#     4  10  20  37  60  84 108 149 202 241 276 332
#     4  10  20  37  62  89 116 151 203 253 293 349
#     4  10  20  37  59  82 110 152 202 240 275 334
#     4  10  21  38  62  88 114 153 204 249 288 343
#     4  12  24  35  53  86 124 155 183 231 300 358
#     4  10  20  41  66  85 112 155 208 251 286 344
#     4  11  23  38  58  87 123 158 192 242 313 364
#
# _framework density 19.944631999999999
#
# number of rings (size 3 to 8) (size 9 to 14) (size 15 to 20)
#    0.000    1.750    1.250    3.375    0.000    7.500 
#    0.000    3.750    0.000    0.000    0.000    0.000 
#    0.000    0.000    0.000    0.000    0.000    0.000 
#
# Total GULP energy -793557.119928 kJ/mol
# GULP energy per Si atom -12399.329999 kJ/mol
# Density = 1.989924 g / cm^3
# Si number density = 19.944632 Si / 1000 Ang^3
#
#
#
# Elastic Constant Matrix: (Units=GPa)
#
#
# Indices 1 2 3 4 5 6 
#
# 1 106.6764 32.1576 28.0129 0.0000 0.0000 0.0000
# 2 32.1576 63.3101 29.5362 0.0000 0.0000 0.0000
# 3 28.0129 29.5362 90.8131 0.0000 0.0000 0.0000
# 4 0.0000 0.0000 0.0000 20.6752 0.0000 0.0000
# 5 0.0000 0.0000 0.0000 0.0000 38.3156 0.0000
# 6 0.0000 0.0000 0.0000 0.0000 0.0000 12.3610
#
#
#
# Elastic Compliance Matrix: (Units=1/GPa)
#
#
# Indices 1 2 3 4 5 6 
#
# 1 0.011345 -0.004869 -0.001916 0.000000 0.000000 0.000000
# 2 -0.004869 0.020710 -0.005234 0.000000 0.000000 0.000000
# 3 -0.001916 -0.005234 0.013305 0.000000 0.000000 0.000000
# 4 0.000000 0.000000 0.000000 0.048367 0.000000 0.000000
# 5 0.000000 0.000000 0.000000 0.000000 0.026099 0.000000
# 6 0.000000 0.000000 0.000000 0.000000 0.000000 0.080900
#
#
# Mechanical properties :
#
#
# Convention : Reuss Voigt Hill
#
# Bulk Modulus (GPa) = 46.89845 48.91255 47.90550
# Shear Modulus (GPa) = 21.56374 25.67655 23.62015
#
# Velocity S-wave (km/s) = 3.29170 3.59192 3.44508
# Velocity P-wave (km/s) = 6.16542 6.46374 6.31634
#
# Compressibility (1/GPa) = 0.02132266
#
# Stress axis : x y z
#
# Youngs Moduli (GPa) = 88.14500 48.28581 75.15991
#
# Poissons Ratio (x) = 0.23509 0.14401
# Poissons Ratio (y) = 0.42914 0.39338
# Poissons Ratio (z) = 0.16889 0.25273
#
# Static dielectric constant tensor:
#      x y z
#    x 3.821580 0.000000 0.000000 
#    y 0.000000 3.370060 0.000000 
#    z 0.000000 0.000000 3.712030 
# 
# 
# High freq. dielectric constant tensor:
#      x y z
#    x 1.793870 0.000000 0.000000 
#    y 0.000000 1.748420 0.000000 
#    z 0.000000 0.000000 1.782320 
# 
# From -- ./inp_files/32462.got.cif
#   From: 2010.03.12/outbox.cif.g09.slc.cpg/sg62_17_cif.got.tgz:32462.got - 2010.04.10 19:12:36.
