data_PCOD8253102
_publ_section_title
;
Structure prediction by ZEFSAII (Michael W. Deem and Ramdas Pophale) SiO2 
 PCOD8253102
Probable space group: P N M A
;
_chemical_formula_sum "Si O2"
_cell_formula_units_Z 48
_cell_length_a 19.118461
_cell_length_b 8.811239
_cell_length_c 15.038866
_cell_angle_alpha 90.000000
_cell_angle_beta 90.000000
_cell_angle_gamma 90.000000
_cell_volume 2533.407200
_symmetry_space_group_name_H-M "P N M A"
_symmetry_group_IT_number 62
_symmetry_cell_setting 'orthorhombic'
loop_
_space_group_symop_operation_xyz
x,y,z
1/2-x,-y,1/2+z
1/2+x,1/2-y,1/2-z
-x,1/2+y,-z
-x,-y,-z
1/2+x,y,1/2-z
1/2-x,1/2+y,1/2+z
x,1/2-y,z
loop_
_atom_site_type_symbol
_atom_site_label
_atom_site_fract_x
_atom_site_fract_y
_atom_site_fract_z
Si Si1 0.170491 0.930046 0.877562
Si Si2 0.172423 0.429569 0.375569
Si Si3 0.576727 0.427747 0.769397
Si Si4 0.072272 0.428445 0.528562
Si Si5 0.573789 0.425115 0.479311
Si Si6 0.431973 0.574838 0.724360
O O1 0.168308 0.750000 0.884132
O O2 0.249290 0.995748 0.873457
O O3 0.131824 0.980276 0.788493
O O4 0.134426 0.996095 0.964977
O O5 0.176860 0.250000 0.377519
O O6 0.133270 0.490061 0.463883
O O7 0.130323 0.482746 0.288021
O O8 0.587109 0.250000 0.752946
O O9 0.591313 0.474156 0.871108
O O10 0.498732 0.471098 0.741492
O O11 0.063320 0.250000 0.518478
O O12 0.000000 0.500000 0.500000
O O13 0.500000 0.500000 0.500000
O O14 0.568758 0.250000 0.506865
O O15 0.593720 0.445376 0.376354
O O16 0.451850 0.750000 0.744313
#
# Coordination Sequence:
#
# PCOD8253102 Si02
#       6
#     8   8   8   8   8   8
#     4  11  23  39  59  83 116 160 196 235 292 344
#     4   9  20  39  60  84 117 153 194 237 287 349
#     4  11  22  35  57  89 119 148 191 243 291 342
#     4  10  20  36  60  88 116 150 191 237 289 344
#     4  11  22  36  59  89 117 149 195 244 292 344
#     4  10  20  37  62  85 111 152 195 236 287 346
#
# _framework density 18.946815999999998
#
# number of rings (size 3 to 8) (size 9 to 14) (size 15 to 20)
#    0.000    1.667    3.333    1.500    0.000    2.667 
#    0.000    3.333    0.000    0.000    0.000    0.000 
#    0.000    0.000    0.000    0.000    0.000    0.000 
#
# Total GULP energy -595331.672207 kJ/mol
# GULP energy per Si atom -12402.743171 kJ/mol
# Density = 1.890369 g / cm^3
# Si number density = 18.946816 Si / 1000 Ang^3
#
#
#
# Elastic Constant Matrix: (Units=GPa)
#
#
# Indices 1 2 3 4 5 6 
#
# 1 173.1498 38.0037 81.4061 0.0000 0.0000 0.0000
# 2 38.0037 62.7205 43.1383 0.0000 0.0000 0.0000
# 3 81.4061 43.1383 162.2078 0.0000 0.0000 0.0000
# 4 0.0000 0.0000 0.0000 27.9289 0.0000 0.0000
# 5 0.0000 0.0000 0.0000 0.0000 33.9847 0.0000
# 6 0.0000 0.0000 0.0000 0.0000 0.0000 20.1448
#
#
#
# Elastic Compliance Matrix: (Units=1/GPa)
#
#
# Indices 1 2 3 4 5 6 
#
# 1 0.007869 -0.002511 -0.003281 0.000000 0.000000 0.000000
# 2 -0.002511 0.020314 -0.004142 0.000000 0.000000 0.000000
# 3 -0.003281 -0.004142 0.008913 0.000000 0.000000 0.000000
# 4 0.000000 0.000000 0.000000 0.035805 0.000000 0.000000
# 5 0.000000 0.000000 0.000000 0.000000 0.029425 0.000000
# 6 0.000000 0.000000 0.000000 0.000000 0.000000 0.049641
#
#
# Mechanical properties :
#
#
# Convention : Reuss Voigt Hill
#
# Bulk Modulus (GPa) = 58.04769 80.35270 69.20019
# Shear Modulus (GPa) = 28.15631 32.11366 30.13498
#
# Velocity S-wave (km/s) = 3.85914 4.12143 3.99244
# Velocity P-wave (km/s) = 7.11062 8.07155 7.60628
#
# Compressibility (1/GPa) = 0.01722722
#
# Stress axis : x y z
#
# Youngs Moduli (GPa) = 127.07613 49.22636 112.19102
#
# Poissons Ratio (x) = 0.12362 0.36815
# Poissons Ratio (y) = 0.31912 0.46472
# Poissons Ratio (z) = 0.41700 0.20391
#
# Static dielectric constant tensor:
#      x y z
#    x 3.028280 0.000000 0.000000 
#    y 0.000000 3.400300 0.000000 
#    z 0.000000 0.000000 4.509700 
# 
# 
# High freq. dielectric constant tensor:
#      x y z
#    x 1.734070 0.000000 0.000000 
#    y 0.000000 1.726070 0.000000 
#    z 0.000000 0.000000 1.756610 
# 
# From -- ./inp_files/19594.got.cif
#   From: 2010.03.12/outbox.cif.g09.slc.cpg/sg62_10_cif.got.tgz:19594.got - 2010.04.10 19:12:36.
