data_PCOD8253925
_publ_section_title
;
Structure prediction by ZEFSAII (Michael W. Deem and Ramdas Pophale) SiO2 
 PCOD8253925
Probable space group: P N M A
;
_chemical_formula_sum "Si O2"
_cell_formula_units_Z 64
_cell_length_a 30.703005
_cell_length_b 8.807433
_cell_length_c 11.999582
_cell_angle_alpha 90.000000
_cell_angle_beta 90.000000
_cell_angle_gamma 90.000000
_cell_volume 3244.862880
_symmetry_space_group_name_H-M "P N M A"
_symmetry_group_IT_number 62
_symmetry_cell_setting 'orthorhombic'
loop_
_space_group_symop_operation_xyz
x,y,z
1/2-x,-y,1/2+z
1/2+x,1/2-y,1/2-z
-x,1/2+y,-z
-x,-y,-z
1/2+x,y,1/2-z
1/2-x,1/2+y,1/2+z
x,1/2-y,z
loop_
_atom_site_type_symbol
_atom_site_label
_atom_site_fract_x
_atom_site_fract_y
_atom_site_fract_z
Si Si1 0.551338 0.575172 0.250845
Si Si2 0.705903 0.929953 0.713887
Si Si3 0.197594 0.069889 0.236876
Si Si4 0.127650 0.070032 0.649574
Si Si5 0.122886 0.070198 0.397317
Si Si6 0.331547 0.570783 0.496130
Si Si7 0.577380 0.571802 0.498867
Si Si8 0.044926 0.426435 0.793165
O O1 0.563976 0.750000 0.235042
O O2 0.578563 0.479454 0.162542
O O3 0.561414 0.522744 0.376999
O O4 0.500262 0.546210 0.227463
O O5 0.702524 0.750000 0.719432
O O6 0.753507 0.990448 0.748734
O O7 0.670345 0.999147 0.796113
O O8 0.700381 0.986487 0.588267
O O9 0.196985 0.250000 0.241099
O O10 0.165178 0.005108 0.331929
O O11 0.180013 0.011332 0.118767
O O12 0.132584 0.250000 0.653142
O O13 0.123981 0.008405 0.523371
O O14 0.084332 0.017635 0.714708
O O15 0.123622 0.250000 0.397090
O O16 0.325915 0.750000 0.482354
O O17 0.380356 0.523944 0.467182
O O18 0.587052 0.750000 0.505473
O O19 0.542554 0.523706 0.592789
O O20 0.049555 0.250000 0.825409
#
# Coordination Sequence:
#
# PCOD8253925 Si02
#       8
#     8   8   8   8   8   8   8   8
#     4  10  22  38  57  85 119 152 191 244 296 340
#     4  11  23  39  60  88 120 151 192 245 290 338
#     4   9  21  39  59  84 116 152 189 236 292 340
#     4  10  22  39  60  84 114 155 199 236 286 351
#     4  10  21  40  61  82 112 154 198 239 285 349
#     4  11  21  38  62  86 116 154 191 232 291 350
#     4  11  21  35  57  88 118 148 194 243 289 341
#     4  10  21  38  58  83 119 157 192 237 293 351
#
# _framework density 19.723483000000002
#
# number of rings (size 3 to 8) (size 9 to 14) (size 15 to 20)
#    0.000    1.750    2.500    1.500    1.750    2.000 
#    0.000    3.125    0.000    0.000    0.000    0.000 
#    0.000    0.000    0.000    0.000    0.000    0.000 
#
# Total GULP energy -793763.736273 kJ/mol
# GULP energy per Si atom -12402.558379 kJ/mol
# Density = 1.967859 g / cm^3
# Si number density = 19.723483 Si / 1000 Ang^3
#
#
#
# Elastic Constant Matrix: (Units=GPa)
#
#
# Indices 1 2 3 4 5 6 
#
# 1 126.2413 24.4688 52.1100 0.0000 0.0000 0.0000
# 2 24.4688 21.9268 26.9001 0.0000 0.0000 0.0000
# 3 52.1100 26.9001 144.7302 0.0000 0.0000 0.0000
# 4 0.0000 0.0000 0.0000 24.4321 0.0000 0.0000
# 5 0.0000 0.0000 0.0000 0.0000 27.5761 0.0000
# 6 0.0000 0.0000 0.0000 0.0000 0.0000 28.3596
#
#
#
# Elastic Compliance Matrix: (Units=1/GPa)
#
#
# Indices 1 2 3 4 5 6 
#
# 1 0.010574 -0.009235 -0.002091 0.000000 0.000000 0.000000
# 2 -0.009235 0.067143 -0.009154 0.000000 0.000000 0.000000
# 3 -0.002091 -0.009154 0.009364 0.000000 0.000000 0.000000
# 4 0.000000 0.000000 0.000000 0.040930 0.000000 0.000000
# 5 0.000000 0.000000 0.000000 0.000000 0.036263 0.000000
# 6 0.000000 0.000000 0.000000 0.000000 0.000000 0.035261
#
#
# Mechanical properties :
#
#
# Convention : Reuss Voigt Hill
#
# Bulk Modulus (GPa) = 21.68251 55.53956 38.61104
# Shear Modulus (GPa) = 19.54123 28.70153 24.12138
#
# Velocity S-wave (km/s) = 3.15105 3.81884 3.50090
# Velocity P-wave (km/s) = 4.92503 6.90398 5.99670
#
# Compressibility (1/GPa) = 0.04612012
#
# Stress axis : x y z
#
# Youngs Moduli (GPa) = 94.56788 14.89365 106.79596
#
# Poissons Ratio (x) = 0.13755 0.22329
# Poissons Ratio (y) = 0.87336 0.97764
# Poissons Ratio (z) = 0.19772 0.13634
#
# Static dielectric constant tensor:
#      x y z
#    x 3.760690 0.000000 0.000000 
#    y 0.000000 3.364000 0.000000 
#    z 0.000000 0.000000 3.767280 
# 
# 
# High freq. dielectric constant tensor:
#      x y z
#    x 1.779470 0.000000 0.000000 
#    y 0.000000 1.750570 0.000000 
#    z 0.000000 0.000000 1.775900 
# 
# From -- ./inp_files/15871.got.cif
#   From: 2010.03.12/outbox.cif.g09.slc.cpg/sg62_8_cif.got.tgz:15871.got - 2010.04.10 19:12:36.
