data_PCOD8253510
_publ_section_title
;
Structure prediction by ZEFSAII (Michael W. Deem and Ramdas Pophale) SiO2 
 PCOD8253510
Probable space group: P N M A
;
_chemical_formula_sum "Si O2"
_cell_formula_units_Z 48
_cell_length_a 16.498804
_cell_length_b 15.722395
_cell_length_c 8.810374
_cell_angle_alpha 90.000000
_cell_angle_beta 90.000000
_cell_angle_gamma 90.000000
_cell_volume 2285.417302
_symmetry_space_group_name_H-M "P N M A"
_symmetry_group_IT_number 62
_symmetry_cell_setting 'orthorhombic'
loop_
_space_group_symop_operation_xyz
x,y,z
1/2-x,-y,1/2+z
1/2+x,1/2-y,1/2-z
-x,1/2+y,-z
-x,-y,-z
1/2+x,y,1/2-z
1/2-x,1/2+y,1/2+z
x,1/2-y,z
loop_
_atom_site_type_symbol
_atom_site_label
_atom_site_fract_x
_atom_site_fract_y
_atom_site_fract_z
Si Si1 0.595049 0.250000 0.662717
Si Si2 0.354441 0.413544 0.895078
Si Si3 0.331824 0.922342 0.383788
Si Si4 0.107620 0.750000 0.863105
Si Si5 0.073877 0.250000 0.194588
Si Si6 0.083746 0.432105 0.200876
Si Si7 0.897843 0.420790 0.270547
Si Si8 0.586898 0.750000 0.279939
O O1 0.642859 0.336075 0.705505
O O2 0.585866 0.250000 0.483971
O O3 0.509258 0.250000 0.748759
O O4 0.260251 0.413477 0.937803
O O5 0.376290 0.499059 0.807474
O O6 0.374542 0.333395 0.791631
O O7 0.405943 0.409033 0.048991
O O8 0.387815 0.943813 0.528044
O O9 0.340881 0.998758 0.264266
O O10 0.147155 0.837897 0.802950
O O11 0.021578 0.750000 0.776824
O O12 0.106786 0.750000 0.043162
O O13 0.111187 0.337550 0.261646
O O14 0.986340 0.438115 0.199492
#
# Coordination Sequence:
#
# PCOD8253510 Si02
#       8
#     4   8   8   4   4   8   8   4
#     4   9  19  37  62  84 107 156 210 242 283 362
#     4  12  24  37  58  94 129 155 196 267 321 348
#     4  11  22  40  61  86 123 167 206 248 306 374
#     4   9  19  37  62  86 111 154 208 244 285 364
#     4   7  16  34  60  86 107 144 202 247 282 344
#     4  10  20  39  63  87 119 164 209 250 300 373
#     4  11  22  39  62  91 122 162 209 252 304 370
#     4  11  22  40  64  90 119 158 204 251 304 368
#
# _framework density 21.00273
#
# number of rings (size 3 to 8) (size 9 to 14) (size 15 to 20)
#    0.000    1.667    0.000    6.000    0.000    0.000 
#    0.000    3.333    0.000    2.000    0.000    0.000 
#    0.000    0.000    0.000    0.000    0.000    0.000 
#
# Total GULP energy -595130.373117 kJ/mol
# GULP energy per Si atom -12398.549440 kJ/mol
# Density = 2.095493 g / cm^3
# Si number density = 21.002730 Si / 1000 Ang^3
#
#
#
# Elastic Constant Matrix: (Units=GPa)
#
#
# Indices 1 2 3 4 5 6 
#
# 1 88.2419 37.2415 20.5153 0.0000 0.0000 0.0000
# 2 37.2415 196.7039 62.3473 0.0000 0.0000 0.0000
# 3 20.5153 62.3473 107.2191 0.0000 0.0000 0.0000
# 4 0.0000 0.0000 0.0000 245.1100 0.0000 0.0000
# 5 0.0000 0.0000 0.0000 0.0000 25.9651 0.0000
# 6 0.0000 0.0000 0.0000 0.0000 0.0000 -147.0228
#
#
#
# Elastic Compliance Matrix: (Units=1/GPa)
#
#
# Indices 1 2 3 4 5 6 
#
# 1 0.012450 -0.001964 -0.001240 0.000000 0.000000 0.000000
# 2 -0.001964 0.006542 -0.003429 0.000000 0.000000 0.000000
# 3 -0.001240 -0.003429 0.011558 0.000000 0.000000 0.000000
# 4 0.000000 0.000000 0.000000 0.004080 0.000000 0.000000
# 5 0.000000 0.000000 0.000000 0.000000 0.038513 0.000000
# 6 0.000000 0.000000 0.000000 0.000000 0.000000 -0.006802
#
#
# Mechanical properties :
#
#
# Convention : Reuss Voigt Hill
#
# Bulk Modulus (GPa) = 57.85553 70.26370 64.05962
# Shear Modulus (GPa) = 58.57016 42.94784 50.75900
#
# Velocity S-wave (km/s) = 5.28654 4.52693 4.92141
# Velocity P-wave (km/s) = 8.05418 7.80072 7.92846
#
# Compressibility (1/GPa) = 0.01728443
#
# Stress axis : x y z
#
# Youngs Moduli (GPa) = 80.32332 152.85053 86.52278
#
# Poissons Ratio (x) = 0.30020 0.10729
# Poissons Ratio (y) = 0.15776 0.29665
# Poissons Ratio (z) = 0.09961 0.52405
#
# Static dielectric constant tensor:
#      x y z
#    x 3.635360 0.000000 0.000000 
#    y 0.000000 4.905910 0.000000 
#    z 0.000000 0.000000 3.471950 
# 
# 
# High freq. dielectric constant tensor:
#      x y z
#    x 1.805010 0.000000 0.000000 
#    y 0.000000 1.854600 0.000000 
#    z 0.000000 0.000000 1.803640 
# 
# From -- ./inp_files/6581.got.cif
#   From: 2010.03.12/outbox.cif.g09.slc.cpg/sg62_4_cif.got.tgz:6581.got - 2010.04.10 19:12:36.
