data_PCOD8253531
_publ_section_title
;
Structure prediction by ZEFSAII (Michael W. Deem and Ramdas Pophale) SiO2 
 PCOD8253531
Probable space group: P N M A
;
_chemical_formula_sum "Si O2"
_cell_formula_units_Z 64
_cell_length_a 9.022308
_cell_length_b 23.216246
_cell_length_c 15.092117
_cell_angle_alpha 90.000000
_cell_angle_beta 90.000000
_cell_angle_gamma 90.000000
_cell_volume 3161.257037
_symmetry_space_group_name_H-M "P N M A"
_symmetry_group_IT_number 62
_symmetry_cell_setting 'orthorhombic'
loop_
_space_group_symop_operation_xyz
x,y,z
1/2-x,-y,1/2+z
1/2+x,1/2-y,1/2-z
-x,1/2+y,-z
-x,-y,-z
1/2+x,y,1/2-z
1/2-x,1/2+y,1/2+z
x,1/2-y,z
loop_
_atom_site_type_symbol
_atom_site_label
_atom_site_fract_x
_atom_site_fract_y
_atom_site_fract_z
Si Si1 0.788326 0.853102 0.164466
Si Si2 0.607492 0.685319 0.328514
Si Si3 0.705264 0.001257 0.424787
Si Si4 0.116809 0.022771 0.880411
Si Si5 0.226851 0.408264 0.332313
Si Si6 0.781955 0.622870 0.473477
Si Si7 0.116402 0.896245 0.660436
Si Si8 0.087722 0.681879 0.495064
O O1 0.673479 0.846181 0.243628
O O2 0.838284 0.918993 0.167835
O O3 0.930919 0.813424 0.180195
O O4 0.717527 0.833408 0.072330
O O5 0.668441 0.750000 0.332214
O O6 0.651966 0.653072 0.418830
O O7 0.654924 0.029953 0.516478
O O8 0.809250 0.045332 0.373870
O O9 0.558675 0.987892 0.367267
O O10 0.799585 0.943412 0.443176
O O11 0.208305 0.972407 0.833938
O O12 0.265275 0.374596 0.423190
O O13 0.302204 0.374897 0.250007
O O14 0.052100 0.411429 0.317695
O O15 0.936839 0.654603 0.456824
O O16 0.129065 0.844737 0.590114
O O17 0.068019 0.750000 0.505644
#
# Coordination Sequence:
#
# PCOD8253531 Si02
#       8
#     8   8   8   8   8   8   8   8
#     4  12  25  42  63  94 124 171 212 263 316 381
#     4  12  25  42  62  88 126 169 218 261 310 371
#     4  10  20  39  64  97 128 163 202 259 319 387
#     4  10  21  38  63  98 130 163 202 255 321 387
#     4  10  24  38  65  95 132 164 206 263 318 384
#     4  10  23  42  66  94 124 165 214 261 325 367
#     4  11  23  41  65  95 131 168 212 260 323 382
#     4  11  24  44  67  91 126 169 216 268 319 375
#
# _framework density 20.24511
#
# number of rings (size 3 to 8) (size 9 to 14) (size 15 to 20)
#    0.000    1.250    2.500    3.000    3.500    3.500 
#    0.000    3.125    0.000    0.000    0.000    0.000 
#    0.000    0.000    0.000    0.000    0.000    0.000 
#
# Total GULP energy -793952.726276 kJ/mol
# GULP energy per Si atom -12405.511348 kJ/mol
# Density = 2.019903 g / cm^3
# Si number density = 20.245110 Si / 1000 Ang^3
#
#
#
# Elastic Constant Matrix: (Units=GPa)
#
#
# Indices 1 2 3 4 5 6 
#
# 1 131.5344 45.4267 63.1148 0.0000 0.0000 0.0000
# 2 45.4267 108.3837 29.8830 0.0000 0.0000 0.0000
# 3 63.1148 29.8830 106.3211 0.0000 0.0000 0.0000
# 4 0.0000 0.0000 0.0000 22.1524 0.0000 0.0000
# 5 0.0000 0.0000 0.0000 0.0000 38.7905 0.0000
# 6 0.0000 0.0000 0.0000 0.0000 0.0000 29.2318
#
#
#
# Elastic Compliance Matrix: (Units=1/GPa)
#
#
# Indices 1 2 3 4 5 6 
#
# 1 0.011574 -0.003205 -0.005970 0.000000 0.000000 0.000000
# 2 -0.003205 0.010889 -0.001158 0.000000 0.000000 0.000000
# 3 -0.005970 -0.001158 0.013275 0.000000 0.000000 0.000000
# 4 0.000000 0.000000 0.000000 0.045142 0.000000 0.000000
# 5 0.000000 0.000000 0.000000 0.000000 0.025780 0.000000
# 6 0.000000 0.000000 0.000000 0.000000 0.000000 0.034209
#
#
# Mechanical properties :
#
#
# Convention : Reuss Voigt Hill
#
# Bulk Modulus (GPa) = 66.34696 69.23202 67.78949
# Shear Modulus (GPa) = 30.01961 31.88927 30.95444
#
# Velocity S-wave (km/s) = 3.85490 3.97313 3.91446
# Velocity P-wave (km/s) = 7.25649 7.43767 7.34764
#
# Compressibility (1/GPa) = 0.01507228
#
# Stress axis : x y z
#
# Youngs Moduli (GPa) = 86.40087 91.83531 75.33117
#
# Poissons Ratio (x) = 0.29433 0.44971
# Poissons Ratio (y) = 0.27692 0.08723
# Poissons Ratio (z) = 0.51579 0.10634
#
# Static dielectric constant tensor:
#      x y z
#    x 3.772220 0.000000 0.000000 
#    y 0.000000 3.583050 0.000000 
#    z 0.000000 0.000000 3.798800 
# 
# 
# High freq. dielectric constant tensor:
#      x y z
#    x 1.801150 0.000000 0.000000 
#    y 0.000000 1.782910 0.000000 
#    z 0.000000 0.000000 1.798530 
# 
# From -- ./inp_files/17366.got.cif
#   From: 2010.03.12/outbox.cif.g09.slc.cpg/sg62_9_cif.got.tgz:17366.got - 2010.04.10 19:12:36.
