data_PCOD8253318
_publ_section_title
;
Structure prediction by ZEFSAII (Michael W. Deem and Ramdas Pophale) SiO2 
 PCOD8253318
Probable space group: P N M A
;
_chemical_formula_sum "Si O2"
_cell_formula_units_Z 64
_cell_length_a 14.407784
_cell_length_b 8.785523
_cell_length_c 24.373174
_cell_angle_alpha 90.000000
_cell_angle_beta 90.000000
_cell_angle_gamma 90.000000
_cell_volume 3085.154359
_symmetry_space_group_name_H-M "P N M A"
_symmetry_group_IT_number 62
_symmetry_cell_setting 'orthorhombic'
loop_
_space_group_symop_operation_xyz
x,y,z
1/2-x,-y,1/2+z
1/2+x,1/2-y,1/2-z
-x,1/2+y,-z
-x,-y,-z
1/2+x,y,1/2-z
1/2-x,1/2+y,1/2+z
x,1/2-y,z
loop_
_atom_site_type_symbol
_atom_site_label
_atom_site_fract_x
_atom_site_fract_y
_atom_site_fract_z
Si Si1 0.941409 0.577526 0.866824
Si Si2 0.134311 0.929323 0.237556
Si Si3 0.830741 0.427323 0.268490
Si Si4 0.092078 0.571761 0.024603
Si Si5 0.984929 0.930502 0.669074
Si Si6 0.048207 0.925163 0.448183
Si Si7 0.649805 0.919096 0.644106
Si Si8 0.736300 0.421369 0.550586
O O1 0.905638 0.750000 0.858024
O O2 0.932418 0.484001 0.810911
O O3 0.884809 0.498801 0.915832
O O4 0.049163 0.576294 0.884351
O O5 0.129821 0.750000 0.244083
O O6 0.237567 0.979299 0.220044
O O7 0.099500 0.001651 0.294816
O O8 0.809652 0.250000 0.277858
O O9 0.862674 0.463922 0.207043
O O10 0.914585 0.482170 0.307653
O O11 0.077009 0.750000 0.030517
O O12 0.180884 0.538858 0.987128
O O13 0.000000 0.500000 0.000000
O O14 0.974914 0.750000 0.671262
O O15 0.978829 0.987133 0.606998
O O16 0.017696 0.750000 0.441943
O O17 0.156250 0.939289 0.461058
O O18 0.000000 0.000000 0.500000
O O19 0.692938 0.750000 0.638636
O O20 0.717534 0.037744 0.614266
O O21 0.701971 0.250000 0.539044
#
# Coordination Sequence:
#
# PCOD8253318 Si02
#       8
#     8   8   8   8   8   8   8   8
#     4  11  22  40  63  90 126 168 211 259 315 377
#     4  12  25  40  62  97 135 171 212 262 320 382
#     4  10  22  41  65  93 127 171 218 261 315 380
#     4  12  24  39  61  92 128 167 210 259 317 380
#     4  11  23  44  71  97 129 171 217 269 324 381
#     4  11  26  47  70  98 128 167 217 270 325 380
#     4  10  20  37  63  92 123 164 214 262 315 375
#     4  11  24  41  64  94 129 170 217 266 320 384
#
# _framework density 20.744503000000002
#
# number of rings (size 3 to 8) (size 9 to 14) (size 15 to 20)
#    0.000    1.000    2.500    4.500    0.000    7.000 
#    0.000    1.250    0.000    0.000    0.000    0.000 
#    0.000    0.000    0.000    0.000    0.000    0.000 
#
# Total GULP energy -793897.754083 kJ/mol
# GULP energy per Si atom -12404.652408 kJ/mol
# Density = 2.069729 g / cm^3
# Si number density = 20.744503 Si / 1000 Ang^3
#
#
#
# Elastic Constant Matrix: (Units=GPa)
#
#
# Indices 1 2 3 4 5 6 
#
# 1 83.4630 47.2177 29.3101 0.0000 0.0000 0.0000
# 2 47.2177 123.9895 46.6747 0.0000 0.0000 0.0000
# 3 29.3101 46.6747 122.9534 0.0000 0.0000 0.0000
# 4 0.0000 0.0000 0.0000 39.9739 0.0000 0.0000
# 5 0.0000 0.0000 0.0000 0.0000 33.5703 0.0000
# 6 0.0000 0.0000 0.0000 0.0000 0.0000 30.8656
#
#
#
# Elastic Compliance Matrix: (Units=1/GPa)
#
#
# Indices 1 2 3 4 5 6 
#
# 1 0.015572 -0.005288 -0.001705 0.000000 0.000000 0.000000
# 2 -0.005288 0.011206 -0.002993 0.000000 0.000000 0.000000
# 3 -0.001705 -0.002993 0.009676 0.000000 0.000000 0.000000
# 4 0.000000 0.000000 0.000000 0.025016 0.000000 0.000000
# 5 0.000000 0.000000 0.000000 0.000000 0.029788 0.000000
# 6 0.000000 0.000000 0.000000 0.000000 0.000000 0.032399
#
#
# Mechanical properties :
#
#
# Convention : Reuss Voigt Hill
#
# Bulk Modulus (GPa) = 60.67544 64.09011 62.38278
# Shear Modulus (GPa) = 33.52950 34.69554 34.11252
#
# Velocity S-wave (km/s) = 4.02469 4.09408 4.05953
# Velocity P-wave (km/s) = 7.13512 7.30142 7.21875
#
# Compressibility (1/GPa) = 0.01648113
#
# Stress axis : x y z
#
# Youngs Moduli (GPa) = 64.21886 89.23877 103.35102
#
# Poissons Ratio (x) = 0.47193 0.17616
# Poissons Ratio (y) = 0.33961 0.30935
# Poissons Ratio (z) = 0.10946 0.26711
#
# Static dielectric constant tensor:
#      x y z
#    x 3.732090 0.000000 0.000000 
#    y 0.000000 3.890970 0.000000 
#    z 0.000000 0.000000 3.792100 
# 
# 
# High freq. dielectric constant tensor:
#      x y z
#    x 1.809620 0.000000 0.000000 
#    y 0.000000 1.816830 0.000000 
#    z 0.000000 0.000000 1.820630 
# 
# From -- ./inp_files/29860.got.cif
#   From: 2010.03.12/outbox.cif.g09.slc.cpg/sg62_15_cif.got.tgz:29860.got - 2010.04.10 19:12:36.
