data_PCOD8253060
_publ_section_title
;
Structure prediction by ZEFSAII (Michael W. Deem and Ramdas Pophale) SiO2 
 PCOD8253060
Probable space group: P N M A
;
_chemical_formula_sum "Si O2"
_cell_formula_units_Z 48
_cell_length_a 11.629313
_cell_length_b 9.089156
_cell_length_c 23.328181
_cell_angle_alpha 90.000000
_cell_angle_beta 90.000000
_cell_angle_gamma 90.000000
_cell_volume 2465.803662
_symmetry_space_group_name_H-M "P N M A"
_symmetry_group_IT_number 62
_symmetry_cell_setting 'orthorhombic'
loop_
_space_group_symop_operation_xyz
x,y,z
1/2-x,-y,1/2+z
1/2+x,1/2-y,1/2-z
-x,1/2+y,-z
-x,-y,-z
1/2+x,y,1/2-z
1/2-x,1/2+y,1/2+z
x,1/2-y,z
loop_
_atom_site_type_symbol
_atom_site_label
_atom_site_fract_x
_atom_site_fract_y
_atom_site_fract_z
Si Si1 0.093437 0.582540 0.280624
Si Si2 0.823198 0.415205 0.846143
Si Si3 0.484762 0.924106 0.438281
Si Si4 0.743072 0.415949 0.621123
Si Si5 0.470951 0.082855 0.943371
Si Si6 0.592966 0.923009 0.841856
O O1 0.071520 0.750000 0.302989
O O2 0.109712 0.580584 0.213355
O O3 0.200309 0.517794 0.319674
O O4 0.978489 0.486138 0.288197
O O5 0.773912 0.250000 0.855842
O O6 0.905119 0.459325 0.898871
O O7 0.726025 0.536718 0.838868
O O8 0.469865 0.750000 0.448590
O O9 0.373334 0.990839 0.403855
O O10 0.500000 0.000000 0.500000
O O11 0.708164 0.250000 0.636034
O O12 0.835835 0.426521 0.570172
O O13 0.513070 0.250000 0.947968
O O14 0.543910 0.999520 0.897038
O O15 0.500000 0.000000 0.000000
O O16 0.578220 0.750000 0.845060
#
# Coordination Sequence:
#
# PCOD8253060 Si02
#       6
#     8   8   8   8   8   8
#     4   9  19  38  65  90 113 147 196 255 307 356
#     4  10  22  38  63  90 116 153 200 251 298 357
#     4  10  22  39  58  86 118 156 199 241 296 361
#     4   8  17  35  58  83 113 146 185 236 297 357
#     4  10  20  36  59  86 115 151 196 244 297 353
#     4  11  23  38  57  85 123 157 193 242 297 362
#
# _framework density 19.466270000000002
#
# number of rings (size 3 to 8) (size 9 to 14) (size 15 to 20)
#    0.000    2.333    0.000    3.000    4.667    1.333 
#    0.000    3.333    0.000    0.000    0.000    0.000 
#    0.000    0.000    0.000    0.000    0.000    0.000 
#
# Total GULP energy -594876.669853 kJ/mol
# GULP energy per Si atom -12393.263955 kJ/mol
# Density = 1.942196 g / cm^3
# Si number density = 19.466270 Si / 1000 Ang^3
#
#
#
# Elastic Constant Matrix: (Units=GPa)
#
#
# Indices 1 2 3 4 5 6 
#
# 1 90.2964 43.5109 47.4785 0.0000 0.0000 0.0000
# 2 43.5109 109.2803 40.5836 0.0000 0.0000 0.0000
# 3 47.4785 40.5836 99.3229 0.0000 0.0000 0.0000
# 4 0.0000 0.0000 0.0000 29.7677 0.0000 0.0000
# 5 0.0000 0.0000 0.0000 0.0000 16.2857 0.0000
# 6 0.0000 0.0000 0.0000 0.0000 0.0000 24.0479
#
#
#
# Elastic Compliance Matrix: (Units=1/GPa)
#
#
# Indices 1 2 3 4 5 6 
#
# 1 0.016305 -0.004241 -0.006061 0.000000 0.000000 0.000000
# 2 -0.004241 0.011891 -0.002831 0.000000 0.000000 0.000000
# 3 -0.006061 -0.002831 0.014123 0.000000 0.000000 0.000000
# 4 0.000000 0.000000 0.000000 0.033593 0.000000 0.000000
# 5 0.000000 0.000000 0.000000 0.000000 0.061404 0.000000
# 6 0.000000 0.000000 0.000000 0.000000 0.000000 0.041584
#
#
# Mechanical properties :
#
#
# Convention : Reuss Voigt Hill
#
# Bulk Modulus (GPa) = 62.30071 62.44952 62.37512
# Shear Modulus (GPa) = 23.75097 25.17536 24.46316
#
# Velocity S-wave (km/s) = 3.49679 3.60012 3.54884
# Velocity P-wave (km/s) = 6.95538 7.03077 6.99318
#
# Compressibility (1/GPa) = 0.01605118
#
# Stress axis : x y z
#
# Youngs Moduli (GPa) = 61.32925 84.09811 70.80877
#
# Poissons Ratio (x) = 0.35667 0.42920
# Poissons Ratio (y) = 0.26010 0.20048
# Poissons Ratio (z) = 0.37174 0.23811
#
# Static dielectric constant tensor:
#      x y z
#    x 3.575210 0.000000 0.000000 
#    y 0.000000 3.463130 0.000000 
#    z 0.000000 0.000000 3.332190 
# 
# 
# High freq. dielectric constant tensor:
#      x y z
#    x 1.761450 0.000000 0.000000 
#    y 0.000000 1.731940 0.000000 
#    z 0.000000 0.000000 1.767170 
# 
# From -- ./inp_files/29245.got.cif
#   From: 2010.03.12/outbox.cif.g09.slc.cpg/sg62_15_cif.got.tgz:29245.got - 2010.04.10 19:12:36.
