data_PCOD8253513
_publ_section_title
;
Structure prediction by ZEFSAII (Michael W. Deem and Ramdas Pophale) SiO2 
 PCOD8253513
Probable space group: P N M A
;
_chemical_formula_sum "Si O2"
_cell_formula_units_Z 64
_cell_length_a 9.024760
_cell_length_b 22.504038
_cell_length_c 14.627226
_cell_angle_alpha 90.000000
_cell_angle_beta 90.000000
_cell_angle_gamma 90.000000
_cell_volume 2970.695138
_symmetry_space_group_name_H-M "P N M A"
_symmetry_group_IT_number 62
_symmetry_cell_setting 'orthorhombic'
loop_
_space_group_symop_operation_xyz
x,y,z
1/2-x,-y,1/2+z
1/2+x,1/2-y,1/2-z
-x,1/2+y,-z
-x,-y,-z
1/2+x,y,1/2-z
1/2-x,1/2+y,1/2+z
x,1/2-y,z
loop_
_atom_site_type_symbol
_atom_site_label
_atom_site_fract_x
_atom_site_fract_y
_atom_site_fract_z
Si Si1 0.832099 0.181120 0.979401
Si Si2 0.711035 0.629074 0.122691
Si Si3 0.680465 0.181585 0.169167
Si Si4 0.145597 0.869036 0.674390
Si Si5 0.650095 0.968209 0.972619
Si Si6 0.852358 0.684928 0.968701
Si Si7 0.713952 0.565851 0.373524
Si Si8 0.537304 0.093568 0.751123
O O1 0.838258 0.250000 0.943068
O O2 0.719858 0.176085 0.063002
O O3 0.992782 0.152884 0.006406
O O4 0.775887 0.135536 0.901567
O O5 0.563862 0.635904 0.183624
O O6 0.855213 0.631818 0.187100
O O7 0.707234 0.570544 0.057809
O O8 0.732536 0.682984 0.051792
O O9 0.706186 0.250000 0.202142
O O10 0.508020 0.165836 0.176998
O O11 0.784953 0.133879 0.223255
O O12 0.126170 0.931953 0.622724
O O13 0.278494 0.836559 0.622789
O O14 0.777055 0.018524 0.956007
O O15 0.500000 0.000000 0.000000
O O16 0.907845 0.750000 0.948221
O O17 0.570189 0.553103 0.311276
O O18 0.861375 0.551554 0.313812
#
# Coordination Sequence:
#
# PCOD8253513 Si02
#       8
#     8   8   8   8   8   8   8   8
#     4  10  22  41  65  92 127 166 212 263 322 388
#     4  10  21  41  61  92 121 162 206 251 316 372
#     4  11  22  39  64  94 130 168 210 266 323 388
#     4  11  24  40  62  96 128 168 216 261 325 387
#     4  11  23  42  66  91 129 165 213 267 313 388
#     4  10  20  39  63  89 123 162 205 256 313 376
#     4  11  22  43  63  92 125 169 205 261 321 370
#     4  10  22  40  64  87 126 159 205 257 312 372
#
# _framework density 21.543780000000002
#
# number of rings (size 3 to 8) (size 9 to 14) (size 15 to 20)
#    0.000    1.500    2.500    2.625    1.750    2.500 
#    4.500    3.750    0.000    0.000    0.000    0.000 
#    0.000    0.000    0.000    0.000    0.000    0.000 
#
# Total GULP energy -792891.529948 kJ/mol
# GULP energy per Si atom -12388.930155 kJ/mol
# Density = 2.149475 g / cm^3
# Si number density = 21.543780 Si / 1000 Ang^3
#
#
#
# Elastic Constant Matrix: (Units=GPa)
#
#
# Indices 1 2 3 4 5 6 
#
# 1 117.8017 26.1173 27.1160 0.0000 0.0000 0.0000
# 2 26.1173 90.7678 34.8828 0.0000 0.0000 0.0000
# 3 27.1160 34.8828 78.9530 0.0000 0.0000 0.0000
# 4 0.0000 0.0000 0.0000 26.3045 0.0000 0.0000
# 5 0.0000 0.0000 0.0000 0.0000 37.1653 0.0000
# 6 0.0000 0.0000 0.0000 0.0000 0.0000 22.9025
#
#
#
# Elastic Compliance Matrix: (Units=1/GPa)
#
#
# Indices 1 2 3 4 5 6 
#
# 1 0.009449 -0.001773 -0.002462 0.000000 0.000000 0.000000
# 2 -0.001773 0.013603 -0.005401 0.000000 0.000000 0.000000
# 3 -0.002462 -0.005401 0.015898 0.000000 0.000000 0.000000
# 4 0.000000 0.000000 0.000000 0.038016 0.000000 0.000000
# 5 0.000000 0.000000 0.000000 0.000000 0.026907 0.000000
# 6 0.000000 0.000000 0.000000 0.000000 0.000000 0.043663
#
#
# Mechanical properties :
#
#
# Convention : Reuss Voigt Hill
#
# Bulk Modulus (GPa) = 50.81895 51.52829 51.17362
# Shear Modulus (GPa) = 28.84071 30.56823 29.70447
#
# Velocity S-wave (km/s) = 3.66280 3.77090 3.71724
# Velocity P-wave (km/s) = 6.44422 6.55206 6.49836
#
# Compressibility (1/GPa) = 0.01967770
#
# Stress axis : x y z
#
# Youngs Moduli (GPa) = 105.83670 73.51384 62.90247
#
# Poissons Ratio (x) = 0.13031 0.15486
# Poissons Ratio (y) = 0.18760 0.33975
# Poissons Ratio (z) = 0.26056 0.39706
#
# Static dielectric constant tensor:
#      x y z
#    x 4.014520 0.000000 0.000000 
#    y 0.000000 3.827950 0.000000 
#    z 0.000000 0.000000 4.158790 
# 
# 
# High freq. dielectric constant tensor:
#      x y z
#    x 1.861740 0.000000 0.000000 
#    y 0.000000 1.812500 0.000000 
#    z 0.000000 0.000000 1.857660 
# 
# From -- ./inp_files/17338.got.cif
#   From: 2010.03.12/outbox.cif.g09.slc.cpg/sg62_9_cif.got.tgz:17338.got - 2010.04.10 19:12:36.
