data_PCOD8253736
_publ_section_title
;
Structure prediction by ZEFSAII (Michael W. Deem and Ramdas Pophale) SiO2 
 PCOD8253736
Probable space group: P N M A
;
_chemical_formula_sum "Si O2"
_cell_formula_units_Z 32
_cell_length_a 7.877648
_cell_length_b 14.294080
_cell_length_c 9.146080
_cell_angle_alpha 90.000000
_cell_angle_beta 90.000000
_cell_angle_gamma 90.000000
_cell_volume 1029.882729
_symmetry_space_group_name_H-M "P N M A"
_symmetry_group_IT_number 62
_symmetry_cell_setting 'orthorhombic'
loop_
_space_group_symop_operation_xyz
x,y,z
1/2-x,-y,1/2+z
1/2+x,1/2-y,1/2-z
-x,1/2+y,-z
-x,-y,-z
1/2+x,y,1/2-z
1/2-x,1/2+y,1/2+z
x,1/2-y,z
loop_
_atom_site_type_symbol
_atom_site_label
_atom_site_fract_x
_atom_site_fract_y
_atom_site_fract_z
Si Si1 0.008778 0.967286 0.161011
Si Si2 0.180467 0.141066 0.570432
Si Si3 0.156275 0.856004 0.757893
Si Si4 0.203474 0.643607 0.431925
O O1 0.189667 0.914660 0.177953
O O2 0.987741 0.063604 0.254013
O O3 0.851780 0.894004 0.173346
O O4 0.000000 0.000000 0.000000
O O5 0.191438 0.250000 0.606792
O O6 0.222293 0.126552 0.398132
O O7 0.987571 0.097866 0.601436
O O8 0.075883 0.750000 0.763501
O O9 0.256067 0.867974 0.603040
O O10 0.176323 0.750000 0.393041
#
# Coordination Sequence:
#
# PCOD8253736 Si02
#       4
#     8   8   8   8
#     4  10  21  36  58  91 130 164 200 261 318 376
#     4   9  19  35  58  88 119 154 201 255 311 370
#     4   9  20  36  58  91 128 166 208 259 315 370
#     4  10  21  38  62  93 128 163 209 263 315 370
#
# _framework density 31.071497000000001
#
# number of rings (size 3 to 8) (size 9 to 14) (size 15 to 20)
#    0.000    2.500    0.000    0.750    7.000    5.000 
#    0.000    2.500    0.000    7.500    0.000    0.000 
#    0.000    0.000    0.000    0.000    0.000    0.000 
#
# Total GULP energy -396490.394893 kJ/mol
# GULP energy per Si atom -12390.324840 kJ/mol
# Density = 3.100078 g / cm^3
# Si number density = 31.071497 Si / 1000 Ang^3
#
#
#
# Elastic Constant Matrix: (Units=GPa)
#
#
# Indices 1 2 3 4 5 6 
#
# 1 175.5743 45.1360 76.7723 0.0000 0.0000 0.0000
# 2 45.1360 109.3839 -9.4218 0.0000 0.0000 0.0000
# 3 76.7723 -9.4218 127.4312 0.0000 0.0000 0.0000
# 4 0.0000 0.0000 0.0000 37.2200 0.0000 0.0000
# 5 0.0000 0.0000 0.0000 0.0000 71.5658 0.0000
# 6 0.0000 0.0000 0.0000 0.0000 0.0000 34.2474
#
#
#
# Elastic Compliance Matrix: (Units=1/GPa)
#
#
# Indices 1 2 3 4 5 6 
#
# 1 0.009473 -0.004429 -0.006034 0.000000 0.000000 0.000000
# 2 -0.004429 0.011271 0.003501 0.000000 0.000000 0.000000
# 3 -0.006034 0.003501 0.011742 0.000000 0.000000 0.000000
# 4 0.000000 0.000000 0.000000 0.026867 0.000000 0.000000
# 5 0.000000 0.000000 0.000000 0.000000 0.013973 0.000000
# 6 0.000000 0.000000 0.000000 0.000000 0.000000 0.029199
#
#
# Mechanical properties :
#
#
# Convention : Reuss Voigt Hill
#
# Bulk Modulus (GPa) = 53.87229 70.81806 62.34518
# Shear Modulus (GPa) = 40.77116 48.60017 44.68566
#
# Velocity S-wave (km/s) = 3.62632 3.95921 3.79642
# Velocity P-wave (km/s) = 5.90842 6.61377 6.27102
#
# Compressibility (1/GPa) = 0.01856242
#
# Stress axis : x y z
#
# Youngs Moduli (GPa) = 105.56685 88.72254 85.16649
#
# Poissons Ratio (x) = 0.39291 0.51392
# Poissons Ratio (y) = 0.46751 -0.29820
# Poissons Ratio (z) = 0.63703 -0.31065
#
# Static dielectric constant tensor:
#      x y z
#    x 4.803110 0.000000 0.000000 
#    y 0.000000 13.510870 0.000000 
#    z 0.000000 0.000000 5.939310 
# 
# 
# High freq. dielectric constant tensor:
#      x y z
#    x 2.281150 0.000000 0.000000 
#    y 0.000000 2.273840 0.000000 
#    z 0.000000 0.000000 2.360480 
# 
# From -- ./inp_files/10928.got.cif
#   From: 2010.03.12/outbox.cif.g09.slc.cpg/sg62_6_cif.got.tgz:10928.got - 2010.04.10 19:12:36.
