data_PCOD8253223
_publ_section_title
;
Structure prediction by ZEFSAII (Michael W. Deem and Ramdas Pophale) SiO2 
 PCOD8253223
Probable space group: P N M A
;
_chemical_formula_sum "Si O2"
_cell_formula_units_Z 32
_cell_length_a 9.576194
_cell_length_b 17.206522
_cell_length_c 8.887767
_cell_angle_alpha 90.000000
_cell_angle_beta 90.000000
_cell_angle_gamma 90.000000
_cell_volume 1464.463967
_symmetry_space_group_name_H-M "P N M A"
_symmetry_group_IT_number 62
_symmetry_cell_setting 'orthorhombic'
loop_
_space_group_symop_operation_xyz
x,y,z
1/2-x,-y,1/2+z
1/2+x,1/2-y,1/2-z
-x,1/2+y,-z
-x,-y,-z
1/2+x,y,1/2-z
1/2-x,1/2+y,1/2+z
x,1/2-y,z
loop_
_atom_site_type_symbol
_atom_site_label
_atom_site_fract_x
_atom_site_fract_y
_atom_site_fract_z
Si Si1 0.314927 0.068585 0.797039
Si Si2 0.527349 0.083460 0.567764
Si Si3 0.849478 0.612106 0.765537
Si Si4 0.909579 0.337119 0.421899
O O1 0.386526 0.112694 0.653319
O O2 0.148929 0.081720 0.803875
O O3 0.351160 0.978248 0.778009
O O4 0.384218 0.099679 0.949437
O O5 0.576468 0.134434 0.426028
O O6 0.500000 0.000000 0.500000
O O7 0.691158 0.642787 0.779666
O O8 0.931382 0.657479 0.635503
O O9 0.882062 0.250000 0.482168
#
# Coordination Sequence:
#
# PCOD8253223 Si02
#       4
#     8   8   8   8
#     4  10  20  37  60  84 113 149 195 239 286 349
#     4   9  19  34  56  85 110 142 188 240 281 329
#     4  10  20  37  60  83 113 153 196 236 283 352
#     4  11  23  38  57  86 120 152 190 245 298 342
#
# _framework density 21.850999000000002
#
# number of rings (size 3 to 8) (size 9 to 14) (size 15 to 20)
#    0.000    2.000    0.000    4.500    0.000    6.000 
#    0.000    6.250    0.000    0.000    0.000    0.000 
#    0.000    0.000    0.000    0.000    0.000    0.000 
#
# Total GULP energy -396536.814556 kJ/mol
# GULP energy per Si atom -12391.775455 kJ/mol
# Density = 2.180126 g / cm^3
# Si number density = 21.850999 Si / 1000 Ang^3
#
#
#
# Elastic Constant Matrix: (Units=GPa)
#
#
# Indices 1 2 3 4 5 6 
#
# 1 74.5411 8.1127 31.7593 0.0000 0.0000 0.0000
# 2 8.1127 75.5612 19.4724 0.0000 0.0000 0.0000
# 3 31.7593 19.4724 58.5786 0.0000 0.0000 0.0000
# 4 0.0000 0.0000 0.0000 18.4654 0.0000 0.0000
# 5 0.0000 0.0000 0.0000 0.0000 52.2223 0.0000
# 6 0.0000 0.0000 0.0000 0.0000 0.0000 13.8206
#
#
#
# Elastic Compliance Matrix: (Units=1/GPa)
#
#
# Indices 1 2 3 4 5 6 
#
# 1 0.017472 0.000618 -0.009678 0.000000 0.000000 0.000000
# 2 0.000618 0.014496 -0.005154 0.000000 0.000000 0.000000
# 3 -0.009678 -0.005154 0.024031 0.000000 0.000000 0.000000
# 4 0.000000 0.000000 0.000000 0.054155 0.000000 0.000000
# 5 0.000000 0.000000 0.000000 0.000000 0.019149 0.000000
# 6 0.000000 0.000000 0.000000 0.000000 0.000000 0.072356
#
#
# Mechanical properties :
#
#
# Convention : Reuss Voigt Hill
#
# Bulk Modulus (GPa) = 36.26905 36.37441 36.32173
# Shear Modulus (GPa) = 20.89626 26.85742 23.87684
#
# Velocity S-wave (km/s) = 3.09578 3.50968 3.30921
# Velocity P-wave (km/s) = 5.42336 5.75382 5.59103
#
# Compressibility (1/GPa) = 0.02757172
#
# Stress axis : x y z
#
# Youngs Moduli (GPa) = 57.23579 68.98402 41.61225
#
# Poissons Ratio (x) = -0.04265 0.40272
# Poissons Ratio (y) = -0.03538 0.21447
# Poissons Ratio (z) = 0.55393 0.35554
#
# Static dielectric constant tensor:
#      x y z
#    x 4.408340 0.000000 0.000000 
#    y 0.000000 3.489050 0.000000 
#    z 0.000000 0.000000 4.466510 
# 
# 
# High freq. dielectric constant tensor:
#      x y z
#    x 1.871620 0.000000 0.000000 
#    y 0.000000 1.814380 0.000000 
#    z 0.000000 0.000000 1.856010 
# 
# From -- ./inp_files/4985.got.cif
#   From: 2010.03.12/outbox.cif.g09.slc.cpg/sg62_3_cif.got.tgz:4985.got - 2010.04.10 19:12:36.
