data_PCOD8253926
_publ_section_title
;
Structure prediction by ZEFSAII (Michael W. Deem and Ramdas Pophale) SiO2 
 PCOD8253926
Probable space group: P N M A
;
_chemical_formula_sum "Si O2"
_cell_formula_units_Z 56
_cell_length_a 14.794841
_cell_length_b 8.595246
_cell_length_c 21.609980
_cell_angle_alpha 90.000000
_cell_angle_beta 90.000000
_cell_angle_gamma 90.000000
_cell_volume 2748.039545
_symmetry_space_group_name_H-M "P N M A"
_symmetry_group_IT_number 62
_symmetry_cell_setting 'orthorhombic'
loop_
_space_group_symop_operation_xyz
x,y,z
1/2-x,-y,1/2+z
1/2+x,1/2-y,1/2-z
-x,1/2+y,-z
-x,-y,-z
1/2+x,y,1/2-z
1/2-x,1/2+y,1/2+z
x,1/2-y,z
loop_
_atom_site_type_symbol
_atom_site_label
_atom_site_fract_x
_atom_site_fract_y
_atom_site_fract_z
Si Si1 0.347430 0.069493 0.967612
Si Si2 0.645272 0.432275 0.902829
Si Si3 0.529335 0.425740 0.130324
Si Si4 0.194265 0.934743 0.887692
Si Si5 0.818887 0.574738 0.725470
Si Si6 0.665983 0.931730 0.356507
Si Si7 0.007294 0.435696 0.930564
O O1 0.338924 0.250000 0.984179
O O2 0.425222 0.044179 0.917499
O O3 0.251478 0.006884 0.943644
O O4 0.378046 0.971981 0.026858
O O5 0.639932 0.250000 0.889885
O O6 0.573059 0.518045 0.858273
O O7 0.744171 0.501182 0.888029
O O8 0.532260 0.250000 0.103768
O O9 0.582836 0.432956 0.194349
O O10 0.195216 0.750000 0.895405
O O11 0.240195 0.982171 0.822021
O O12 0.093740 0.000538 0.893398
O O13 0.797263 0.750000 0.747202
O O14 0.827200 0.464004 0.783898
O O15 0.662959 0.750000 0.367099
O O16 0.577853 0.000631 0.390868
O O17 0.011172 0.250000 0.933126
O O18 0.000000 0.500000 0.000000
#
# Coordination Sequence:
#
# PCOD8253926 Si02
#       7
#     8   8   8   8   8   8   8
#     4  11  21  35  58  88 117 150 188 231 282 342
#     4  11  22  37  56  82 115 152 188 232 286 339
#     4  10  21  38  58  84 116 151 188 232 281 339
#     4  10  21  39  61  87 118 154 193 240 291 349
#     4   9  21  40  61  83 112 150 193 237 290 349
#     4  10  24  41  58  82 116 151 191 243 294 343
#     4  11  23  40  62  90 120 158 202 249 303 357
#
# _framework density 20.378163000000001
#
# number of rings (size 3 to 8) (size 9 to 14) (size 15 to 20)
#    0.000    1.714    0.000    5.143    0.000    8.000 
#    0.000    5.714    0.000    0.000    0.000    0.000 
#    0.000    0.000    0.000    0.000    0.000    0.000 
#
# Total GULP energy -694469.451466 kJ/mol
# GULP energy per Si atom -12401.240205 kJ/mol
# Density = 2.033178 g / cm^3
# Si number density = 20.378163 Si / 1000 Ang^3
#
#
#
# Elastic Constant Matrix: (Units=GPa)
#
#
# Indices 1 2 3 4 5 6 
#
# 1 158.9477 39.2894 40.9497 0.0000 0.0000 0.0000
# 2 39.2894 57.6930 20.8740 0.0000 0.0000 0.0000
# 3 40.9497 20.8740 87.6164 0.0000 0.0000 0.0000
# 4 0.0000 0.0000 0.0000 33.9292 0.0000 0.0000
# 5 0.0000 0.0000 0.0000 0.0000 22.4798 0.0000
# 6 0.0000 0.0000 0.0000 0.0000 0.0000 34.2162
#
#
#
# Elastic Compliance Matrix: (Units=1/GPa)
#
#
# Indices 1 2 3 4 5 6 
#
# 1 0.008113 -0.004545 -0.002709 0.000000 0.000000 0.000000
# 2 -0.004545 0.021514 -0.003002 0.000000 0.000000 0.000000
# 3 -0.002709 -0.003002 0.013395 0.000000 0.000000 0.000000
# 4 0.000000 0.000000 0.000000 0.029473 0.000000 0.000000
# 5 0.000000 0.000000 0.000000 0.000000 0.044484 0.000000
# 6 0.000000 0.000000 0.000000 0.000000 0.000000 0.029226
#
#
# Mechanical properties :
#
#
# Convention : Reuss Voigt Hill
#
# Bulk Modulus (GPa) = 44.42255 56.27591 50.34923
# Shear Modulus (GPa) = 28.69957 31.66797 30.18377
#
# Velocity S-wave (km/s) = 3.75687 3.94638 3.85279
# Velocity P-wave (km/s) = 6.37693 6.95995 6.67481
#
# Compressibility (1/GPa) = 0.02251109
#
# Stress axis : x y z
#
# Youngs Moduli (GPa) = 123.26438 46.48119 74.65722
#
# Poissons Ratio (x) = 0.21124 0.20224
# Poissons Ratio (y) = 0.56019 0.22409
# Poissons Ratio (z) = 0.33391 0.13951
#
# Static dielectric constant tensor:
#      x y z
#    x 4.097480 0.000000 0.000000 
#    y 0.000000 3.616880 0.000000 
#    z 0.000000 0.000000 3.589720 
# 
# 
# High freq. dielectric constant tensor:
#      x y z
#    x 1.812040 0.000000 0.000000 
#    y 0.000000 1.796600 0.000000 
#    z 0.000000 0.000000 1.785470 
# 
# From -- ./inp_files/27168.got.cif
#   From: 2010.03.12/outbox.cif.g09.slc.cpg/sg62_14_cif.got.tgz:27168.got - 2010.04.10 19:12:36.
