data_PCOD8253304
_publ_section_title
;
Structure prediction by ZEFSAII (Michael W. Deem and Ramdas Pophale) SiO2 
 PCOD8253304
Probable space group: P N M A
;
_chemical_formula_sum "Si O2"
_cell_formula_units_Z 56
_cell_length_a 14.831554
_cell_length_b 28.711015
_cell_length_c 5.274011
_cell_angle_alpha 90.000000
_cell_angle_beta 90.000000
_cell_angle_gamma 90.000000
_cell_volume 2245.826669
_symmetry_space_group_name_H-M "P N M A"
_symmetry_group_IT_number 62
_symmetry_cell_setting 'orthorhombic'
loop_
_space_group_symop_operation_xyz
x,y,z
1/2-x,-y,1/2+z
1/2+x,1/2-y,1/2-z
-x,1/2+y,-z
-x,-y,-z
1/2+x,y,1/2-z
1/2-x,1/2+y,1/2+z
x,1/2-y,z
loop_
_atom_site_type_symbol
_atom_site_label
_atom_site_fract_x
_atom_site_fract_y
_atom_site_fract_z
Si Si1 0.947039 0.438166 0.597865
Si Si2 0.624063 0.480466 0.780060
Si Si3 0.731156 0.144689 0.211588
Si Si4 0.230157 0.198137 0.798000
Si Si5 0.482158 0.643628 0.805775
Si Si6 0.017196 0.302134 0.812945
Si Si7 0.803596 0.438831 0.966155
O O1 0.901787 0.486897 0.516616
O O2 0.037436 0.447284 0.768027
O O3 0.971576 0.406683 0.352531
O O4 0.872888 0.413302 0.775324
O O5 0.650268 0.512368 0.541955
O O6 0.707796 0.446969 0.833001
O O7 0.758449 0.173513 0.961724
O O8 0.624518 0.136327 0.218351
O O9 0.768937 0.170431 0.459886
O O10 0.783348 0.095151 0.203458
O O11 0.271452 0.250000 0.796458
O O12 0.123882 0.200927 0.832123
O O13 0.509828 0.675436 0.045525
O O14 0.520149 0.667023 0.548489
O O15 0.976338 0.250000 0.829840
#
# Coordination Sequence:
#
# PCOD8253304 Si02
#       7
#     8   8   8   8   8   8   8
#     4  11  25  44  65  95 134 175 228 276 341 396
#     4  11  25  45  66  96 128 180 224 279 334 408
#     4  10  21  36  64  96 133 172 222 276 329 400
#     4   9  18  35  61  96 132 173 220 271 331 400
#     4  10  20  37  62  97 131 173 219 278 329 398
#     4   9  18  34  61  95 132 172 220 269 331 402
#     4  12  24  43  67  96 134 176 226 277 341 399
#
# _framework density 24.935141000000002
#
# number of rings (size 3 to 8) (size 9 to 14) (size 15 to 20)
#    0.000    1.714    2.857    1.286    4.000    3.429 
#    2.571    0.000    0.000    5.143    0.000    0.000 
#    0.000    0.000    0.000    0.000    0.000    0.000 
#
# Total GULP energy -694413.443067 kJ/mol
# GULP energy per Si atom -12400.240055 kJ/mol
# Density = 2.487839 g / cm^3
# Si number density = 24.935141 Si / 1000 Ang^3
#
#
#
# Elastic Constant Matrix: (Units=GPa)
#
#
# Indices 1 2 3 4 5 6 
#
# 1 105.1694 20.1849 20.6213 0.0000 0.0000 0.0000
# 2 20.1849 57.5620 -23.7788 0.0000 0.0000 0.0000
# 3 20.6213 -23.7788 74.0813 0.0000 0.0000 0.0000
# 4 0.0000 0.0000 0.0000 23.7739 0.0000 0.0000
# 5 0.0000 0.0000 0.0000 0.0000 22.6017 0.0000
# 6 0.0000 0.0000 0.0000 0.0000 0.0000 -0.6097
#
#
#
# Elastic Compliance Matrix: (Units=1/GPa)
#
#
# Indices 1 2 3 4 5 6 
#
# 1 0.011759 -0.006313 -0.005300 0.000000 0.000000 0.000000
# 2 -0.006313 0.023417 0.009274 0.000000 0.000000 0.000000
# 3 -0.005300 0.009274 0.017951 0.000000 0.000000 0.000000
# 4 0.000000 0.000000 0.000000 0.042063 0.000000 0.000000
# 5 0.000000 0.000000 0.000000 0.000000 0.044244 0.000000
# 6 0.000000 0.000000 0.000000 0.000000 0.000000 -1.640135
#
#
# Mechanical properties :
#
#
# Convention : Reuss Voigt Hill
#
# Bulk Modulus (GPa) = 20.63996 30.09641 25.36818
# Shear Modulus (GPa) = -3.37867 23.80554 10.21344
#
# Velocity S-wave (km/s) = -1.16530 3.09317 2.02605
# Velocity P-wave (km/s) = 2.54654 4.98528 3.95840
#
# Compressibility (1/GPa) = 0.04844970
#
# Stress axis : x y z
#
# Youngs Moduli (GPa) = 85.03987 42.70368 55.70849
#
# Poissons Ratio (x) = 0.26958 0.29523
# Poissons Ratio (y) = 0.53684 -0.51663
# Poissons Ratio (z) = 0.45068 -0.39602
#
# Static dielectric constant tensor:
#      x y z
#    x 4.421750 0.000000 0.000000 
#    y 0.000000 4.559320 0.000000 
#    z 0.000000 0.000000 4.310530 
# 
# 
# High freq. dielectric constant tensor:
#      x y z
#    x 1.990090 0.000000 0.000000 
#    y 0.000000 1.992150 0.000000 
#    z 0.000000 0.000000 1.987690 
# 
# From -- ./inp_files/1265.got.cif
#   From: 2010.03.12/outbox.cif.g09.slc.cpg/sg62_1_cif.got.tgz:1265.got - 2010.04.10 19:12:36.
