data_PCOD8253766
_publ_section_title
;
Structure prediction by ZEFSAII (Michael W. Deem and Ramdas Pophale) SiO2 
 PCOD8253766
Probable space group: P N M A
;
_chemical_formula_sum "Si O2"
_cell_formula_units_Z 32
_cell_length_a 18.760952
_cell_length_b 14.246942
_cell_length_c 5.157765
_cell_angle_alpha 90.000000
_cell_angle_beta 90.000000
_cell_angle_gamma 90.000000
_cell_volume 1378.599382
_symmetry_space_group_name_H-M "P N M A"
_symmetry_group_IT_number 62
_symmetry_cell_setting 'orthorhombic'
loop_
_space_group_symop_operation_xyz
x,y,z
1/2-x,-y,1/2+z
1/2+x,1/2-y,1/2-z
-x,1/2+y,-z
-x,-y,-z
1/2+x,y,1/2-z
1/2-x,1/2+y,1/2+z
x,1/2-y,z
loop_
_atom_site_type_symbol
_atom_site_label
_atom_site_fract_x
_atom_site_fract_y
_atom_site_fract_z
Si Si1 0.717350 0.044649 0.510151
Si Si2 0.923338 0.449335 0.175433
Si Si3 0.084761 0.250000 0.598801
Si Si4 0.530283 0.899987 0.174367
Si Si5 0.821020 0.750000 0.907328
O O1 0.726254 0.155637 0.446739
O O2 0.733011 0.985225 0.250633
O O3 0.636236 0.024516 0.596191
O O4 0.906950 0.400153 0.453796
O O5 0.999968 0.496837 0.247965
O O6 0.933098 0.370288 0.948580
O O7 0.145867 0.250000 0.381193
O O8 0.034802 0.160504 0.570071
O O9 0.116734 0.250000 0.884001
#
# Coordination Sequence:
#
# PCOD8253766 Si02
#       5
#     8   8   4   8   4
#     4  12  26  46  69  97 136 190 235 285 338 404
#     4  10  21  39  61  94 128 169 211 270 344 406
#     4  12  22  40  67 104 133 168 228 287 337 420
#     4  10  21  36  64  96 131 160 207 281 347 395
#     4  12  26  44  69 100 131 178 246 283 327 422
#
# _framework density 23.211963999999998
#
# number of rings (size 3 to 8) (size 9 to 14) (size 15 to 20)
#    0.000    1.000    2.500    4.500    7.000    0.000 
#    0.000    7.500    0.000    0.000    0.000    0.000 
#    0.000    0.000    0.000    0.000    0.000    0.000 
#
# Total GULP energy -396424.451855 kJ/mol
# GULP energy per Si atom -12388.264120 kJ/mol
# Density = 2.315913 g / cm^3
# Si number density = 23.211964 Si / 1000 Ang^3
#
#
#
# Elastic Constant Matrix: (Units=GPa)
#
#
# Indices 1 2 3 4 5 6 
#
# 1 52.7740 31.7181 35.9838 0.0000 0.0000 0.0000
# 2 31.7181 117.0502 52.1432 0.0000 0.0000 0.0000
# 3 35.9838 52.1432 208.5868 0.0000 0.0000 0.0000
# 4 0.0000 0.0000 0.0000 25.4717 0.0000 0.0000
# 5 0.0000 0.0000 0.0000 0.0000 51.6693 0.0000
# 6 0.0000 0.0000 0.0000 0.0000 0.0000 36.5104
#
#
#
# Elastic Compliance Matrix: (Units=1/GPa)
#
#
# Indices 1 2 3 4 5 6 
#
# 1 0.024037 -0.005251 -0.002834 0.000000 0.000000 0.000000
# 2 -0.005251 0.010761 -0.001784 0.000000 0.000000 0.000000
# 3 -0.002834 -0.001784 0.005729 0.000000 0.000000 0.000000
# 4 0.000000 0.000000 0.000000 0.039259 0.000000 0.000000
# 5 0.000000 0.000000 0.000000 0.000000 0.019354 0.000000
# 6 0.000000 0.000000 0.000000 0.000000 0.000000 0.027389
#
#
# Mechanical properties :
#
#
# Convention : Reuss Voigt Hill
#
# Bulk Modulus (GPa) = 48.10309 68.67790 58.39049
# Shear Modulus (GPa) = 32.63751 39.96799 36.30275
#
# Velocity S-wave (km/s) = 3.75382 4.15404 3.95899
# Velocity P-wave (km/s) = 6.28940 7.25670 6.79030
#
# Compressibility (1/GPa) = 0.02078868
#
# Stress axis : x y z
#
# Youngs Moduli (GPa) = 41.60247 92.92735 174.54762
#
# Poissons Ratio (x) = 0.48796 0.49467
# Poissons Ratio (y) = 0.21846 0.31143
# Poissons Ratio (z) = 0.11790 0.16580
#
# Static dielectric constant tensor:
#      x y z
#    x 3.780200 0.000000 0.000000 
#    y 0.000000 3.919590 0.000000 
#    z 0.000000 0.000000 5.278700 
# 
# 
# High freq. dielectric constant tensor:
#      x y z
#    x 1.887570 0.000000 0.000000 
#    y 0.000000 1.886530 0.000000 
#    z 0.000000 0.000000 1.965580 
# 
# From -- ./inp_files/2054.got.cif
#   From: 2010.03.12/outbox.cif.g09.slc.cpg/sg62_2_cif.got.tgz:2054.got - 2010.04.10 19:12:36.
