data_PCOD8253210
_publ_section_title
;
Structure prediction by ZEFSAII (Michael W. Deem and Ramdas Pophale) SiO2 
 PCOD8253210
Probable space group: P N M A
;
_chemical_formula_sum "Si O2"
_cell_formula_units_Z 64
_cell_length_a 15.341734
_cell_length_b 12.427926
_cell_length_c 17.509606
_cell_angle_alpha 90.000000
_cell_angle_beta 90.000000
_cell_angle_gamma 90.000000
_cell_volume 3338.485397
_symmetry_space_group_name_H-M "P N M A"
_symmetry_group_IT_number 62
_symmetry_cell_setting 'orthorhombic'
loop_
_space_group_symop_operation_xyz
x,y,z
1/2-x,-y,1/2+z
1/2+x,1/2-y,1/2-z
-x,1/2+y,-z
-x,-y,-z
1/2+x,y,1/2-z
1/2-x,1/2+y,1/2+z
x,1/2-y,z
loop_
_atom_site_type_symbol
_atom_site_label
_atom_site_fract_x
_atom_site_fract_y
_atom_site_fract_z
Si Si1 0.392847 0.873969 0.302386
Si Si2 0.288264 0.473254 0.045490
Si Si3 0.698088 0.629992 0.568496
Si Si4 0.896479 0.373576 0.587004
Si Si5 0.913042 0.871010 0.369554
Si Si6 0.481788 0.466131 0.413886
Si Si7 0.717176 0.006559 0.195615
Si Si8 0.657472 0.126067 0.345256
O O1 0.383706 0.750000 0.326744
O O2 0.436656 0.887241 0.219420
O O3 0.454380 0.929368 0.365060
O O4 0.297099 0.924450 0.298098
O O5 0.339419 0.546059 0.105724
O O6 0.230225 0.386013 0.089339
O O7 0.222664 0.546605 0.997327
O O8 0.355702 0.409713 0.992939
O O9 0.718565 0.750000 0.540243
O O10 0.596256 0.619774 0.587881
O O11 0.754839 0.607912 0.644051
O O12 0.872795 0.250000 0.602967
O O13 0.862419 0.444168 0.657001
O O14 0.000157 0.390366 0.580983
O O15 0.877559 0.750000 0.383157
O O16 0.500000 0.500000 0.500000
O O17 0.564278 0.409462 0.376443
O O18 0.684380 0.049423 0.276048
O O19 0.653649 0.250000 0.319324
#
# Coordination Sequence:
#
# PCOD8253210 Si02
#       8
#     8   8   8   8   8   8   8   8
#     4  10  21  38  63  89 121 159 200 251 309 363
#     4  11  21  38  59  88 120 155 201 251 300 366
#     4  10  21  39  60  84 118 160 202 251 309 361
#     4  10  21  37  60  87 117 155 196 246 304 359
#     4  10  20  37  59  87 120 154 195 249 306 361
#     4  11  23  41  58  91 123 162 205 256 305 365
#     4  10  21  39  61  86 122 154 205 249 301 364
#     4  12  24  40  61  86 121 162 205 252 306 368
#
# _framework density 19.170369999999998
#
# number of rings (size 3 to 8) (size 9 to 14) (size 15 to 20)
#    0.000    1.500    2.500    3.000    0.000    1.000 
#    0.000    0.625    0.000    3.000    0.000    0.000 
#    0.000    0.000    0.000    0.000    0.000    0.000 
#
# Total GULP energy -793802.438445 kJ/mol
# GULP energy per Si atom -12403.163101 kJ/mol
# Density = 1.912674 g / cm^3
# Si number density = 19.170370 Si / 1000 Ang^3
#
#
#
# Elastic Constant Matrix: (Units=GPa)
#
#
# Indices 1 2 3 4 5 6 
#
# 1 92.2092 41.0075 32.2143 0.0000 0.0000 0.0000
# 2 41.0075 101.0196 31.8736 0.0000 0.0000 0.0000
# 3 32.2143 31.8736 96.5370 0.0000 0.0000 0.0000
# 4 0.0000 0.0000 0.0000 14.6979 0.0000 0.0000
# 5 0.0000 0.0000 0.0000 0.0000 29.5643 0.0000
# 6 0.0000 0.0000 0.0000 0.0000 0.0000 18.5801
#
#
#
# Elastic Compliance Matrix: (Units=1/GPa)
#
#
# Indices 1 2 3 4 5 6 
#
# 1 0.014032 -0.004709 -0.003128 0.000000 0.000000 0.000000
# 2 -0.004709 0.012631 -0.002599 0.000000 0.000000 0.000000
# 3 -0.003128 -0.002599 0.012260 0.000000 0.000000 0.000000
# 4 0.000000 0.000000 0.000000 0.068037 0.000000 0.000000
# 5 0.000000 0.000000 0.000000 0.000000 0.033825 0.000000
# 6 0.000000 0.000000 0.000000 0.000000 0.000000 0.053821
#
#
# Mechanical properties :
#
#
# Convention : Reuss Voigt Hill
#
# Bulk Modulus (GPa) = 55.39623 55.55073 55.47348
# Shear Modulus (GPa) = 22.57400 24.87983 23.72691
#
# Velocity S-wave (km/s) = 3.43526 3.60645 3.52189
# Velocity P-wave (km/s) = 6.68537 6.81045 6.74820
#
# Compressibility (1/GPa) = 0.01805177
#
# Stress axis : x y z
#
# Youngs Moduli (GPa) = 71.26641 79.17226 81.56315
#
# Poissons Ratio (x) = 0.37284 0.25509
# Poissons Ratio (y) = 0.33561 0.21197
# Poissons Ratio (z) = 0.22289 0.20575
#
# Static dielectric constant tensor:
#      x y z
#    x 3.544630 0.000000 0.000000 
#    y 0.000000 3.467740 0.000000 
#    z 0.000000 0.000000 3.537480 
# 
# 
# High freq. dielectric constant tensor:
#      x y z
#    x 1.753880 0.000000 0.000000 
#    y 0.000000 1.747840 0.000000 
#    z 0.000000 0.000000 1.751370 
# 
# From -- ./inp_files/24010.got.cif
#   From: 2010.03.12/outbox.cif.g09.slc.cpg/sg62_13_cif.got.tgz:24010.got - 2010.04.10 19:12:36.
