data_PCOD8253209
_publ_section_title
;
Structure prediction by ZEFSAII (Michael W. Deem and Ramdas Pophale) SiO2 
 PCOD8253209
Probable space group: P N M A
;
_chemical_formula_sum "Si O2"
_cell_formula_units_Z 56
_cell_length_a 14.831357
_cell_length_b 27.520977
_cell_length_c 6.677951
_cell_angle_alpha 90.000000
_cell_angle_beta 90.000000
_cell_angle_gamma 90.000000
_cell_volume 2725.762198
_symmetry_space_group_name_H-M "P N M A"
_symmetry_group_IT_number 62
_symmetry_cell_setting 'orthorhombic'
loop_
_space_group_symop_operation_xyz
x,y,z
1/2-x,-y,1/2+z
1/2+x,1/2-y,1/2-z
-x,1/2+y,-z
-x,-y,-z
1/2+x,y,1/2-z
1/2-x,1/2+y,1/2+z
x,1/2-y,z
loop_
_atom_site_type_symbol
_atom_site_label
_atom_site_fract_x
_atom_site_fract_y
_atom_site_fract_z
Si Si1 0.007834 0.696267 0.507569
Si Si2 0.916804 0.951043 0.065949
Si Si3 0.063444 0.600773 0.340365
Si Si4 0.188904 0.304326 0.543991
Si Si5 0.758999 0.621700 0.135509
Si Si6 0.688714 0.695437 0.812139
Si Si7 0.025788 0.533205 0.685515
O O1 0.019344 0.750000 0.410055
O O2 0.031098 0.656766 0.337827
O O3 0.079640 0.690500 0.689179
O O4 0.904577 0.689821 0.582658
O O5 0.824416 0.921954 0.075375
O O6 0.001802 0.927666 0.183338
O O7 0.902277 0.004051 0.172529
O O8 0.940876 0.955035 0.830413
O O9 0.167916 0.598520 0.270396
O O10 0.060842 0.581834 0.574200
O O11 0.194432 0.250000 0.636651
O O12 0.186528 0.344874 0.712247
O O13 0.276098 0.314160 0.409796
O O14 0.733915 0.655136 0.949425
O O15 0.717191 0.750000 0.881816
O O16 0.000000 0.500000 0.500000
#
# Coordination Sequence:
#
# PCOD8253209 Si02
#       7
#     8   8   8   8   8   8   8
#     4   9  18  35  58  83 121 163 201 249 302 360
#     4  10  21  41  63  87 117 159 202 242 308 371
#     4  10  21  39  60  88 123 156 199 253 306 356
#     4  10  20  37  59  86 125 164 202 252 305 360
#     4  11  22  36  62  94 115 157 203 253 303 365
#     4   9  20  36  54  85 123 159 203 252 302 359
#     4   9  21  42  62  83 120 157 193 251 299 354
#
# _framework density 20.544709999999998
#
# number of rings (size 3 to 8) (size 9 to 14) (size 15 to 20)
#    0.000    2.286    1.429    0.429    2.000    2.857 
#    7.714    0.000    0.000    0.857    0.000    0.000 
#    0.000    0.000    0.000    0.000    0.000    0.000 
#
# Total GULP energy -693739.354556 kJ/mol
# GULP energy per Si atom -12388.202760 kJ/mol
# Density = 2.049795 g / cm^3
# Si number density = 20.544710 Si / 1000 Ang^3
#
#
#
# Elastic Constant Matrix: (Units=GPa)
#
#
# Indices 1 2 3 4 5 6 
#
# 1 110.2754 26.8734 31.9048 0.0000 0.0000 0.0000
# 2 26.8734 78.0773 22.9239 0.0000 0.0000 0.0000
# 3 31.9048 22.9239 74.0565 0.0000 0.0000 0.0000
# 4 0.0000 0.0000 0.0000 20.7374 0.0000 0.0000
# 5 0.0000 0.0000 0.0000 0.0000 23.6716 0.0000
# 6 0.0000 0.0000 0.0000 0.0000 0.0000 30.1896
#
#
#
# Elastic Compliance Matrix: (Units=1/GPa)
#
#
# Indices 1 2 3 4 5 6 
#
# 1 0.010815 -0.002590 -0.003858 0.000000 0.000000 0.000000
# 2 -0.002590 0.014708 -0.003437 0.000000 0.000000 0.000000
# 3 -0.003858 -0.003437 0.016229 0.000000 0.000000 0.000000
# 4 0.000000 0.000000 0.000000 0.048222 0.000000 0.000000
# 5 0.000000 0.000000 0.000000 0.000000 0.042245 0.000000
# 6 0.000000 0.000000 0.000000 0.000000 0.000000 0.033124
#
#
# Mechanical properties :
#
#
# Convention : Reuss Voigt Hill
#
# Bulk Modulus (GPa) = 45.48900 47.31260 46.40080
# Shear Modulus (GPa) = 25.98194 26.96685 26.47440
#
# Velocity S-wave (km/s) = 3.56005 3.62690 3.59363
# Velocity P-wave (km/s) = 6.25205 6.37325 6.31294
#
# Compressibility (1/GPa) = 0.02198334
#
# Stress axis : x y z
#
# Youngs Moduli (GPa) = 92.45996 67.98832 61.61749
#
# Poissons Ratio (x) = 0.17608 0.23771
# Poissons Ratio (y) = 0.23946 0.21179
# Poissons Ratio (z) = 0.35669 0.23369
#
# Static dielectric constant tensor:
#      x y z
#    x 3.791750 0.000000 0.000000 
#    y 0.000000 4.231560 0.000000 
#    z 0.000000 0.000000 3.501110 
# 
# 
# High freq. dielectric constant tensor:
#      x y z
#    x 1.799150 0.000000 0.000000 
#    y 0.000000 1.824630 0.000000 
#    z 0.000000 0.000000 1.769250 
# 
# From -- ./inp_files/1285.got.cif
#   From: 2010.03.12/outbox.cif.g09.slc.cpg/sg62_1_cif.got.tgz:1285.got - 2010.04.10 19:12:36.
