data_PCOD8253849
_publ_section_title
;
Structure prediction by ZEFSAII (Michael W. Deem and Ramdas Pophale) SiO2 
 PCOD8253849
Probable space group: P N M A
;
_chemical_formula_sum "Si O2"
_cell_formula_units_Z 64
_cell_length_a 20.092834
_cell_length_b 18.050962
_cell_length_c 9.164676
_cell_angle_alpha 90.000000
_cell_angle_beta 90.000000
_cell_angle_gamma 90.000000
_cell_volume 3323.982006
_symmetry_space_group_name_H-M "P N M A"
_symmetry_group_IT_number 62
_symmetry_cell_setting 'orthorhombic'
loop_
_space_group_symop_operation_xyz
x,y,z
1/2-x,-y,1/2+z
1/2+x,1/2-y,1/2-z
-x,1/2+y,-z
-x,-y,-z
1/2+x,y,1/2-z
1/2-x,1/2+y,1/2+z
x,1/2-y,z
loop_
_atom_site_type_symbol
_atom_site_label
_atom_site_fract_x
_atom_site_fract_y
_atom_site_fract_z
Si Si1 0.014675 0.164180 0.337089
Si Si2 0.125513 0.412265 0.165608
Si Si3 0.886106 0.163892 0.146903
Si Si4 0.390365 0.664118 0.366785
Si Si5 0.237408 0.663985 0.653474
Si Si6 0.240587 0.665109 0.319700
Si Si7 0.628051 0.912845 0.341551
Si Si8 0.513170 0.836340 0.167685
O O1 0.035373 0.250000 0.328148
O O2 0.077381 0.114463 0.294190
O O3 0.953286 0.146235 0.232422
O O4 0.994182 0.142205 0.499837
O O5 0.199176 0.383426 0.201721
O O6 0.126246 0.499722 0.158700
O O7 0.097430 0.381783 0.013110
O O8 0.881488 0.250000 0.104305
O O9 0.824251 0.140021 0.247229
O O10 0.887053 0.115323 0.002808
O O11 0.395083 0.750000 0.411290
O O12 0.318411 0.646724 0.298055
O O13 0.445413 0.641352 0.249564
O O14 0.255842 0.750000 0.672846
O O15 0.218549 0.648176 0.485558
O O16 0.225203 0.750000 0.279317
O O17 0.200873 0.613472 0.208567
O O18 0.574002 0.882476 0.229652
O O19 0.529539 0.750000 0.188471
#
# Coordination Sequence:
#
# PCOD8253849 Si02
#       8
#     8   8   8   8   8   8   8   8
#     4  10  21  39  62  84 107 141 189 239 280 322
#     4  11  23  37  55  83 118 152 182 219 276 339
#     4  10  21  37  59  84 109 143 188 234 275 321
#     4   9  19  38  62  83 107 144 188 232 276 324
#     4   9  19  38  62  83 106 142 188 234 277 323
#     4   9  18  36  59  80 106 144 189 232 276 326
#     4  12  24  35  53  84 120 152 181 220 274 337
#     4  10  21  38  60  84 109 142 189 239 280 322
#
# _framework density 19.254016
#
# number of rings (size 3 to 8) (size 9 to 14) (size 15 to 20)
#    0.000    2.000    0.000    4.500    0.000    9.500 
#    0.000    3.750    0.000    0.000    0.000    0.000 
#    0.000    0.000    0.000    0.000    0.000    0.000 
#
# Total GULP energy -793919.527887 kJ/mol
# GULP energy per Si atom -12404.992623 kJ/mol
# Density = 1.921019 g / cm^3
# Si number density = 19.254016 Si / 1000 Ang^3
#
#
#
# Elastic Constant Matrix: (Units=GPa)
#
#
# Indices 1 2 3 4 5 6 
#
# 1 74.6335 30.1661 19.2768 0.0000 0.0000 0.0000
# 2 30.1661 77.4582 25.6602 0.0000 0.0000 0.0000
# 3 19.2768 25.6602 61.6582 0.0000 0.0000 0.0000
# 4 0.0000 0.0000 0.0000 3.3304 0.0000 0.0000
# 5 0.0000 0.0000 0.0000 0.0000 36.4278 0.0000
# 6 0.0000 0.0000 0.0000 0.0000 0.0000 10.4987
#
#
#
# Elastic Compliance Matrix: (Units=1/GPa)
#
#
# Indices 1 2 3 4 5 6 
#
# 1 0.016323 -0.005413 -0.002851 0.000000 0.000000 0.000000
# 2 -0.005413 0.016770 -0.005287 0.000000 0.000000 0.000000
# 3 -0.002851 -0.005287 0.019310 0.000000 0.000000 0.000000
# 4 0.000000 0.000000 0.000000 0.300260 0.000000 0.000000
# 5 0.000000 0.000000 0.000000 0.000000 0.027452 0.000000
# 6 0.000000 0.000000 0.000000 0.000000 0.000000 0.095250
#
#
# Mechanical properties :
#
#
# Convention : Reuss Voigt Hill
#
# Bulk Modulus (GPa) = 39.52217 40.43958 39.98087
# Shear Modulus (GPa) = 9.78670 19.29451 14.54060
#
# Velocity S-wave (km/s) = 2.25698 3.16904 2.75107
# Velocity P-wave (km/s) = 5.23099 5.86849 5.55889
#
# Compressibility (1/GPa) = 0.02530226
#
# Stress axis : x y z
#
# Youngs Moduli (GPa) = 61.26400 59.63202 51.78701
#
# Poissons Ratio (x) = 0.32276 0.14763
# Poissons Ratio (y) = 0.33160 0.27379
# Poissons Ratio (z) = 0.17464 0.31526
#
# Static dielectric constant tensor:
#      x y z
#    x 3.679420 0.000000 0.000000 
#    y 0.000000 3.358860 0.000000 
#    z 0.000000 0.000000 3.527110 
# 
# 
# High freq. dielectric constant tensor:
#      x y z
#    x 1.763770 0.000000 0.000000 
#    y 0.000000 1.731840 0.000000 
#    z 0.000000 0.000000 1.752800 
# 
# From -- ./inp_files/8918.got.cif
#   From: 2010.03.12/outbox.cif.g09.slc.cpg/sg62_5_cif.got.tgz:8918.got - 2010.04.10 19:12:36.
