data_PCOD8253835
_publ_section_title
;
Structure prediction by ZEFSAII (Michael W. Deem and Ramdas Pophale) SiO2 
 PCOD8253835
Probable space group: P N M A
;
_chemical_formula_sum "Si O2"
_cell_formula_units_Z 40
_cell_length_a 18.001853
_cell_length_b 9.453473
_cell_length_c 9.846628
_cell_angle_alpha 90.000000
_cell_angle_beta 90.000000
_cell_angle_gamma 90.000000
_cell_volume 1675.699461
_symmetry_space_group_name_H-M "P N M A"
_symmetry_group_IT_number 62
_symmetry_cell_setting 'orthorhombic'
loop_
_space_group_symop_operation_xyz
x,y,z
1/2-x,-y,1/2+z
1/2+x,1/2-y,1/2-z
-x,1/2+y,-z
-x,-y,-z
1/2+x,y,1/2-z
1/2-x,1/2+y,1/2+z
x,1/2-y,z
loop_
_atom_site_type_symbol
_atom_site_label
_atom_site_fract_x
_atom_site_fract_y
_atom_site_fract_z
Si Si1 0.795965 0.591336 0.382316
Si Si2 0.684634 0.407421 0.522167
Si Si3 0.801684 0.906243 0.717309
Si Si4 0.936909 0.588554 0.229027
Si Si5 0.958826 0.584988 0.616097
O O1 0.767217 0.750000 0.391833
O O2 0.759809 0.512209 0.517182
O O3 0.764241 0.524480 0.238183
O O4 0.885112 0.583068 0.367483
O O5 0.706596 0.250000 0.576338
O O6 0.659390 0.399604 0.365763
O O7 0.613217 0.464803 0.603136
O O8 0.768293 0.750000 0.684198
O O9 0.869546 0.938836 0.613027
O O10 0.964497 0.750000 0.207808
O O11 0.006147 0.483002 0.245757
O O12 0.979135 0.750000 0.607954
O O13 0.000000 0.500000 0.500000
#
# Coordination Sequence:
#
# PCOD8253835 Si02
#       5
#     8   8   8   8   8
#     4   9  18  33  55  85 114 145 187 232 281 334
#     4   8  17  36  57  79 111 148 185 230 285 333
#     4   8  18  38  58  78 109 149 188 228 281 336
#     4  10  21  37  58  86 117 148 188 236 283 338
#     4  11  24  40  58  84 115 152 193 234 287 343
#
# _framework density 23.870626999999999
#
# number of rings (size 3 to 8) (size 9 to 14) (size 15 to 20)
#    1.200    1.600    0.000    0.600    0.000    6.400 
#    0.000    4.000    0.000    0.000    0.000    0.000 
#    0.000    0.000    0.000    0.000    0.000    0.000 
#
# Total GULP energy -495687.019082 kJ/mol
# GULP energy per Si atom -12392.175477 kJ/mol
# Density = 2.381630 g / cm^3
# Si number density = 23.870627 Si / 1000 Ang^3
#
#
#
# Elastic Constant Matrix: (Units=GPa)
#
#
# Indices 1 2 3 4 5 6 
#
# 1 67.8053 58.0652 -11.7550 0.0000 0.0000 0.0000
# 2 58.0652 144.2434 5.4831 0.0000 0.0000 0.0000
# 3 -11.7550 5.4831 43.1990 0.0000 0.0000 0.0000
# 4 0.0000 0.0000 0.0000 28.1913 0.0000 0.0000
# 5 0.0000 0.0000 0.0000 0.0000 23.4976 0.0000
# 6 0.0000 0.0000 0.0000 0.0000 0.0000 40.6333
#
#
#
# Elastic Compliance Matrix: (Units=1/GPa)
#
#
# Indices 1 2 3 4 5 6 
#
# 1 0.025065 -0.010399 0.008140 0.000000 0.000000 0.000000
# 2 -0.010399 0.011281 -0.004262 0.000000 0.000000 0.000000
# 3 0.008140 -0.004262 0.025905 0.000000 0.000000 0.000000
# 4 0.000000 0.000000 0.000000 0.035472 0.000000 0.000000
# 5 0.000000 0.000000 0.000000 0.000000 0.042557 0.000000
# 6 0.000000 0.000000 0.000000 0.000000 0.000000 0.024610
#
#
# Mechanical properties :
#
#
# Convention : Reuss Voigt Hill
#
# Bulk Modulus (GPa) = 20.32130 39.87048 30.09589
# Shear Modulus (GPa) = 25.72886 32.02808 28.87847
#
# Velocity S-wave (km/s) = 3.28662 3.66695 3.48198
# Velocity P-wave (km/s) = 4.78895 5.88792 5.36664
#
# Compressibility (1/GPa) = 0.04920944
#
# Stress axis : x y z
#
# Youngs Moduli (GPa) = 39.89661 88.64499 38.60300
#
# Poissons Ratio (x) = 0.92184 -0.31424
# Poissons Ratio (y) = 0.41490 0.16451
# Poissons Ratio (z) = -0.32477 0.37777
#
# Static dielectric constant tensor:
#      x y z
#    x 4.229380 0.000000 0.000000 
#    y 0.000000 4.299510 0.000000 
#    z 0.000000 0.000000 4.941270 
# 
# 
# High freq. dielectric constant tensor:
#      x y z
#    x 1.929790 0.000000 0.000000 
#    y 0.000000 1.936210 0.000000 
#    z 0.000000 0.000000 2.005090 
# 
# From -- ./inp_files/14624.got.cif
#   From: 2010.03.12/outbox.cif.g09.slc.cpg/sg62_8_cif.got.tgz:14624.got - 2010.04.10 19:12:36.
