data_PCOD8253414
_publ_section_title
;
Structure prediction by ZEFSAII (Michael W. Deem and Ramdas Pophale) SiO2 
 PCOD8253414
Probable space group: P N M A
;
_chemical_formula_sum "Si O2"
_cell_formula_units_Z 64
_cell_length_a 23.911749
_cell_length_b 8.758271
_cell_length_c 15.416501
_cell_angle_alpha 90.000000
_cell_angle_beta 90.000000
_cell_angle_gamma 90.000000
_cell_volume 3228.609630
_symmetry_space_group_name_H-M "P N M A"
_symmetry_group_IT_number 62
_symmetry_cell_setting 'orthorhombic'
loop_
_space_group_symop_operation_xyz
x,y,z
1/2-x,-y,1/2+z
1/2+x,1/2-y,1/2-z
-x,1/2+y,-z
-x,-y,-z
1/2+x,y,1/2-z
1/2-x,1/2+y,1/2+z
x,1/2-y,z
loop_
_atom_site_type_symbol
_atom_site_label
_atom_site_fract_x
_atom_site_fract_y
_atom_site_fract_z
Si Si1 0.622227 0.424705 0.895938
Si Si2 0.891680 0.569586 0.912733
Si Si3 0.878393 0.570110 0.104445
Si Si4 0.497559 0.427650 0.841259
Si Si5 0.821021 0.931589 0.752956
Si Si6 0.304825 0.070325 0.249792
Si Si7 0.492368 0.072025 0.338548
Si Si8 0.607673 0.428094 0.089315
O O1 0.633887 0.250000 0.869956
O O2 0.557436 0.465503 0.882360
O O3 0.660884 0.528482 0.836003
O O4 0.637129 0.456535 0.996387
O O5 0.885553 0.750000 0.908524
O O6 0.854200 0.498263 0.835590
O O7 0.956857 0.526235 0.902075
O O8 0.871115 0.508193 0.006091
O O9 0.871421 0.750000 0.109011
O O10 0.831263 0.495787 0.163110
O O11 0.939427 0.530068 0.139337
O O12 0.492554 0.250000 0.816789
O O13 0.487504 0.533452 0.757913
O O14 0.449426 0.474808 0.908763
O O15 0.821235 0.750000 0.756964
O O16 0.757971 0.995082 0.757005
O O17 0.850184 0.986318 0.663979
O O18 0.304521 0.250000 0.259192
O O19 0.476718 0.250000 0.345561
O O20 0.592656 0.250000 0.100387
#
# Coordination Sequence:
#
# PCOD8253414 Si02
#       8
#     8   8   8   8   8   8   8   8
#     4  10  22  38  58  85 117 152 187 233 289 339
#     4   9  19  36  60  86 113 149 187 231 287 340
#     4  11  22  37  58  85 119 150 183 235 290 339
#     4  11  21  34  55  87 123 151 183 233 286 340
#     4   9  19  38  60  83 110 146 197 242 280 331
#     4  11  23  38  59  82 110 152 197 240 281 334
#     4  11  20  35  61  87 113 151 193 228 280 348
#     4  10  20  38  63  85 113 153 191 232 284 344
#
# _framework density 19.822773999999999
#
# number of rings (size 3 to 8) (size 9 to 14) (size 15 to 20)
#    0.000    1.750    2.500    2.250    0.000    2.000 
#    0.000    3.125    0.000    0.000    0.000    0.000 
#    0.000    0.000    0.000    0.000    0.000    0.000 
#
# Total GULP energy -793727.889103 kJ/mol
# GULP energy per Si atom -12401.998267 kJ/mol
# Density = 1.977766 g / cm^3
# Si number density = 19.822774 Si / 1000 Ang^3
#
#
#
# Elastic Constant Matrix: (Units=GPa)
#
#
# Indices 1 2 3 4 5 6 
#
# 1 98.1430 27.7244 24.4993 0.0000 0.0000 0.0000
# 2 27.7244 44.5515 22.2025 0.0000 0.0000 0.0000
# 3 24.4993 22.2025 110.4942 0.0000 0.0000 0.0000
# 4 0.0000 0.0000 0.0000 18.0812 0.0000 0.0000
# 5 0.0000 0.0000 0.0000 0.0000 14.2880 0.0000
# 6 0.0000 0.0000 0.0000 0.0000 0.0000 10.7126
#
#
#
# Elastic Compliance Matrix: (Units=1/GPa)
#
#
# Indices 1 2 3 4 5 6 
#
# 1 0.012540 -0.007132 -0.001347 0.000000 0.000000 0.000000
# 2 -0.007132 0.029000 -0.004246 0.000000 0.000000 0.000000
# 3 -0.001347 -0.004246 0.010202 0.000000 0.000000 0.000000
# 4 0.000000 0.000000 0.000000 0.055306 0.000000 0.000000
# 5 0.000000 0.000000 0.000000 0.000000 0.069989 0.000000
# 6 0.000000 0.000000 0.000000 0.000000 0.000000 0.093348
#
#
# Mechanical properties :
#
#
# Convention : Reuss Voigt Hill
#
# Bulk Modulus (GPa) = 38.03485 44.67124 41.35304
# Shear Modulus (GPa) = 16.41494 20.53387 18.47441
#
# Velocity S-wave (km/s) = 2.88077 3.22199 3.05614
# Velocity P-wave (km/s) = 5.50402 6.03538 5.77581
#
# Compressibility (1/GPa) = 0.02629168
#
# Stress axis : x y z
#
# Youngs Moduli (GPa) = 79.74239 34.48229 98.01861
#
# Poissons Ratio (x) = 0.24594 0.13206
# Poissons Ratio (y) = 0.56876 0.41617
# Poissons Ratio (z) = 0.10744 0.14641
#
# Static dielectric constant tensor:
#      x y z
#    x 3.655790 0.000000 0.000000 
#    y 0.000000 3.331040 0.000000 
#    z 0.000000 0.000000 3.908490 
# 
# 
# High freq. dielectric constant tensor:
#      x y z
#    x 1.770550 0.000000 0.000000 
#    y 0.000000 1.749500 0.000000 
#    z 0.000000 0.000000 1.787690 
# 
# From -- ./inp_files/20898.got.cif
#   From: 2010.03.12/outbox.cif.g09.slc.cpg/sg62_11_cif.got.tgz:20898.got - 2010.04.10 19:12:36.
