data_PCOD8253216
_publ_section_title
;
Structure prediction by ZEFSAII (Michael W. Deem and Ramdas Pophale) SiO2 
 PCOD8253216
Probable space group: P N M A
;
_chemical_formula_sum "Si O2"
_cell_formula_units_Z 32
_cell_length_a 10.222709
_cell_length_b 9.000255
_cell_length_c 17.553507
_cell_angle_alpha 90.000000
_cell_angle_beta 90.000000
_cell_angle_gamma 90.000000
_cell_volume 1615.045304
_symmetry_space_group_name_H-M "P N M A"
_symmetry_group_IT_number 62
_symmetry_cell_setting 'orthorhombic'
loop_
_space_group_symop_operation_xyz
x,y,z
1/2-x,-y,1/2+z
1/2+x,1/2-y,1/2-z
-x,1/2+y,-z
-x,-y,-z
1/2+x,y,1/2-z
1/2-x,1/2+y,1/2+z
x,1/2-y,z
loop_
_atom_site_type_symbol
_atom_site_label
_atom_site_fract_x
_atom_site_fract_y
_atom_site_fract_z
Si Si1 0.511840 0.076300 0.650034
Si Si2 0.971092 0.923741 0.326389
Si Si3 0.240819 0.074244 0.090643
Si Si4 0.782249 0.425697 0.580650
O O1 0.495309 0.250000 0.631547
O O2 0.495567 0.044282 0.739092
O O3 0.651723 0.014835 0.621747
O O4 0.403777 0.986322 0.604002
O O5 0.947876 0.750000 0.341152
O O6 0.090184 0.989610 0.376573
O O7 0.838559 0.007728 0.347287
O O8 0.238768 0.250000 0.098031
O O9 0.286662 0.022620 0.006808
O O10 0.784138 0.250000 0.588445
#
# Coordination Sequence:
#
# PCOD8253216 Si02
#       4
#     8   8   8   8
#     4  10  20  37  60  81 104 141 187 227 262 311
#     4  10  20  37  60  81 104 141 187 227 262 311
#     4  11  22  35  53  81 116 145 172 218 276 327
#     4   9  19  35  55  81 110 141 182 226 266 313
#
# _framework density 19.813687000000002
#
# number of rings (size 3 to 8) (size 9 to 14) (size 15 to 20)
#    0.000    2.000    0.000    3.750    0.000    5.000 
#    0.000    3.750    0.000    0.000    0.000    0.000 
#    0.000    0.000    0.000    0.000    0.000    0.000 
#
# Total GULP energy -396944.251804 kJ/mol
# GULP energy per Si atom -12404.507869 kJ/mol
# Density = 1.976859 g / cm^3
# Si number density = 19.813687 Si / 1000 Ang^3
#
#
#
# Elastic Constant Matrix: (Units=GPa)
#
#
# Indices 1 2 3 4 5 6 
#
# 1 99.2084 20.5041 8.1510 0.0000 0.0000 0.0000
# 2 20.5041 43.9529 29.3191 0.0000 0.0000 0.0000
# 3 8.1510 29.3191 62.3847 0.0000 0.0000 0.0000
# 4 0.0000 0.0000 0.0000 16.3116 0.0000 0.0000
# 5 0.0000 0.0000 0.0000 0.0000 42.6139 0.0000
# 6 0.0000 0.0000 0.0000 0.0000 0.0000 27.2288
#
#
#
# Elastic Compliance Matrix: (Units=1/GPa)
#
#
# Indices 1 2 3 4 5 6 
#
# 1 0.011245 -0.006214 0.001451 0.000000 0.000000 0.000000
# 2 -0.006214 0.036575 -0.016377 0.000000 0.000000 0.000000
# 3 0.001451 -0.016377 0.023537 0.000000 0.000000 0.000000
# 4 0.000000 0.000000 0.000000 0.061306 0.000000 0.000000
# 5 0.000000 0.000000 0.000000 0.000000 0.023467 0.000000
# 6 0.000000 0.000000 0.000000 0.000000 0.000000 0.036726
#
#
# Mechanical properties :
#
#
# Convention : Reuss Voigt Hill
#
# Bulk Modulus (GPa) = 34.39181 35.72159 35.05670
# Shear Modulus (GPa) = 20.42257 27.06898 23.74577
#
# Velocity S-wave (km/s) = 3.21398 3.70019 3.46562
# Velocity P-wave (km/s) = 5.58285 6.02687 5.80910
#
# Compressibility (1/GPa) = 0.02907669
#
# Stress axis : x y z
#
# Youngs Moduli (GPa) = 88.93008 27.34115 42.48647
#
# Poissons Ratio (x) = 0.16989 -0.06165
# Poissons Ratio (y) = 0.55258 0.69582
# Poissons Ratio (z) = -0.12904 0.44778
#
# Static dielectric constant tensor:
#      x y z
#    x 3.757440 0.000000 0.000000 
#    y 0.000000 3.261990 0.000000 
#    z 0.000000 0.000000 3.745890 
# 
# 
# High freq. dielectric constant tensor:
#      x y z
#    x 1.790070 0.000000 0.000000 
#    y 0.000000 1.739110 0.000000 
#    z 0.000000 0.000000 1.786800 
# 
# From -- ./inp_files/16448.got.cif
#   From: 2010.03.12/outbox.cif.g09.slc.cpg/sg62_9_cif.got.tgz:16448.got - 2010.04.10 19:12:36.
