data_PCOD8253034
_publ_section_title
;
Structure prediction by ZEFSAII (Michael W. Deem and Ramdas Pophale) SiO2 
 PCOD8253034
Probable space group: P N M A
;
_chemical_formula_sum "Si O2"
_cell_formula_units_Z 40
_cell_length_a 5.128969
_cell_length_b 16.262863
_cell_length_c 20.149592
_cell_angle_alpha 90.000000
_cell_angle_beta 90.000000
_cell_angle_gamma 90.000000
_cell_volume 1680.712130
_symmetry_space_group_name_H-M "P N M A"
_symmetry_group_IT_number 62
_symmetry_cell_setting 'orthorhombic'
loop_
_space_group_symop_operation_xyz
x,y,z
1/2-x,-y,1/2+z
1/2+x,1/2-y,1/2-z
-x,1/2+y,-z
-x,-y,-z
1/2+x,y,1/2-z
1/2-x,1/2+y,1/2+z
x,1/2-y,z
loop_
_atom_site_type_symbol
_atom_site_label
_atom_site_fract_x
_atom_site_fract_y
_atom_site_fract_z
Si Si1 0.486586 0.348046 0.456801
Si Si2 0.504100 0.944272 0.932945
Si Si3 0.577567 0.659034 0.397955
Si Si4 0.457242 0.495017 0.215461
Si Si5 0.904762 0.158610 0.679773
O O1 0.453816 0.250000 0.448289
O O2 0.264531 0.396709 0.416366
O O3 0.433200 0.383163 0.530675
O O4 0.774526 0.374606 0.436255
O O5 0.562822 0.994581 0.864970
O O6 0.500000 0.000000 0.000000
O O7 0.457764 0.750000 0.406847
O O8 0.364114 0.618286 0.348988
O O9 0.876323 0.663821 0.376987
O O10 0.211452 0.452656 0.251585
O O11 0.483127 0.593443 0.233517
O O12 0.864270 0.250000 0.712550
#
# Coordination Sequence:
#
# PCOD8253034 Si02
#       5
#     8   8   8   8   8
#     4  11  22  39  66  98 132 169 217 278 331 384
#     4  12  25  43  70 101 134 172 220 270 328 397
#     4   9  17  31  55  89 124 156 199 257 311 356
#     4  12  26  43  63  90 130 172 209 263 331 389
#     4  10  20  36  58  86 125 173 217 250 295 378
#
# _framework density 23.799433000000001
#
# number of rings (size 3 to 8) (size 9 to 14) (size 15 to 20)
#    0.000    1.200    0.000    7.200    0.000    4.000 
#    0.000    0.000    0.000   14.400    0.000    0.000 
#    0.000    0.000    0.000    0.000    0.000    0.000 
#
# Total GULP energy -495543.558884 kJ/mol
# GULP energy per Si atom -12388.588972 kJ/mol
# Density = 2.374526 g / cm^3
# Si number density = 23.799433 Si / 1000 Ang^3
#
#
#
# Elastic Constant Matrix: (Units=GPa)
#
#
# Indices 1 2 3 4 5 6 
#
# 1 114.5545 26.5631 20.5806 0.0000 0.0000 0.0000
# 2 26.5631 74.3455 13.7754 0.0000 0.0000 0.0000
# 3 20.5806 13.7754 114.0851 0.0000 0.0000 0.0000
# 4 0.0000 0.0000 0.0000 19.4817 0.0000 0.0000
# 5 0.0000 0.0000 0.0000 0.0000 38.9333 0.0000
# 6 0.0000 0.0000 0.0000 0.0000 0.0000 30.5414
#
#
#
# Elastic Compliance Matrix: (Units=1/GPa)
#
#
# Indices 1 2 3 4 5 6 
#
# 1 0.009721 -0.003221 -0.001365 0.000000 0.000000 0.000000
# 2 -0.003221 0.014825 -0.001209 0.000000 0.000000 0.000000
# 3 -0.001365 -0.001209 0.009158 0.000000 0.000000 0.000000
# 4 0.000000 0.000000 0.000000 0.051330 0.000000 0.000000
# 5 0.000000 0.000000 0.000000 0.000000 0.025685 0.000000
# 6 0.000000 0.000000 0.000000 0.000000 0.000000 0.032742
#
#
# Mechanical properties :
#
#
# Convention : Reuss Voigt Hill
#
# Bulk Modulus (GPa) = 45.21725 47.20258 46.20992
# Shear Modulus (GPa) = 30.78383 33.92901 32.35642
#
# Velocity S-wave (km/s) = 3.60038 3.77984 3.69120
# Velocity P-wave (km/s) = 6.02696 6.23908 6.13394
#
# Compressibility (1/GPa) = 0.02211545
#
# Stress axis : x y z
#
# Youngs Moduli (GPa) = 102.86522 67.45172 109.19884
#
# Poissons Ratio (x) = 0.21723 0.14904
# Poissons Ratio (y) = 0.33128 0.13204
# Poissons Ratio (z) = 0.14040 0.08156
#
# Static dielectric constant tensor:
#      x y z
#    x 4.642220 0.000000 0.000000 
#    y 0.000000 4.117610 0.000000 
#    z 0.000000 0.000000 4.114850 
# 
# 
# High freq. dielectric constant tensor:
#      x y z
#    x 1.976280 0.000000 0.000000 
#    y 0.000000 1.911280 0.000000 
#    z 0.000000 0.000000 1.927990 
# 
# From -- ./inp_files/21500.got.cif
#   From: 2010.03.12/outbox.cif.g09.slc.cpg/sg62_11_cif.got.tgz:21500.got - 2010.04.10 19:12:36.
