data_PCOD8253179
_publ_section_title
;
Structure prediction by ZEFSAII (Michael W. Deem and Ramdas Pophale) SiO2 
 PCOD8253179
Probable space group: P N M A
;
_chemical_formula_sum "Si O2"
_cell_formula_units_Z 48
_cell_length_a 14.730962
_cell_length_b 9.089955
_cell_length_c 17.732415
_cell_angle_alpha 90.000000
_cell_angle_beta 90.000000
_cell_angle_gamma 90.000000
_cell_volume 2374.437427
_symmetry_space_group_name_H-M "P N M A"
_symmetry_group_IT_number 62
_symmetry_cell_setting 'orthorhombic'
loop_
_space_group_symop_operation_xyz
x,y,z
1/2-x,-y,1/2+z
1/2+x,1/2-y,1/2-z
-x,1/2+y,-z
-x,-y,-z
1/2+x,y,1/2-z
1/2-x,1/2+y,1/2+z
x,1/2-y,z
loop_
_atom_site_type_symbol
_atom_site_label
_atom_site_fract_x
_atom_site_fract_y
_atom_site_fract_z
Si Si1 0.120141 0.076160 0.246018
Si Si2 0.198215 0.419157 0.964761
Si Si3 0.638315 0.586074 0.401685
Si Si4 0.539307 0.078160 0.820119
Si Si5 0.299998 0.580888 0.291582
Si Si6 0.831356 0.913092 0.448299
O O1 0.114849 0.250000 0.239255
O O2 0.092553 0.004974 0.165672
O O3 0.220264 0.029074 0.269723
O O4 0.050087 0.018706 0.308878
O O5 0.194583 0.250000 0.987615
O O6 0.173986 0.446720 0.878540
O O7 0.124724 0.506140 0.016911
O O8 0.301209 0.478135 0.983805
O O9 0.595249 0.750000 0.403989
O O10 0.747659 0.594902 0.387625
O O11 0.513684 0.250000 0.818880
O O12 0.610646 0.040681 0.754727
O O13 0.580787 0.033010 0.901791
O O14 0.268749 0.750000 0.278990
O O15 0.848155 0.750000 0.482096
#
# Coordination Sequence:
#
# PCOD8253179 Si02
#       6
#     8   8   8   8   8   8
#     4  12  24  35  55  86 114 142 183 234 279 324
#     4   9  17  30  56  86 110 140 180 227 276 325
#     4   9  17  34  56  76 105 145 182 215 269 330
#     4  10  20  37  59  80 107 146 189 226 270 332
#     4  10  20  38  60  83 112 148 185 225 277 332
#     4   8  16  32  56  77 102 145 183 215 268 329
#
# _framework density 20.215315
#
# number of rings (size 3 to 8) (size 9 to 14) (size 15 to 20)
#    1.000    1.333    1.667    2.000    0.000    2.667 
#    0.000    1.667    0.000    0.000    0.000    0.000 
#    0.000    0.000    0.000    0.000    0.000    0.000 
#
# Total GULP energy -594884.996531 kJ/mol
# GULP energy per Si atom -12393.437428 kJ/mol
# Density = 2.016930 g / cm^3
# Si number density = 20.215315 Si / 1000 Ang^3
#
#
#
# Elastic Constant Matrix: (Units=GPa)
#
#
# Indices 1 2 3 4 5 6 
#
# 1 28.8907 8.8074 -14.5873 0.0000 0.0000 0.0000
# 2 8.8074 108.6909 12.4932 0.0000 0.0000 0.0000
# 3 -14.5873 12.4932 28.0344 0.0000 0.0000 0.0000
# 4 0.0000 0.0000 0.0000 29.3564 0.0000 0.0000
# 5 0.0000 0.0000 0.0000 0.0000 8.4301 0.0000
# 6 0.0000 0.0000 0.0000 0.0000 0.0000 19.6422
#
#
#
# Elastic Compliance Matrix: (Units=1/GPa)
#
#
# Indices 1 2 3 4 5 6 
#
# 1 0.052554 -0.007801 0.030822 0.000000 0.000000 0.000000
# 2 -0.007801 0.010855 -0.008897 0.000000 0.000000 0.000000
# 3 0.030822 -0.008897 0.055673 0.000000 0.000000 0.000000
# 4 0.000000 0.000000 0.000000 0.034064 0.000000 0.000000
# 5 0.000000 0.000000 0.000000 0.000000 0.118623 0.000000
# 6 0.000000 0.000000 0.000000 0.000000 0.000000 0.050911
#
#
# Mechanical properties :
#
#
# Convention : Reuss Voigt Hill
#
# Bulk Modulus (GPa) = 6.78745 19.89364 13.34054
# Shear Modulus (GPa) = 14.55425 22.07926 18.31675
#
# Velocity S-wave (km/s) = 2.68612 3.30844 3.01339
# Velocity P-wave (km/s) = 3.60350 4.94536 4.32676
#
# Compressibility (1/GPa) = 0.14733080
#
# Stress axis : x y z
#
# Youngs Moduli (GPa) = 19.02802 92.12192 17.96197
#
# Poissons Ratio (x) = 0.71868 -0.55363
# Poissons Ratio (y) = 0.14844 0.15980
# Poissons Ratio (z) = -0.58649 0.81959
#
# Static dielectric constant tensor:
#      x y z
#    x 3.263640 0.000000 0.000000 
#    y 0.000000 3.549790 0.000000 
#    z 0.000000 0.000000 3.546530 
# 
# 
# High freq. dielectric constant tensor:
#      x y z
#    x 1.755810 0.000000 0.000000 
#    y 0.000000 1.784960 0.000000 
#    z 0.000000 0.000000 1.787050 
# 
# From -- ./inp_files/26896.got.cif
#   From: 2010.03.12/outbox.cif.g09.slc.cpg/sg62_14_cif.got.tgz:26896.got - 2010.04.10 19:12:36.
