data_PCOD8253407
_publ_section_title
;
Structure prediction by ZEFSAII (Michael W. Deem and Ramdas Pophale) SiO2 
 PCOD8253407
Probable space group: P N M A
;
_chemical_formula_sum "Si O2"
_cell_formula_units_Z 40
_cell_length_a 18.614050
_cell_length_b 8.365137
_cell_length_c 12.362640
_cell_angle_alpha 90.000000
_cell_angle_beta 90.000000
_cell_angle_gamma 90.000000
_cell_volume 1924.975281
_symmetry_space_group_name_H-M "P N M A"
_symmetry_group_IT_number 62
_symmetry_cell_setting 'orthorhombic'
loop_
_space_group_symop_operation_xyz
x,y,z
1/2-x,-y,1/2+z
1/2+x,1/2-y,1/2-z
-x,1/2+y,-z
-x,-y,-z
1/2+x,y,1/2-z
1/2-x,1/2+y,1/2+z
x,1/2-y,z
loop_
_atom_site_type_symbol
_atom_site_label
_atom_site_fract_x
_atom_site_fract_y
_atom_site_fract_z
Si Si1 0.881340 0.436153 0.192305
Si Si2 0.544310 0.439683 0.293695
Si Si3 0.071097 0.439067 0.443930
Si Si4 0.805157 0.936305 0.398561
Si Si5 0.157381 0.063723 0.032941
O O1 0.878155 0.250000 0.223053
O O2 0.838921 0.536507 0.281202
O O3 0.963166 0.499854 0.187471
O O4 0.843858 0.464400 0.077488
O O5 0.547120 0.250000 0.293589
O O6 0.573871 0.504954 0.178819
O O7 0.594747 0.505456 0.389286
O O8 0.068737 0.250000 0.445434
O O9 0.140426 0.500559 0.509225
O O10 0.000000 0.500000 0.500000
O O11 0.788028 0.750000 0.413950
O O12 0.732869 0.037960 0.407804
O O13 0.145719 0.250000 0.008378
#
# Coordination Sequence:
#
# PCOD8253407 Si02
#       5
#     8   8   8   8   8
#     4  11  22  41  66  89 122 162 205 256 311 369
#     4   9  20  39  64  91 120 160 204 253 311 367
#     4  10  20  38  62  89 121 157 202 253 305 364
#     4  11  24  40  61  93 127 162 206 255 309 370
#     4  11  24  41  63  91 126 165 207 255 310 369
#
# _framework density 20.779489000000002
#
# number of rings (size 3 to 8) (size 9 to 14) (size 15 to 20)
#    0.000    1.600    2.000    2.400    2.800    0.800 
#    0.000    5.000    0.000    0.000    0.000    0.000 
#    0.000    0.000    0.000    0.000    0.000    0.000 
#
# Total GULP energy -496191.864152 kJ/mol
# GULP energy per Si atom -12404.796604 kJ/mol
# Density = 2.073219 g / cm^3
# Si number density = 20.779489 Si / 1000 Ang^3
#
#
#
# Elastic Constant Matrix: (Units=GPa)
#
#
# Indices 1 2 3 4 5 6 
#
# 1 129.0525 9.1525 48.5317 0.0000 0.0000 0.0000
# 2 9.1525 30.2728 10.5307 0.0000 0.0000 0.0000
# 3 48.5317 10.5307 133.4950 0.0000 0.0000 0.0000
# 4 0.0000 0.0000 0.0000 22.4931 0.0000 0.0000
# 5 0.0000 0.0000 0.0000 0.0000 39.3932 0.0000
# 6 0.0000 0.0000 0.0000 0.0000 0.0000 29.2934
#
#
#
# Elastic Compliance Matrix: (Units=1/GPa)
#
#
# Indices 1 2 3 4 5 6 
#
# 1 0.009054 -0.001637 -0.003162 0.000000 0.000000 0.000000
# 2 -0.001637 0.034261 -0.002107 0.000000 0.000000 0.000000
# 3 -0.003162 -0.002107 0.008807 0.000000 0.000000 0.000000
# 4 0.000000 0.000000 0.000000 0.044458 0.000000 0.000000
# 5 0.000000 0.000000 0.000000 0.000000 0.025385 0.000000
# 6 0.000000 0.000000 0.000000 0.000000 0.000000 0.034137
#
#
# Mechanical properties :
#
#
# Convention : Reuss Voigt Hill
#
# Bulk Modulus (GPa) = 26.10439 47.69445 36.89942
# Shear Modulus (GPa) = 27.36932 33.20963 30.28948
#
# Velocity S-wave (km/s) = 3.63317 4.00208 3.82208
# Velocity P-wave (km/s) = 5.49452 6.66018 6.10523
#
# Compressibility (1/GPa) = 0.03830773
#
# Stress axis : x y z
#
# Youngs Moduli (GPa) = 110.44620 29.18766 113.54783
#
# Poissons Ratio (x) = 0.04779 0.35909
# Poissons Ratio (y) = 0.18083 0.23929
# Poissons Ratio (z) = 0.34928 0.06151
#
# Static dielectric constant tensor:
#      x y z
#    x 3.891520 0.000000 0.000000 
#    y 0.000000 3.439980 0.000000 
#    z 0.000000 0.000000 3.991220 
# 
# 
# High freq. dielectric constant tensor:
#      x y z
#    x 1.821540 0.000000 0.000000 
#    y 0.000000 1.792540 0.000000 
#    z 0.000000 0.000000 1.828100 
# 
# From -- ./inp_files/13837.got.cif
#   From: 2010.03.12/outbox.cif.g09.slc.cpg/sg62_7_cif.got.tgz:13837.got - 2010.04.10 19:12:36.
