data_PCOD8253990
_publ_section_title
;
Structure prediction by ZEFSAII (Michael W. Deem and Ramdas Pophale) SiO2 
 PCOD8253990
Probable space group: P N M A
;
_chemical_formula_sum "Si O2"
_cell_formula_units_Z 64
_cell_length_a 19.177182
_cell_length_b 8.832271
_cell_length_c 18.696965
_cell_angle_alpha 90.000000
_cell_angle_beta 90.000000
_cell_angle_gamma 90.000000
_cell_volume 3166.855817
_symmetry_space_group_name_H-M "P N M A"
_symmetry_group_IT_number 62
_symmetry_cell_setting 'orthorhombic'
loop_
_space_group_symop_operation_xyz
x,y,z
1/2-x,-y,1/2+z
1/2+x,1/2-y,1/2-z
-x,1/2+y,-z
-x,-y,-z
1/2+x,y,1/2-z
1/2-x,1/2+y,1/2+z
x,1/2-y,z
loop_
_atom_site_type_symbol
_atom_site_label
_atom_site_fract_x
_atom_site_fract_y
_atom_site_fract_z
Si Si1 0.388635 0.923289 0.156342
Si Si2 0.970476 0.570974 0.696695
Si Si3 0.654965 0.072751 0.443975
Si Si4 0.294654 0.576251 0.024384
Si Si5 0.325343 0.570377 0.865063
Si Si6 0.187700 0.928588 0.785276
Si Si7 0.951886 0.077907 0.845130
Si Si8 0.401787 0.577631 0.404002
O O1 0.399355 0.750000 0.179708
O O2 0.361573 0.937105 0.075325
O O3 0.462880 0.005185 0.155999
O O4 0.332181 0.994602 0.210435
O O5 0.973624 0.750000 0.690680
O O6 0.899314 0.505773 0.661919
O O7 0.973764 0.523387 0.778558
O O8 0.645358 0.250000 0.431043
O O9 0.622318 0.019155 0.518899
O O10 0.735498 0.028642 0.441694
O O11 0.618129 0.985339 0.379711
O O12 0.268531 0.750000 0.019744
O O13 0.312994 0.512269 0.945791
O O14 0.327011 0.750000 0.864672
O O15 0.263545 0.513455 0.812452
O O16 0.187524 0.750000 0.773464
O O17 0.130561 0.969403 0.844459
O O18 0.939263 0.250000 0.820279
O O19 0.014660 0.067050 0.901985
O O20 0.376467 0.750000 0.390523
#
# Coordination Sequence:
#
# PCOD8253990 Si02
#       8
#     8   8   8   8   8   8   8   8
#     4  11  24  41  62  90 124 159 203 253 305 365
#     4  11  23  41  64  91 122 160 205 256 306 359
#     4  11  23  38  59  91 126 159 202 254 302 359
#     4  10  22  43  65  87 119 162 204 252 309 361
#     4   9  21  41  64  91 121 156 202 253 303 359
#     4  11  21  37  65  91 119 160 201 245 301 362
#     4  11  23  39  59  87 126 167 205 246 300 366
#     4  10  21  38  60  88 124 161 199 247 299 360
#
# _framework density 20.209319000000001
#
# number of rings (size 3 to 8) (size 9 to 14) (size 15 to 20)
#    0.000    1.500    2.500    2.250    1.750    2.500 
#    0.000    3.125    0.000    0.000    0.000    0.000 
#    0.000    0.000    0.000    0.000    0.000    0.000 
#
# Total GULP energy -793887.171335 kJ/mol
# GULP energy per Si atom -12404.487052 kJ/mol
# Density = 2.016332 g / cm^3
# Si number density = 20.209319 Si / 1000 Ang^3
#
#
#
# Elastic Constant Matrix: (Units=GPa)
#
#
# Indices 1 2 3 4 5 6 
#
# 1 136.5908 38.4833 40.4323 0.0000 0.0000 0.0000
# 2 38.4833 73.0114 28.1634 0.0000 0.0000 0.0000
# 3 40.4323 28.1634 46.8917 0.0000 0.0000 0.0000
# 4 0.0000 0.0000 0.0000 20.0749 0.0000 0.0000
# 5 0.0000 0.0000 0.0000 0.0000 38.3346 0.0000
# 6 0.0000 0.0000 0.0000 0.0000 0.0000 28.1193
#
#
#
# Elastic Compliance Matrix: (Units=1/GPa)
#
#
# Indices 1 2 3 4 5 6 
#
# 1 0.010190 -0.002579 -0.007237 0.000000 0.000000 0.000000
# 2 -0.002579 0.018479 -0.008875 0.000000 0.000000 0.000000
# 3 -0.007237 -0.008875 0.032896 0.000000 0.000000 0.000000
# 4 0.000000 0.000000 0.000000 0.049813 0.000000 0.000000
# 5 0.000000 0.000000 0.000000 0.000000 0.026086 0.000000
# 6 0.000000 0.000000 0.000000 0.000000 0.000000 0.035563
#
#
# Mechanical properties :
#
#
# Convention : Reuss Voigt Hill
#
# Bulk Modulus (GPa) = 41.35126 52.29465 46.82295
# Shear Modulus (GPa) = 22.88623 27.26675 25.07649
#
# Velocity S-wave (km/s) = 3.36885 3.67715 3.52637
# Velocity P-wave (km/s) = 5.96977 6.63033 6.30870
#
# Compressibility (1/GPa) = 0.02418306
#
# Stress axis : x y z
#
# Youngs Moduli (GPa) = 98.13382 54.11436 30.39856
#
# Poissons Ratio (x) = 0.13958 0.22000
# Poissons Ratio (y) = 0.25313 0.26978
# Poissons Ratio (z) = 0.71022 0.48025
#
# Static dielectric constant tensor:
#      x y z
#    x 3.807570 0.000000 0.000000 
#    y 0.000000 3.602450 0.000000 
#    z 0.000000 0.000000 3.699240 
# 
# 
# High freq. dielectric constant tensor:
#      x y z
#    x 1.796580 0.000000 0.000000 
#    y 0.000000 1.782400 0.000000 
#    z 0.000000 0.000000 1.790110 
# 
# From -- ./inp_files/24735.got.cif
#   From: 2010.03.12/outbox.cif.g09.slc.cpg/sg62_13_cif.got.tgz:24735.got - 2010.04.10 19:12:36.
