data_PCOD8253816
_publ_section_title
;
Structure prediction by ZEFSAII (Michael W. Deem and Ramdas Pophale) SiO2 
 PCOD8253816
Probable space group: P N M A
;
_chemical_formula_sum "Si O2"
_cell_formula_units_Z 64
_cell_length_a 19.698778
_cell_length_b 8.658823
_cell_length_c 19.738292
_cell_angle_alpha 90.000000
_cell_angle_beta 90.000000
_cell_angle_gamma 90.000000
_cell_volume 3366.725570
_symmetry_space_group_name_H-M "P N M A"
_symmetry_group_IT_number 62
_symmetry_cell_setting 'orthorhombic'
loop_
_space_group_symop_operation_xyz
x,y,z
1/2-x,-y,1/2+z
1/2+x,1/2-y,1/2-z
-x,1/2+y,-z
-x,-y,-z
1/2+x,y,1/2-z
1/2-x,1/2+y,1/2+z
x,1/2-y,z
loop_
_atom_site_type_symbol
_atom_site_label
_atom_site_fract_x
_atom_site_fract_y
_atom_site_fract_z
Si Si1 0.674872 0.427343 0.580213
Si Si2 0.432643 0.071605 0.673069
Si Si3 0.079296 0.926477 0.326591
Si Si4 0.577617 0.427325 0.825389
Si Si5 0.572985 0.571054 0.681931
Si Si6 0.673227 0.570768 0.933552
Si Si7 0.172837 0.426300 0.076278
Si Si8 0.681507 0.071371 0.073654
O O1 0.664538 0.250000 0.601679
O O2 0.627288 0.536870 0.624006
O O3 0.655128 0.452994 0.502141
O O4 0.752928 0.471088 0.592736
O O5 0.454197 0.250000 0.669491
O O6 0.406819 0.030983 0.748362
O O7 0.498559 0.971745 0.653939
O O8 0.373001 0.038810 0.620572
O O9 0.099943 0.750000 0.341848
O O10 0.000658 0.954237 0.344104
O O11 0.123135 0.041143 0.371770
O O12 0.598922 0.250000 0.835461
O O13 0.591610 0.472377 0.747975
O O14 0.622017 0.534625 0.873448
O O15 0.575349 0.750000 0.701062
O O16 0.669335 0.750000 0.953404
O O17 0.749175 0.528458 0.909688
O O18 0.652958 0.473512 0.999791
O O19 0.158725 0.250000 0.097682
O O20 0.701521 0.250000 0.074654
#
# Coordination Sequence:
#
# PCOD8253816 Si02
#       8
#     8   8   8   8   8   8   8   8
#     4  10  21  39  59  80 111 147 184 228 276 327
#     4  10  21  37  58  82 110 145 183 225 273 326
#     4   9  20  38  56  78 110 147 184 223 273 329
#     4  10  21  38  59  83 112 145 184 228 274 327
#     4  11  22  37  58  83 112 145 183 227 274 327
#     4  10  21  38  58  81 113 149 185 227 275 327
#     4   9  20  37  57  81 109 143 182 226 273 322
#     4  11  22  36  57  84 111 143 185 230 278 329
#
# _framework density 19.00957
#
# number of rings (size 3 to 8) (size 9 to 14) (size 15 to 20)
#    0.000    2.000    0.000    5.250    0.000    8.000 
#    0.000    2.500    0.000    0.000    0.000    0.000 
#    0.000    0.000    0.000    0.000    0.000    0.000 
#
# Total GULP energy -793955.493592 kJ/mol
# GULP energy per Si atom -12405.554587 kJ/mol
# Density = 1.896630 g / cm^3
# Si number density = 19.009570 Si / 1000 Ang^3
#
#
#
# Elastic Constant Matrix: (Units=GPa)
#
#
# Indices 1 2 3 4 5 6 
#
# 1 81.4970 26.2026 58.3589 0.0000 0.0000 0.0000
# 2 26.2026 70.2737 24.4641 0.0000 0.0000 0.0000
# 3 58.3589 24.4641 82.6572 0.0000 0.0000 0.0000
# 4 0.0000 0.0000 0.0000 34.2497 0.0000 0.0000
# 5 0.0000 0.0000 0.0000 0.0000 37.4262 0.0000
# 6 0.0000 0.0000 0.0000 0.0000 0.0000 33.4631
#
#
#
# Elastic Compliance Matrix: (Units=1/GPa)
#
#
# Indices 1 2 3 4 5 6 
#
# 1 0.025622 -0.003630 -0.017016 0.000000 0.000000 0.000000
# 2 -0.003630 0.016379 -0.002285 0.000000 0.000000 0.000000
# 3 -0.017016 -0.002285 0.024788 0.000000 0.000000 0.000000
# 4 0.000000 0.000000 0.000000 0.029197 0.000000 0.000000
# 5 0.000000 0.000000 0.000000 0.000000 0.026719 0.000000
# 6 0.000000 0.000000 0.000000 0.000000 0.000000 0.029884
#
#
# Mechanical properties :
#
#
# Convention : Reuss Voigt Hill
#
# Bulk Modulus (GPa) = 47.78253 50.27546 49.02899
# Shear Modulus (GPa) = 24.33949 29.38796 26.86372
#
# Velocity S-wave (km/s) = 3.58212 3.93613 3.76329
# Velocity P-wave (km/s) = 6.50380 6.86749 6.68812
#
# Compressibility (1/GPa) = 0.02092815
#
# Stress axis : x y z
#
# Youngs Moduli (GPa) = 39.02834 61.05392 40.34162
#
# Poissons Ratio (x) = 0.22162 0.68645
# Poissons Ratio (y) = 0.14167 0.09217
# Poissons Ratio (z) = 0.66411 0.13950
#
# Static dielectric constant tensor:
#      x y z
#    x 3.394100 0.000000 0.000000 
#    y 0.000000 3.451230 0.000000 
#    z 0.000000 0.000000 3.410300 
# 
# 
# High freq. dielectric constant tensor:
#      x y z
#    x 1.737520 0.000000 0.000000 
#    y 0.000000 1.747710 0.000000 
#    z 0.000000 0.000000 1.738200 
# 
# From -- ./inp_files/27735.got.cif
#   From: 2010.03.12/outbox.cif.g09.slc.cpg/sg62_14_cif.got.tgz:27735.got - 2010.04.10 19:12:36.
