data_PCOD8253952
_publ_section_title
;
Structure prediction by ZEFSAII (Michael W. Deem and Ramdas Pophale) SiO2 
 PCOD8253952
Probable space group: P N M A
;
_chemical_formula_sum "Si O2"
_cell_formula_units_Z 64
_cell_length_a 18.767446
_cell_length_b 18.415678
_cell_length_c 9.873010
_cell_angle_alpha 90.000000
_cell_angle_beta 90.000000
_cell_angle_gamma 90.000000
_cell_volume 3412.262745
_symmetry_space_group_name_H-M "P N M A"
_symmetry_group_IT_number 62
_symmetry_cell_setting 'orthorhombic'
loop_
_space_group_symop_operation_xyz
x,y,z
1/2-x,-y,1/2+z
1/2+x,1/2-y,1/2-z
-x,1/2+y,-z
-x,-y,-z
1/2+x,y,1/2-z
1/2-x,1/2+y,1/2+z
x,1/2-y,z
loop_
_atom_site_type_symbol
_atom_site_label
_atom_site_fract_x
_atom_site_fract_y
_atom_site_fract_z
Si Si1 0.664535 0.931304 0.948534
Si Si2 0.821260 0.598771 0.880294
Si Si3 0.467484 0.333314 0.035542
Si Si4 0.622005 0.166434 0.120917
Si Si5 0.393799 0.833299 0.367809
Si Si6 0.546925 0.831209 0.277424
Si Si7 0.831075 0.439931 0.769707
Si Si8 0.678944 0.409578 0.872351
O O1 0.736418 0.892574 0.896668
O O2 0.598269 0.880655 0.909421
O O3 0.653726 0.006805 0.869706
O O4 0.670440 0.945926 0.108184
O O5 0.850463 0.656783 0.773179
O O6 0.842882 0.518290 0.834945
O O7 0.858795 0.614600 0.022213
O O8 0.450725 0.250000 0.071800
O O9 0.539942 0.360219 0.108047
O O10 0.477865 0.345112 0.876101
O O11 0.626362 0.250000 0.078068
O O12 0.673735 0.120291 0.024683
O O13 0.369007 0.750000 0.387966
O O14 0.479235 0.839402 0.376049
O O15 0.370963 0.860549 0.220412
O O16 0.579143 0.750000 0.289958
O O17 0.605623 0.888892 0.322574
O O18 0.759530 0.402671 0.822351
#
# Coordination Sequence:
#
# PCOD8253952 Si02
#       8
#     8   8   8   8   8   8   8   8
#     4  10  21  38  60  86 118 153 194 246 290 345
#     4  11  23  39  59  87 120 157 190 237 298 346
#     4   9  19  36  59  86 115 150 197 245 288 340
#     4  11  22  38  58  86 118 151 194 242 291 349
#     4  11  22  38  59  86 117 152 194 237 286 350
#     4   9  19  36  58  86 117 150 194 246 289 338
#     4  10  21  38  59  86 120 150 197 245 290 344
#     4  11  21  37  60  85 115 152 195 241 288 344
#
# _framework density 18.755883999999998
#
# number of rings (size 3 to 8) (size 9 to 14) (size 15 to 20)
#    0.000    1.750    3.750    0.750    0.000    4.000 
#    0.000    1.250    0.000    0.000    0.000    0.000 
#    0.000    0.000    0.000    0.000    0.000    0.000 
#
# Total GULP energy -793841.070493 kJ/mol
# GULP energy per Si atom -12403.766726 kJ/mol
# Density = 1.871319 g / cm^3
# Si number density = 18.755884 Si / 1000 Ang^3
#
#
#
# Elastic Constant Matrix: (Units=GPa)
#
#
# Indices 1 2 3 4 5 6 
#
# 1 111.3931 62.3202 31.7375 0.0000 0.0000 0.0000
# 2 62.3202 86.7946 22.9445 0.0000 0.0000 0.0000
# 3 31.7375 22.9445 54.4797 0.0000 0.0000 0.0000
# 4 0.0000 0.0000 0.0000 31.3166 0.0000 0.0000
# 5 0.0000 0.0000 0.0000 0.0000 29.7898 0.0000
# 6 0.0000 0.0000 0.0000 0.0000 0.0000 33.7269
#
#
#
# Elastic Compliance Matrix: (Units=1/GPa)
#
#
# Indices 1 2 3 4 5 6 
#
# 1 0.016172 -0.010264 -0.005098 0.000000 0.000000 0.000000
# 2 -0.010264 0.019479 -0.002224 0.000000 0.000000 0.000000
# 3 -0.005098 -0.002224 0.022262 0.000000 0.000000 0.000000
# 4 0.000000 0.000000 0.000000 0.031932 0.000000 0.000000
# 5 0.000000 0.000000 0.000000 0.000000 0.033569 0.000000
# 6 0.000000 0.000000 0.000000 0.000000 0.000000 0.029650
#
#
# Mechanical properties :
#
#
# Convention : Reuss Voigt Hill
#
# Bulk Modulus (GPa) = 43.97536 54.07466 49.02501
# Shear Modulus (GPa) = 25.53384 28.01100 26.77242
#
# Velocity S-wave (km/s) = 3.69369 3.86871 3.78221
# Velocity P-wave (km/s) = 6.45664 6.98923 6.72820
#
# Compressibility (1/GPa) = 0.02274001
#
# Stress axis : x y z
#
# Youngs Moduli (GPa) = 61.83421 51.33630 44.91879
#
# Poissons Ratio (x) = 0.52693 0.22902
# Poissons Ratio (y) = 0.63468 0.09992
# Poissons Ratio (z) = 0.31526 0.11419
#
# Static dielectric constant tensor:
#      x y z
#    x 3.488500 0.000000 0.000000 
#    y 0.000000 3.452010 0.000000 
#    z 0.000000 0.000000 3.278800 
# 
# 
# High freq. dielectric constant tensor:
#      x y z
#    x 1.732680 0.000000 0.000000 
#    y 0.000000 1.735700 0.000000 
#    z 0.000000 0.000000 1.715350 
# 
# From -- ./inp_files/8885.got.cif
#   From: 2010.03.12/outbox.cif.g09.slc.cpg/sg62_5_cif.got.tgz:8885.got - 2010.04.10 19:12:36.
