data_PCOD8253240
_publ_section_title
;
Structure prediction by ZEFSAII (Michael W. Deem and Ramdas Pophale) SiO2 
 PCOD8253240
Probable space group: P N M A
;
_chemical_formula_sum "Si O2"
_cell_formula_units_Z 56
_cell_length_a 15.030765
_cell_length_b 9.028163
_cell_length_c 21.004530
_cell_angle_alpha 90.000000
_cell_angle_beta 90.000000
_cell_angle_gamma 90.000000
_cell_volume 2850.318847
_symmetry_space_group_name_H-M "P N M A"
_symmetry_group_IT_number 62
_symmetry_cell_setting 'orthorhombic'
loop_
_space_group_symop_operation_xyz
x,y,z
1/2-x,-y,1/2+z
1/2+x,1/2-y,1/2-z
-x,1/2+y,-z
-x,-y,-z
1/2+x,y,1/2-z
1/2-x,1/2+y,1/2+z
x,1/2-y,z
loop_
_atom_site_type_symbol
_atom_site_label
_atom_site_fract_x
_atom_site_fract_y
_atom_site_fract_z
Si Si1 0.455336 0.422637 0.697166
Si Si2 0.873727 0.918776 0.531795
Si Si3 0.269817 0.422748 0.759511
Si Si4 0.524732 0.079380 0.564802
Si Si5 0.096994 0.924499 0.718582
Si Si6 0.223794 0.422208 0.903605
Si Si7 0.967442 0.918304 0.403874
O O1 0.473933 0.250000 0.709996
O O2 0.364794 0.473930 0.731427
O O3 0.453087 0.454298 0.621006
O O4 0.538145 0.512292 0.724467
O O5 0.886210 0.750000 0.555965
O O6 0.889838 0.926738 0.456306
O O7 0.774688 0.976767 0.545069
O O8 0.939440 0.030272 0.567333
O O9 0.253358 0.250000 0.746556
O O10 0.196434 0.513391 0.721320
O O11 0.263430 0.459835 0.834118
O O12 0.525312 0.250000 0.547151
O O13 0.621029 0.031152 0.591592
O O14 0.500000 0.000000 0.500000
O O15 0.099715 0.750000 0.724016
O O16 0.055157 0.971082 0.652091
O O17 0.237498 0.250000 0.919743
O O18 0.978937 0.750000 0.378611
#
# Coordination Sequence:
#
# PCOD8253240 Si02
#       7
#     8   8   8   8   8   8   8
#     4  10  21  41  66  89 118 160 209 255 304 371
#     4  10  21  36  58  88 118 151 199 250 295 353
#     4  10  21  39  64  88 116 157 203 248 303 369
#     4  10  22  40  61  87 119 158 206 251 302 366
#     4  12  24  37  59  90 123 154 193 253 306 355
#     4  10  20  37  60  86 119 161 202 243 303 376
#     4  10  21  38  58  82 119 162 198 240 300 363
#
# _framework density 19.646926000000001
#
# number of rings (size 3 to 8) (size 9 to 14) (size 15 to 20)
#    0.000    1.714    1.429    3.000    0.000    6.286 
#    0.000    4.286    0.000    0.000    0.000    0.000 
#    0.000    0.000    0.000    0.000    0.000    0.000 
#
# Total GULP energy -694560.944253 kJ/mol
# GULP energy per Si atom -12402.874005 kJ/mol
# Density = 1.960221 g / cm^3
# Si number density = 19.646926 Si / 1000 Ang^3
#
#
#
# Elastic Constant Matrix: (Units=GPa)
#
#
# Indices 1 2 3 4 5 6 
#
# 1 101.5819 42.5662 50.4728 0.0000 0.0000 0.0000
# 2 42.5662 68.0358 35.7608 0.0000 0.0000 0.0000
# 3 50.4728 35.7608 109.1089 0.0000 0.0000 0.0000
# 4 0.0000 0.0000 0.0000 34.3222 0.0000 0.0000
# 5 0.0000 0.0000 0.0000 0.0000 27.3065 0.0000
# 6 0.0000 0.0000 0.0000 0.0000 0.0000 21.7759
#
#
#
# Elastic Compliance Matrix: (Units=1/GPa)
#
#
# Indices 1 2 3 4 5 6 
#
# 1 0.015104 -0.006980 -0.004699 0.000000 0.000000 0.000000
# 2 -0.006980 0.020983 -0.003648 0.000000 0.000000 0.000000
# 3 -0.004699 -0.003648 0.012535 0.000000 0.000000 0.000000
# 4 0.000000 0.000000 0.000000 0.029136 0.000000 0.000000
# 5 0.000000 0.000000 0.000000 0.000000 0.036621 0.000000
# 6 0.000000 0.000000 0.000000 0.000000 0.000000 0.045922
#
#
# Mechanical properties :
#
#
# Convention : Reuss Voigt Hill
#
# Bulk Modulus (GPa) = 55.65895 59.59181 57.62538
# Shear Modulus (GPa) = 25.38791 26.67605 26.03198
#
# Velocity S-wave (km/s) = 3.59863 3.68879 3.64399
# Velocity P-wave (km/s) = 6.75707 6.96708 6.86287
#
# Compressibility (1/GPa) = 0.01796656
#
# Stress axis : x y z
#
# Youngs Moduli (GPa) = 66.20797 47.65858 79.77792
#
# Poissons Ratio (x) = 0.33264 0.37490
# Poissons Ratio (y) = 0.46211 0.29106
# Poissons Ratio (z) = 0.31113 0.17388
#
# Static dielectric constant tensor:
#      x y z
#    x 3.652500 0.000000 0.000000 
#    y 0.000000 3.494420 0.000000 
#    z 0.000000 0.000000 3.626250 
# 
# 
# High freq. dielectric constant tensor:
#      x y z
#    x 1.766680 0.000000 0.000000 
#    y 0.000000 1.761250 0.000000 
#    z 0.000000 0.000000 1.769020 
# 
# From -- ./inp_files/27160.got.cif
#   From: 2010.03.12/outbox.cif.g09.slc.cpg/sg62_14_cif.got.tgz:27160.got - 2010.04.10 19:12:36.
