data_PCOD8253812
_publ_section_title
;
Structure prediction by ZEFSAII (Michael W. Deem and Ramdas Pophale) SiO2 
 PCOD8253812
Probable space group: P N M A
;
_chemical_formula_sum "Si O2"
_cell_formula_units_Z 64
_cell_length_a 13.007503
_cell_length_b 15.793070
_cell_length_c 14.422336
_cell_angle_alpha 90.000000
_cell_angle_beta 90.000000
_cell_angle_gamma 90.000000
_cell_volume 2962.757487
_symmetry_space_group_name_H-M "P N M A"
_symmetry_group_IT_number 62
_symmetry_cell_setting 'orthorhombic'
loop_
_space_group_symop_operation_xyz
x,y,z
1/2-x,-y,1/2+z
1/2+x,1/2-y,1/2-z
-x,1/2+y,-z
-x,-y,-z
1/2+x,y,1/2-z
1/2-x,1/2+y,1/2+z
x,1/2-y,z
loop_
_atom_site_type_symbol
_atom_site_label
_atom_site_fract_x
_atom_site_fract_y
_atom_site_fract_z
Si Si1 0.732454 0.921134 0.973255
Si Si2 0.726065 0.653478 0.311773
Si Si3 0.824481 0.951579 0.160969
Si Si4 0.433757 0.651385 0.606968
Si Si5 0.039918 0.558950 0.731379
Si Si6 0.033740 0.655868 0.549130
Si Si7 0.097987 0.068333 0.597026
Si Si8 0.984338 0.348963 0.908436
O O1 0.816804 0.867621 0.918825
O O2 0.644300 0.853144 0.000899
O O3 0.679481 0.991774 0.910242
O O4 0.777116 0.970344 0.061409
O O5 0.708710 0.750000 0.282394
O O6 0.737602 0.597829 0.219322
O O7 0.834424 0.647178 0.367703
O O8 0.628789 0.622405 0.373556
O O9 0.929595 0.897572 0.150517
O O10 0.853813 0.040058 0.211835
O O11 0.445737 0.750000 0.635837
O O12 0.457559 0.588030 0.691973
O O13 0.506600 0.630331 0.518460
O O14 0.046424 0.635458 0.657962
O O15 0.017241 0.469985 0.674142
O O16 0.991010 0.750000 0.536580
O O17 0.955753 0.590802 0.499524
O O18 0.004052 0.250000 0.891963
#
# Coordination Sequence:
#
# PCOD8253812 Si02
#       8
#     8   8   8   8   8   8   8   8
#     4  10  22  40  65  91 126 164 214 257 322 384
#     4  10  21  37  57  87 123 162 209 260 317 376
#     4  10  22  37  61  92 124 164 211 265 318 378
#     4  10  21  39  63  92 127 167 211 259 322 392
#     4  10  22  39  60  92 125 160 206 265 317 373
#     4  11  23  45  67  88 128 172 215 265 322 382
#     4  10  23  42  61  92 123 164 212 266 309 385
#     4   9  20  36  58  88 127 165 208 263 318 382
#
# _framework density 21.601499
#
# number of rings (size 3 to 8) (size 9 to 14) (size 15 to 20)
#    0.000    2.000    0.000    3.000    3.500    5.500 
#    9.000    2.500    0.000    0.000    0.000    0.000 
#    0.000    0.000    0.000    0.000    0.000    0.000 
#
# Total GULP energy -792978.977302 kJ/mol
# GULP energy per Si atom -12390.296520 kJ/mol
# Density = 2.155233 g / cm^3
# Si number density = 21.601499 Si / 1000 Ang^3
#
#
#
# Elastic Constant Matrix: (Units=GPa)
#
#
# Indices 1 2 3 4 5 6 
#
# 1 92.3019 22.9074 41.3196 0.0000 0.0000 0.0000
# 2 22.9074 62.4986 29.0675 0.0000 0.0000 0.0000
# 3 41.3196 29.0675 115.6166 0.0000 0.0000 0.0000
# 4 0.0000 0.0000 0.0000 27.2478 0.0000 0.0000
# 5 0.0000 0.0000 0.0000 0.0000 24.0600 0.0000
# 6 0.0000 0.0000 0.0000 0.0000 0.0000 31.4049
#
#
#
# Elastic Compliance Matrix: (Units=1/GPa)
#
#
# Indices 1 2 3 4 5 6 
#
# 1 0.013388 -0.003037 -0.004021 0.000000 0.000000 0.000000
# 2 -0.003037 0.018808 -0.003643 0.000000 0.000000 0.000000
# 3 -0.004021 -0.003643 0.011002 0.000000 0.000000 0.000000
# 4 0.000000 0.000000 0.000000 0.036700 0.000000 0.000000
# 5 0.000000 0.000000 0.000000 0.000000 0.041563 0.000000
# 6 0.000000 0.000000 0.000000 0.000000 0.000000 0.031842
#
#
# Mechanical properties :
#
#
# Convention : Reuss Voigt Hill
#
# Bulk Modulus (GPa) = 45.88065 50.77845 48.32955
# Shear Modulus (GPa) = 27.47699 28.35072 27.91386
#
# Velocity S-wave (km/s) = 3.57037 3.62669 3.59864
# Velocity P-wave (km/s) = 6.18728 6.41055 6.29990
#
# Compressibility (1/GPa) = 0.02179568
#
# Stress axis : x y z
#
# Youngs Moduli (GPa) = 74.69516 53.16931 90.89006
#
# Poissons Ratio (x) = 0.16146 0.36548
# Poissons Ratio (y) = 0.22683 0.33113
# Poissons Ratio (z) = 0.30036 0.19371
#
# Static dielectric constant tensor:
#      x y z
#    x 3.870890 0.000000 0.000000 
#    y 0.000000 3.781150 0.000000 
#    z 0.000000 0.000000 3.991970 
# 
# 
# High freq. dielectric constant tensor:
#      x y z
#    x 1.837820 0.000000 0.000000 
#    y 0.000000 1.839660 0.000000 
#    z 0.000000 0.000000 1.857530 
# 
# From -- ./inp_files/18293.got.cif
#   From: 2010.03.12/outbox.cif.g09.slc.cpg/sg62_10_cif.got.tgz:18293.got - 2010.04.10 19:12:36.
