data_PCOD8253108
_publ_section_title
;
Structure prediction by ZEFSAII (Michael W. Deem and Ramdas Pophale) SiO2 
 PCOD8253108
Probable space group: P N M A
;
_chemical_formula_sum "Si O2"
_cell_formula_units_Z 64
_cell_length_a 24.555137
_cell_length_b 8.766216
_cell_length_c 14.495002
_cell_angle_alpha 90.000000
_cell_angle_beta 90.000000
_cell_angle_gamma 90.000000
_cell_volume 3120.130858
_symmetry_space_group_name_H-M "P N M A"
_symmetry_group_IT_number 62
_symmetry_cell_setting 'orthorhombic'
loop_
_space_group_symop_operation_xyz
x,y,z
1/2-x,-y,1/2+z
1/2+x,1/2-y,1/2-z
-x,1/2+y,-z
-x,-y,-z
1/2+x,y,1/2-z
1/2-x,1/2+y,1/2+z
x,1/2-y,z
loop_
_atom_site_type_symbol
_atom_site_label
_atom_site_fract_x
_atom_site_fract_y
_atom_site_fract_z
Si Si1 0.552018 0.071452 0.548606
Si Si2 0.658552 0.424759 0.042944
Si Si3 0.360219 0.425223 0.578253
Si Si4 0.268859 0.927233 0.480914
Si Si5 0.296480 0.070646 0.290852
Si Si6 0.091744 0.069525 0.751052
Si Si7 0.175571 0.421613 0.245362
Si Si8 0.049556 0.071466 0.554986
O O1 0.542868 0.250000 0.550042
O O2 0.561891 0.014609 0.654326
O O3 0.500000 0.000000 0.500000
O O4 0.603308 0.029746 0.486715
O O5 0.672175 0.250000 0.015648
O O6 0.705509 0.536815 0.008712
O O7 0.653212 0.440083 0.152188
O O8 0.604095 0.484419 0.995385
O O9 0.375153 0.250000 0.561452
O O10 0.298029 0.468490 0.556867
O O11 0.363877 0.467308 0.686346
O O12 0.279241 0.750000 0.499788
O O13 0.294649 0.972703 0.383530
O O14 0.300764 0.250000 0.315164
O O15 0.240167 0.038103 0.236555
O O16 0.350114 0.015035 0.236274
O O17 0.103044 0.250000 0.753069
O O18 0.053378 0.025314 0.663630
O O19 0.166935 0.250000 0.209524
O O20 0.042779 0.250000 0.545054
O O21 0.000000 0.000000 0.500000
#
# Coordination Sequence:
#
# PCOD8253108 Si02
#       8
#     8   8   8   8   8   8   8   8
#     4  11  24  43  65  91 125 165 208 260 314 373
#     4   9  20  40  62  88 122 161 204 255 311 370
#     4  12  24  38  59  89 125 167 210 254 308 369
#     4  11  21  35  58  88 125 162 200 252 310 367
#     4  10  20  36  60  90 125 162 206 251 306 374
#     4  10  22  40  63  91 122 159 205 257 310 367
#     4   9  20  37  57  88 128 166 205 252 307 369
#     4  10  23  43  65  91 122 160 208 260 313 369
#
# _framework density 20.511959999999998
#
# number of rings (size 3 to 8) (size 9 to 14) (size 15 to 20)
#    0.000    1.750    1.250    3.750    1.750    5.000 
#    0.000    2.500    0.000    0.000    0.000    0.000 
#    0.000    0.000    0.000    0.000    0.000    0.000 
#
# Total GULP energy -793458.349314 kJ/mol
# GULP energy per Si atom -12397.786708 kJ/mol
# Density = 2.046527 g / cm^3
# Si number density = 20.511960 Si / 1000 Ang^3
#
#
#
# Elastic Constant Matrix: (Units=GPa)
#
#
# Indices 1 2 3 4 5 6 
#
# 1 95.7581 28.8635 64.4028 0.0000 0.0000 0.0000
# 2 28.8635 52.7554 25.2856 0.0000 0.0000 0.0000
# 3 64.4028 25.2856 114.1427 0.0000 0.0000 0.0000
# 4 0.0000 0.0000 0.0000 26.9776 0.0000 0.0000
# 5 0.0000 0.0000 0.0000 0.0000 32.1276 0.0000
# 6 0.0000 0.0000 0.0000 0.0000 0.0000 37.0129
#
#
#
# Elastic Compliance Matrix: (Units=1/GPa)
#
#
# Indices 1 2 3 4 5 6 
#
# 1 0.018214 -0.005638 -0.009028 0.000000 0.000000 0.000000
# 2 -0.005638 0.022952 -0.001903 0.000000 0.000000 0.000000
# 3 -0.009028 -0.001903 0.014277 0.000000 0.000000 0.000000
# 4 0.000000 0.000000 0.000000 0.037068 0.000000 0.000000
# 5 0.000000 0.000000 0.000000 0.000000 0.031126 0.000000
# 6 0.000000 0.000000 0.000000 0.000000 0.000000 0.027018
#
#
# Mechanical properties :
#
#
# Convention : Reuss Voigt Hill
#
# Bulk Modulus (GPa) = 44.83489 55.52887 50.18188
# Shear Modulus (GPa) = 26.14671 28.83057 27.48864
#
# Velocity S-wave (km/s) = 3.57418 3.75313 3.66475
# Velocity P-wave (km/s) = 6.24006 6.77581 6.51344
#
# Compressibility (1/GPa) = 0.02230406
#
# Stress axis : x y z
#
# Youngs Moduli (GPa) = 54.90170 43.56829 70.04516
#
# Poissons Ratio (x) = 0.24565 0.63237
# Poissons Ratio (y) = 0.30955 0.13332
# Poissons Ratio (z) = 0.49566 0.08292
#
# Static dielectric constant tensor:
#      x y z
#    x 3.865880 0.000000 0.000000 
#    y 0.000000 3.622640 0.000000 
#    z 0.000000 0.000000 3.962250 
# 
# 
# High freq. dielectric constant tensor:
#      x y z
#    x 1.793880 0.000000 0.000000 
#    y 0.000000 1.795220 0.000000 
#    z 0.000000 0.000000 1.812170 
# 
# From -- ./inp_files/20861.got.cif
#   From: 2010.03.12/outbox.cif.g09.slc.cpg/sg62_11_cif.got.tgz:20861.got - 2010.04.10 19:12:36.
