data_PCOD8253652
_publ_section_title
;
Structure prediction by ZEFSAII (Michael W. Deem and Ramdas Pophale) SiO2 
 PCOD8253652
Probable space group: P N M A
;
_chemical_formula_sum "Si O2"
_cell_formula_units_Z 28
_cell_length_a 5.151379
_cell_length_b 13.597253
_cell_length_c 18.289945
_cell_angle_alpha 90.000000
_cell_angle_beta 90.000000
_cell_angle_gamma 90.000000
_cell_volume 1281.111947
_symmetry_space_group_name_H-M "P N M A"
_symmetry_group_IT_number 62
_symmetry_cell_setting 'orthorhombic'
loop_
_space_group_symop_operation_xyz
x,y,z
1/2-x,-y,1/2+z
1/2+x,1/2-y,1/2-z
-x,1/2+y,-z
-x,-y,-z
1/2+x,y,1/2-z
1/2-x,1/2+y,1/2+z
x,1/2-y,z
loop_
_atom_site_type_symbol
_atom_site_label
_atom_site_fract_x
_atom_site_fract_y
_atom_site_fract_z
Si Si1 0.749116 0.750000 0.697926
Si Si2 0.273473 0.430269 0.413798
Si Si3 0.371231 0.139260 0.718164
Si Si4 0.220643 0.055560 0.576864
O O1 0.494213 0.750000 0.748127
O O2 0.756389 0.844501 0.645225
O O3 0.568536 0.468583 0.413511
O O4 0.215613 0.394460 0.497045
O O5 0.061831 0.515499 0.399392
O O6 0.642474 0.084293 0.735811
O O7 0.411187 0.250000 0.747122
O O8 0.300985 0.140678 0.632987
#
# Coordination Sequence:
#
# PCOD8253652 Si02
#       4
#     4   8   8   8
#     4  12  26  42  62  92 126 162 204 252 308 362
#     4  10  23  40  60  88 115 155 205 241 290 355
#     4  10  21  35  55  87 116 146 187 233 291 346
#     4  10  21  40  62  85 117 157 199 242 293 350
#
# _framework density 21.856012
#
# number of rings (size 3 to 8) (size 9 to 14) (size 15 to 20)
#    0.000    1.714    0.000    3.429    2.000    6.857 
#    0.000    0.000    0.000    0.000    0.000    0.000 
#    0.000    0.000    0.000    0.000    0.000    0.000 
#
# Total GULP energy -346963.536631 kJ/mol
# GULP energy per Si atom -12391.554880 kJ/mol
# Density = 2.180627 g / cm^3
# Si number density = 21.856012 Si / 1000 Ang^3
#
#
#
# Elastic Constant Matrix: (Units=GPa)
#
#
# Indices 1 2 3 4 5 6 
#
# 1 147.1743 21.5728 44.4828 0.0000 0.0000 0.0000
# 2 21.5728 41.0180 41.3806 0.0000 0.0000 0.0000
# 3 44.4828 41.3806 132.9921 0.0000 0.0000 0.0000
# 4 0.0000 0.0000 0.0000 47.3217 0.0000 0.0000
# 5 0.0000 0.0000 0.0000 0.0000 40.4927 0.0000
# 6 0.0000 0.0000 0.0000 0.0000 0.0000 18.1089
#
#
#
# Elastic Compliance Matrix: (Units=1/GPa)
#
#
# Indices 1 2 3 4 5 6 
#
# 1 0.007682 -0.002111 -0.001913 0.000000 0.000000 0.000000
# 2 -0.002111 0.036113 -0.010531 0.000000 0.000000 0.000000
# 3 -0.001913 -0.010531 0.011436 0.000000 0.000000 0.000000
# 4 0.000000 0.000000 0.000000 0.021132 0.000000 0.000000
# 5 0.000000 0.000000 0.000000 0.000000 0.024696 0.000000
# 6 0.000000 0.000000 0.000000 0.000000 0.000000 0.055221
#
#
# Mechanical properties :
#
#
# Convention : Reuss Voigt Hill
#
# Bulk Modulus (GPa) = 38.28057 59.56187 48.92122
# Shear Modulus (GPa) = 25.76040 35.43455 30.59748
#
# Velocity S-wave (km/s) = 3.43686 4.03087 3.74566
# Velocity P-wave (km/s) = 5.77081 6.99821 6.41394
#
# Compressibility (1/GPa) = 0.02612291
#
# Stress axis : x y z
#
# Youngs Moduli (GPa) = 130.17153 27.69054 87.44558
#
# Poissons Ratio (x) = 0.05844 0.16726
# Poissons Ratio (y) = 0.27474 0.92087
# Poissons Ratio (z) = 0.24899 0.29160
#
# Static dielectric constant tensor:
#      x y z
#    x 4.452560 0.000000 0.000000 
#    y 0.000000 3.357200 0.000000 
#    z 0.000000 0.000000 4.177850 
# 
# 
# High freq. dielectric constant tensor:
#      x y z
#    x 1.892920 0.000000 0.000000 
#    y 0.000000 1.810460 0.000000 
#    z 0.000000 0.000000 1.880550 
# 
# From -- ./inp_files/21375.got.cif
#   From: 2010.03.12/outbox.cif.g09.slc.cpg/sg62_11_cif.got.tgz:21375.got - 2010.04.10 19:12:36.
