data_PCOD8253731
_publ_section_title
;
Structure prediction by ZEFSAII (Michael W. Deem and Ramdas Pophale) SiO2 
 PCOD8253731
Probable space group: P N M A
;
_chemical_formula_sum "Si O2"
_cell_formula_units_Z 64
_cell_length_a 22.444240
_cell_length_b 18.002216
_cell_length_c 8.318570
_cell_angle_alpha 90.000000
_cell_angle_beta 90.000000
_cell_angle_gamma 90.000000
_cell_volume 3361.085404
_symmetry_space_group_name_H-M "P N M A"
_symmetry_group_IT_number 62
_symmetry_cell_setting 'orthorhombic'
loop_
_space_group_symop_operation_xyz
x,y,z
1/2-x,-y,1/2+z
1/2+x,1/2-y,1/2-z
-x,1/2+y,-z
-x,-y,-z
1/2+x,y,1/2-z
1/2-x,1/2+y,1/2+z
x,1/2-y,z
loop_
_atom_site_type_symbol
_atom_site_label
_atom_site_fract_x
_atom_site_fract_y
_atom_site_fract_z
Si Si1 0.385148 0.016344 0.116658
Si Si2 0.316025 0.056915 0.650360
Si Si3 0.308364 0.835433 0.609160
Si Si4 0.669168 0.832285 0.865681
Si Si5 0.515815 0.557438 0.637744
Si Si6 0.392903 0.566411 0.790720
Si Si7 0.292551 0.955739 0.368031
Si Si8 0.889877 0.168606 0.023306
O O1 0.365892 0.098831 0.048414
O O2 0.444222 0.019766 0.224256
O O3 0.332221 0.985953 0.225206
O O4 0.396554 0.956758 0.976950
O O5 0.271932 0.067440 0.799920
O O6 0.345817 0.135356 0.610695
O O7 0.371051 0.003762 0.689771
O O8 0.281846 0.021291 0.497366
O O9 0.324285 0.750000 0.577317
O O10 0.239145 0.848998 0.644854
O O11 0.347048 0.865202 0.760873
O O12 0.323494 0.883574 0.449566
O O13 0.657358 0.750000 0.945952
O O14 0.647236 0.829600 0.685138
O O15 0.500000 0.500000 0.500000
O O16 0.457486 0.589903 0.725191
O O17 0.549356 0.624154 0.549101
O O18 0.908114 0.250000 0.963806
#
# Coordination Sequence:
#
# PCOD8253731 Si02
#       8
#     8   8   8   8   8   8   8   8
#     4  11  21  37  58  91 115 151 204 251 294 354
#     4  11  20  35  56  91 119 152 195 246 298 361
#     4  10  22  39  56  84 120 160 195 242 309 363
#     4   9  18  34  56  81 119 155 185 235 300 362
#     4  11  20  40  60  83 115 154 203 250 299 349
#     4  11  22  35  61  86 111 155 200 250 294 352
#     4  11  21  33  58  85 122 155 196 246 302 362
#     4  10  21  36  58  86 115 152 194 243 301 355
#
# _framework density 19.041467999999998
#
# number of rings (size 3 to 8) (size 9 to 14) (size 15 to 20)
#    0.000    1.500    3.750    4.125    1.750    1.000 
#    0.000    1.250    0.000    0.750    0.000    0.000 
#    0.000    0.000    0.000    0.000    0.000    0.000 
#
# Total GULP energy -793412.971988 kJ/mol
# GULP energy per Si atom -12397.077687 kJ/mol
# Density = 1.899813 g / cm^3
# Si number density = 19.041468 Si / 1000 Ang^3
#
#
#
# Elastic Constant Matrix: (Units=GPa)
#
#
# Indices 1 2 3 4 5 6 
#
# 1 95.9469 37.7575 38.9023 0.0000 0.0000 0.0000
# 2 37.7575 135.2275 48.3741 0.0000 0.0000 0.0000
# 3 38.9023 48.3741 76.4736 0.0000 0.0000 0.0000
# 4 0.0000 0.0000 0.0000 19.7490 0.0000 0.0000
# 5 0.0000 0.0000 0.0000 0.0000 35.0082 0.0000
# 6 0.0000 0.0000 0.0000 0.0000 0.0000 22.7215
#
#
#
# Elastic Compliance Matrix: (Units=1/GPa)
#
#
# Indices 1 2 3 4 5 6 
#
# 1 0.013422 -0.001687 -0.005761 0.000000 0.000000 0.000000
# 2 -0.001687 0.009770 -0.005322 0.000000 0.000000 0.000000
# 3 -0.005761 -0.005322 0.019373 0.000000 0.000000 0.000000
# 4 0.000000 0.000000 0.000000 0.050636 0.000000 0.000000
# 5 0.000000 0.000000 0.000000 0.000000 0.028565 0.000000
# 6 0.000000 0.000000 0.000000 0.000000 0.000000 0.044011
#
#
# Mechanical properties :
#
#
# Convention : Reuss Voigt Hill
#
# Bulk Modulus (GPa) = 58.73331 61.96844 60.35087
# Shear Modulus (GPa) = 25.38193 27.67001 26.52597
#
# Velocity S-wave (km/s) = 3.65496 3.81615 3.73643
# Velocity P-wave (km/s) = 6.98023 7.21332 7.09773
#
# Compressibility (1/GPa) = 0.01702611
#
# Stress axis : x y z
#
# Youngs Moduli (GPa) = 74.50455 102.35761 51.61751
#
# Poissons Ratio (x) = 0.17266 0.29736
# Poissons Ratio (y) = 0.12568 0.27470
# Poissons Ratio (z) = 0.42920 0.54473
#
# Static dielectric constant tensor:
#      x y z
#    x 3.573920 0.000000 0.000000 
#    y 0.000000 2.010790 0.000000 
#    z 0.000000 0.000000 3.483430 
# 
# 
# High freq. dielectric constant tensor:
#      x y z
#    x 1.741600 0.000000 0.000000 
#    y 0.000000 1.733860 0.000000 
#    z 0.000000 0.000000 1.732250 
# 
# From -- ./inp_files/8871.got.cif
#   From: 2010.03.12/outbox.cif.g09.slc.cpg/sg62_5_cif.got.tgz:8871.got - 2010.04.10 19:12:36.
