data_PCOD8253079
_publ_section_title
;
Structure prediction by ZEFSAII (Michael W. Deem and Ramdas Pophale) SiO2 
 PCOD8253079
Probable space group: P N M A
;
_chemical_formula_sum "Si O2"
_cell_formula_units_Z 64
_cell_length_a 18.556568
_cell_length_b 18.399303
_cell_length_c 9.989198
_cell_angle_alpha 90.000000
_cell_angle_beta 90.000000
_cell_angle_gamma 90.000000
_cell_volume 3410.591068
_symmetry_space_group_name_H-M "P N M A"
_symmetry_group_IT_number 62
_symmetry_cell_setting 'orthorhombic'
loop_
_space_group_symop_operation_xyz
x,y,z
1/2-x,-y,1/2+z
1/2+x,1/2-y,1/2-z
-x,1/2+y,-z
-x,-y,-z
1/2+x,y,1/2-z
1/2-x,1/2+y,1/2+z
x,1/2-y,z
loop_
_atom_site_type_symbol
_atom_site_label
_atom_site_fract_x
_atom_site_fract_y
_atom_site_fract_z
Si Si1 0.983697 0.333604 0.457480
Si Si2 0.382837 0.665787 0.349954
Si Si3 0.340891 0.058800 0.760666
Si Si4 0.189091 0.068909 0.625828
Si Si5 0.838290 0.410441 0.435521
Si Si6 0.126406 0.400699 0.352235
Si Si7 0.696932 0.167404 0.385438
Si Si8 0.461545 0.168121 0.731731
O O1 0.994114 0.250000 0.414019
O O2 0.907888 0.362514 0.400953
O O3 0.986872 0.342679 0.616212
O O4 0.045500 0.384344 0.397545
O O5 0.365072 0.750000 0.320839
O O6 0.350264 0.619926 0.229967
O O7 0.348771 0.638088 0.488458
O O8 0.468784 0.654228 0.360702
O O9 0.272668 0.059001 0.662504
O O10 0.400352 0.110563 0.691500
O O11 0.372408 0.978159 0.777029
O O12 0.320957 0.090800 0.905945
O O13 0.181621 0.102605 0.477363
O O14 0.149119 0.991004 0.622071
O O15 0.769457 0.377473 0.362091
O O16 0.149761 0.339086 0.248043
O O17 0.718616 0.250000 0.410968
O O18 0.431327 0.250000 0.711000
#
# Coordination Sequence:
#
# PCOD8253079 Si02
#       8
#     8   8   8   8   8   8   8   8
#     4  10  20  36  59  88 119 154 201 247 293 352
#     4  10  21  37  61  86 114 153 196 238 291 351
#     4  10  21  36  59  88 121 153 195 247 295 347
#     4  11  21  37  61  86 119 149 197 247 289 350
#     4  10  21  36  60  88 118 155 195 244 298 351
#     4  11  23  37  59  89 121 155 196 242 299 351
#     4  11  22  39  59  83 120 160 197 238 294 358
#     4   9  19  36  58  87 116 148 197 250 295 344
#
# _framework density 18.765076000000001
#
# number of rings (size 3 to 8) (size 9 to 14) (size 15 to 20)
#    0.000    1.750    3.750    0.750    1.750    3.000 
#    0.000    1.875    0.000    1.500    0.000    0.000 
#    0.000    0.000    0.000    0.000    0.000    0.000 
#
# Total GULP energy -793770.102830 kJ/mol
# GULP energy per Si atom -12402.657857 kJ/mol
# Density = 1.872237 g / cm^3
# Si number density = 18.765076 Si / 1000 Ang^3
#
#
#
# Elastic Constant Matrix: (Units=GPa)
#
#
# Indices 1 2 3 4 5 6 
#
# 1 121.2858 49.7610 40.9198 0.0000 0.0000 0.0000
# 2 49.7610 84.5182 38.8165 0.0000 0.0000 0.0000
# 3 40.9198 38.8165 74.5827 0.0000 0.0000 0.0000
# 4 0.0000 0.0000 0.0000 25.7070 0.0000 0.0000
# 5 0.0000 0.0000 0.0000 0.0000 25.1039 0.0000
# 6 0.0000 0.0000 0.0000 0.0000 0.0000 34.5352
#
#
#
# Elastic Compliance Matrix: (Units=1/GPa)
#
#
# Indices 1 2 3 4 5 6 
#
# 1 0.011596 -0.005132 -0.003691 0.000000 0.000000 0.000000
# 2 -0.005132 0.017819 -0.006458 0.000000 0.000000 0.000000
# 3 -0.003691 -0.006458 0.018794 0.000000 0.000000 0.000000
# 4 0.000000 0.000000 0.000000 0.038900 0.000000 0.000000
# 5 0.000000 0.000000 0.000000 0.000000 0.039834 0.000000
# 6 0.000000 0.000000 0.000000 0.000000 0.000000 0.028956
#
#
# Mechanical properties :
#
#
# Convention : Reuss Voigt Hill
#
# Bulk Modulus (GPa) = 56.66830 59.93124 58.29977
# Shear Modulus (GPa) = 25.99492 27.12850 26.56171
#
# Velocity S-wave (km/s) = 3.72598 3.80635 3.76638
# Velocity P-wave (km/s) = 6.98390 7.16413 7.07459
#
# Compressibility (1/GPa) = 0.01764655
#
# Stress axis : x y z
#
# Youngs Moduli (GPa) = 86.23771 56.11855 53.20745
#
# Poissons Ratio (x) = 0.28800 0.19640
# Poissons Ratio (y) = 0.44257 0.34364
# Poissons Ratio (z) = 0.31832 0.36244
#
# Static dielectric constant tensor:
#      x y z
#    x 3.454820 0.000000 0.000000 
#    y 0.000000 3.527450 0.000000 
#    z 0.000000 0.000000 3.301420 
# 
# 
# High freq. dielectric constant tensor:
#      x y z
#    x 1.731170 0.000000 0.000000 
#    y 0.000000 1.738680 0.000000 
#    z 0.000000 0.000000 1.708050 
# 
# From -- ./inp_files/14438.got.cif
#   From: 2010.03.12/outbox.cif.g09.slc.cpg/sg62_8_cif.got.tgz:14438.got - 2010.04.10 19:12:36.
