data_PCOD8253418
_publ_section_title
;
Structure prediction by ZEFSAII (Michael W. Deem and Ramdas Pophale) SiO2 
 PCOD8253418
Probable space group: P N M A
;
_chemical_formula_sum "Si O2"
_cell_formula_units_Z 56
_cell_length_a 21.568936
_cell_length_b 8.875288
_cell_length_c 14.635323
_cell_angle_alpha 90.000000
_cell_angle_beta 90.000000
_cell_angle_gamma 90.000000
_cell_volume 2801.647475
_symmetry_space_group_name_H-M "P N M A"
_symmetry_group_IT_number 62
_symmetry_cell_setting 'orthorhombic'
loop_
_space_group_symop_operation_xyz
x,y,z
1/2-x,-y,1/2+z
1/2+x,1/2-y,1/2-z
-x,1/2+y,-z
-x,-y,-z
1/2+x,y,1/2-z
1/2-x,1/2+y,1/2+z
x,1/2-y,z
loop_
_atom_site_type_symbol
_atom_site_label
_atom_site_fract_x
_atom_site_fract_y
_atom_site_fract_z
Si Si1 0.753022 0.072034 0.382686
Si Si2 0.962103 0.572157 0.582016
Si Si3 0.412034 0.424777 0.387765
Si Si4 0.018525 0.573366 0.226019
Si Si5 0.721402 0.571424 0.681244
Si Si6 0.375706 0.076576 0.588157
Si Si7 0.322577 0.927899 0.959554
O O1 0.758185 0.250000 0.385932
O O2 0.765039 0.007611 0.281620
O O3 0.685176 0.024690 0.416041
O O4 0.807442 0.003504 0.444020
O O5 0.971133 0.750000 0.578615
O O6 0.986991 0.513364 0.678715
O O7 0.890791 0.523973 0.571719
O O8 0.000000 0.500000 0.500000
O O9 0.423123 0.250000 0.362755
O O10 0.462924 0.526324 0.339639
O O11 0.345515 0.482425 0.352445
O O12 0.415695 0.451044 0.496597
O O13 0.014178 0.750000 0.245141
O O14 0.082830 0.531628 0.175394
O O15 0.725290 0.750000 0.680403
O O16 0.774287 0.506872 0.614476
O O17 0.354299 0.250000 0.592305
O O18 0.316609 0.750000 0.970930
#
# Coordination Sequence:
#
# PCOD8253418 Si02
#       7
#     8   8   8   8   8   8   8
#     4  11  22  35  60  94 122 153 198 253 304 364
#     4  11  25  44  67  91 123 167 210 256 306 366
#     4  10  20  38  63  87 119 164 206 251 309 368
#     4  11  24  40  61  92 126 160 205 259 309 365
#     4   9  19  37  60  86 119 157 199 244 301 367
#     4  10  21  40  63  88 123 166 204 250 309 369
#     4  10  21  42  65  86 118 161 202 245 302 364
#
# _framework density 19.988240000000001
#
# number of rings (size 3 to 8) (size 9 to 14) (size 15 to 20)
#    0.000    1.714    1.429    2.571    2.000    4.000 
#    0.000    2.143    0.000    0.000    0.000    0.000 
#    0.000    0.000    0.000    0.000    0.000    0.000 
#
# Total GULP energy -694651.974848 kJ/mol
# GULP energy per Si atom -12404.499551 kJ/mol
# Density = 1.994275 g / cm^3
# Si number density = 19.988240 Si / 1000 Ang^3
#
#
#
# Elastic Constant Matrix: (Units=GPa)
#
#
# Indices 1 2 3 4 5 6 
#
# 1 71.8432 32.9192 25.7415 0.0000 0.0000 0.0000
# 2 32.9192 50.7951 31.5654 0.0000 0.0000 0.0000
# 3 25.7415 31.5654 128.6279 0.0000 0.0000 0.0000
# 4 0.0000 0.0000 0.0000 33.0973 0.0000 0.0000
# 5 0.0000 0.0000 0.0000 0.0000 35.7955 0.0000
# 6 0.0000 0.0000 0.0000 0.0000 0.0000 29.7100
#
#
#
# Elastic Compliance Matrix: (Units=1/GPa)
#
#
# Indices 1 2 3 4 5 6 
#
# 1 0.019899 -0.012297 -0.000965 0.000000 0.000000 0.000000
# 2 -0.012297 0.030828 -0.005104 0.000000 0.000000 0.000000
# 3 -0.000965 -0.005104 0.009220 0.000000 0.000000 0.000000
# 4 0.000000 0.000000 0.000000 0.030214 0.000000 0.000000
# 5 0.000000 0.000000 0.000000 0.000000 0.027936 0.000000
# 6 0.000000 0.000000 0.000000 0.000000 0.000000 0.033659
#
#
# Mechanical properties :
#
#
# Convention : Reuss Voigt Hill
#
# Bulk Modulus (GPa) = 43.07410 47.96873 45.52141
# Shear Modulus (GPa) = 25.48063 30.45656 27.96859
#
# Velocity S-wave (km/s) = 3.57428 3.90773 3.74472
# Velocity P-wave (km/s) = 6.21534 6.66416 6.44366
#
# Compressibility (1/GPa) = 0.02321581
#
# Stress axis : x y z
#
# Youngs Moduli (GPa) = 50.25271 32.43771 108.45937
#
# Poissons Ratio (x) = 0.39888 0.10463
# Poissons Ratio (y) = 0.61795 0.55362
# Poissons Ratio (z) = 0.04848 0.16557
#
# Static dielectric constant tensor:
#      x y z
#    x 3.702990 0.000000 0.000000 
#    y 0.000000 3.420700 0.000000 
#    z 0.000000 0.000000 3.912840 
# 
# 
# High freq. dielectric constant tensor:
#      x y z
#    x 1.786920 0.000000 0.000000 
#    y 0.000000 1.763670 0.000000 
#    z 0.000000 0.000000 1.797350 
# 
# From -- ./inp_files/20307.got.cif
#   From: 2010.03.12/outbox.cif.g09.slc.cpg/sg62_11_cif.got.tgz:20307.got - 2010.04.10 19:12:36.
