data_PCOD8253426
_publ_section_title
;
Structure prediction by ZEFSAII (Michael W. Deem and Ramdas Pophale) SiO2 
 PCOD8253426
Probable space group: P N M A
;
_chemical_formula_sum "Si O2"
_cell_formula_units_Z 40
_cell_length_a 15.409523
_cell_length_b 9.060545
_cell_length_c 12.800624
_cell_angle_alpha 90.000000
_cell_angle_beta 90.000000
_cell_angle_gamma 90.000000
_cell_volume 1787.206182
_symmetry_space_group_name_H-M "P N M A"
_symmetry_group_IT_number 62
_symmetry_cell_setting 'orthorhombic'
loop_
_space_group_symop_operation_xyz
x,y,z
1/2-x,-y,1/2+z
1/2+x,1/2-y,1/2-z
-x,1/2+y,-z
-x,-y,-z
1/2+x,y,1/2-z
1/2-x,1/2+y,1/2+z
x,1/2-y,z
loop_
_atom_site_type_symbol
_atom_site_label
_atom_site_fract_x
_atom_site_fract_y
_atom_site_fract_z
Si Si1 0.492136 0.585950 0.340701
Si Si2 0.870840 0.415178 0.024922
Si Si3 0.238414 0.576676 0.614177
Si Si4 0.410145 0.918742 0.015760
Si Si5 0.127182 0.417222 0.284829
O O1 0.461469 0.750000 0.308481
O O2 0.553357 0.595114 0.440765
O O3 0.408508 0.486012 0.368444
O O4 0.544240 0.516535 0.243924
O O5 0.834991 0.250000 0.049163
O O6 0.795442 0.519986 0.982662
O O7 0.223451 0.750000 0.602513
O O8 0.145194 0.495642 0.608067
O O9 0.285649 0.533710 0.723127
O O10 0.427548 0.750000 0.046903
O O11 0.355423 0.930470 0.907881
O O12 0.500000 0.000000 0.000000
O O13 0.104209 0.250000 0.251218
#
# Coordination Sequence:
#
# PCOD8253426 Si02
#       5
#     8   8   8   8   8
#     4   9  16  27  49  82 118 154 197 247 299 355
#     4   9  16  28  49  80 118 157 194 243 304 361
#     4  10  20  38  63  90 120 158 206 259 307 367
#     4  11  24  44  66  91 124 166 208 256 315 377
#     4   9  20  39  62  87 120 162 205 248 309 376
#
# _framework density 22.381298999999999
#
# number of rings (size 3 to 8) (size 9 to 14) (size 15 to 20)
#    0.000    2.400    0.000    2.400    0.000    7.200 
#    3.600    0.000    0.000    0.000    0.000    0.000 
#    0.000    0.000    0.000    0.000    0.000    0.000 
#
# Total GULP energy -496019.972287 kJ/mol
# GULP energy per Si atom -12400.499307 kJ/mol
# Density = 2.233036 g / cm^3
# Si number density = 22.381299 Si / 1000 Ang^3
#
#
#
# Elastic Constant Matrix: (Units=GPa)
#
#
# Indices 1 2 3 4 5 6 
#
# 1 85.2416 36.5982 10.9604 0.0000 0.0000 0.0000
# 2 36.5982 137.8940 19.7940 0.0000 0.0000 0.0000
# 3 10.9604 19.7940 51.0516 0.0000 0.0000 0.0000
# 4 0.0000 0.0000 0.0000 22.4738 0.0000 0.0000
# 5 0.0000 0.0000 0.0000 0.0000 24.1520 0.0000
# 6 0.0000 0.0000 0.0000 0.0000 0.0000 42.5281
#
#
#
# Elastic Compliance Matrix: (Units=1/GPa)
#
#
# Indices 1 2 3 4 5 6 
#
# 1 0.013360 -0.003319 -0.001581 0.000000 0.000000 0.000000
# 2 -0.003319 0.008504 -0.002585 0.000000 0.000000 0.000000
# 3 -0.001581 -0.002585 0.020930 0.000000 0.000000 0.000000
# 4 0.000000 0.000000 0.000000 0.044496 0.000000 0.000000
# 5 0.000000 0.000000 0.000000 0.000000 0.041404 0.000000
# 6 0.000000 0.000000 0.000000 0.000000 0.000000 0.023514
#
#
# Mechanical properties :
#
#
# Convention : Reuss Voigt Hill
#
# Bulk Modulus (GPa) = 35.94093 45.43249 40.68671
# Shear Modulus (GPa) = 28.33638 31.61976 29.97807
#
# Velocity S-wave (km/s) = 3.56205 3.76277 3.66379
# Velocity P-wave (km/s) = 5.74552 6.26269 6.00967
#
# Compressibility (1/GPa) = 0.02782343
#
# Stress axis : x y z
#
# Youngs Moduli (GPa) = 74.85258 117.59484 47.77903
#
# Poissons Ratio (x) = 0.39027 0.07556
# Poissons Ratio (y) = 0.24842 0.12349
# Poissons Ratio (z) = 0.11838 0.30394
#
# Static dielectric constant tensor:
#      x y z
#    x 3.863500 0.000000 0.000000 
#    y 0.000000 4.191010 0.000000 
#    z 0.000000 0.000000 3.913070 
# 
# 
# High freq. dielectric constant tensor:
#      x y z
#    x 1.871550 0.000000 0.000000 
#    y 0.000000 1.888630 0.000000 
#    z 0.000000 0.000000 1.866290 
# 
# From -- ./inp_files/19355.got.cif
#   From: 2010.03.12/outbox.cif.g09.slc.cpg/sg62_10_cif.got.tgz:19355.got - 2010.04.10 19:12:36.
