data_PCOD8253943
_publ_section_title
;
Structure prediction by ZEFSAII (Michael W. Deem and Ramdas Pophale) SiO2 
 PCOD8253943
Probable space group: P N M A
;
_chemical_formula_sum "Si O2"
_cell_formula_units_Z 64
_cell_length_a 32.347956
_cell_length_b 9.037498
_cell_length_c 10.834135
_cell_angle_alpha 90.000000
_cell_angle_beta 90.000000
_cell_angle_gamma 90.000000
_cell_volume 3167.300729
_symmetry_space_group_name_H-M "P N M A"
_symmetry_group_IT_number 62
_symmetry_cell_setting 'orthorhombic'
loop_
_space_group_symop_operation_xyz
x,y,z
1/2-x,-y,1/2+z
1/2+x,1/2-y,1/2-z
-x,1/2+y,-z
-x,-y,-z
1/2+x,y,1/2-z
1/2-x,1/2+y,1/2+z
x,1/2-y,z
loop_
_atom_site_type_symbol
_atom_site_label
_atom_site_fract_x
_atom_site_fract_y
_atom_site_fract_z
Si Si1 0.880943 0.920543 0.111707
Si Si2 0.830405 0.086214 0.520927
Si Si3 0.394965 0.577981 0.855155
Si Si4 0.231887 0.924460 0.274885
Si Si5 0.989011 0.928117 0.632884
Si Si6 0.314594 0.084899 0.256060
Si Si7 0.523291 0.426740 0.617168
Si Si8 0.665083 0.077759 0.361722
O O1 0.876683 0.750000 0.147659
O O2 0.928639 0.961384 0.093215
O O3 0.859799 0.017261 0.217924
O O4 0.854294 0.961548 0.992262
O O5 0.842319 0.250000 0.564949
O O6 0.795836 0.020009 0.611249
O O7 0.809499 0.086483 0.389470
O O8 0.872955 0.993314 0.525341
O O9 0.393197 0.750000 0.875951
O O10 0.441867 0.527099 0.841817
O O11 0.369739 0.525392 0.735280
O O12 0.235838 0.750000 0.260922
O O13 0.277094 0.986501 0.305383
O O14 0.208586 0.991104 0.154391
O O15 0.996287 0.750000 0.629478
O O16 0.000000 0.000000 0.500000
O O17 0.012897 0.999886 0.749707
O O18 0.311672 0.250000 0.311188
O O19 0.500000 0.500000 0.500000
O O20 0.514470 0.250000 0.620554
O O21 0.674885 0.250000 0.347216
#
# Coordination Sequence:
#
# PCOD8253943 Si02
#       8
#     8   8   8   8   8   8   8   8
#     4  10  23  41  62  88 123 161 201 249 306 364
#     4   9  21  39  58  82 116 152 192 244 299 353
#     4   9  19  37  62  87 114 152 200 245 296 361
#     4  10  21  38  59  85 115 153 197 242 295 358
#     4  11  24  41  63  94 130 169 214 264 320 384
#     4  11  24  39  57  85 119 156 198 246 299 355
#     4  11  24  44  69  98 131 170 214 264 324 390
#     4   9  18  37  62  86 114 152 195 247 298 350
#
# _framework density 20.206482000000001
#
# number of rings (size 3 to 8) (size 9 to 14) (size 15 to 20)
#    0.000    2.000    0.000    2.250    3.500    6.000 
#    0.000    2.500    0.000    0.000    0.000    0.000 
#    0.000    0.000    0.000    0.000    0.000    0.000 
#
# Total GULP energy -793340.382057 kJ/mol
# GULP energy per Si atom -12395.943470 kJ/mol
# Density = 2.016049 g / cm^3
# Si number density = 20.206482 Si / 1000 Ang^3
#
#
#
# Elastic Constant Matrix: (Units=GPa)
#
#
# Indices 1 2 3 4 5 6 
#
# 1 128.9316 63.3942 30.4892 0.0000 0.0000 0.0000
# 2 63.3942 89.5129 45.0360 0.0000 0.0000 0.0000
# 3 30.4892 45.0360 85.2905 0.0000 0.0000 0.0000
# 4 0.0000 0.0000 0.0000 31.4958 0.0000 0.0000
# 5 0.0000 0.0000 0.0000 0.0000 27.6505 0.0000
# 6 0.0000 0.0000 0.0000 0.0000 0.0000 37.4339
#
#
#
# Elastic Compliance Matrix: (Units=1/GPa)
#
#
# Indices 1 2 3 4 5 6 
#
# 1 0.011904 -0.008565 0.000267 0.000000 0.000000 0.000000
# 2 -0.008565 0.021376 -0.008225 0.000000 0.000000 0.000000
# 3 0.000267 -0.008225 0.015972 0.000000 0.000000 0.000000
# 4 0.000000 0.000000 0.000000 0.031750 0.000000 0.000000
# 5 0.000000 0.000000 0.000000 0.000000 0.036166 0.000000
# 6 0.000000 0.000000 0.000000 0.000000 0.000000 0.026714
#
#
# Mechanical properties :
#
#
# Convention : Reuss Voigt Hill
#
# Bulk Modulus (GPa) = 61.70580 64.61932 63.16256
# Shear Modulus (GPa) = 27.42269 30.30374 28.86321
#
# Velocity S-wave (km/s) = 3.68791 3.87680 3.78354
# Velocity P-wave (km/s) = 6.98127 7.21723 7.10023
#
# Compressibility (1/GPa) = 0.01620593
#
# Stress axis : x y z
#
# Youngs Moduli (GPa) = 84.00341 46.78165 62.60830
#
# Poissons Ratio (x) = 0.40069 -0.01673
# Poissons Ratio (y) = 0.71951 0.51497
# Poissons Ratio (z) = -0.02245 0.38479
#
# Static dielectric constant tensor:
#      x y z
#    x 3.872720 0.000000 0.000000 
#    y 0.000000 3.753990 0.000000 
#    z 0.000000 0.000000 3.722180 
# 
# 
# High freq. dielectric constant tensor:
#      x y z
#    x 1.799420 0.000000 0.000000 
#    y 0.000000 1.791840 0.000000 
#    z 0.000000 0.000000 1.788840 
# 
# From -- ./inp_files/15771.got.cif
#   From: 2010.03.12/outbox.cif.g09.slc.cpg/sg62_8_cif.got.tgz:15771.got - 2010.04.10 19:12:36.
