data_PCOD8253261
_publ_section_title
;
Structure prediction by ZEFSAII (Michael W. Deem and Ramdas Pophale) SiO2 
 PCOD8253261
Probable space group: P N M A
;
_chemical_formula_sum "Si O2"
_cell_formula_units_Z 64
_cell_length_a 32.621972
_cell_length_b 9.024515
_cell_length_c 11.052653
_cell_angle_alpha 90.000000
_cell_angle_beta 90.000000
_cell_angle_gamma 90.000000
_cell_volume 3253.873142
_symmetry_space_group_name_H-M "P N M A"
_symmetry_group_IT_number 62
_symmetry_cell_setting 'orthorhombic'
loop_
_space_group_symop_operation_xyz
x,y,z
1/2-x,-y,1/2+z
1/2+x,1/2-y,1/2-z
-x,1/2+y,-z
-x,-y,-z
1/2+x,y,1/2-z
1/2-x,1/2+y,1/2+z
x,1/2-y,z
loop_
_atom_site_type_symbol
_atom_site_label
_atom_site_fract_x
_atom_site_fract_y
_atom_site_fract_z
Si Si1 0.884858 0.924707 0.077933
Si Si2 0.833405 0.077552 0.490559
Si Si3 0.400345 0.581904 0.882491
Si Si4 0.222621 0.919573 0.289964
Si Si5 0.984463 0.074223 0.625401
Si Si6 0.313561 0.921307 0.242599
Si Si7 0.523226 0.426396 0.614532
Si Si8 0.658408 0.083106 0.345445
O O1 0.888638 0.750000 0.063847
O O2 0.852551 0.969647 0.179838
O O3 0.929995 0.986010 0.108126
O O4 0.867064 0.993828 0.953768
O O5 0.844199 0.250000 0.495631
O O6 0.800197 0.029600 0.589467
O O7 0.875628 0.985289 0.504042
O O8 0.812125 0.033138 0.367518
O O9 0.414327 0.750000 0.912379
O O10 0.438428 0.478168 0.853523
O O11 0.370558 0.575457 0.769532
O O12 0.214349 0.750000 0.260718
O O13 0.270691 0.950707 0.310899
O O14 0.202136 0.005413 0.177162
O O15 0.987105 0.250000 0.607968
O O16 0.007709 0.026601 0.750344
O O17 0.000000 0.000000 0.500000
O O18 0.317017 0.750000 0.201577
O O19 0.500000 0.500000 0.500000
O O20 0.519455 0.250000 0.599115
O O21 0.669499 0.250000 0.382489
#
# Coordination Sequence:
#
# PCOD8253261 Si02
#       8
#     8   8   8   8   8   8   8   8
#     4   9  19  36  59  84 113 148 190 234 286 349
#     4  10  21  37  57  83 115 148 189 241 292 343
#     4  10  20  37  61  86 114 151 194 238 291 353
#     4   9  20  36  54  80 113 149 188 235 289 339
#     4  11  24  39  60  91 124 160 202 251 308 365
#     4  10  21  36  56  80 111 153 192 232 287 347
#     4  10  22  41  64  91 121 157 198 249 308 367
#     4   9  18  34  60  86 108 146 194 237 282 344
#
# _framework density 19.668869000000001
#
# number of rings (size 3 to 8) (size 9 to 14) (size 15 to 20)
#    0.000    2.250    0.000    1.875    3.500    3.500 
#    0.000    1.875    0.000    0.000    0.000    0.000 
#    0.000    0.000    0.000    0.000    0.000    0.000 
#
# Total GULP energy -793261.808250 kJ/mol
# GULP energy per Si atom -12394.715754 kJ/mol
# Density = 1.962410 g / cm^3
# Si number density = 19.668869 Si / 1000 Ang^3
#
#
#
# Elastic Constant Matrix: (Units=GPa)
#
#
# Indices 1 2 3 4 5 6 
#
# 1 152.2143 40.0145 53.9756 0.0000 0.0000 0.0000
# 2 40.0145 52.4524 43.1680 0.0000 0.0000 0.0000
# 3 53.9756 43.1680 111.4509 0.0000 0.0000 0.0000
# 4 0.0000 0.0000 0.0000 25.5257 0.0000 0.0000
# 5 0.0000 0.0000 0.0000 0.0000 27.9310 0.0000
# 6 0.0000 0.0000 0.0000 0.0000 0.0000 32.1316
#
#
#
# Elastic Compliance Matrix: (Units=1/GPa)
#
#
# Indices 1 2 3 4 5 6 
#
# 1 0.008631 -0.004616 -0.002392 0.000000 0.000000 0.000000
# 2 -0.004616 0.030454 -0.009560 0.000000 0.000000 0.000000
# 3 -0.002392 -0.009560 0.013834 0.000000 0.000000 0.000000
# 4 0.000000 0.000000 0.000000 0.039176 0.000000 0.000000
# 5 0.000000 0.000000 0.000000 0.000000 0.035803 0.000000
# 6 0.000000 0.000000 0.000000 0.000000 0.000000 0.031122
#
#
# Mechanical properties :
#
#
# Convention : Reuss Voigt Hill
#
# Bulk Modulus (GPa) = 50.54880 65.60376 58.07628
# Shear Modulus (GPa) = 25.15698 29.04829 27.10264
#
# Velocity S-wave (km/s) = 3.58023 3.84717 3.71610
# Velocity P-wave (km/s) = 6.54571 7.29115 6.92846
#
# Compressibility (1/GPa) = 0.01978287
#
# Stress axis : x y z
#
# Youngs Moduli (GPa) = 115.85558 32.83611 72.28478
#
# Poissons Ratio (x) = 0.15156 0.17293
# Poissons Ratio (y) = 0.53476 0.69107
# Poissons Ratio (z) = 0.27717 0.31392
#
# Static dielectric constant tensor:
#      x y z
#    x 3.812540 0.000000 0.000000 
#    y 0.000000 3.516830 0.000000 
#    z 0.000000 0.000000 3.662780 
# 
# 
# High freq. dielectric constant tensor:
#      x y z
#    x 1.778780 0.000000 0.000000 
#    y 0.000000 1.749390 0.000000 
#    z 0.000000 0.000000 1.768930 
# 
# From -- ./inp_files/15769.got.cif
#   From: 2010.03.12/outbox.cif.g09.slc.cpg/sg62_8_cif.got.tgz:15769.got - 2010.04.10 19:12:36.
