data_PCOD8253146
_publ_section_title
;
Structure prediction by ZEFSAII (Michael W. Deem and Ramdas Pophale) SiO2 
 PCOD8253146
Probable space group: P N M A
;
_chemical_formula_sum "Si O2"
_cell_formula_units_Z 64
_cell_length_a 12.467346
_cell_length_b 18.054713
_cell_length_c 14.156898
_cell_angle_alpha 90.000000
_cell_angle_beta 90.000000
_cell_angle_gamma 90.000000
_cell_volume 3186.637809
_symmetry_space_group_name_H-M "P N M A"
_symmetry_group_IT_number 62
_symmetry_cell_setting 'orthorhombic'
loop_
_space_group_symop_operation_xyz
x,y,z
1/2-x,-y,1/2+z
1/2+x,1/2-y,1/2-z
-x,1/2+y,-z
-x,-y,-z
1/2+x,y,1/2-z
1/2-x,1/2+y,1/2+z
x,1/2-y,z
loop_
_atom_site_type_symbol
_atom_site_label
_atom_site_fract_x
_atom_site_fract_y
_atom_site_fract_z
Si Si1 0.620852 0.444560 0.931438
Si Si2 0.730595 0.665579 0.897543
Si Si3 0.508632 0.595646 0.900948
Si Si4 0.773346 0.405114 0.773731
Si Si5 0.424143 0.334118 0.582278
Si Si6 0.842552 0.614060 0.084912
Si Si7 0.820805 0.450518 0.056144
Si Si8 0.685546 0.072042 0.229086
O O1 0.553533 0.512869 0.892979
O O2 0.669641 0.401650 0.842479
O O3 0.546624 0.391441 0.996261
O O4 0.716646 0.475015 0.996764
O O5 0.757587 0.750000 0.877144
O O6 0.602680 0.654743 0.888707
O O7 0.795194 0.618503 0.822011
O O8 0.771498 0.642280 0.999320
O O9 0.423781 0.602977 0.816379
O O10 0.866281 0.354979 0.819473
O O11 0.734900 0.373029 0.674358
O O12 0.822931 0.486669 0.760213
O O13 0.392685 0.250000 0.554532
O O14 0.551211 0.337477 0.596967
O O15 0.391286 0.389545 0.497520
O O16 0.881547 0.528277 0.073971
O O17 0.784259 0.416565 0.156423
#
# Coordination Sequence:
#
# PCOD8253146 Si02
#       8
#     8   8   8   8   8   8   8   8
#     4   9  17  37  65  92 115 144 198 262 299 345
#     4  12  25  41  57  86 134 166 198 251 308 373
#     4  10  20  36  65  91 119 153 204 252 305 355
#     4  10  22  40  65  91 118 154 204 260 299 363
#     4  11  24  39  59  88 125 162 194 247 314 367
#     4  11  23  41  63  88 117 163 213 250 297 359
#     4   9  19  40  65  91 115 155 204 261 296 354
#     4  10  22  38  65  94 116 155 209 252 303 357
#
# _framework density 20.083864999999999
#
# number of rings (size 3 to 8) (size 9 to 14) (size 15 to 20)
#    0.000    1.750    2.500    1.500    3.500    3.000 
#    0.000    5.000    0.000    0.000    0.000    0.000 
#    0.000    0.000    0.000    0.000    0.000    0.000 
#
# Total GULP energy -793652.838611 kJ/mol
# GULP energy per Si atom -12400.825603 kJ/mol
# Density = 2.003815 g / cm^3
# Si number density = 20.083865 Si / 1000 Ang^3
#
#
#
# Elastic Constant Matrix: (Units=GPa)
#
#
# Indices 1 2 3 4 5 6 
#
# 1 96.7749 30.4033 44.4203 0.0000 0.0000 0.0000
# 2 30.4033 65.5080 19.6260 0.0000 0.0000 0.0000
# 3 44.4203 19.6260 106.0584 0.0000 0.0000 0.0000
# 4 0.0000 0.0000 0.0000 3.8570 0.0000 0.0000
# 5 0.0000 0.0000 0.0000 0.0000 15.6371 0.0000
# 6 0.0000 0.0000 0.0000 0.0000 0.0000 16.9543
#
#
#
# Elastic Compliance Matrix: (Units=1/GPa)
#
#
# Indices 1 2 3 4 5 6 
#
# 1 0.014241 -0.005106 -0.005020 0.000000 0.000000 0.000000
# 2 -0.005106 0.017992 -0.001191 0.000000 0.000000 0.000000
# 3 -0.005020 -0.001191 0.011752 0.000000 0.000000 0.000000
# 4 0.000000 0.000000 0.000000 0.259271 0.000000 0.000000
# 5 0.000000 0.000000 0.000000 0.000000 0.063950 0.000000
# 6 0.000000 0.000000 0.000000 0.000000 0.000000 0.058982
#
#
# Mechanical properties :
#
#
# Convention : Reuss Voigt Hill
#
# Bulk Modulus (GPa) = 46.83469 50.80449 48.81959
# Shear Modulus (GPa) = 10.96640 18.88247 14.92444
#
# Velocity S-wave (km/s) = 2.33926 3.06956 2.72895
# Velocity P-wave (km/s) = 5.53772 6.15744 5.85579
#
# Compressibility (1/GPa) = 0.02135170
#
# Stress axis : x y z
#
# Youngs Moduli (GPa) = 70.21741 55.58098 85.09455
#
# Poissons Ratio (x) = 0.28378 0.42717
# Poissons Ratio (y) = 0.35851 0.10134
# Poissons Ratio (z) = 0.35249 0.06619
#
# Static dielectric constant tensor:
#      x y z
#    x 3.698950 0.000000 0.000000 
#    y 0.000000 3.408350 0.000000 
#    z 0.000000 0.000000 3.870830 
# 
# 
# High freq. dielectric constant tensor:
#      x y z
#    x 1.786620 0.000000 0.000000 
#    y 0.000000 1.756160 0.000000 
#    z 0.000000 0.000000 1.796900 
# 
# From -- ./inp_files/18253.got.cif
#   From: 2010.03.12/outbox.cif.g09.slc.cpg/sg62_10_cif.got.tgz:18253.got - 2010.04.10 19:12:36.
