data_PCOD8253496
_publ_section_title
;
Structure prediction by ZEFSAII (Michael W. Deem and Ramdas Pophale) SiO2 
 PCOD8253496
Probable space group: P N M A
;
_chemical_formula_sum "Si O2"
_cell_formula_units_Z 56
_cell_length_a 19.699721
_cell_length_b 8.795579
_cell_length_c 16.362459
_cell_angle_alpha 90.000000
_cell_angle_beta 90.000000
_cell_angle_gamma 90.000000
_cell_volume 2835.130672
_symmetry_space_group_name_H-M "P N M A"
_symmetry_group_IT_number 62
_symmetry_cell_setting 'orthorhombic'
loop_
_space_group_symop_operation_xyz
x,y,z
1/2-x,-y,1/2+z
1/2+x,1/2-y,1/2-z
-x,1/2+y,-z
-x,-y,-z
1/2+x,y,1/2-z
1/2-x,1/2+y,1/2+z
x,1/2-y,z
loop_
_atom_site_type_symbol
_atom_site_label
_atom_site_fract_x
_atom_site_fract_y
_atom_site_fract_z
Si Si1 0.875611 0.572475 0.698691
Si Si2 0.945918 0.928738 0.060436
Si Si3 0.339669 0.925240 0.982150
Si Si4 0.021076 0.926432 0.768768
Si Si5 0.859778 0.426072 0.354250
Si Si6 0.759752 0.928012 0.239362
Si Si7 0.808120 0.426889 0.075528
O O1 0.858260 0.750000 0.708604
O O2 0.875380 0.529572 0.602900
O O3 0.818631 0.476666 0.746096
O O4 0.947010 0.527453 0.737208
O O5 0.948685 0.750000 0.050544
O O6 0.961407 0.973214 0.153309
O O7 0.871146 0.986243 0.034462
O O8 0.000000 0.000000 0.000000
O O9 0.353188 0.750000 0.003253
O O10 0.372874 0.029507 0.051695
O O11 0.259095 0.958795 0.976977
O O12 0.024272 0.750000 0.793762
O O13 0.072667 0.964584 0.696078
O O14 0.840589 0.250000 0.347464
O O15 0.796826 0.527352 0.323233
O O16 0.765159 0.750000 0.222862
O O17 0.798298 0.017173 0.167886
O O18 0.825847 0.250000 0.079969
#
# Coordination Sequence:
#
# PCOD8253496 Si02
#       7
#     8   8   8   8   8   8   8
#     4   9  20  40  62  85 119 162 202 249 304 355
#     4  12  25  40  62  90 121 159 200 250 307 365
#     4   9  20  37  59  87 119 155 199 249 298 348
#     4  10  22  41  63  87 120 162 205 248 303 366
#     4  11  22  36  59  88 121 160 203 248 300 361
#     4  11  21  35  59  87 115 153 199 249 301 358
#     4  10  20  39  62  84 115 153 195 246 300 356
#
# _framework density 19.752175000000001
#
# number of rings (size 3 to 8) (size 9 to 14) (size 15 to 20)
#    0.000    1.714    1.429    4.286    0.000    5.714 
#    0.000    0.000    0.000    0.000    0.000    0.000 
#    0.000    0.000    0.000    0.000    0.000    0.000 
#
# Total GULP energy -694679.078799 kJ/mol
# GULP energy per Si atom -12404.983550 kJ/mol
# Density = 1.970722 g / cm^3
# Si number density = 19.752175 Si / 1000 Ang^3
#
#
#
# Elastic Constant Matrix: (Units=GPa)
#
#
# Indices 1 2 3 4 5 6 
#
# 1 95.1342 41.3908 18.3897 0.0000 0.0000 0.0000
# 2 41.3908 104.2539 23.4422 0.0000 0.0000 0.0000
# 3 18.3897 23.4422 40.7068 0.0000 0.0000 0.0000
# 4 0.0000 0.0000 0.0000 33.4746 0.0000 0.0000
# 5 0.0000 0.0000 0.0000 0.0000 32.1816 0.0000
# 6 0.0000 0.0000 0.0000 0.0000 0.0000 28.3433
#
#
#
# Elastic Compliance Matrix: (Units=1/GPa)
#
#
# Indices 1 2 3 4 5 6 
#
# 1 0.013094 -0.004444 -0.003356 0.000000 0.000000 0.000000
# 2 -0.004444 0.012527 -0.005206 0.000000 0.000000 0.000000
# 3 -0.003356 -0.005206 0.029080 0.000000 0.000000 0.000000
# 4 0.000000 0.000000 0.000000 0.029873 0.000000 0.000000
# 5 0.000000 0.000000 0.000000 0.000000 0.031074 0.000000
# 6 0.000000 0.000000 0.000000 0.000000 0.000000 0.035282
#
#
# Mechanical properties :
#
#
# Convention : Reuss Voigt Hill
#
# Bulk Modulus (GPa) = 34.85753 45.17115 40.01434
# Shear Modulus (GPa) = 26.80892 29.25804 28.03348
#
# Velocity S-wave (km/s) = 3.68810 3.85289 3.77139
# Velocity P-wave (km/s) = 5.98514 6.53541 6.26632
#
# Compressibility (1/GPa) = 0.02868820
#
# Stress axis : x y z
#
# Youngs Moduli (GPa) = 76.37317 79.82794 34.38749
#
# Poissons Ratio (x) = 0.35474 0.11541
# Poissons Ratio (y) = 0.33939 0.17904
# Poissons Ratio (z) = 0.25632 0.41562
#
# Static dielectric constant tensor:
#      x y z
#    x 3.746770 0.000000 0.000000 
#    y 0.000000 3.555420 0.000000 
#    z 0.000000 0.000000 3.512220 
# 
# 
# High freq. dielectric constant tensor:
#      x y z
#    x 1.776650 0.000000 0.000000 
#    y 0.000000 1.770790 0.000000 
#    z 0.000000 0.000000 1.764330 
# 
# From -- ./inp_files/20240.got.cif
#   From: 2010.03.12/outbox.cif.g09.slc.cpg/sg62_11_cif.got.tgz:20240.got - 2010.04.10 19:12:36.
