data_PCOD8253552
_publ_section_title
;
Structure prediction by ZEFSAII (Michael W. Deem and Ramdas Pophale) SiO2 
 PCOD8253552
Probable space group: P N M A
;
_chemical_formula_sum "Si O2"
_cell_formula_units_Z 48
_cell_length_a 10.867435
_cell_length_b 12.291072
_cell_length_c 17.963426
_cell_angle_alpha 90.000000
_cell_angle_beta 90.000000
_cell_angle_gamma 90.000000
_cell_volume 2399.418391
_symmetry_space_group_name_H-M "P N M A"
_symmetry_group_IT_number 62
_symmetry_cell_setting 'orthorhombic'
loop_
_space_group_symop_operation_xyz
x,y,z
1/2-x,-y,1/2+z
1/2+x,1/2-y,1/2-z
-x,1/2+y,-z
-x,-y,-z
1/2+x,y,1/2-z
1/2-x,1/2+y,1/2+z
x,1/2-y,z
loop_
_atom_site_type_symbol
_atom_site_label
_atom_site_fract_x
_atom_site_fract_y
_atom_site_fract_z
Si Si1 0.147686 0.017746 0.389184
Si Si2 0.680213 0.250000 0.180788
Si Si3 0.842899 0.879907 0.189972
Si Si4 0.586615 0.750000 0.779352
Si Si5 0.704186 0.977881 0.464446
Si Si6 0.027359 0.369127 0.959358
Si Si7 0.614620 0.513061 0.837660
O O1 0.169227 0.142661 0.368238
O O2 0.192600 0.005278 0.473511
O O3 0.005098 0.985072 0.386436
O O4 0.213334 0.933341 0.333358
O O5 0.819432 0.250000 0.210804
O O6 0.562129 0.250000 0.239013
O O7 0.829069 0.750000 0.204035
O O8 0.938535 0.909259 0.124144
O O9 0.890408 0.940952 0.263385
O O10 0.618688 0.642084 0.825053
O O11 0.621729 0.868223 0.469202
O O12 0.595435 0.066536 0.474493
O O13 0.763963 0.983040 0.383497
O O14 0.080520 0.250000 0.968862
#
# Coordination Sequence:
#
# PCOD8253552 Si02
#       7
#     8   4   8   4   8   8   8
#     4  10  22  41  61  89 124 159 205 256 309 366
#     4  10  20  40  62  90 126 159 205 258 316 369
#     4  10  22  40  63  88 124 165 208 250 305 367
#     4  10  22  38  62  94 120 163 205 260 314 371
#     4  10  22  39  63  91 120 161 202 248 308 366
#     4   9  21  41  61  89 125 162 203 250 300 368
#     4  11  23  39  63  91 123 160 205 258 308 367
#
# _framework density 20.004847999999999
#
# number of rings (size 3 to 8) (size 9 to 14) (size 15 to 20)
#    0.000    2.000    1.667    0.500    4.667    1.333 
#    3.000    0.000    0.000    0.000    0.000    0.000 
#    0.000    0.000    0.000    0.000    0.000    0.000 
#
# Total GULP energy -594783.574175 kJ/mol
# GULP energy per Si atom -12391.324462 kJ/mol
# Density = 1.995932 g / cm^3
# Si number density = 20.004848 Si / 1000 Ang^3
#
#
#
# Elastic Constant Matrix: (Units=GPa)
#
#
# Indices 1 2 3 4 5 6 
#
# 1 88.4574 24.1887 22.7178 0.0000 0.0000 0.0000
# 2 24.1887 92.6568 15.0324 0.0000 0.0000 0.0000
# 3 22.7178 15.0324 61.0401 0.0000 0.0000 0.0000
# 4 0.0000 0.0000 0.0000 47.1991 0.0000 0.0000
# 5 0.0000 0.0000 0.0000 0.0000 30.4243 0.0000
# 6 0.0000 0.0000 0.0000 0.0000 0.0000 18.7618
#
#
#
# Elastic Compliance Matrix: (Units=1/GPa)
#
#
# Indices 1 2 3 4 5 6 
#
# 1 0.013138 -0.002746 -0.004213 0.000000 0.000000 0.000000
# 2 -0.002746 0.011816 -0.001888 0.000000 0.000000 0.000000
# 3 -0.004213 -0.001888 0.018416 0.000000 0.000000 0.000000
# 4 0.000000 0.000000 0.000000 0.021187 0.000000 0.000000
# 5 0.000000 0.000000 0.000000 0.000000 0.032869 0.000000
# 6 0.000000 0.000000 0.000000 0.000000 0.000000 0.053300
#
#
# Mechanical properties :
#
#
# Convention : Reuss Voigt Hill
#
# Bulk Modulus (GPa) = 38.94890 40.67024 39.80957
# Shear Modulus (GPa) = 28.25223 31.29140 29.77182
#
# Velocity S-wave (km/s) = 3.76209 3.95928 3.86194
# Velocity P-wave (km/s) = 6.19541 6.42460 6.31105
#
# Compressibility (1/GPa) = 0.02567466
#
# Stress axis : x y z
#
# Youngs Moduli (GPa) = 76.11565 84.63316 54.30156
#
# Poissons Ratio (x) = 0.23242 0.22879
# Poissons Ratio (y) = 0.20903 0.10251
# Poissons Ratio (z) = 0.32070 0.15977
#
# Static dielectric constant tensor:
#      x y z
#    x 3.972090 0.000000 0.000000 
#    y 0.000000 3.819530 0.000000 
#    z 0.000000 0.000000 3.447820 
# 
# 
# High freq. dielectric constant tensor:
#      x y z
#    x 1.792450 0.000000 0.000000 
#    y 0.000000 1.786380 0.000000 
#    z 0.000000 0.000000 1.764740 
# 
# From -- ./inp_files/23054.got.cif
#   From: 2010.03.12/outbox.cif.g09.slc.cpg/sg62_12_cif.got.tgz:23054.got - 2010.04.10 19:12:36.
