data_PCOD8253290
_publ_section_title
;
Structure prediction by ZEFSAII (Michael W. Deem and Ramdas Pophale) SiO2 
 PCOD8253290
Probable space group: P N M A
;
_chemical_formula_sum "Si O2"
_cell_formula_units_Z 64
_cell_length_a 34.872770
_cell_length_b 8.782825
_cell_length_c 10.972672
_cell_angle_alpha 90.000000
_cell_angle_beta 90.000000
_cell_angle_gamma 90.000000
_cell_volume 3360.725739
_symmetry_space_group_name_H-M "P N M A"
_symmetry_group_IT_number 62
_symmetry_cell_setting 'orthorhombic'
loop_
_space_group_symop_operation_xyz
x,y,z
1/2-x,-y,1/2+z
1/2+x,1/2-y,1/2-z
-x,1/2+y,-z
-x,-y,-z
1/2+x,y,1/2-z
1/2-x,1/2+y,1/2+z
x,1/2-y,z
loop_
_atom_site_type_symbol
_atom_site_label
_atom_site_fract_x
_atom_site_fract_y
_atom_site_fract_z
Si Si1 0.858121 0.577176 0.641442
Si Si2 0.271606 0.072461 0.132756
Si Si3 0.998950 0.426938 0.370333
Si Si4 0.723574 0.930392 0.146687
Si Si5 0.850688 0.578164 0.362980
Si Si6 0.430037 0.071496 0.735108
Si Si7 0.429247 0.920108 0.245772
Si Si8 0.040975 0.078554 0.011848
O O1 0.858641 0.750000 0.690228
O O2 0.817233 0.505527 0.672047
O O3 0.867089 0.570488 0.499032
O O4 0.890740 0.481181 0.706175
O O5 0.263152 0.250000 0.150627
O O6 0.249781 0.982286 0.239925
O O7 0.316344 0.039969 0.155212
O O8 0.261277 0.022912 0.991170
O O9 0.006080 0.250000 0.381271
O O10 0.032262 0.497283 0.290460
O O11 0.000000 0.500000 0.500000
O O12 0.957496 0.458653 0.313831
O O13 0.719244 0.750000 0.150477
O O14 0.836215 0.750000 0.333722
O O15 0.885435 0.528192 0.275614
O O16 0.433677 0.250000 0.749474
O O17 0.430672 0.020278 0.595342
O O18 0.435624 0.750000 0.189914
O O19 0.436162 0.915535 0.387767
O O20 0.034713 0.250000 0.062947
O O21 0.000000 0.000000 0.000000
#
# Coordination Sequence:
#
# PCOD8253290 Si02
#       8
#     8   8   8   8   8   8   8   8
#     4  10  20  37  62  89 118 152 193 241 295 350
#     4  10  21  38  62  92 123 159 199 242 294 357
#     4  12  24  37  57  83 113 147 189 240 293 347
#     4  10  21  39  63  91 124 160 199 244 297 358
#     4   9  19  37  61  87 116 151 188 236 293 348
#     4  12  24  39  58  82 115 153 198 243 290 348
#     4  10  21  38  59  83 113 149 193 239 291 351
#     4  11  22  38  59  81 112 156 199 243 293 350
#
# _framework density 19.043506000000001
#
# number of rings (size 3 to 8) (size 9 to 14) (size 15 to 20)
#    0.000    1.500    1.250    4.500    0.000    4.000 
#    2.250    0.000    0.000    0.000    0.000    0.000 
#    0.000    0.000    0.000    0.000    0.000    0.000 
#
# Total GULP energy -793514.618873 kJ/mol
# GULP energy per Si atom -12398.665920 kJ/mol
# Density = 1.900016 g / cm^3
# Si number density = 19.043506 Si / 1000 Ang^3
#
#
#
# Elastic Constant Matrix: (Units=GPa)
#
#
# Indices 1 2 3 4 5 6 
#
# 1 83.0693 42.1700 57.3271 0.0000 0.0000 0.0000
# 2 42.1700 132.3700 51.4420 0.0000 0.0000 0.0000
# 3 57.3271 51.4420 125.9656 0.0000 0.0000 0.0000
# 4 0.0000 0.0000 0.0000 30.1636 0.0000 0.0000
# 5 0.0000 0.0000 0.0000 0.0000 36.2570 0.0000
# 6 0.0000 0.0000 0.0000 0.0000 0.0000 104.4933
#
#
#
# Elastic Compliance Matrix: (Units=1/GPa)
#
#
# Indices 1 2 3 4 5 6 
#
# 1 0.018581 -0.003130 -0.007178 0.000000 0.000000 0.000000
# 2 -0.003130 0.009507 -0.002458 0.000000 0.000000 0.000000
# 3 -0.007178 -0.002458 0.012209 0.000000 0.000000 0.000000
# 4 0.000000 0.000000 0.000000 0.033153 0.000000 0.000000
# 5 0.000000 0.000000 0.000000 0.000000 0.027581 0.000000
# 6 0.000000 0.000000 0.000000 0.000000 0.000000 0.009570
#
#
# Mechanical properties :
#
#
# Convention : Reuss Voigt Hill
#
# Bulk Modulus (GPa) = 67.72726 71.47590 69.60158
# Shear Modulus (GPa) = 35.44760 46.88051 41.16406
#
# Velocity S-wave (km/s) = 4.31908 4.96699 4.65432
# Velocity P-wave (km/s) = 7.77909 8.39697 8.09393
#
# Compressibility (1/GPa) = 0.01476510
#
# Stress axis : x y z
#
# Youngs Moduli (GPa) = 53.81977 105.18639 81.90576
#
# Poissons Ratio (x) = 0.32922 0.58791
# Poissons Ratio (y) = 0.16845 0.20133
# Poissons Ratio (z) = 0.38631 0.25855
#
# Static dielectric constant tensor:
#      x y z
#    x 3.339070 0.000000 0.000000 
#    y 0.000000 3.656930 0.000000 
#    z 0.000000 0.000000 3.649790 
# 
# 
# High freq. dielectric constant tensor:
#      x y z
#    x 1.735740 0.000000 0.000000 
#    y 0.000000 1.752130 0.000000 
#    z 0.000000 0.000000 1.746610 
# 
# From -- ./inp_files/15867.got.cif
#   From: 2010.03.12/outbox.cif.g09.slc.cpg/sg62_8_cif.got.tgz:15867.got - 2010.04.10 19:12:36.
