data_PCOD8253160
_publ_section_title
;
Structure prediction by ZEFSAII (Michael W. Deem and Ramdas Pophale) SiO2 
 PCOD8253160
Probable space group: P N M A
;
_chemical_formula_sum "Si O2"
_cell_formula_units_Z 48
_cell_length_a 16.289339
_cell_length_b 15.698235
_cell_length_c 8.926596
_cell_angle_alpha 90.000000
_cell_angle_beta 90.000000
_cell_angle_gamma 90.000000
_cell_volume 2282.654424
_symmetry_space_group_name_H-M "P N M A"
_symmetry_group_IT_number 62
_symmetry_cell_setting 'orthorhombic'
loop_
_space_group_symop_operation_xyz
x,y,z
1/2-x,-y,1/2+z
1/2+x,1/2-y,1/2-z
-x,1/2+y,-z
-x,-y,-z
1/2+x,y,1/2-z
1/2-x,1/2+y,1/2+z
x,1/2-y,z
loop_
_atom_site_type_symbol
_atom_site_label
_atom_site_fract_x
_atom_site_fract_y
_atom_site_fract_z
Si Si1 0.338714 0.750000 0.669073
Si Si2 0.094091 0.066637 0.787102
Si Si3 0.839780 0.250000 0.212098
Si Si4 0.660220 0.586107 0.889550
Si Si5 0.590165 0.920050 0.211836
Si Si6 0.608459 0.250000 0.650668
Si Si7 0.849246 0.927382 0.885347
Si Si8 0.417998 0.250000 0.611561
O O1 0.258451 0.750000 0.772599
O O2 0.326326 0.750000 0.485792
O O3 0.385556 0.659207 0.696436
O O4 0.120004 0.164755 0.749284
O O5 0.001928 0.048105 0.736914
O O6 0.152196 0.002801 0.698187
O O7 0.100011 0.050950 0.965379
O O8 0.873598 0.335742 0.289709
O O9 0.867531 0.250000 0.041290
O O10 0.755785 0.596118 0.929528
O O11 0.605503 0.588775 0.036923
O O12 0.609610 0.832049 0.294307
O O13 0.649613 0.993536 0.273967
O O14 0.515545 0.250000 0.582312
#
# Coordination Sequence:
#
# PCOD8253160 Si02
#       8
#     4   8   4   8   8   4   8   4
#     4   8  18  35  55  79 109 144 186 234 277 325
#     4  10  20  38  60  84 114 152 192 232 280 340
#     4  10  21  37  58  81 111 149 190 235 286 341
#     4  11  22  37  57  85 117 147 186 242 291 330
#     4  11  22  37  58  86 116 151 191 237 285 336
#     4   8  18  37  61  85 114 151 188 229 283 341
#     4  10  20  37  58  80 113 156 192 229 282 346
#     4  10  21  37  60  85 112 150 194 230 278 349
#
# _framework density 21.02815
#
# number of rings (size 3 to 8) (size 9 to 14) (size 15 to 20)
#    0.000    2.000    0.000    3.500    0.000    4.000 
#    0.000    3.333    0.000    0.000    0.000    0.000 
#    0.000    0.000    0.000    0.000    0.000    0.000 
#
# Total GULP energy -594975.561368 kJ/mol
# GULP energy per Si atom -12395.324195 kJ/mol
# Density = 2.098029 g / cm^3
# Si number density = 21.028150 Si / 1000 Ang^3
#
#
#
# Elastic Constant Matrix: (Units=GPa)
#
#
# Indices 1 2 3 4 5 6 
#
# 1 41.8807 24.7610 3.9136 0.0000 0.0000 0.0000
# 2 24.7610 191.7909 66.4140 0.0000 0.0000 0.0000
# 3 3.9136 66.4140 84.0391 0.0000 0.0000 0.0000
# 4 0.0000 0.0000 0.0000 27.9635 0.0000 0.0000
# 5 0.0000 0.0000 0.0000 0.0000 28.8726 0.0000
# 6 0.0000 0.0000 0.0000 0.0000 0.0000 28.2631
#
#
#
# Elastic Compliance Matrix: (Units=1/GPa)
#
#
# Indices 1 2 3 4 5 6 
#
# 1 0.026091 -0.004058 0.001992 0.000000 0.000000 0.000000
# 2 -0.004058 0.007810 -0.005983 0.000000 0.000000 0.000000
# 3 0.001992 -0.005983 0.016535 0.000000 0.000000 0.000000
# 4 0.000000 0.000000 0.000000 0.035761 0.000000 0.000000
# 5 0.000000 0.000000 0.000000 0.000000 0.034635 0.000000
# 6 0.000000 0.000000 0.000000 0.000000 0.000000 0.035382
#
#
# Mechanical properties :
#
#
# Convention : Reuss Voigt Hill
#
# Bulk Modulus (GPa) = 29.12320 56.43198 42.77759
# Shear Modulus (GPa) = 27.21001 31.86132 29.53567
#
# Velocity S-wave (km/s) = 3.60110 3.89675 3.75184
# Velocity P-wave (km/s) = 5.58303 6.86592 6.25744
#
# Compressibility (1/GPa) = 0.03433689
#
# Stress axis : x y z
#
# Youngs Moduli (GPa) = 38.32805 128.04595 60.47949
#
# Poissons Ratio (x) = 0.51964 -0.12048
# Poissons Ratio (y) = 0.15554 0.36184
# Poissons Ratio (z) = -0.07635 0.76608
#
# Static dielectric constant tensor:
#      x y z
#    x 3.538930 0.000000 0.000000 
#    y 0.000000 4.398780 0.000000 
#    z 0.000000 0.000000 3.444590 
# 
# 
# High freq. dielectric constant tensor:
#      x y z
#    x 1.804930 0.000000 0.000000 
#    y 0.000000 1.858430 0.000000 
#    z 0.000000 0.000000 1.800830 
# 
# From -- ./inp_files/7706.got.cif
#   From: 2010.03.12/outbox.cif.g09.slc.cpg/sg62_4_cif.got.tgz:7706.got - 2010.04.10 19:12:36.
