data_PCOD8253772
_publ_section_title
;
Structure prediction by ZEFSAII (Michael W. Deem and Ramdas Pophale) SiO2 
 PCOD8253772
Probable space group: P N M A
;
_chemical_formula_sum "Si O2"
_cell_formula_units_Z 36
_cell_length_a 5.025435
_cell_length_b 12.447864
_cell_length_c 27.122832
_cell_angle_alpha 90.000000
_cell_angle_beta 90.000000
_cell_angle_gamma 90.000000
_cell_volume 1696.694019
_symmetry_space_group_name_H-M "P N M A"
_symmetry_group_IT_number 62
_symmetry_cell_setting 'orthorhombic'
loop_
_space_group_symop_operation_xyz
x,y,z
1/2-x,-y,1/2+z
1/2+x,1/2-y,1/2-z
-x,1/2+y,-z
-x,-y,-z
1/2+x,y,1/2-z
1/2-x,1/2+y,1/2+z
x,1/2-y,z
loop_
_atom_site_type_symbol
_atom_site_label
_atom_site_fract_x
_atom_site_fract_y
_atom_site_fract_z
Si Si1 0.093394 0.574992 0.363250
Si Si2 0.055001 0.872211 0.594695
Si Si3 0.407601 0.127048 0.578206
Si Si4 0.486225 0.250000 0.782478
Si Si5 0.960117 0.374383 0.030868
O O1 0.398314 0.578960 0.380323
O O2 0.058144 0.641011 0.313147
O O3 0.016033 0.447955 0.358180
O O4 0.900182 0.621262 0.405714
O O5 0.086179 0.750000 0.613683
O O6 0.324133 0.921672 0.569996
O O7 0.833726 0.884172 0.552624
O O8 0.485198 0.250000 0.572221
O O9 0.464199 0.072084 0.524310
O O10 0.788082 0.250000 0.763700
O O11 0.042760 0.250000 0.025563
#
# Coordination Sequence:
#
# PCOD8253772 Si02
#       5
#     8   8   8   4   8
#     4  12  23  38  63  84 111 155 189 244 303 350
#     4  10  21  37  54  84 121 159 202 224 274 339
#     4  11  20  35  55  86 123 153 203 237 281 339
#     4  12  26  46  66  88 114 138 192 258 326 370
#     4   9  19  33  52  81 124 167 195 238 265 318
#
# _framework density 21.217732999999999
#
# number of rings (size 3 to 8) (size 9 to 14) (size 15 to 20)
#    0.000    1.333    2.222    4.000    0.000    8.889 
#    0.000    0.000    0.000    1.333    0.000    0.000 
#    0.000    0.000    0.000    0.000    0.000    0.000 
#
# Total GULP energy -446410.149704 kJ/mol
# GULP energy per Si atom -12400.281936 kJ/mol
# Density = 2.116944 g / cm^3
# Si number density = 21.217733 Si / 1000 Ang^3
#
#
#
# Elastic Constant Matrix: (Units=GPa)
#
#
# Indices 1 2 3 4 5 6 
#
# 1 96.4536 1.1149 12.0057 0.0000 0.0000 0.0000
# 2 1.1149 97.8070 38.7001 0.0000 0.0000 0.0000
# 3 12.0057 38.7001 70.7760 0.0000 0.0000 0.0000
# 4 0.0000 0.0000 0.0000 31.1605 0.0000 0.0000
# 5 0.0000 0.0000 0.0000 0.0000 30.8150 0.0000
# 6 0.0000 0.0000 0.0000 0.0000 0.0000 29.4258
#
#
#
# Elastic Compliance Matrix: (Units=1/GPa)
#
#
# Indices 1 2 3 4 5 6 
#
# 1 0.010635 0.000756 -0.002217 0.000000 0.000000 0.000000
# 2 0.000756 0.013101 -0.007292 0.000000 0.000000 0.000000
# 3 -0.002217 -0.007292 0.018492 0.000000 0.000000 0.000000
# 4 0.000000 0.000000 0.000000 0.032092 0.000000 0.000000
# 5 0.000000 0.000000 0.000000 0.000000 0.032452 0.000000
# 6 0.000000 0.000000 0.000000 0.000000 0.000000 0.033984
#
#
# Mechanical properties :
#
#
# Convention : Reuss Voigt Hill
#
# Bulk Modulus (GPa) = 40.44979 40.96420 40.70699
# Shear Modulus (GPa) = 30.02963 32.49465 31.26214
#
# Velocity S-wave (km/s) = 3.76614 3.91767 3.84265
# Velocity P-wave (km/s) = 6.16581 6.30973 6.23819
#
# Compressibility (1/GPa) = 0.02472201
#
# Stress axis : x y z
#
# Youngs Moduli (GPa) = 94.02962 76.33134 54.07646
#
# Poissons Ratio (x) = -0.05772 0.11991
# Poissons Ratio (y) = -0.07110 0.39431
# Poissons Ratio (z) = 0.20851 0.55659
#
# Static dielectric constant tensor:
#      x y z
#    x 3.863900 0.000000 0.000000 
#    y 0.000000 4.495810 0.000000 
#    z 0.000000 0.000000 3.341420 
# 
# 
# High freq. dielectric constant tensor:
#      x y z
#    x 1.850180 0.000000 0.000000 
#    y 0.000000 1.875650 0.000000 
#    z 0.000000 0.000000 1.766710 
# 
# From -- ./inp_files/28205.got.cif
#   From: 2010.03.12/outbox.cif.g09.slc.cpg/sg62_15_cif.got.tgz:28205.got - 2010.04.10 19:12:36.
