data_PCOD8253395
_publ_section_title
;
Structure prediction by ZEFSAII (Michael W. Deem and Ramdas Pophale) SiO2 
 PCOD8253395
Probable space group: P N M A
;
_chemical_formula_sum "Si O2"
_cell_formula_units_Z 48
_cell_length_a 12.004208
_cell_length_b 8.473678
_cell_length_c 23.413277
_cell_angle_alpha 90.000000
_cell_angle_beta 90.000000
_cell_angle_gamma 90.000000
_cell_volume 2381.593695
_symmetry_space_group_name_H-M "P N M A"
_symmetry_group_IT_number 62
_symmetry_cell_setting 'orthorhombic'
loop_
_space_group_symop_operation_xyz
x,y,z
1/2-x,-y,1/2+z
1/2+x,1/2-y,1/2-z
-x,1/2+y,-z
-x,-y,-z
1/2+x,y,1/2-z
1/2-x,1/2+y,1/2+z
x,1/2-y,z
loop_
_atom_site_type_symbol
_atom_site_label
_atom_site_fract_x
_atom_site_fract_y
_atom_site_fract_z
Si Si1 0.002448 0.565444 0.122945
Si Si2 0.726286 0.435163 0.416982
Si Si3 0.650189 0.932396 0.716269
Si Si4 0.403853 0.934175 0.164197
Si Si5 0.843154 0.435806 0.646480
Si Si6 0.194357 0.063794 0.956035
O O1 0.029197 0.750000 0.118012
O O2 0.943237 0.533995 0.183450
O O3 0.921253 0.504653 0.072153
O O4 0.116285 0.468243 0.120065
O O5 0.751881 0.250000 0.417497
O O6 0.830950 0.526639 0.391111
O O7 0.709422 0.506529 0.480722
O O8 0.627573 0.750000 0.704185
O O9 0.643329 0.966861 0.783164
O O10 0.774110 0.977498 0.695992
O O11 0.397309 0.750000 0.178567
O O12 0.529387 0.987899 0.150746
O O13 0.826516 0.250000 0.655177
O O14 0.796970 0.488636 0.584359
O O15 0.189344 0.250000 0.960492
#
# Coordination Sequence:
#
# PCOD8253395 Si02
#       6
#     8   8   8   8   8   8
#     4  10  20  38  62  87 118 158 200 239 291 354
#     4  11  22  36  57  89 124 154 194 247 296 340
#     4  11  23  39  61  87 117 149 192 248 301 347
#     4  11  24  40  59  84 117 159 200 238 290 356
#     4   9  20  41  64  84 112 154 200 238 288 355
#     4   8  17  36  61  87 117 153 194 244 293 344
#
# _framework density 20.154572999999999
#
# number of rings (size 3 to 8) (size 9 to 14) (size 15 to 20)
#    0.000    2.000    0.000    4.500    2.333    2.000 
#    0.000    7.500    0.000    0.000    0.000    0.000 
#    0.000    0.000    0.000    0.000    0.000    0.000 
#
# Total GULP energy -595390.146844 kJ/mol
# GULP energy per Si atom -12403.961393 kJ/mol
# Density = 2.010870 g / cm^3
# Si number density = 20.154573 Si / 1000 Ang^3
#
#
#
# Elastic Constant Matrix: (Units=GPa)
#
#
# Indices 1 2 3 4 5 6 
#
# 1 137.7057 29.7247 35.6117 0.0000 0.0000 0.0000
# 2 29.7247 50.2206 18.0158 0.0000 0.0000 0.0000
# 3 35.6117 18.0158 76.2465 0.0000 0.0000 0.0000
# 4 0.0000 0.0000 0.0000 25.4936 0.0000 0.0000
# 5 0.0000 0.0000 0.0000 0.0000 22.8338 0.0000
# 6 0.0000 0.0000 0.0000 0.0000 0.0000 25.7485
#
#
#
# Elastic Compliance Matrix: (Units=1/GPa)
#
#
# Indices 1 2 3 4 5 6 
#
# 1 0.008993 -0.004170 -0.003215 0.000000 0.000000 0.000000
# 2 -0.004170 0.023689 -0.003650 0.000000 0.000000 0.000000
# 3 -0.003215 -0.003650 0.015480 0.000000 0.000000 0.000000
# 4 0.000000 0.000000 0.000000 0.039225 0.000000 0.000000
# 5 0.000000 0.000000 0.000000 0.000000 0.043795 0.000000
# 6 0.000000 0.000000 0.000000 0.000000 0.000000 0.038837
#
#
# Mechanical properties :
#
#
# Convention : Reuss Voigt Hill
#
# Bulk Modulus (GPa) = 38.32494 47.87525 43.10010
# Shear Modulus (GPa) = 24.90200 26.86988 25.88594
#
# Velocity S-wave (km/s) = 3.51885 3.65525 3.58770
# Velocity P-wave (km/s) = 5.96377 6.45136 6.21235
#
# Compressibility (1/GPa) = 0.02609267
#
# Stress axis : x y z
#
# Youngs Moduli (GPa) = 111.19276 42.21287 64.60156
#
# Poissons Ratio (x) = 0.17601 0.20771
# Poissons Ratio (y) = 0.46363 0.23579
# Poissons Ratio (z) = 0.35751 0.15408
#
# Static dielectric constant tensor:
#      x y z
#    x 3.675480 0.000000 0.000000 
#    y 0.000000 3.421240 0.000000 
#    z 0.000000 0.000000 3.825890 
# 
# 
# High freq. dielectric constant tensor:
#      x y z
#    x 1.789700 0.000000 0.000000 
#    y 0.000000 1.774380 0.000000 
#    z 0.000000 0.000000 1.790200 
# 
# From -- ./inp_files/29254.got.cif
#   From: 2010.03.12/outbox.cif.g09.slc.cpg/sg62_15_cif.got.tgz:29254.got - 2010.04.10 19:12:36.
