data_PCOD8253511
_publ_section_title
;
Structure prediction by ZEFSAII (Michael W. Deem and Ramdas Pophale) SiO2 
 PCOD8253511
Probable space group: P N M A
;
_chemical_formula_sum "Si O2"
_cell_formula_units_Z 56
_cell_length_a 14.389996
_cell_length_b 20.642128
_cell_length_c 9.038930
_cell_angle_alpha 90.000000
_cell_angle_beta 90.000000
_cell_angle_gamma 90.000000
_cell_volume 2684.925027
_symmetry_space_group_name_H-M "P N M A"
_symmetry_group_IT_number 62
_symmetry_cell_setting 'orthorhombic'
loop_
_space_group_symop_operation_xyz
x,y,z
1/2-x,-y,1/2+z
1/2+x,1/2-y,1/2-z
-x,1/2+y,-z
-x,-y,-z
1/2+x,y,1/2-z
1/2-x,1/2+y,1/2+z
x,1/2-y,z
loop_
_atom_site_type_symbol
_atom_site_label
_atom_site_fract_x
_atom_site_fract_y
_atom_site_fract_z
Si Si1 0.097696 0.521128 0.377337
Si Si2 0.285922 0.917423 0.401207
Si Si3 0.411883 0.578576 0.119130
Si Si4 0.122852 0.320910 0.381915
Si Si5 0.232519 0.674393 0.642515
Si Si6 0.952468 0.176791 0.195850
Si Si7 0.052092 0.053528 0.095240
O O1 0.201715 0.541389 0.332417
O O2 0.104637 0.492150 0.544158
O O3 0.058499 0.465697 0.267823
O O4 0.024887 0.581823 0.366898
O O5 0.363181 0.908545 0.275183
O O6 0.238021 0.854479 0.476489
O O7 0.342544 0.948336 0.536340
O O8 0.363659 0.632802 0.019774
O O9 0.161860 0.250000 0.426847
O O10 0.176304 0.346261 0.235683
O O11 0.015076 0.317039 0.341593
O O12 0.225854 0.750000 0.616195
O O13 0.145996 0.650930 0.743194
O O14 0.945798 0.250000 0.122473
O O15 0.996846 0.122886 0.083942
O O16 0.000000 0.000000 0.000000
#
# Coordination Sequence:
#
# PCOD8253511 Si02
#       7
#     8   8   8   8   8   8   8
#     4  11  24  41  61  87 133 169 216 263 334 408
#     4  12  24  38  65  96 129 173 216 279 342 393
#     4  11  23  40  59  90 126 170 205 267 334 390
#     4  10  20  39  63  87 119 166 214 256 314 391
#     4  10  22  40  67  96 124 169 225 274 326 397
#     4  10  21  41  70  94 124 174 225 272 325 399
#     4  12  24  42  66  98 134 173 229 280 332 399
#
# _framework density 20.857192999999999
#
# number of rings (size 3 to 8) (size 9 to 14) (size 15 to 20)
#    0.000    1.143    4.286    1.714    2.000    4.000 
#    0.000    0.000    0.000    0.857    0.000    0.000 
#    0.000    0.000    0.000    0.000    0.000    0.000 
#
# Total GULP energy -693886.868183 kJ/mol
# GULP energy per Si atom -12390.836932 kJ/mol
# Density = 2.080972 g / cm^3
# Si number density = 20.857193 Si / 1000 Ang^3
#
#
#
# Elastic Constant Matrix: (Units=GPa)
#
#
# Indices 1 2 3 4 5 6 
#
# 1 120.9905 39.4267 33.7868 0.0000 0.0000 0.0000
# 2 39.4267 97.1573 44.2981 0.0000 0.0000 0.0000
# 3 33.7868 44.2981 91.2497 0.0000 0.0000 0.0000
# 4 0.0000 0.0000 0.0000 35.5599 0.0000 0.0000
# 5 0.0000 0.0000 0.0000 0.0000 32.6301 0.0000
# 6 0.0000 0.0000 0.0000 0.0000 0.0000 27.4030
#
#
#
# Elastic Compliance Matrix: (Units=1/GPa)
#
#
# Indices 1 2 3 4 5 6 
#
# 1 0.009855 -0.002999 -0.002193 0.000000 0.000000 0.000000
# 2 -0.002999 0.014131 -0.005750 0.000000 0.000000 0.000000
# 3 -0.002193 -0.005750 0.014562 0.000000 0.000000 0.000000
# 4 0.000000 0.000000 0.000000 0.028122 0.000000 0.000000
# 5 0.000000 0.000000 0.000000 0.000000 0.030647 0.000000
# 6 0.000000 0.000000 0.000000 0.000000 0.000000 0.036492
#
#
# Mechanical properties :
#
#
# Convention : Reuss Voigt Hill
#
# Bulk Modulus (GPa) = 60.00752 60.49120 60.24936
# Shear Modulus (GPa) = 31.00832 31.91098 31.45965
#
# Velocity S-wave (km/s) = 3.85995 3.91573 3.88794
# Velocity P-wave (km/s) = 6.97845 7.03630 7.00743
#
# Compressibility (1/GPa) = 0.01666458
#
# Stress axis : x y z
#
# Youngs Moduli (GPa) = 101.47287 70.76545 68.67145
#
# Poissons Ratio (x) = 0.21225 0.15059
# Poissons Ratio (y) = 0.30435 0.39483
# Poissons Ratio (z) = 0.22252 0.40687
#
# Static dielectric constant tensor:
#      x y z
#    x 4.024760 0.000000 0.000000 
#    y 0.000000 3.817090 0.000000 
#    z 0.000000 0.000000 3.543610 
# 
# 
# High freq. dielectric constant tensor:
#      x y z
#    x 1.832640 0.000000 0.000000 
#    y 0.000000 1.808500 0.000000 
#    z 0.000000 0.000000 1.795770 
# 
# From -- ./inp_files/6773.got.cif
#   From: 2010.03.12/outbox.cif.g09.slc.cpg/sg62_4_cif.got.tgz:6773.got - 2010.04.10 19:12:36.
