data_PCOD8253055
_publ_section_title
;
Structure prediction by ZEFSAII (Michael W. Deem and Ramdas Pophale) SiO2 
 PCOD8253055
Probable space group: P N M A
;
_chemical_formula_sum "Si O2"
_cell_formula_units_Z 48
_cell_length_a 28.788622
_cell_length_b 9.316437
_cell_length_c 9.307259
_cell_angle_alpha 90.000000
_cell_angle_beta 90.000000
_cell_angle_gamma 90.000000
_cell_volume 2496.275581
_symmetry_space_group_name_H-M "P N M A"
_symmetry_group_IT_number 62
_symmetry_cell_setting 'orthorhombic'
loop_
_space_group_symop_operation_xyz
x,y,z
1/2-x,-y,1/2+z
1/2+x,1/2-y,1/2-z
-x,1/2+y,-z
-x,-y,-z
1/2+x,y,1/2-z
1/2-x,1/2+y,1/2+z
x,1/2-y,z
loop_
_atom_site_type_symbol
_atom_site_label
_atom_site_fract_x
_atom_site_fract_y
_atom_site_fract_z
Si Si1 0.022447 0.087586 0.626076
Si Si2 0.704083 0.916264 0.968477
Si Si3 0.113638 0.914904 0.699511
Si Si4 0.719758 0.579463 0.297318
Si Si5 0.134363 0.917712 0.019722
Si Si6 0.965340 0.088725 0.905485
O O1 0.034034 0.250000 0.578434
O O2 0.982126 0.087340 0.743421
O O3 0.069474 0.015967 0.681665
O O4 0.000000 0.000000 0.500000
O O5 0.717491 0.750000 0.948210
O O6 0.712146 0.966775 0.131963
O O7 0.650039 0.941147 0.928935
O O8 0.733660 0.009142 0.857211
O O9 0.096464 0.750000 0.700335
O O10 0.138509 0.953054 0.850685
O O11 0.724227 0.750000 0.311181
O O12 0.677443 0.515078 0.392839
O O13 0.135886 0.750000 0.050611
O O14 0.086050 0.980186 0.082917
O O15 0.964096 0.250000 0.968469
O O16 0.000000 0.000000 0.000000
#
# Coordination Sequence:
#
# PCOD8253055 Si02
#       6
#     8   8   8   8   8   8
#     4  11  24  38  57  85 119 156 194 238 285 338
#     4  10  22  38  60  88 116 150 191 235 288 343
#     4  10  20  37  60  83 114 153 192 235 285 345
#     4  10  21  38  61  86 115 150 189 236 285 342
#     4   9  18  34  58  84 111 148 188 230 286 341
#     4  10  20  36  59  85 114 150 192 234 279 336
#
# _framework density 19.228646999999999
#
# number of rings (size 3 to 8) (size 9 to 14) (size 15 to 20)
#    0.000    2.000    1.667    1.500    2.333    3.333 
#    0.000    1.667    0.000    0.000    0.000    0.000 
#    0.000    0.000    0.000    0.000    0.000    0.000 
#
# Total GULP energy -595214.903820 kJ/mol
# GULP energy per Si atom -12400.310496 kJ/mol
# Density = 1.918488 g / cm^3
# Si number density = 19.228647 Si / 1000 Ang^3
#
#
#
# Elastic Constant Matrix: (Units=GPa)
#
#
# Indices 1 2 3 4 5 6 
#
# 1 84.5204 30.2091 31.2575 0.0000 0.0000 0.0000
# 2 30.2091 64.8952 37.6758 0.0000 0.0000 0.0000
# 3 31.2575 37.6758 106.7105 0.0000 0.0000 0.0000
# 4 0.0000 0.0000 0.0000 27.7123 0.0000 0.0000
# 5 0.0000 0.0000 0.0000 0.0000 41.3437 0.0000
# 6 0.0000 0.0000 0.0000 0.0000 0.0000 32.5502
#
#
#
# Elastic Compliance Matrix: (Units=1/GPa)
#
#
# Indices 1 2 3 4 5 6 
#
# 1 0.014654 -0.005446 -0.002370 0.000000 0.000000 0.000000
# 2 -0.005446 0.021406 -0.005963 0.000000 0.000000 0.000000
# 3 -0.002370 -0.005963 0.012170 0.000000 0.000000 0.000000
# 4 0.000000 0.000000 0.000000 0.036085 0.000000 0.000000
# 5 0.000000 0.000000 0.000000 0.000000 0.024187 0.000000
# 6 0.000000 0.000000 0.000000 0.000000 0.000000 0.030722
#
#
# Mechanical properties :
#
#
# Convention : Reuss Voigt Hill
#
# Bulk Modulus (GPa) = 48.36869 50.49010 49.42939
# Shear Modulus (GPa) = 28.78968 30.78682 29.78825
#
# Velocity S-wave (km/s) = 3.87360 4.00570 3.94021
# Velocity P-wave (km/s) = 6.72425 6.90717 6.81632
#
# Compressibility (1/GPa) = 0.02067453
#
# Stress axis : x y z
#
# Youngs Moduli (GPa) = 68.23929 46.71537 82.16597
#
# Poissons Ratio (x) = 0.25441 0.19471
# Poissons Ratio (y) = 0.37162 0.48992
# Poissons Ratio (z) = 0.16171 0.27854
#
# Static dielectric constant tensor:
#      x y z
#    x 3.366290 0.000000 0.000000 
#    y 0.000000 3.407640 0.000000 
#    z 0.000000 0.000000 3.690380 
# 
# 
# High freq. dielectric constant tensor:
#      x y z
#    x 1.758480 0.000000 0.000000 
#    y 0.000000 1.725270 0.000000 
#    z 0.000000 0.000000 1.758260 
# 
# From -- ./inp_files/10131.got.cif
#   From: 2010.03.12/outbox.cif.g09.slc.cpg/sg62_6_cif.got.tgz:10131.got - 2010.04.10 19:12:36.
