data_PCOD8253041
_publ_section_title
;
Structure prediction by ZEFSAII (Michael W. Deem and Ramdas Pophale) SiO2 
 PCOD8253041
Probable space group: P N M A
;
_chemical_formula_sum "Si O2"
_cell_formula_units_Z 48
_cell_length_a 9.199067
_cell_length_b 15.486943
_cell_length_c 17.886568
_cell_angle_alpha 90.000000
_cell_angle_beta 90.000000
_cell_angle_gamma 90.000000
_cell_volume 2548.217535
_symmetry_space_group_name_H-M "P N M A"
_symmetry_group_IT_number 62
_symmetry_cell_setting 'orthorhombic'
loop_
_space_group_symop_operation_xyz
x,y,z
1/2-x,-y,1/2+z
1/2+x,1/2-y,1/2-z
-x,1/2+y,-z
-x,-y,-z
1/2+x,y,1/2-z
1/2-x,1/2+y,1/2+z
x,1/2-y,z
loop_
_atom_site_type_symbol
_atom_site_label
_atom_site_fract_x
_atom_site_fract_y
_atom_site_fract_z
Si Si1 0.391101 0.250000 0.791578
Si Si2 0.293189 0.750000 0.154358
Si Si3 0.844044 0.069795 0.643111
Si Si4 0.787505 0.552072 0.775906
Si Si5 0.660156 0.066790 0.905557
Si Si6 0.566220 0.647411 0.671567
Si Si7 0.144690 0.528647 0.958188
O O1 0.349834 0.250000 0.704966
O O2 0.565198 0.250000 0.792560
O O3 0.323078 0.332071 0.832708
O O4 0.290716 0.665568 0.103616
O O5 0.985997 0.059134 0.591250
O O6 0.864717 0.009576 0.715620
O O7 0.697100 0.045827 0.598836
O O8 0.717740 0.492325 0.838910
O O9 0.668081 0.612704 0.737680
O O10 0.903914 0.614235 0.814465
O O11 0.723810 0.039495 0.984637
O O12 0.569812 0.750000 0.671569
O O13 0.618411 0.615174 0.589924
O O14 0.000000 0.500000 0.000000
#
# Coordination Sequence:
#
# PCOD8253041 Si02
#       7
#     4   4   8   8   8   8   8
#     4  10  20  36  58  96 118 153 194 247 289 351
#     4  10  22  32  62  88 124 149 196 243 293 351
#     4  10  22  39  61  88 121 159 198 241 294 361
#     4  11  20  38  67  85 116 158 200 250 297 350
#     4  11  21  39  59  89 123 159 193 241 306 356
#     4  11  24  41  61  89 118 154 207 253 297 354
#     4  11  24  40  62  86 119 162 197 243 305 357
#
# _framework density 18.836697000000001
#
# number of rings (size 3 to 8) (size 9 to 14) (size 15 to 20)
#    0.000    1.333    5.000    1.000    1.167    1.333 
#    1.500    0.000    0.000    0.000    0.000    0.000 
#    0.000    0.000    0.000    0.000    0.000    0.000 
#
# Total GULP energy -595314.584835 kJ/mol
# GULP energy per Si atom -12402.387184 kJ/mol
# Density = 1.879382 g / cm^3
# Si number density = 18.836697 Si / 1000 Ang^3
#
#
#
# Elastic Constant Matrix: (Units=GPa)
#
#
# Indices 1 2 3 4 5 6 
#
# 1 61.4675 27.0503 19.4165 0.0000 0.0000 0.0000
# 2 27.0503 135.7950 31.8131 0.0000 0.0000 0.0000
# 3 19.4165 31.8131 81.7670 0.0000 0.0000 0.0000
# 4 0.0000 0.0000 0.0000 17.6967 0.0000 0.0000
# 5 0.0000 0.0000 0.0000 0.0000 40.3291 0.0000
# 6 0.0000 0.0000 0.0000 0.0000 0.0000 20.3878
#
#
#
# Elastic Compliance Matrix: (Units=1/GPa)
#
#
# Indices 1 2 3 4 5 6 
#
# 1 0.018595 -0.002937 -0.003273 0.000000 0.000000 0.000000
# 2 -0.002937 0.008567 -0.002635 0.000000 0.000000 0.000000
# 3 -0.003273 -0.002635 0.014032 0.000000 0.000000 0.000000
# 4 0.000000 0.000000 0.000000 0.056508 0.000000 0.000000
# 5 0.000000 0.000000 0.000000 0.000000 0.024796 0.000000
# 6 0.000000 0.000000 0.000000 0.000000 0.000000 0.049049
#
#
# Mechanical properties :
#
#
# Convention : Reuss Voigt Hill
#
# Bulk Modulus (GPa) = 42.54800 48.39880 45.47340
# Shear Modulus (GPa) = 25.37134 29.06602 27.21868
#
# Velocity S-wave (km/s) = 3.67401 3.93243 3.80542
# Velocity P-wave (km/s) = 6.37453 6.80943 6.59557
#
# Compressibility (1/GPa) = 0.02350287
#
# Stress axis : x y z
#
# Youngs Moduli (GPa) = 53.77716 116.73247 71.26356
#
# Poissons Ratio (x) = 0.34289 0.23323
# Poissons Ratio (y) = 0.15797 0.18781
# Poissons Ratio (z) = 0.17600 0.30765
#
# Static dielectric constant tensor:
#      x y z
#    x 3.492000 0.000000 0.000000 
#    y 0.000000 3.465150 0.000000 
#    z 0.000000 0.000000 3.436990 
# 
# 
# High freq. dielectric constant tensor:
#      x y z
#    x 1.741670 0.000000 0.000000 
#    y 0.000000 1.735280 0.000000 
#    z 0.000000 0.000000 1.731380 
# 
# From -- ./inp_files/17004.got.cif
#   From: 2010.03.12/outbox.cif.g09.slc.cpg/sg62_9_cif.got.tgz:17004.got - 2010.04.10 19:12:36.
