data_PCOD8253923
_publ_section_title
;
Structure prediction by ZEFSAII (Michael W. Deem and Ramdas Pophale) SiO2 
 PCOD8253923
Probable space group: P N M A
;
_chemical_formula_sum "Si O2"
_cell_formula_units_Z 48
_cell_length_a 11.825722
_cell_length_b 13.612812
_cell_length_c 15.603461
_cell_angle_alpha 90.000000
_cell_angle_beta 90.000000
_cell_angle_gamma 90.000000
_cell_volume 2511.865910
_symmetry_space_group_name_H-M "P N M A"
_symmetry_group_IT_number 62
_symmetry_cell_setting 'orthorhombic'
loop_
_space_group_symop_operation_xyz
x,y,z
1/2-x,-y,1/2+z
1/2+x,1/2-y,1/2-z
-x,1/2+y,-z
-x,-y,-z
1/2+x,y,1/2-z
1/2-x,1/2+y,1/2+z
x,1/2-y,z
loop_
_atom_site_type_symbol
_atom_site_label
_atom_site_fract_x
_atom_site_fract_y
_atom_site_fract_z
Si Si1 0.424828 0.138436 0.507904
Si Si2 0.178738 0.363695 0.443487
Si Si3 0.591527 0.044946 0.382696
Si Si4 0.984456 0.137080 0.569381
Si Si5 0.965528 0.539394 0.686314
Si Si6 0.167898 0.864016 0.590633
O O1 0.427530 0.250000 0.542269
O O2 0.307671 0.112965 0.462037
O O3 0.524418 0.123835 0.439666
O O4 0.437562 0.065613 0.587704
O O5 0.153283 0.250000 0.429572
O O6 0.097163 0.400727 0.520283
O O7 0.148482 0.418311 0.355827
O O8 0.547416 0.049690 0.286825
O O9 0.723313 0.068806 0.392684
O O10 0.995106 0.250000 0.597897
O O11 0.876753 0.121233 0.506740
O O12 0.975395 0.073824 0.655923
O O13 0.072551 0.603830 0.657943
O O14 0.197173 0.750000 0.607166
#
# Coordination Sequence:
#
# PCOD8253923 Si02
#       6
#     8   8   8   8   8   8
#     4  10  22  41  59  77 111 155 189 219 274 341
#     4   9  18  35  60  83 107 143 183 225 276 331
#     4  11  24  37  56  84 114 149 185 230 277 327
#     4   9  18  35  60  84 108 144 184 228 276 325
#     4  11  21  34  57  87 114 139 183 235 279 322
#     4  10  21  38  58  82 115 148 183 226 277 331
#
# _framework density 19.109300000000001
#
# number of rings (size 3 to 8) (size 9 to 14) (size 15 to 20)
#    0.000    2.000    0.000    6.000    2.333    3.333 
#    0.000    0.000    0.000    0.000    0.000    0.000 
#    0.000    0.000    0.000    0.000    0.000    0.000 
#
# Total GULP energy -595301.728169 kJ/mol
# GULP energy per Si atom -12402.119337 kJ/mol
# Density = 1.906581 g / cm^3
# Si number density = 19.109300 Si / 1000 Ang^3
#
#
#
# Elastic Constant Matrix: (Units=GPa)
#
#
# Indices 1 2 3 4 5 6 
#
# 1 75.9744 10.0036 4.1833 0.0000 0.0000 0.0000
# 2 10.0036 71.2772 28.1547 0.0000 0.0000 0.0000
# 3 4.1833 28.1547 39.4009 0.0000 0.0000 0.0000
# 4 0.0000 0.0000 0.0000 13.8595 0.0000 0.0000
# 5 0.0000 0.0000 0.0000 0.0000 13.0006 0.0000
# 6 0.0000 0.0000 0.0000 0.0000 0.0000 28.8919
#
#
#
# Elastic Compliance Matrix: (Units=1/GPa)
#
#
# Indices 1 2 3 4 5 6 
#
# 1 0.013410 -0.001839 -0.000110 0.000000 0.000000 0.000000
# 2 -0.001839 0.019799 -0.013953 0.000000 0.000000 0.000000
# 3 -0.000110 -0.013953 0.035362 0.000000 0.000000 0.000000
# 4 0.000000 0.000000 0.000000 0.072153 0.000000 0.000000
# 5 0.000000 0.000000 0.000000 0.000000 0.076919 0.000000
# 6 0.000000 0.000000 0.000000 0.000000 0.000000 0.034612
#
#
# Mechanical properties :
#
#
# Convention : Reuss Voigt Hill
#
# Bulk Modulus (GPa) = 27.19684 30.14841 28.67262
# Shear Modulus (GPa) = 16.87397 20.77112 18.82255
#
# Velocity S-wave (km/s) = 2.97480 3.30049 3.14187
# Velocity P-wave (km/s) = 5.10513 5.50776 5.31026
#
# Compressibility (1/GPa) = 0.03676898
#
# Stress axis : x y z
#
# Youngs Moduli (GPa) = 74.56853 50.50725 28.27895
#
# Poissons Ratio (x) = 0.09287 0.00311
# Poissons Ratio (y) = 0.13711 0.39457
# Poissons Ratio (z) = 0.00820 0.70471
#
# Static dielectric constant tensor:
#      x y z
#    x 3.548210 0.000000 0.000000 
#    y 0.000000 3.650340 0.000000 
#    z 0.000000 0.000000 3.165600 
# 
# 
# High freq. dielectric constant tensor:
#      x y z
#    x 1.748700 0.000000 0.000000 
#    y 0.000000 1.760620 0.000000 
#    z 0.000000 0.000000 1.714140 
# 
# From -- ./inp_files/18004.got.cif
#   From: 2010.03.12/outbox.cif.g09.slc.cpg/sg62_10_cif.got.tgz:18004.got - 2010.04.10 19:12:36.
