data_PCOD8253363
_publ_section_title
;
Structure prediction by ZEFSAII (Michael W. Deem and Ramdas Pophale) SiO2 
 PCOD8253363
Probable space group: P N M A
;
_chemical_formula_sum "Si O2"
_cell_formula_units_Z 48
_cell_length_a 10.013873
_cell_length_b 9.138199
_cell_length_c 27.891592
_cell_angle_alpha 90.000000
_cell_angle_beta 90.000000
_cell_angle_gamma 90.000000
_cell_volume 2552.325116
_symmetry_space_group_name_H-M "P N M A"
_symmetry_group_IT_number 62
_symmetry_cell_setting 'orthorhombic'
loop_
_space_group_symop_operation_xyz
x,y,z
1/2-x,-y,1/2+z
1/2+x,1/2-y,1/2-z
-x,1/2+y,-z
-x,-y,-z
1/2+x,y,1/2-z
1/2-x,1/2+y,1/2+z
x,1/2-y,z
loop_
_atom_site_type_symbol
_atom_site_label
_atom_site_fract_x
_atom_site_fract_y
_atom_site_fract_z
Si Si1 0.849087 0.420638 0.545850
Si Si2 0.653652 0.077960 0.952631
Si Si3 0.973381 0.582963 0.291934
Si Si4 0.977729 0.076790 0.194316
Si Si5 0.718371 0.578069 0.353779
Si Si6 0.263459 0.082932 0.850744
O O1 0.845430 0.250000 0.534626
O O2 0.785427 0.503895 0.500377
O O3 0.762975 0.457875 0.593018
O O4 0.000975 0.473208 0.554458
O O5 0.663350 0.250000 0.958981
O O6 0.737116 0.026788 0.906541
O O7 0.969110 0.750000 0.273183
O O8 0.005416 0.477521 0.247935
O O9 0.832918 0.539278 0.315486
O O10 0.086569 0.563677 0.331812
O O11 0.985688 0.250000 0.193263
O O12 0.832097 0.025748 0.177643
O O13 0.086579 0.011453 0.158417
O O14 0.686824 0.750000 0.352627
O O15 0.215278 0.250000 0.842966
#
# Coordination Sequence:
#
# PCOD8253363 Si02
#       6
#     8   8   8   8   8   8
#     4   9  17  32  56  86 113 138 176 225 274 325
#     4   9  17  32  56  86 113 138 176 225 274 325
#     4  10  20  38  63  84 104 142 194 234 268 322
#     4  12  26  38  51  80 119 150 182 228 283 332
#     4  10  20  38  61  83 109 146 190 228 267 326
#     4  10  20  38  61  83 109 146 190 228 267 326
#
# _framework density 18.806380000000001
#
# number of rings (size 3 to 8) (size 9 to 14) (size 15 to 20)
#    0.000    2.000    1.667    2.500    0.000    6.667 
#    0.000    0.833    0.000    0.000    0.000    0.000 
#    0.000    0.000    0.000    0.000    0.000    0.000 
#
# Total GULP energy -595342.679444 kJ/mol
# GULP energy per Si atom -12402.972488 kJ/mol
# Density = 1.876358 g / cm^3
# Si number density = 18.806380 Si / 1000 Ang^3
#
#
#
# Elastic Constant Matrix: (Units=GPa)
#
#
# Indices 1 2 3 4 5 6 
#
# 1 53.0614 20.3221 11.5773 0.0000 0.0000 0.0000
# 2 20.3221 64.5727 40.3545 0.0000 0.0000 0.0000
# 3 11.5773 40.3545 115.4822 0.0000 0.0000 0.0000
# 4 0.0000 0.0000 0.0000 34.2243 0.0000 0.0000
# 5 0.0000 0.0000 0.0000 0.0000 17.8283 0.0000
# 6 0.0000 0.0000 0.0000 0.0000 0.0000 21.9638
#
#
#
# Elastic Compliance Matrix: (Units=1/GPa)
#
#
# Indices 1 2 3 4 5 6 
#
# 1 0.021435 -0.006913 0.000267 0.000000 0.000000 0.000000
# 2 -0.006913 0.022043 -0.007010 0.000000 0.000000 0.000000
# 3 0.000267 -0.007010 0.011082 0.000000 0.000000 0.000000
# 4 0.000000 0.000000 0.000000 0.029219 0.000000 0.000000
# 5 0.000000 0.000000 0.000000 0.000000 0.056091 0.000000
# 6 0.000000 0.000000 0.000000 0.000000 0.000000 0.045530
#
#
# Mechanical properties :
#
#
# Convention : Reuss Voigt Hill
#
# Bulk Modulus (GPa) = 36.69899 41.95825 39.32862
# Shear Modulus (GPa) = 22.54346 25.52743 24.03544
#
# Velocity S-wave (km/s) = 3.46600 3.68826 3.57886
# Velocity P-wave (km/s) = 5.96440 6.36371 6.16729
#
# Compressibility (1/GPa) = 0.02724871
#
# Stress axis : x y z
#
# Youngs Moduli (GPa) = 46.65173 45.36657 90.23577
#
# Poissons Ratio (x) = 0.31361 -0.02406
# Poissons Ratio (y) = 0.32249 0.63252
# Poissons Ratio (z) = -0.01244 0.31800
#
# Static dielectric constant tensor:
#      x y z
#    x 3.286780 0.000000 0.000000 
#    y 0.000000 3.339850 0.000000 
#    z 0.000000 0.000000 3.616530 
# 
# 
# High freq. dielectric constant tensor:
#      x y z
#    x 1.715950 0.000000 0.000000 
#    y 0.000000 1.714340 0.000000 
#    z 0.000000 0.000000 1.744990 
# 
# From -- ./inp_files/31921.got.cif
#   From: 2010.03.12/outbox.cif.g09.slc.cpg/sg62_16_cif.got.tgz:31921.got - 2010.04.10 19:12:36.
