data_PCOD8253156
_publ_section_title
;
Structure prediction by ZEFSAII (Michael W. Deem and Ramdas Pophale) SiO2 
 PCOD8253156
Probable space group: P N M A
;
_chemical_formula_sum "Si O2"
_cell_formula_units_Z 64
_cell_length_a 28.568527
_cell_length_b 8.937446
_cell_length_c 13.009653
_cell_angle_alpha 90.000000
_cell_angle_beta 90.000000
_cell_angle_gamma 90.000000
_cell_volume 3321.750373
_symmetry_space_group_name_H-M "P N M A"
_symmetry_group_IT_number 62
_symmetry_cell_setting 'orthorhombic'
loop_
_space_group_symop_operation_xyz
x,y,z
1/2-x,-y,1/2+z
1/2+x,1/2-y,1/2-z
-x,1/2+y,-z
-x,-y,-z
1/2+x,y,1/2-z
1/2-x,1/2+y,1/2+z
x,1/2-y,z
loop_
_atom_site_type_symbol
_atom_site_label
_atom_site_fract_x
_atom_site_fract_y
_atom_site_fract_z
Si Si1 0.756020 0.426901 0.185347
Si Si2 0.179172 0.922138 0.999771
Si Si3 0.106414 0.920034 0.842983
Si Si4 0.329832 0.921977 0.190250
Si Si5 0.023380 0.578503 0.712899
Si Si6 0.910388 0.575764 0.449818
Si Si7 0.830547 0.071800 0.773040
Si Si8 0.420026 0.573069 0.815870
O O1 0.750167 0.250000 0.183835
O O2 0.784471 0.475793 0.288311
O O3 0.705129 0.502576 0.189770
O O4 0.783538 0.487484 0.083588
O O5 0.191836 0.750000 0.011029
O O6 0.182969 0.992494 0.113224
O O7 0.125207 0.943485 0.959244
O O8 0.121015 0.750000 0.808068
O O9 0.050782 0.941464 0.822770
O O10 0.131603 0.046085 0.776546
O O11 0.313537 0.750000 0.194198
O O12 0.356389 0.960383 0.083333
O O13 0.019478 0.750000 0.680503
O O14 0.051173 0.504104 0.619872
O O15 0.970734 0.517575 0.725032
O O16 0.920296 0.750000 0.436902
O O17 0.915942 0.522599 0.566063
O O18 0.828867 0.250000 0.768244
O O19 0.882497 0.016738 0.749912
O O20 0.411794 0.750000 0.802254
#
# Coordination Sequence:
#
# PCOD8253156 Si02
#       8
#     8   8   8   8   8   8   8   8
#     4  10  20  37  58  77  99 132 167 206 256 309
#     4   8  17  35  57  75  98 131 164 199 252 308
#     4   8  14  29  52  76  99 130 168 207 251 298
#     4   9  16  28  48  77 105 130 164 207 246 294
#     4   9  17  30  53  79 103 133 176 219 251 293
#     4   9  18  31  50  75 108 143 171 204 257 311
#     4  11  23  38  54  75 101 133 171 211 249 299
#     4  10  21  36  49  70 106 144 174 209 258 306
#
# _framework density 19.266950999999999
#
# number of rings (size 3 to 8) (size 9 to 14) (size 15 to 20)
#    0.000    2.750    0.000    2.250    0.000    2.500 
#    0.000   11.875    0.000    0.000    0.000    0.000 
#    0.000    0.000    0.000    0.000    0.000    0.000 
#
# Total GULP energy -792942.897438 kJ/mol
# GULP energy per Si atom -12389.732772 kJ/mol
# Density = 1.922310 g / cm^3
# Si number density = 19.266951 Si / 1000 Ang^3
#
#
#
# Elastic Constant Matrix: (Units=GPa)
#
#
# Indices 1 2 3 4 5 6 
#
# 1 112.9424 29.5201 54.4026 0.0000 0.0000 0.0000
# 2 29.5201 47.5704 26.6179 0.0000 0.0000 0.0000
# 3 54.4026 26.6179 88.3340 0.0000 0.0000 0.0000
# 4 0.0000 0.0000 0.0000 19.1608 0.0000 0.0000
# 5 0.0000 0.0000 0.0000 0.0000 25.8850 0.0000
# 6 0.0000 0.0000 0.0000 0.0000 0.0000 30.6548
#
#
#
# Elastic Compliance Matrix: (Units=1/GPa)
#
#
# Indices 1 2 3 4 5 6 
#
# 1 0.013319 -0.004421 -0.006871 0.000000 0.000000 0.000000
# 2 -0.004421 0.026752 -0.005339 0.000000 0.000000 0.000000
# 3 -0.006871 -0.005339 0.017161 0.000000 0.000000 0.000000
# 4 0.000000 0.000000 0.000000 0.052190 0.000000 0.000000
# 5 0.000000 0.000000 0.000000 0.000000 0.038632 0.000000
# 6 0.000000 0.000000 0.000000 0.000000 0.000000 0.032621
#
#
# Mechanical properties :
#
#
# Convention : Reuss Voigt Hill
#
# Bulk Modulus (GPa) = 41.71582 52.21422 46.96502
# Shear Modulus (GPa) = 22.52999 24.36053 23.44526
#
# Velocity S-wave (km/s) = 3.42330 3.55965 3.49214
# Velocity P-wave (km/s) = 6.10932 6.63733 6.37879
#
# Compressibility (1/GPa) = 0.02397172
#
# Stress axis : x y z
#
# Youngs Moduli (GPa) = 75.08038 37.38038 58.27203
#
# Poissons Ratio (x) = 0.16525 0.40037
# Poissons Ratio (y) = 0.33191 0.31109
# Poissons Ratio (z) = 0.51586 0.19956
#
# Static dielectric constant tensor:
#      x y z
#    x 3.734260 0.000000 0.000000 
#    y 0.000000 3.341340 0.000000 
#    z 0.000000 0.000000 3.581150 
# 
# 
# High freq. dielectric constant tensor:
#      x y z
#    x 1.753090 0.000000 0.000000 
#    y 0.000000 1.733950 0.000000 
#    z 0.000000 0.000000 1.728610 
# 
# From -- ./inp_files/15883.got.cif
#   From: 2010.03.12/outbox.cif.g09.slc.cpg/sg62_8_cif.got.tgz:15883.got - 2010.04.10 19:12:36.
