data_PCOD8253688
_publ_section_title
;
Structure prediction by ZEFSAII (Michael W. Deem and Ramdas Pophale) SiO2 
 PCOD8253688
Probable space group: P N M A
;
_chemical_formula_sum "Si O2"
_cell_formula_units_Z 56
_cell_length_a 16.221480
_cell_length_b 8.903843
_cell_length_c 19.954970
_cell_angle_alpha 90.000000
_cell_angle_beta 90.000000
_cell_angle_gamma 90.000000
_cell_volume 2882.166382
_symmetry_space_group_name_H-M "P N M A"
_symmetry_group_IT_number 62
_symmetry_cell_setting 'orthorhombic'
loop_
_space_group_symop_operation_xyz
x,y,z
1/2-x,-y,1/2+z
1/2+x,1/2-y,1/2-z
-x,1/2+y,-z
-x,-y,-z
1/2+x,y,1/2-z
1/2-x,1/2+y,1/2+z
x,1/2-y,z
loop_
_atom_site_type_symbol
_atom_site_label
_atom_site_fract_x
_atom_site_fract_y
_atom_site_fract_z
Si Si1 0.746021 0.428415 0.530519
Si Si2 0.000700 0.924119 0.816055
Si Si3 0.183415 0.073390 0.596113
Si Si4 0.427833 0.425054 0.458220
Si Si5 0.526439 0.072926 0.820175
Si Si6 0.330094 0.426009 0.693666
Si Si7 0.655785 0.926528 0.157031
O O1 0.736000 0.250000 0.531556
O O2 0.806278 0.477502 0.470812
O O3 0.657709 0.502581 0.519102
O O4 0.786746 0.494349 0.598769
O O5 0.989253 0.750000 0.801094
O O6 0.059305 0.953804 0.879428
O O7 0.911130 0.991177 0.832715
O O8 0.043713 0.000221 0.752158
O O9 0.186938 0.250000 0.579915
O O10 0.096221 0.025096 0.627470
O O11 0.253684 0.026085 0.648528
O O12 0.500000 0.500000 0.500000
O O13 0.425775 0.250000 0.475930
O O14 0.526612 0.250000 0.807960
O O15 0.438681 0.015913 0.849022
O O16 0.348728 0.250000 0.690055
O O17 0.309176 0.473264 0.770217
O O18 0.656111 0.750000 0.147345
#
# Coordination Sequence:
#
# PCOD8253688 Si02
#       7
#     8   8   8   8   8   8   8
#     4  11  23  37  57  83 116 155 192 236 288 342
#     4  10  21  36  55  83 114 143 182 236 291 340
#     4  10  21  36  58  85 113 148 193 238 285 339
#     4  11  24  40  58  83 117 152 192 236 288 351
#     4   9  19  37  61  84 109 148 195 237 278 339
#     4   9  18  35  58  81 109 146 188 233 277 338
#     4   8  17  35  56  81 111 145 191 235 279 336
#
# _framework density 19.429829999999999
#
# number of rings (size 3 to 8) (size 9 to 14) (size 15 to 20)
#    0.000    2.286    0.000    3.000    2.000    6.286 
#    0.000    5.714    0.000    0.000    0.000    0.000 
#    0.000    0.000    0.000    0.000    0.000    0.000 
#
# Total GULP energy -694495.434283 kJ/mol
# GULP energy per Si atom -12401.704184 kJ/mol
# Density = 1.938561 g / cm^3
# Si number density = 19.429830 Si / 1000 Ang^3
#
#
#
# Elastic Constant Matrix: (Units=GPa)
#
#
# Indices 1 2 3 4 5 6 
#
# 1 64.4090 22.3330 29.4367 0.0000 0.0000 0.0000
# 2 22.3330 61.7803 32.6986 0.0000 0.0000 0.0000
# 3 29.4367 32.6986 91.2277 0.0000 0.0000 0.0000
# 4 0.0000 0.0000 0.0000 32.3734 0.0000 0.0000
# 5 0.0000 0.0000 0.0000 0.0000 37.9271 0.0000
# 6 0.0000 0.0000 0.0000 0.0000 0.0000 23.2136
#
#
#
# Elastic Compliance Matrix: (Units=1/GPa)
#
#
# Indices 1 2 3 4 5 6 
#
# 1 0.019180 -0.004514 -0.004571 0.000000 0.000000 0.000000
# 2 -0.004514 0.021038 -0.006084 0.000000 0.000000 0.000000
# 3 -0.004571 -0.006084 0.014617 0.000000 0.000000 0.000000
# 4 0.000000 0.000000 0.000000 0.030890 0.000000 0.000000
# 5 0.000000 0.000000 0.000000 0.000000 0.026366 0.000000
# 6 0.000000 0.000000 0.000000 0.000000 0.000000 0.043078
#
#
# Mechanical properties :
#
#
# Convention : Reuss Voigt Hill
#
# Bulk Modulus (GPa) = 40.82092 42.92819 41.87456
# Shear Modulus (GPa) = 25.81660 27.56607 26.69133
#
# Velocity S-wave (km/s) = 3.64910 3.77072 3.71041
# Velocity P-wave (km/s) = 6.22974 6.41090 6.32097
#
# Compressibility (1/GPa) = 0.02449724
#
# Stress axis : x y z
#
# Youngs Moduli (GPa) = 52.13752 47.53213 68.41253
#
# Poissons Ratio (x) = 0.21457 0.31270
# Poissons Ratio (y) = 0.23536 0.41623
# Poissons Ratio (z) = 0.23831 0.28919
#
# Static dielectric constant tensor:
#      x y z
#    x 3.678360 0.000000 0.000000 
#    y 0.000000 3.369380 0.000000 
#    z 0.000000 0.000000 3.748510 
# 
# 
# High freq. dielectric constant tensor:
#      x y z
#    x 1.759760 0.000000 0.000000 
#    y 0.000000 1.740470 0.000000 
#    z 0.000000 0.000000 1.765910 
# 
# From -- ./inp_files/27183.got.cif
#   From: 2010.03.12/outbox.cif.g09.slc.cpg/sg62_14_cif.got.tgz:27183.got - 2010.04.10 19:12:36.
