data_PCOD8253870
_publ_section_title
;
Structure prediction by ZEFSAII (Michael W. Deem and Ramdas Pophale) SiO2 
 PCOD8253870
Probable space group: P N M A
;
_chemical_formula_sum "Si O2"
_cell_formula_units_Z 48
_cell_length_a 29.066164
_cell_length_b 8.711911
_cell_length_c 9.558432
_cell_angle_alpha 90.000000
_cell_angle_beta 90.000000
_cell_angle_gamma 90.000000
_cell_volume 2420.403680
_symmetry_space_group_name_H-M "P N M A"
_symmetry_group_IT_number 62
_symmetry_cell_setting 'orthorhombic'
loop_
_space_group_symop_operation_xyz
x,y,z
1/2-x,-y,1/2+z
1/2+x,1/2-y,1/2-z
-x,1/2+y,-z
-x,-y,-z
1/2+x,y,1/2-z
1/2-x,1/2+y,1/2+z
x,1/2-y,z
loop_
_atom_site_type_symbol
_atom_site_label
_atom_site_fract_x
_atom_site_fract_y
_atom_site_fract_z
Si Si1 0.982993 0.567774 0.358251
Si Si2 0.618969 0.431253 0.795538
Si Si3 0.795981 0.568770 0.475848
Si Si4 0.134093 0.068018 0.012239
Si Si5 0.784190 0.932476 0.795007
Si Si6 0.534479 0.067942 0.389682
O O1 0.982499 0.750000 0.359507
O O2 0.932058 0.502179 0.322931
O O3 0.000000 0.500000 0.500000
O O4 0.021729 0.505332 0.256183
O O5 0.614689 0.250000 0.782074
O O6 0.652683 0.475752 0.923548
O O7 0.638531 0.495167 0.647139
O O8 0.787943 0.750000 0.468476
O O9 0.762381 0.489667 0.365173
O O10 0.788635 0.507222 0.634402
O O11 0.137814 0.250000 0.012739
O O12 0.174129 0.999854 0.111110
O O13 0.085729 0.013785 0.074494
O O14 0.785154 0.750000 0.793537
O O15 0.530395 0.250000 0.386630
O O16 0.500000 0.000000 0.500000
#
# Coordination Sequence:
#
# PCOD8253870 Si02
#       6
#     8   8   8   8   8   8
#     4  11  23  39  59  86 119 157 200 243 292 346
#     4   9  18  35  58  82 111 151 193 232 280 347
#     4  10  21  37  60  86 113 147 190 235 284 341
#     4   9  18  34  58  84 111 150 193 230 280 347
#     4  10  21  37  60  87 113 146 190 235 283 343
#     4  11  21  37  61  88 119 157 198 241 287 343
#
# _framework density 19.831402000000001
#
# number of rings (size 3 to 8) (size 9 to 14) (size 15 to 20)
#    0.000    2.000    1.667    2.000    2.333    2.000 
#    0.000    3.333    0.000    0.000    0.000    0.000 
#    0.000    0.000    0.000    0.000    0.000    0.000 
#
# Total GULP energy -595072.767052 kJ/mol
# GULP energy per Si atom -12397.349314 kJ/mol
# Density = 1.978627 g / cm^3
# Si number density = 19.831402 Si / 1000 Ang^3
#
#
#
# Elastic Constant Matrix: (Units=GPa)
#
#
# Indices 1 2 3 4 5 6 
#
# 1 101.9813 14.6809 51.5745 0.0000 0.0000 0.0000
# 2 14.6809 30.8018 16.8072 0.0000 0.0000 0.0000
# 3 51.5745 16.8072 169.9250 0.0000 0.0000 0.0000
# 4 0.0000 0.0000 0.0000 31.0623 0.0000 0.0000
# 5 0.0000 0.0000 0.0000 0.0000 43.1775 0.0000
# 6 0.0000 0.0000 0.0000 0.0000 0.0000 28.8902
#
#
#
# Elastic Compliance Matrix: (Units=1/GPa)
#
#
# Indices 1 2 3 4 5 6 
#
# 1 0.012022 -0.003952 -0.003258 0.000000 0.000000 0.000000
# 2 -0.003952 0.035617 -0.002323 0.000000 0.000000 0.000000
# 3 -0.003258 -0.002323 0.007104 0.000000 0.000000 0.000000
# 4 0.000000 0.000000 0.000000 0.032193 0.000000 0.000000
# 5 0.000000 0.000000 0.000000 0.000000 0.023160 0.000000
# 6 0.000000 0.000000 0.000000 0.000000 0.000000 0.034614
#
#
# Mechanical properties :
#
#
# Convention : Reuss Voigt Hill
#
# Bulk Modulus (GPa) = 28.03024 52.09257 40.06140
# Shear Modulus (GPa) = 28.46249 35.26903 31.86576
#
# Velocity S-wave (km/s) = 3.79254 4.22173 4.01288
# Velocity P-wave (km/s) = 5.77432 7.07734 6.45878
#
# Compressibility (1/GPa) = 0.03567576
#
# Stress axis : x y z
#
# Youngs Moduli (GPa) = 83.17836 28.07636 140.77377
#
# Poissons Ratio (x) = 0.11097 0.45864
# Poissons Ratio (y) = 0.32875 0.32705
# Poissons Ratio (z) = 0.27100 0.06523
#
# Static dielectric constant tensor:
#      x y z
#    x 3.736460 0.000000 0.000000 
#    y 0.000000 3.224610 0.000000 
#    z 0.000000 0.000000 4.338480 
# 
# 
# High freq. dielectric constant tensor:
#      x y z
#    x 1.786410 0.000000 0.000000 
#    y 0.000000 1.734510 0.000000 
#    z 0.000000 0.000000 1.793510 
# 
# From -- ./inp_files/10223.got.cif
#   From: 2010.03.12/outbox.cif.g09.slc.cpg/sg62_6_cif.got.tgz:10223.got - 2010.04.10 19:12:36.
