data_PCOD8253050
_publ_section_title
;
Structure prediction by ZEFSAII (Michael W. Deem and Ramdas Pophale) SiO2 
 PCOD8253050
Probable space group: P N M A
;
_chemical_formula_sum "Si O2"
_cell_formula_units_Z 56
_cell_length_a 21.298896
_cell_length_b 8.689328
_cell_length_c 15.020045
_cell_angle_alpha 90.000000
_cell_angle_beta 90.000000
_cell_angle_gamma 90.000000
_cell_volume 2779.806191
_symmetry_space_group_name_H-M "P N M A"
_symmetry_group_IT_number 62
_symmetry_cell_setting 'orthorhombic'
loop_
_space_group_symop_operation_xyz
x,y,z
1/2-x,-y,1/2+z
1/2+x,1/2-y,1/2-z
-x,1/2+y,-z
-x,-y,-z
1/2+x,y,1/2-z
1/2-x,1/2+y,1/2+z
x,1/2-y,z
loop_
_atom_site_type_symbol
_atom_site_label
_atom_site_fract_x
_atom_site_fract_y
_atom_site_fract_z
Si Si1 0.766062 0.931634 0.685367
Si Si2 0.533426 0.572391 0.743931
Si Si3 0.233511 0.571353 0.508107
Si Si4 0.162570 0.930748 0.674778
Si Si5 0.553222 0.070277 0.560212
Si Si6 0.854203 0.070502 0.940260
Si Si7 0.895628 0.928298 0.768842
O O1 0.762832 0.750000 0.688113
O O2 0.710641 0.001100 0.749639
O O3 0.835643 0.990306 0.714022
O O4 0.759199 0.980097 0.583195
O O5 0.541989 0.750000 0.713816
O O6 0.589479 0.524665 0.810734
O O7 0.539830 0.457366 0.662489
O O8 0.462507 0.548739 0.783536
O O9 0.229830 0.750000 0.484495
O O10 0.176465 0.516650 0.572770
O O11 0.292059 0.531296 0.571853
O O12 0.173367 0.750000 0.679825
O O13 0.560423 0.250000 0.540448
O O14 0.500000 0.000000 0.500000
O O15 0.616451 0.979173 0.534696
O O16 0.838659 0.250000 0.940133
O O17 0.900917 0.025829 0.859910
O O18 0.886456 0.750000 0.793388
#
# Coordination Sequence:
#
# PCOD8253050 Si02
#       7
#     8   8   8   8   8   8   8
#     4  10  20  38  60  85 118 158 201 248 300 356
#     4  10  20  36  59  85 115 158 200 241 293 356
#     4  11  22  39  61  87 117 153 200 253 299 354
#     4   9  19  37  60  84 117 155 195 242 301 359
#     4  12  23  35  53  83 119 155 191 238 295 358
#     4  12  23  36  57  84 116 153 194 243 299 359
#     4  10  20  36  59  84 116 154 197 243 292 352
#
# _framework density 20.145289999999999
#
# number of rings (size 3 to 8) (size 9 to 14) (size 15 to 20)
#    0.000    1.429    2.857    3.857    0.000    1.714 
#    0.000    2.143    0.000    0.000    0.000    0.000 
#    0.000    0.000    0.000    0.000    0.000    0.000 
#
# Total GULP energy -693985.705097 kJ/mol
# GULP energy per Si atom -12392.601877 kJ/mol
# Density = 2.009944 g / cm^3
# Si number density = 20.145290 Si / 1000 Ang^3
#
#
#
# Elastic Constant Matrix: (Units=GPa)
#
#
# Indices 1 2 3 4 5 6 
#
# 1 127.8157 12.7311 21.8243 0.0000 0.0000 0.0000
# 2 12.7311 34.0028 6.6166 0.0000 0.0000 0.0000
# 3 21.8243 6.6166 62.7140 0.0000 0.0000 0.0000
# 4 0.0000 0.0000 0.0000 25.1493 0.0000 0.0000
# 5 0.0000 0.0000 0.0000 0.0000 33.7422 0.0000
# 6 0.0000 0.0000 0.0000 0.0000 0.0000 17.8989
#
#
#
# Elastic Compliance Matrix: (Units=1/GPa)
#
#
# Indices 1 2 3 4 5 6 
#
# 1 0.008550 -0.002677 -0.002693 0.000000 0.000000 0.000000
# 2 -0.002677 0.030864 -0.002325 0.000000 0.000000 0.000000
# 3 -0.002693 -0.002325 0.017128 0.000000 0.000000 0.000000
# 4 0.000000 0.000000 0.000000 0.039762 0.000000 0.000000
# 5 0.000000 0.000000 0.000000 0.000000 0.029636 0.000000
# 6 0.000000 0.000000 0.000000 0.000000 0.000000 0.055869
#
#
# Mechanical properties :
#
#
# Convention : Reuss Voigt Hill
#
# Bulk Modulus (GPa) = 24.29992 34.09738 29.19865
# Shear Modulus (GPa) = 23.70592 27.58213 25.64402
#
# Velocity S-wave (km/s) = 3.43410 3.70423 3.57172
# Velocity P-wave (km/s) = 5.27376 5.93781 5.61561
#
# Compressibility (1/GPa) = 0.04115239
#
# Stress axis : x y z
#
# Youngs Moduli (GPa) = 116.95550 32.40009 58.38453
#
# Poissons Ratio (x) = 0.08674 0.15723
# Poissons Ratio (y) = 0.31312 0.13572
# Poissons Ratio (z) = 0.31496 0.07532
#
# Static dielectric constant tensor:
#      x y z
#    x 4.128580 0.000000 0.000000 
#    y 0.000000 3.378180 0.000000 
#    z 0.000000 0.000000 3.873060 
# 
# 
# High freq. dielectric constant tensor:
#      x y z
#    x 1.802010 0.000000 0.000000 
#    y 0.000000 1.765110 0.000000 
#    z 0.000000 0.000000 1.763560 
# 
# From -- ./inp_files/20345.got.cif
#   From: 2010.03.12/outbox.cif.g09.slc.cpg/sg62_11_cif.got.tgz:20345.got - 2010.04.10 19:12:36.
