data_PCOD8253095
_publ_section_title
;
Structure prediction by ZEFSAII (Michael W. Deem and Ramdas Pophale) SiO2 
 PCOD8253095
Probable space group: P N M A
;
_chemical_formula_sum "Si O2"
_cell_formula_units_Z 56
_cell_length_a 20.632337
_cell_length_b 24.550108
_cell_length_c 5.299249
_cell_angle_alpha 90.000000
_cell_angle_beta 90.000000
_cell_angle_gamma 90.000000
_cell_volume 2684.207938
_symmetry_space_group_name_H-M "P N M A"
_symmetry_group_IT_number 62
_symmetry_cell_setting 'orthorhombic'
loop_
_space_group_symop_operation_xyz
x,y,z
1/2-x,-y,1/2+z
1/2+x,1/2-y,1/2-z
-x,1/2+y,-z
-x,-y,-z
1/2+x,y,1/2-z
1/2-x,1/2+y,1/2+z
x,1/2-y,z
loop_
_atom_site_type_symbol
_atom_site_label
_atom_site_fract_x
_atom_site_fract_y
_atom_site_fract_z
Si Si1 0.768650 0.250000 0.098787
Si Si2 0.438414 0.549683 0.236637
Si Si3 0.619252 0.637474 0.945495
Si Si4 0.185692 0.446758 0.008718
Si Si5 0.511373 0.929764 0.741813
Si Si6 0.688117 0.943863 0.254572
Si Si7 0.252799 0.633039 0.850115
Si Si8 0.648627 0.750000 0.099647
O O1 0.796935 0.250000 0.382189
O O2 0.726304 0.194334 0.062384
O O3 0.823246 0.250000 0.881987
O O4 0.362061 0.564542 0.272562
O O5 0.448030 0.485034 0.230642
O O6 0.476236 0.575638 0.474119
O O7 0.460254 0.575783 0.972127
O O8 0.561815 0.620404 0.757618
O O9 0.687918 0.640892 0.810283
O O10 0.603970 0.696110 0.069791
O O11 0.626391 0.590496 0.159015
O O12 0.155869 0.501824 0.132174
O O13 0.188353 0.393921 0.191121
O O14 0.260703 0.462980 0.958075
O O15 0.735106 0.906157 0.420921
#
# Coordination Sequence:
#
# PCOD8253095 Si02
#       8
#     4   8   8   8   8   8   8   4
#     4  10  20  38  56  86 119 153 198 234 303 366
#     4  10  24  39  56  82 119 157 199 237 290 365
#     4  10  22  36  59  87 117 150 199 245 306 359
#     4  11  23  34  54  87 120 160 196 240 304 361
#     4  10  23  38  59  83 113 160 196 244 291 348
#     4  11  21  33  55  87 121 153 190 244 304 361
#     4  10  21  36  57  84 120 156 189 250 300 366
#     4  10  20  36  60  86 117 149 188 252 301 352
#
# _framework density 20.862763000000001
#
# number of rings (size 3 to 8) (size 9 to 14) (size 15 to 20)
#    0.000    1.714    2.857    0.857   12.000    0.000 
#    0.000    0.000    0.000    1.714    0.000    0.000 
#    0.000    0.000    0.000    0.000    0.000    0.000 
#
# Total GULP energy -694078.596509 kJ/mol
# GULP energy per Si atom -12394.260652 kJ/mol
# Density = 2.081528 g / cm^3
# Si number density = 20.862763 Si / 1000 Ang^3
#
#
#
# Elastic Constant Matrix: (Units=GPa)
#
#
# Indices 1 2 3 4 5 6 
#
# 1 59.4629 29.9382 12.2891 0.0000 0.0000 0.0000
# 2 29.9382 146.5213 24.3879 0.0000 0.0000 0.0000
# 3 12.2891 24.3879 72.2258 0.0000 0.0000 0.0000
# 4 0.0000 0.0000 0.0000 25.9462 0.0000 0.0000
# 5 0.0000 0.0000 0.0000 0.0000 31.0054 0.0000
# 6 0.0000 0.0000 0.0000 0.0000 0.0000 20.0035
#
#
#
# Elastic Compliance Matrix: (Units=1/GPa)
#
#
# Indices 1 2 3 4 5 6 
#
# 1 0.019025 -0.003548 -0.002039 0.000000 0.000000 0.000000
# 2 -0.003548 0.007893 -0.002061 0.000000 0.000000 0.000000
# 3 -0.002039 -0.002061 0.014889 0.000000 0.000000 0.000000
# 4 0.000000 0.000000 0.000000 0.038541 0.000000 0.000000
# 5 0.000000 0.000000 0.000000 0.000000 0.032252 0.000000
# 6 0.000000 0.000000 0.000000 0.000000 0.000000 0.049991
#
#
# Mechanical properties :
#
#
# Convention : Reuss Voigt Hill
#
# Bulk Modulus (GPa) = 37.72235 45.71561 41.71898
# Shear Modulus (GPa) = 26.77740 29.49736 28.13738
#
# Velocity S-wave (km/s) = 3.58649 3.76423 3.67643
# Velocity P-wave (km/s) = 5.93894 6.39161 6.16943
#
# Compressibility (1/GPa) = 0.02650948
#
# Stress axis : x y z
#
# Youngs Moduli (GPa) = 52.56270 126.69448 67.16589
#
# Poissons Ratio (x) = 0.44950 0.13696
# Poissons Ratio (y) = 0.18649 0.13846
# Poissons Ratio (z) = 0.10718 0.26118
#
# Static dielectric constant tensor:
#      x y z
#    x 3.387140 0.000000 0.000000 
#    y 0.000000 4.221840 0.000000 
#    z 0.000000 0.000000 3.993750 
# 
# 
# High freq. dielectric constant tensor:
#      x y z
#    x 1.776490 0.000000 0.000000 
#    y 0.000000 1.807490 0.000000 
#    z 0.000000 0.000000 1.827890 
# 
# From -- ./inp_files/2309.got.cif
#   From: 2010.03.12/outbox.cif.g09.slc.cpg/sg62_2_cif.got.tgz:2309.got - 2010.04.10 19:12:36.
