data_PCOD8253649
_publ_section_title
;
Structure prediction by ZEFSAII (Michael W. Deem and Ramdas Pophale) SiO2 
 PCOD8253649
Probable space group: P N M A
;
_chemical_formula_sum "Si O2"
_cell_formula_units_Z 56
_cell_length_a 23.727205
_cell_length_b 8.857053
_cell_length_c 13.575169
_cell_angle_alpha 90.000000
_cell_angle_beta 90.000000
_cell_angle_gamma 90.000000
_cell_volume 2852.864014
_symmetry_space_group_name_H-M "P N M A"
_symmetry_group_IT_number 62
_symmetry_cell_setting 'orthorhombic'
loop_
_space_group_symop_operation_xyz
x,y,z
1/2-x,-y,1/2+z
1/2+x,1/2-y,1/2-z
-x,1/2+y,-z
-x,-y,-z
1/2+x,y,1/2-z
1/2-x,1/2+y,1/2+z
x,1/2-y,z
loop_
_atom_site_type_symbol
_atom_site_label
_atom_site_fract_x
_atom_site_fract_y
_atom_site_fract_z
Si Si1 0.122110 0.573108 0.715543
Si Si2 0.669881 0.425819 0.302094
Si Si3 0.275925 0.573421 0.113934
Si Si4 0.932279 0.074170 0.898395
Si Si5 0.061455 0.426094 0.895578
Si Si6 0.059272 0.924997 0.516857
Si Si7 0.339992 0.923344 0.920019
O O1 0.123120 0.750000 0.740376
O O2 0.184819 0.519447 0.688813
O O3 0.101335 0.478877 0.808144
O O4 0.080719 0.534412 0.625688
O O5 0.675207 0.250000 0.327304
O O6 0.712231 0.519161 0.370986
O O7 0.606633 0.481160 0.323540
O O8 0.684499 0.458700 0.187884
O O9 0.281662 0.750000 0.136944
O O10 0.292472 0.536452 0.000891
O O11 0.917624 0.250000 0.891097
O O12 0.996611 0.040457 0.867610
O O13 0.920612 0.019804 0.009021
O O14 0.070789 0.250000 0.917254
O O15 0.051301 0.750000 0.501205
O O16 0.103865 0.980320 0.436239
O O17 0.000000 0.000000 0.500000
O O18 0.358384 0.750000 0.929153
#
# Coordination Sequence:
#
# PCOD8253649 Si02
#       7
#     8   8   8   8   8   8   8
#     4  10  21  37  58  84 115 153 193 239 296 354
#     4  11  23  39  61  87 118 156 199 247 303 357
#     4  10  21  40  61  83 115 153 200 248 293 348
#     4  10  22  39  58  85 118 152 195 244 295 353
#     4  10  21  38  60  86 117 154 195 242 294 352
#     4  10  21  35  55  84 117 152 190 235 288 348
#     4   9  21  40  59  82 114 152 193 242 291 343
#
# _framework density 19.629397000000001
#
# number of rings (size 3 to 8) (size 9 to 14) (size 15 to 20)
#    0.000    2.000    0.000    2.571    2.000    6.286 
#    0.000    4.286    0.000    0.000    0.000    0.000 
#    0.000    0.000    0.000    0.000    0.000    0.000 
#
# Total GULP energy -694685.826504 kJ/mol
# GULP energy per Si atom -12405.104045 kJ/mol
# Density = 1.958472 g / cm^3
# Si number density = 19.629397 Si / 1000 Ang^3
#
#
#
# Elastic Constant Matrix: (Units=GPa)
#
#
# Indices 1 2 3 4 5 6 
#
# 1 65.9336 20.0185 32.1638 0.0000 0.0000 0.0000
# 2 20.0185 52.7987 27.5212 0.0000 0.0000 0.0000
# 3 32.1638 27.5212 84.4355 0.0000 0.0000 0.0000
# 4 0.0000 0.0000 0.0000 33.0049 0.0000 0.0000
# 5 0.0000 0.0000 0.0000 0.0000 26.7978 0.0000
# 6 0.0000 0.0000 0.0000 0.0000 0.0000 38.9514
#
#
#
# Elastic Compliance Matrix: (Units=1/GPa)
#
#
# Indices 1 2 3 4 5 6 
#
# 1 0.019377 -0.004216 -0.006007 0.000000 0.000000 0.000000
# 2 -0.004216 0.023733 -0.006130 0.000000 0.000000 0.000000
# 3 -0.006007 -0.006130 0.016130 0.000000 0.000000 0.000000
# 4 0.000000 0.000000 0.000000 0.030299 0.000000 0.000000
# 5 0.000000 0.000000 0.000000 0.000000 0.037317 0.000000
# 6 0.000000 0.000000 0.000000 0.000000 0.000000 0.025673
#
#
# Mechanical properties :
#
#
# Convention : Reuss Voigt Hill
#
# Bulk Modulus (GPa) = 37.68639 40.28610 38.98624
# Shear Modulus (GPa) = 25.76276 27.98178 26.87227
#
# Velocity S-wave (km/s) = 3.62672 3.77968 3.70399
# Velocity P-wave (km/s) = 6.06449 6.29411 6.18037
#
# Compressibility (1/GPa) = 0.02653478
#
# Stress axis : x y z
#
# Youngs Moduli (GPa) = 51.60719 42.13482 61.99746
#
# Poissons Ratio (x) = 0.17762 0.37244
# Poissons Ratio (y) = 0.21755 0.38004
# Poissons Ratio (z) = 0.31002 0.25828
#
# Static dielectric constant tensor:
#      x y z
#    x 3.548550 0.000000 0.000000 
#    y 0.000000 3.661510 0.000000 
#    z 0.000000 0.000000 3.579280 
# 
# 
# High freq. dielectric constant tensor:
#      x y z
#    x 1.763100 0.000000 0.000000 
#    y 0.000000 1.777890 0.000000 
#    z 0.000000 0.000000 1.764780 
# 
# From -- ./inp_files/20321.got.cif
#   From: 2010.03.12/outbox.cif.g09.slc.cpg/sg62_11_cif.got.tgz:20321.got - 2010.04.10 19:12:36.
