data_PCOD8253291
_publ_section_title
;
Structure prediction by ZEFSAII (Michael W. Deem and Ramdas Pophale) SiO2 
 PCOD8253291
Probable space group: P N M A
;
_chemical_formula_sum "Si O2"
_cell_formula_units_Z 48
_cell_length_a 30.101022
_cell_length_b 8.816920
_cell_length_c 9.039027
_cell_angle_alpha 90.000000
_cell_angle_beta 90.000000
_cell_angle_gamma 90.000000
_cell_volume 2398.942426
_symmetry_space_group_name_H-M "P N M A"
_symmetry_group_IT_number 62
_symmetry_cell_setting 'orthorhombic'
loop_
_space_group_symop_operation_xyz
x,y,z
1/2-x,-y,1/2+z
1/2+x,1/2-y,1/2-z
-x,1/2+y,-z
-x,-y,-z
1/2+x,y,1/2-z
1/2-x,1/2+y,1/2+z
x,1/2-y,z
loop_
_atom_site_type_symbol
_atom_site_label
_atom_site_fract_x
_atom_site_fract_y
_atom_site_fract_z
Si Si1 0.550478 0.574630 0.333494
Si Si2 0.291608 0.424655 0.650882
Si Si3 0.371776 0.073113 0.152321
Si Si4 0.129976 0.428773 0.333940
Si Si5 0.540942 0.924117 0.669771
Si Si6 0.203834 0.075164 0.840002
O O1 0.558444 0.750000 0.295552
O O2 0.583068 0.475540 0.234543
O O3 0.500221 0.531448 0.290733
O O4 0.559560 0.538954 0.505976
O O5 0.305543 0.250000 0.634590
O O6 0.330622 0.509917 0.734114
O O7 0.283693 0.497232 0.492573
O O8 0.245649 0.444572 0.734670
O O9 0.362231 0.250000 0.131866
O O10 0.421401 0.042685 0.210129
O O11 0.338409 0.007491 0.272311
O O12 0.364685 0.991652 0.997876
O O13 0.133291 0.250000 0.341354
O O14 0.524933 0.750000 0.674666
O O15 0.191838 0.250000 0.866469
#
# Coordination Sequence:
#
# PCOD8253291 Si02
#       6
#     8   8   8   8   8   8
#     4  10  20  37  62  89 118 154 197 245 300 360
#     4  11  24  42  64  90 122 159 199 243 295 355
#     4  11  23  40  62  87 121 161 201 247 299 356
#     4  12  25  40  60  87 121 158 201 251 300 355
#     4   9  20  38  60  87 117 153 197 244 296 355
#     4  11  24  41  64  93 123 157 199 246 296 351
#
# _framework density 20.008818000000002
#
# number of rings (size 3 to 8) (size 9 to 14) (size 15 to 20)
#    0.000    1.333    0.000    5.500    0.000    9.333 
#    0.000    0.000    0.000    0.000    0.000    0.000 
#    0.000    0.000    0.000    0.000    0.000    0.000 
#
# Total GULP energy -595536.286937 kJ/mol
# GULP energy per Si atom -12407.005978 kJ/mol
# Density = 1.996328 g / cm^3
# Si number density = 20.008818 Si / 1000 Ang^3
#
#
#
# Elastic Constant Matrix: (Units=GPa)
#
#
# Indices 1 2 3 4 5 6 
#
# 1 98.4712 77.0803 68.7696 0.0000 0.0000 0.0000
# 2 77.0803 169.4523 93.1867 0.0000 0.0000 0.0000
# 3 68.7696 93.1867 166.5416 0.0000 0.0000 0.0000
# 4 0.0000 0.0000 0.0000 34.4313 0.0000 0.0000
# 5 0.0000 0.0000 0.0000 0.0000 21.5059 0.0000
# 6 0.0000 0.0000 0.0000 0.0000 0.0000 31.6394
#
#
#
# Elastic Compliance Matrix: (Units=1/GPa)
#
#
# Indices 1 2 3 4 5 6 
#
# 1 0.017430 -0.005735 -0.003988 0.000000 0.000000 0.000000
# 2 -0.005735 0.010412 -0.003457 0.000000 0.000000 0.000000
# 3 -0.003988 -0.003457 0.009586 0.000000 0.000000 0.000000
# 4 0.000000 0.000000 0.000000 0.029043 0.000000 0.000000
# 5 0.000000 0.000000 0.000000 0.000000 0.046499 0.000000
# 6 0.000000 0.000000 0.000000 0.000000 0.000000 0.031606
#
#
# Mechanical properties :
#
#
# Convention : Reuss Voigt Hill
#
# Bulk Modulus (GPa) = 90.37019 101.39318 95.88168
# Shear Modulus (GPa) = 28.63259 30.54386 29.58823
#
# Velocity S-wave (km/s) = 3.78696 3.91131 3.84964
# Velocity P-wave (km/s) = 8.02400 8.43695 8.23306
#
# Compressibility (1/GPa) = 0.01106560
#
# Stress axis : x y z
#
# Youngs Moduli (GPa) = 57.37273 96.04699 104.31992
#
# Poissons Ratio (x) = 0.55086 0.41604
# Poissons Ratio (y) = 0.32905 0.36068
# Poissons Ratio (z) = 0.22881 0.33208
#
# Static dielectric constant tensor:
#      x y z
#    x 3.711600 0.000000 0.000000 
#    y 0.000000 3.839200 0.000000 
#    z 0.000000 0.000000 3.721890 
# 
# 
# High freq. dielectric constant tensor:
#      x y z
#    x 1.792410 0.000000 0.000000 
#    y 0.000000 1.795610 0.000000 
#    z 0.000000 0.000000 1.790770 
# 
# From -- ./inp_files/10241.got.cif
#   From: 2010.03.12/outbox.cif.g09.slc.cpg/sg62_6_cif.got.tgz:10241.got - 2010.04.10 19:12:36.
