data_PCOD8253195
_publ_section_title
;
Structure prediction by ZEFSAII (Michael W. Deem and Ramdas Pophale) SiO2 
 PCOD8253195
Probable space group: P N M A
;
_chemical_formula_sum "Si O2"
_cell_formula_units_Z 48
_cell_length_a 9.257863
_cell_length_b 8.698000
_cell_length_c 30.882183
_cell_angle_alpha 90.000000
_cell_angle_beta 90.000000
_cell_angle_gamma 90.000000
_cell_volume 2486.784462
_symmetry_space_group_name_H-M "P N M A"
_symmetry_group_IT_number 62
_symmetry_cell_setting 'orthorhombic'
loop_
_space_group_symop_operation_xyz
x,y,z
1/2-x,-y,1/2+z
1/2+x,1/2-y,1/2-z
-x,1/2+y,-z
-x,-y,-z
1/2+x,y,1/2-z
1/2-x,1/2+y,1/2+z
x,1/2-y,z
loop_
_atom_site_type_symbol
_atom_site_label
_atom_site_fract_x
_atom_site_fract_y
_atom_site_fract_z
Si Si1 0.909244 0.930752 0.879105
Si Si2 0.580445 0.569155 0.883040
Si Si3 0.574492 0.428955 0.793445
Si Si4 0.408891 0.067156 0.461000
Si Si5 0.091021 0.931699 0.460971
Si Si6 0.590200 0.572878 0.289969
O O1 0.908234 0.750000 0.875834
O O2 0.745972 0.987487 0.888815
O O3 0.014940 0.988827 0.916762
O O4 0.967822 0.993925 0.833569
O O5 0.562513 0.750000 0.891670
O O6 0.525835 0.527288 0.834993
O O7 0.483229 0.474676 0.916032
O O8 0.539683 0.250000 0.802067
O O9 0.741486 0.456468 0.783571
O O10 0.488726 0.495390 0.752196
O O11 0.404657 0.250000 0.464300
O O12 0.500000 0.000000 0.500000
O O13 0.249535 0.001322 0.462564
O O14 0.100774 0.750000 0.466276
O O15 0.000000 0.000000 0.500000
O O16 0.549926 0.750000 0.294445
#
# Coordination Sequence:
#
# PCOD8253195 Si02
#       6
#     8   8   8   8   8   8
#     4   9  20  37  57  81 112 146 185 231 281 334
#     4  10  20  37  59  84 113 148 188 232 281 337
#     4   9  18  33  51  76 108 145 186 230 277 328
#     4  11  23  40  61  87 117 151 190 235 284 339
#     4  12  25  41  61  86 115 149 188 234 284 340
#     4   9  18  32  52  76 107 145 187 230 275 328
#
# _framework density 19.302033999999999
#
# number of rings (size 3 to 8) (size 9 to 14) (size 15 to 20)
#    0.000    2.000    0.000    3.500    0.000    5.333 
#    0.000    1.667    0.000    0.000    0.000    0.000 
#    0.000    0.000    0.000    0.000    0.000    0.000 
#
# Total GULP energy -595347.064971 kJ/mol
# GULP energy per Si atom -12403.063854 kJ/mol
# Density = 1.925810 g / cm^3
# Si number density = 19.302034 Si / 1000 Ang^3
#
#
#
# Elastic Constant Matrix: (Units=GPa)
#
#
# Indices 1 2 3 4 5 6 
#
# 1 114.6723 38.1380 88.7983 0.0000 0.0000 0.0000
# 2 38.1380 62.9672 45.5848 0.0000 0.0000 0.0000
# 3 88.7983 45.5848 170.9702 0.0000 0.0000 0.0000
# 4 0.0000 0.0000 0.0000 38.7095 0.0000 0.0000
# 5 0.0000 0.0000 0.0000 0.0000 42.0921 0.0000
# 6 0.0000 0.0000 0.0000 0.0000 0.0000 29.1183
#
#
#
# Elastic Compliance Matrix: (Units=1/GPa)
#
#
# Indices 1 2 3 4 5 6 
#
# 1 0.015519 -0.004417 -0.006883 0.000000 0.000000 0.000000
# 2 -0.004417 0.020937 -0.003288 0.000000 0.000000 0.000000
# 3 -0.006883 -0.003288 0.010300 0.000000 0.000000 0.000000
# 4 0.000000 0.000000 0.000000 0.025833 0.000000 0.000000
# 5 0.000000 0.000000 0.000000 0.000000 0.023757 0.000000
# 6 0.000000 0.000000 0.000000 0.000000 0.000000 0.034343
#
#
# Mechanical properties :
#
#
# Convention : Reuss Voigt Hill
#
# Bulk Modulus (GPa) = 56.87996 77.07243 66.97620
# Shear Modulus (GPa) = 30.17021 33.72322 31.94671
#
# Velocity S-wave (km/s) = 3.95784 4.18441 4.07270
# Velocity P-wave (km/s) = 7.10059 7.96003 7.54256
#
# Compressibility (1/GPa) = 0.01758088
#
# Stress axis : x y z
#
# Youngs Moduli (GPa) = 64.43620 47.76216 97.08354
#
# Poissons Ratio (x) = 0.21097 0.66819
# Poissons Ratio (y) = 0.28461 0.31923
# Poissons Ratio (z) = 0.44349 0.15705
#
# Static dielectric constant tensor:
#      x y z
#    x 3.688090 0.000000 0.000000 
#    y 0.000000 3.489600 0.000000 
#    z 0.000000 0.000000 3.871770 
# 
# 
# High freq. dielectric constant tensor:
#      x y z
#    x 1.750470 0.000000 0.000000 
#    y 0.000000 1.749630 0.000000 
#    z 0.000000 0.000000 1.768380 
# 
# From -- ./inp_files/31937.got.cif
#   From: 2010.03.12/outbox.cif.g09.slc.cpg/sg62_16_cif.got.tgz:31937.got - 2010.04.10 19:12:36.
