data_PCOD8253120
_publ_section_title
;
Structure prediction by ZEFSAII (Michael W. Deem and Ramdas Pophale) SiO2 
 PCOD8253120
Probable space group: P N M A
;
_chemical_formula_sum "Si O2"
_cell_formula_units_Z 56
_cell_length_a 19.332371
_cell_length_b 8.948168
_cell_length_c 16.397194
_cell_angle_alpha 90.000000
_cell_angle_beta 90.000000
_cell_angle_gamma 90.000000
_cell_volume 2836.539170
_symmetry_space_group_name_H-M "P N M A"
_symmetry_group_IT_number 62
_symmetry_cell_setting 'orthorhombic'
loop_
_space_group_symop_operation_xyz
x,y,z
1/2-x,-y,1/2+z
1/2+x,1/2-y,1/2-z
-x,1/2+y,-z
-x,-y,-z
1/2+x,y,1/2-z
1/2-x,1/2+y,1/2+z
x,1/2-y,z
loop_
_atom_site_type_symbol
_atom_site_label
_atom_site_fract_x
_atom_site_fract_y
_atom_site_fract_z
Si Si1 0.506597 0.925610 0.261574
Si Si2 0.725317 0.423692 0.684052
Si Si3 0.878063 0.077050 0.631770
Si Si4 0.447191 0.424588 0.560820
Si Si5 0.693603 0.576598 0.521261
Si Si6 0.653848 0.424029 0.969401
Si Si7 0.372461 0.426752 0.196768
O O1 0.489997 0.750000 0.260820
O O2 0.559903 0.968897 0.190702
O O3 0.539405 0.977344 0.347078
O O4 0.436715 0.017043 0.249931
O O5 0.708995 0.250000 0.695968
O O6 0.806760 0.456506 0.678774
O O7 0.686676 0.479310 0.602786
O O8 0.697601 0.511640 0.762559
O O9 0.881321 0.250000 0.605915
O O10 0.884547 0.976930 0.551247
O O11 0.500000 0.500000 0.500000
O O12 0.458630 0.250000 0.552130
O O13 0.368672 0.468689 0.538413
O O14 0.691085 0.750000 0.546901
O O15 0.764619 0.539791 0.474472
O O16 0.639227 0.250000 0.956443
O O17 0.620854 0.512930 0.894725
O O18 0.370844 0.250000 0.195568
#
# Coordination Sequence:
#
# PCOD8253120 Si02
#       7
#     8   8   8   8   8   8   8
#     4  10  22  40  61  85 114 155 199 240 294 355
#     4  10  20  36  61  88 118 153 192 239 294 351
#     4   9  20  39  63  88 117 150 193 245 298 353
#     4  10  21  36  57  84 117 154 192 234 285 344
#     4   9  19  36  59  86 117 150 190 238 289 346
#     4  10  21  38  62  87 115 151 195 242 296 352
#     4  12  25  39  57  84 119 155 198 246 292 346
#
# _framework density 19.742367999999999
#
# number of rings (size 3 to 8) (size 9 to 14) (size 15 to 20)
#    0.000    2.000    0.000    3.000    2.000    5.714 
#    0.000    0.000    0.000    0.000    0.000    0.000 
#    0.000    0.000    0.000    0.000    0.000    0.000 
#
# Total GULP energy -694707.670763 kJ/mol
# GULP energy per Si atom -12405.494121 kJ/mol
# Density = 1.969743 g / cm^3
# Si number density = 19.742368 Si / 1000 Ang^3
#
#
#
# Elastic Constant Matrix: (Units=GPa)
#
#
# Indices 1 2 3 4 5 6 
#
# 1 47.8356 21.8597 18.7885 0.0000 0.0000 0.0000
# 2 21.8597 84.3011 44.0806 0.0000 0.0000 0.0000
# 3 18.7885 44.0806 95.2123 0.0000 0.0000 0.0000
# 4 0.0000 0.0000 0.0000 37.0560 0.0000 0.0000
# 5 0.0000 0.0000 0.0000 0.0000 37.0884 0.0000
# 6 0.0000 0.0000 0.0000 0.0000 0.0000 27.7218
#
#
#
# Elastic Compliance Matrix: (Units=1/GPa)
#
#
# Indices 1 2 3 4 5 6 
#
# 1 0.024145 -0.004973 -0.002462 0.000000 0.000000 0.000000
# 2 -0.004973 0.016676 -0.006739 0.000000 0.000000 0.000000
# 3 -0.002462 -0.006739 0.014109 0.000000 0.000000 0.000000
# 4 0.000000 0.000000 0.000000 0.026986 0.000000 0.000000
# 5 0.000000 0.000000 0.000000 0.000000 0.026963 0.000000
# 6 0.000000 0.000000 0.000000 0.000000 0.000000 0.036073
#
#
# Mechanical properties :
#
#
# Convention : Reuss Voigt Hill
#
# Bulk Modulus (GPa) = 37.62202 44.08964 40.85583
# Shear Modulus (GPa) = 27.44852 29.88125 28.66489
#
# Velocity S-wave (km/s) = 3.73277 3.89467 3.81458
# Velocity P-wave (km/s) = 6.13807 6.52730 6.33567
#
# Compressibility (1/GPa) = 0.02658018
#
# Stress axis : x y z
#
# Youngs Moduli (GPa) = 41.41701 59.96770 70.87874
#
# Poissons Ratio (x) = 0.29825 0.17450
# Poissons Ratio (y) = 0.20599 0.47765
# Poissons Ratio (z) = 0.10197 0.40412
#
# Static dielectric constant tensor:
#      x y z
#    x 4.143610 0.000000 0.000000 
#    y 0.000000 3.556550 0.000000 
#    z 0.000000 0.000000 3.785090 
# 
# 
# High freq. dielectric constant tensor:
#      x y z
#    x 1.773030 0.000000 0.000000 
#    y 0.000000 1.766120 0.000000 
#    z 0.000000 0.000000 1.776750 
# 
# From -- ./inp_files/20199.got.cif
#   From: 2010.03.12/outbox.cif.g09.slc.cpg/sg62_11_cif.got.tgz:20199.got - 2010.04.10 19:12:36.
