data_PCOD8253975
_publ_section_title
;
Structure prediction by ZEFSAII (Michael W. Deem and Ramdas Pophale) SiO2 
 PCOD8253975
Probable space group: P N M A
;
_chemical_formula_sum "Si O2"
_cell_formula_units_Z 48
_cell_length_a 9.246988
_cell_length_b 8.672242
_cell_length_c 30.392994
_cell_angle_alpha 90.000000
_cell_angle_beta 90.000000
_cell_angle_gamma 90.000000
_cell_volume 2437.278552
_symmetry_space_group_name_H-M "P N M A"
_symmetry_group_IT_number 62
_symmetry_cell_setting 'orthorhombic'
loop_
_space_group_symop_operation_xyz
x,y,z
1/2-x,-y,1/2+z
1/2+x,1/2-y,1/2-z
-x,1/2+y,-z
-x,-y,-z
1/2+x,y,1/2-z
1/2-x,1/2+y,1/2+z
x,1/2-y,z
loop_
_atom_site_type_symbol
_atom_site_label
_atom_site_fract_x
_atom_site_fract_y
_atom_site_fract_z
Si Si1 0.091093 0.069147 0.715949
Si Si2 0.894934 0.926872 0.035017
Si Si3 0.917741 0.574319 0.134503
Si Si4 0.411248 0.069206 0.869238
Si Si5 0.596884 0.070545 0.291727
Si Si6 0.586641 0.070069 0.039861
O O1 0.072113 0.250000 0.725363
O O2 0.015656 0.021094 0.670356
O O3 0.259364 0.029344 0.714264
O O4 0.017941 0.973002 0.754538
O O5 0.859751 0.750000 0.022970
O O6 0.964408 0.936918 0.083555
O O7 0.752059 0.027018 0.033704
O O8 0.000000 0.000000 0.000000
O O9 0.932452 0.750000 0.151683
O O10 0.752740 0.515855 0.141331
O O11 0.025493 0.465366 0.161248
O O12 0.410485 0.250000 0.878429
O O13 0.472197 0.990272 0.913261
O O14 0.635936 0.250000 0.288962
O O15 0.565356 0.250000 0.038714
O O16 0.500000 0.000000 0.000000
#
# Coordination Sequence:
#
# PCOD8253975 Si02
#       6
#     8   8   8   8   8   8
#     4  11  23  41  64  86 115 156 195 232 285 351
#     4  10  21  38  60  86 117 153 195 240 287 342
#     4   9  19  38  61  84 114 153 193 234 287 348
#     4   9  20  39  62  86 112 147 194 242 287 341
#     4  12  25  39  59  89 121 150 190 243 288 333
#     4  11  22  37  59  85 117 155 194 239 290 343
#
# _framework density 19.694098
#
# number of rings (size 3 to 8) (size 9 to 14) (size 15 to 20)
#    0.000    1.667    0.000    6.000    0.000    7.333 
#    0.000    1.667    0.000    0.000    0.000    0.000 
#    0.000    0.000    0.000    0.000    0.000    0.000 
#
# Total GULP energy -595407.425441 kJ/mol
# GULP energy per Si atom -12404.321363 kJ/mol
# Density = 1.964927 g / cm^3
# Si number density = 19.694098 Si / 1000 Ang^3
#
#
#
# Elastic Constant Matrix: (Units=GPa)
#
#
# Indices 1 2 3 4 5 6 
#
# 1 78.1456 12.9395 48.8713 0.0000 0.0000 0.0000
# 2 12.9395 77.0141 38.1488 0.0000 0.0000 0.0000
# 3 48.8713 38.1488 119.0757 0.0000 0.0000 0.0000
# 4 0.0000 0.0000 0.0000 38.2884 0.0000 0.0000
# 5 0.0000 0.0000 0.0000 0.0000 41.4477 0.0000
# 6 0.0000 0.0000 0.0000 0.0000 0.0000 31.7305
#
#
#
# Elastic Compliance Matrix: (Units=1/GPa)
#
#
# Indices 1 2 3 4 5 6 
#
# 1 0.017249 0.000723 -0.007311 0.000000 0.000000 0.000000
# 2 0.000723 0.015464 -0.005251 0.000000 0.000000 0.000000
# 3 -0.007311 -0.005251 0.013081 0.000000 0.000000 0.000000
# 4 0.000000 0.000000 0.000000 0.026118 0.000000 0.000000
# 5 0.000000 0.000000 0.000000 0.000000 0.024127 0.000000
# 6 0.000000 0.000000 0.000000 0.000000 0.000000 0.031515
#
#
# Mechanical properties :
#
#
# Convention : Reuss Voigt Hill
#
# Bulk Modulus (GPa) = 45.21515 52.68385 48.94950
# Shear Modulus (GPa) = 31.52494 33.91171 32.71832
#
# Velocity S-wave (km/s) = 4.00525 4.15411 4.08036
# Velocity P-wave (km/s) = 6.66318 7.05818 6.86352
#
# Compressibility (1/GPa) = 0.02211648
#
# Stress axis : x y z
#
# Youngs Moduli (GPa) = 57.97377 64.66505 76.44620
#
# Poissons Ratio (x) = -0.04678 0.55892
# Poissons Ratio (y) = -0.04194 0.40144
# Poissons Ratio (z) = 0.42386 0.33958
#
# Static dielectric constant tensor:
#      x y z
#    x 4.182420 0.000000 0.000000 
#    y 0.000000 3.633000 0.000000 
#    z 0.000000 0.000000 3.835320 
# 
# 
# High freq. dielectric constant tensor:
#      x y z
#    x 1.763460 0.000000 0.000000 
#    y 0.000000 1.771100 0.000000 
#    z 0.000000 0.000000 1.782480 
# 
# From -- ./inp_files/31999.got.cif
#   From: 2010.03.12/outbox.cif.g09.slc.cpg/sg62_16_cif.got.tgz:31999.got - 2010.04.10 19:12:36.
