data_PCOD8253694
_publ_section_title
;
Structure prediction by ZEFSAII (Michael W. Deem and Ramdas Pophale) SiO2 
 PCOD8253694
Probable space group: P N M A
;
_chemical_formula_sum "Si O2"
_cell_formula_units_Z 64
_cell_length_a 14.650642
_cell_length_b 8.882208
_cell_length_c 24.415256
_cell_angle_alpha 90.000000
_cell_angle_beta 90.000000
_cell_angle_gamma 90.000000
_cell_volume 3177.158474
_symmetry_space_group_name_H-M "P N M A"
_symmetry_group_IT_number 62
_symmetry_cell_setting 'orthorhombic'
loop_
_space_group_symop_operation_xyz
x,y,z
1/2-x,-y,1/2+z
1/2+x,1/2-y,1/2-z
-x,1/2+y,-z
-x,-y,-z
1/2+x,y,1/2-z
1/2-x,1/2+y,1/2+z
x,1/2-y,z
loop_
_atom_site_type_symbol
_atom_site_label
_atom_site_fract_x
_atom_site_fract_y
_atom_site_fract_z
Si Si1 0.093285 0.574988 0.017146
Si Si2 0.556933 0.581753 0.364291
Si Si3 0.627847 0.073592 0.260508
Si Si4 0.497939 0.073726 0.164115
Si Si5 0.334824 0.074459 0.241882
Si Si6 0.854740 0.920179 0.148608
Si Si7 0.449173 0.071096 0.948624
Si Si8 0.245135 0.427626 0.439825
O O1 0.081180 0.750000 0.005145
O O2 0.114418 0.542662 0.081197
O O3 0.180019 0.514770 0.983415
O O4 0.000000 0.500000 0.000000
O O5 0.579720 0.750000 0.343282
O O6 0.577364 0.466751 0.316316
O O7 0.451083 0.571453 0.382850
O O8 0.624951 0.250000 0.255301
O O9 0.573991 0.010552 0.207214
O O10 0.731448 0.015013 0.265608
O O11 0.514100 0.250000 0.152135
O O12 0.396292 0.045337 0.188163
O O13 0.504961 0.983335 0.107818
O O14 0.337515 0.250000 0.257608
O O15 0.376918 0.977345 0.290616
O O16 0.816479 0.750000 0.149309
O O17 0.780563 0.029182 0.120689
O O18 0.455645 0.250000 0.951877
O O19 0.345329 0.018875 0.952407
O O20 0.500000 0.000000 0.000000
O O21 0.225693 0.250000 0.442477
#
# Coordination Sequence:
#
# PCOD8253694 Si02
#       8
#     8   8   8   8   8   8   8   8
#     4  10  21  37  58  87 124 163 202 248 302 363
#     4  10  21  36  55  84 124 159 197 248 301 359
#     4  10  21  37  59  88 121 160 202 245 300 362
#     4  10  21  40  64  91 126 162 206 258 306 367
#     4  10  21  37  60  90 123 162 208 254 305 367
#     4  11  21  35  59  90 124 162 208 257 306 364
#     4  12  27  47  70  93 122 160 209 265 318 374
#     4  11  23  40  65  93 124 166 213 259 315 377
#
# _framework density 20.143787
#
# number of rings (size 3 to 8) (size 9 to 14) (size 15 to 20)
#    0.000    1.500    2.500    2.625    0.000    5.000 
#    0.000    2.500    0.000    0.000    0.000    0.000 
#    0.000    0.000    0.000    0.000    0.000    0.000 
#
# Total GULP energy -793644.888807 kJ/mol
# GULP energy per Si atom -12400.701388 kJ/mol
# Density = 2.009794 g / cm^3
# Si number density = 20.143787 Si / 1000 Ang^3
#
#
#
# Elastic Constant Matrix: (Units=GPa)
#
#
# Indices 1 2 3 4 5 6 
#
# 1 121.1201 42.7846 63.4768 0.0000 0.0000 0.0000
# 2 42.7846 73.0526 48.0929 0.0000 0.0000 0.0000
# 3 63.4768 48.0929 132.3092 0.0000 0.0000 0.0000
# 4 0.0000 0.0000 0.0000 33.4428 0.0000 0.0000
# 5 0.0000 0.0000 0.0000 0.0000 33.1300 0.0000
# 6 0.0000 0.0000 0.0000 0.0000 0.0000 27.5310
#
#
#
# Elastic Compliance Matrix: (Units=1/GPa)
#
#
# Indices 1 2 3 4 5 6 
#
# 1 0.011951 -0.004239 -0.004193 0.000000 0.000000 0.000000
# 2 -0.004239 0.019499 -0.005054 0.000000 0.000000 0.000000
# 3 -0.004193 -0.005054 0.011407 0.000000 0.000000 0.000000
# 4 0.000000 0.000000 0.000000 0.029902 0.000000 0.000000
# 5 0.000000 0.000000 0.000000 0.000000 0.030184 0.000000
# 6 0.000000 0.000000 0.000000 0.000000 0.000000 0.036323
#
#
# Mechanical properties :
#
#
# Convention : Reuss Voigt Hill
#
# Bulk Modulus (GPa) = 62.95290 70.57672 66.76481
# Shear Modulus (GPa) = 29.14926 30.29593 29.72259
#
# Velocity S-wave (km/s) = 3.80815 3.88233 3.84542
# Velocity P-wave (km/s) = 7.11728 7.43029 7.27547
#
# Compressibility (1/GPa) = 0.01588489
#
# Stress axis : x y z
#
# Youngs Moduli (GPa) = 83.67461 51.28593 87.66883
#
# Poissons Ratio (x) = 0.21741 0.36758
# Poissons Ratio (y) = 0.35471 0.44306
# Poissons Ratio (z) = 0.35083 0.25919
#
# Static dielectric constant tensor:
#      x y z
#    x 3.955630 0.000000 0.000000 
#    y 0.000000 3.542330 0.000000 
#    z 0.000000 0.000000 3.694220 
# 
# 
# High freq. dielectric constant tensor:
#      x y z
#    x 1.791130 0.000000 0.000000 
#    y 0.000000 1.779120 0.000000 
#    z 0.000000 0.000000 1.790790 
# 
# From -- ./inp_files/29855.got.cif
#   From: 2010.03.12/outbox.cif.g09.slc.cpg/sg62_15_cif.got.tgz:29855.got - 2010.04.10 19:12:36.
