data_PCOD8253733
_publ_section_title
;
Structure prediction by ZEFSAII (Michael W. Deem and Ramdas Pophale) SiO2 
 PCOD8253733
Probable space group: P N M A
;
_chemical_formula_sum "Si O2"
_cell_formula_units_Z 56
_cell_length_a 20.918080
_cell_length_b 9.133430
_cell_length_c 14.651763
_cell_angle_alpha 90.000000
_cell_angle_beta 90.000000
_cell_angle_gamma 90.000000
_cell_volume 2799.275282
_symmetry_space_group_name_H-M "P N M A"
_symmetry_group_IT_number 62
_symmetry_cell_setting 'orthorhombic'
loop_
_space_group_symop_operation_xyz
x,y,z
1/2-x,-y,1/2+z
1/2+x,1/2-y,1/2-z
-x,1/2+y,-z
-x,-y,-z
1/2+x,y,1/2-z
1/2-x,1/2+y,1/2+z
x,1/2-y,z
loop_
_atom_site_type_symbol
_atom_site_label
_atom_site_fract_x
_atom_site_fract_y
_atom_site_fract_z
Si Si1 0.285290 0.918828 0.589144
Si Si2 0.902663 0.581693 0.277808
Si Si3 0.181931 0.582840 0.441479
Si Si4 0.566549 0.419358 0.986723
Si Si5 0.512425 0.918964 0.640445
Si Si6 0.740963 0.421214 0.737585
Si Si7 0.406902 0.080885 0.539848
O O1 0.304997 0.750000 0.596813
O O2 0.218820 0.938726 0.536452
O O3 0.280390 0.987153 0.689001
O O4 0.338913 0.003271 0.532021
O O5 0.916260 0.750000 0.252032
O O6 0.906585 0.555907 0.385495
O O7 0.956237 0.481411 0.231835
O O8 0.833347 0.533049 0.240487
O O9 0.159746 0.750000 0.428914
O O10 0.118603 0.483545 0.442493
O O11 0.229398 0.536991 0.359965
O O12 0.556449 0.250000 0.009527
O O13 0.500000 0.500000 0.000000
O O14 0.495318 0.750000 0.655452
O O15 0.560736 0.942781 0.557430
O O16 0.447403 0.006023 0.620608
O O17 0.748009 0.250000 0.760503
O O18 0.398594 0.250000 0.564918
#
# Coordination Sequence:
#
# PCOD8253733 Si02
#       7
#     8   8   8   8   8   8   8
#     4  11  22  37  60  89 120 154 195 249 300 351
#     4  10  21  39  62  87 119 162 204 245 304 371
#     4  10  22  40  63  90 123 160 201 253 310 364
#     4  11  24  42  65  89 120 161 206 254 306 366
#     4  10  21  36  58  87 117 153 199 249 297 352
#     4  10  21  39  62  88 120 160 202 246 303 370
#     4  10  21  37  57  84 120 159 196 241 300 361
#
# _framework density 20.005178000000001
#
# number of rings (size 3 to 8) (size 9 to 14) (size 15 to 20)
#    0.000    1.714    1.429    2.571    0.000    6.857 
#    0.000    1.429    0.000    0.000    0.000    0.000 
#    0.000    0.000    0.000    0.000    0.000    0.000 
#
# Total GULP energy -694710.253693 kJ/mol
# GULP energy per Si atom -12405.540245 kJ/mol
# Density = 1.995965 g / cm^3
# Si number density = 20.005178 Si / 1000 Ang^3
#
#
#
# Elastic Constant Matrix: (Units=GPa)
#
#
# Indices 1 2 3 4 5 6 
#
# 1 104.3584 54.8390 21.6396 0.0000 0.0000 0.0000
# 2 54.8390 111.6147 36.1464 0.0000 0.0000 0.0000
# 3 21.6396 36.1464 71.7974 0.0000 0.0000 0.0000
# 4 0.0000 0.0000 0.0000 33.1362 0.0000 0.0000
# 5 0.0000 0.0000 0.0000 0.0000 33.6555 0.0000
# 6 0.0000 0.0000 0.0000 0.0000 0.0000 40.4132
#
#
#
# Elastic Compliance Matrix: (Units=1/GPa)
#
#
# Indices 1 2 3 4 5 6 
#
# 1 0.012959 -0.006096 -0.000837 0.000000 0.000000 0.000000
# 2 -0.006096 0.013572 -0.004996 0.000000 0.000000 0.000000
# 3 -0.000837 -0.004996 0.016695 0.000000 0.000000 0.000000
# 4 0.000000 0.000000 0.000000 0.030178 0.000000 0.000000
# 5 0.000000 0.000000 0.000000 0.000000 0.029713 0.000000
# 6 0.000000 0.000000 0.000000 0.000000 0.000000 0.024744
#
#
# Mechanical properties :
#
#
# Convention : Reuss Voigt Hill
#
# Bulk Modulus (GPa) = 51.62670 57.00227 54.31448
# Shear Modulus (GPa) = 31.61015 33.11732 32.36374
#
# Velocity S-wave (km/s) = 3.97936 4.07312 4.02651
# Velocity P-wave (km/s) = 6.85393 7.11871 6.98758
#
# Compressibility (1/GPa) = 0.01936982
#
# Stress axis : x y z
#
# Youngs Moduli (GPa) = 77.16415 73.67849 59.89687
#
# Poissons Ratio (x) = 0.44916 0.05012
# Poissons Ratio (y) = 0.47041 0.29923
# Poissons Ratio (z) = 0.06457 0.36807
#
# Static dielectric constant tensor:
#      x y z
#    x 3.624810 0.000000 0.000000 
#    y 0.000000 3.671930 0.000000 
#    z 0.000000 0.000000 3.522150 
# 
# 
# High freq. dielectric constant tensor:
#      x y z
#    x 1.785960 0.000000 0.000000 
#    y 0.000000 1.785510 0.000000 
#    z 0.000000 0.000000 1.775590 
# 
# From -- ./inp_files/20246.got.cif
#   From: 2010.03.12/outbox.cif.g09.slc.cpg/sg62_11_cif.got.tgz:20246.got - 2010.04.10 19:12:36.
