data_PCOD8253765
_publ_section_title
;
Structure prediction by ZEFSAII (Michael W. Deem and Ramdas Pophale) SiO2 
 PCOD8253765
Probable space group: P N M A
;
_chemical_formula_sum "Si O2"
_cell_formula_units_Z 64
_cell_length_a 19.776354
_cell_length_b 18.073881
_cell_length_c 8.910510
_cell_angle_alpha 90.000000
_cell_angle_beta 90.000000
_cell_angle_gamma 90.000000
_cell_volume 3184.932319
_symmetry_space_group_name_H-M "P N M A"
_symmetry_group_IT_number 62
_symmetry_cell_setting 'orthorhombic'
loop_
_space_group_symop_operation_xyz
x,y,z
1/2-x,-y,1/2+z
1/2+x,1/2-y,1/2-z
-x,1/2+y,-z
-x,-y,-z
1/2+x,y,1/2-z
1/2-x,1/2+y,1/2+z
x,1/2-y,z
loop_
_atom_site_type_symbol
_atom_site_label
_atom_site_fract_x
_atom_site_fract_y
_atom_site_fract_z
Si Si1 0.005175 0.081150 0.307870
Si Si2 0.133776 0.457119 0.138394
Si Si3 0.887307 0.165114 0.144429
Si Si4 0.337785 0.575102 0.300765
Si Si5 0.217419 0.575806 0.694041
Si Si6 0.215513 0.667156 0.403542
Si Si7 0.602137 0.875804 0.307723
Si Si8 0.470761 0.912097 0.147272
O O1 0.068974 0.088558 0.195938
O O2 0.028109 0.106867 0.471964
O O3 0.945795 0.133193 0.249907
O O4 0.976348 0.998765 0.315901
O O5 0.201348 0.420710 0.208428
O O6 0.128028 0.540350 0.195929
O O7 0.135580 0.457236 0.958606
O O8 0.877256 0.250000 0.187289
O O9 0.816429 0.122752 0.172503
O O10 0.907546 0.156252 0.972588
O O11 0.306785 0.509019 0.200309
O O12 0.283146 0.638894 0.323525
O O13 0.398924 0.613885 0.212371
O O14 0.193990 0.611228 0.536134
O O15 0.228463 0.750000 0.466270
O O16 0.155997 0.672378 0.282617
O O17 0.530006 0.867228 0.228041
#
# Coordination Sequence:
#
# PCOD8253765 Si02
#       8
#     8   8   8   8   8   8   8   8
#     4  10  21  38  60  93 124 154 205 256 315 364
#     4  10  21  36  63  92 120 154 208 266 302 356
#     4  12  24  40  61  90 130 168 205 255 317 378
#     4  11  21  39  63  93 122 162 211 260 306 373
#     4  11  22  39  63  93 120 168 211 255 306 378
#     4  11  25  42  60  91 132 165 199 260 325 375
#     4  11  21  38  62  90 121 160 208 254 309 370
#     4  10  21  36  65  93 118 155 208 265 302 362
#
# _framework density 20.094619999999999
#
# number of rings (size 3 to 8) (size 9 to 14) (size 15 to 20)
#    0.000    1.250    3.750    2.250    3.500    3.000 
#    0.000    8.125    0.000    0.000    0.000    0.000 
#    0.000    0.000    0.000    0.000    0.000    0.000 
#
# Total GULP energy -793932.777432 kJ/mol
# GULP energy per Si atom -12405.199647 kJ/mol
# Density = 2.004888 g / cm^3
# Si number density = 20.094620 Si / 1000 Ang^3
#
#
#
# Elastic Constant Matrix: (Units=GPa)
#
#
# Indices 1 2 3 4 5 6 
#
# 1 103.4146 25.8613 41.4367 0.0000 0.0000 0.0000
# 2 25.8613 74.6789 24.8797 0.0000 0.0000 0.0000
# 3 41.4367 24.8797 103.3427 0.0000 0.0000 0.0000
# 4 0.0000 0.0000 0.0000 15.9855 0.0000 0.0000
# 5 0.0000 0.0000 0.0000 0.0000 40.7338 0.0000
# 6 0.0000 0.0000 0.0000 0.0000 0.0000 17.6387
#
#
#
# Elastic Compliance Matrix: (Units=1/GPa)
#
#
# Indices 1 2 3 4 5 6 
#
# 1 0.012030 -0.002782 -0.004154 0.000000 0.000000 0.000000
# 2 -0.002782 0.015202 -0.002544 0.000000 0.000000 0.000000
# 3 -0.004154 -0.002544 0.011955 0.000000 0.000000 0.000000
# 4 0.000000 0.000000 0.000000 0.062557 0.000000 0.000000
# 5 0.000000 0.000000 0.000000 0.000000 0.024550 0.000000
# 6 0.000000 0.000000 0.000000 0.000000 0.000000 0.056694
#
#
# Mechanical properties :
#
#
# Convention : Reuss Voigt Hill
#
# Bulk Modulus (GPa) = 49.44149 51.75461 50.59805
# Shear Modulus (GPa) = 23.95916 27.48883 25.72399
#
# Velocity S-wave (km/s) = 3.45674 3.70262 3.58179
# Velocity P-wave (km/s) = 6.37101 6.64007 6.50693
#
# Compressibility (1/GPa) = 0.02022593
#
# Stress axis : x y z
#
# Youngs Moduli (GPa) = 83.12621 65.78191 83.64987
#
# Poissons Ratio (x) = 0.18301 0.34746
# Poissons Ratio (y) = 0.23127 0.21283
# Poissons Ratio (z) = 0.34529 0.16737
#
# Static dielectric constant tensor:
#      x y z
#    x 3.793220 0.000000 0.000000 
#    y 0.000000 3.397560 0.000000 
#    z 0.000000 0.000000 3.709910 
# 
# 
# High freq. dielectric constant tensor:
#      x y z
#    x 1.797000 0.000000 0.000000 
#    y 0.000000 1.758060 0.000000 
#    z 0.000000 0.000000 1.792020 
# 
# From -- ./inp_files/8919.got.cif
#   From: 2010.03.12/outbox.cif.g09.slc.cpg/sg62_5_cif.got.tgz:8919.got - 2010.04.10 19:12:36.
