data_PCOD8253848
_publ_section_title
;
Structure prediction by ZEFSAII (Michael W. Deem and Ramdas Pophale) SiO2 
 PCOD8253848
Probable space group: P N M A
;
_chemical_formula_sum "Si O2"
_cell_formula_units_Z 64
_cell_length_a 23.387248
_cell_length_b 9.162617
_cell_length_c 15.435183
_cell_angle_alpha 90.000000
_cell_angle_beta 90.000000
_cell_angle_gamma 90.000000
_cell_volume 3307.580609
_symmetry_space_group_name_H-M "P N M A"
_symmetry_group_IT_number 62
_symmetry_cell_setting 'orthorhombic'
loop_
_space_group_symop_operation_xyz
x,y,z
1/2-x,-y,1/2+z
1/2+x,1/2-y,1/2-z
-x,1/2+y,-z
-x,-y,-z
1/2+x,y,1/2-z
1/2-x,1/2+y,1/2+z
x,1/2-y,z
loop_
_atom_site_type_symbol
_atom_site_label
_atom_site_fract_x
_atom_site_fract_y
_atom_site_fract_z
Si Si1 0.991113 0.419078 0.682273
Si Si2 0.982182 0.917523 0.124281
Si Si3 0.794193 0.923194 0.993155
Si Si4 0.257704 0.920445 0.844121
Si Si5 0.396006 0.578594 0.086116
Si Si6 0.590151 0.919151 0.491639
Si Si7 0.708370 0.579071 0.841635
Si Si8 0.114862 0.079657 0.391141
O O1 0.975122 0.250000 0.677566
O O2 0.039382 0.461498 0.612571
O O3 0.015670 0.460718 0.775765
O O4 0.933552 0.506296 0.666090
O O5 0.963428 0.750000 0.110147
O O6 0.044442 0.945380 0.083959
O O7 0.934704 0.020903 0.081970
O O8 0.800042 0.750000 0.999244
O O9 0.776568 0.985843 0.086086
O O10 0.854210 0.991229 0.964185
O O11 0.748836 0.971320 0.920399
O O12 0.247128 0.750000 0.863625
O O13 0.236766 0.966191 0.749105
O O14 0.324612 0.958662 0.848555
O O15 0.384588 0.750000 0.093528
O O16 0.352139 0.500949 0.150822
O O17 0.386391 0.519040 0.989153
O O18 0.605722 0.750000 0.503870
O O19 0.697125 0.750000 0.845631
O O20 0.102122 0.250000 0.391872
#
# Coordination Sequence:
#
# PCOD8253848 Si02
#       8
#     8   8   8   8   8   8   8   8
#     4  10  22  37  58  86 116 147 190 242 290 343
#     4   9  20  39  57  83 118 152 193 242 289 342
#     4  11  23  39  61  89 118 153 195 243 295 350
#     4  10  22  41  61  86 121 155 196 244 292 350
#     4  10  21  39  60  84 115 152 190 238 293 344
#     4  10  21  37  59  83 115 156 193 235 291 346
#     4  10  23  40  60  87 118 154 196 242 290 347
#     4  10  21  38  60  84 114 152 192 236 290 349
#
# _framework density 19.349491
#
# number of rings (size 3 to 8) (size 9 to 14) (size 15 to 20)
#    0.000    2.000    1.250    1.125    3.500    3.500 
#    0.000    0.000    0.000    0.000    0.000    0.000 
#    0.000    0.000    0.000    0.000    0.000    0.000 
#
# Total GULP energy -793942.790249 kJ/mol
# GULP energy per Si atom -12405.356098 kJ/mol
# Density = 1.930545 g / cm^3
# Si number density = 19.349491 Si / 1000 Ang^3
#
#
#
# Elastic Constant Matrix: (Units=GPa)
#
#
# Indices 1 2 3 4 5 6 
#
# 1 66.4435 26.3680 7.0564 0.0000 0.0000 0.0000
# 2 26.3680 49.3317 18.7939 0.0000 0.0000 0.0000
# 3 7.0564 18.7939 69.0626 0.0000 0.0000 0.0000
# 4 0.0000 0.0000 0.0000 28.4987 0.0000 0.0000
# 5 0.0000 0.0000 0.0000 0.0000 22.7832 0.0000
# 6 0.0000 0.0000 0.0000 0.0000 0.0000 40.2231
#
#
#
# Elastic Compliance Matrix: (Units=1/GPa)
#
#
# Indices 1 2 3 4 5 6 
#
# 1 0.019155 -0.010591 0.000925 0.000000 0.000000 0.000000
# 2 -0.010591 0.028471 -0.006666 0.000000 0.000000 0.000000
# 3 0.000925 -0.006666 0.016199 0.000000 0.000000 0.000000
# 4 0.000000 0.000000 0.000000 0.035089 0.000000 0.000000
# 5 0.000000 0.000000 0.000000 0.000000 0.043892 0.000000
# 6 0.000000 0.000000 0.000000 0.000000 0.000000 0.024861
#
#
# Mechanical properties :
#
#
# Convention : Reuss Voigt Hill
#
# Bulk Modulus (GPa) = 32.09027 32.14158 32.11593
# Shear Modulus (GPa) = 23.72833 27.14231 25.43532
#
# Velocity S-wave (km/s) = 3.50566 3.74938 3.62957
# Velocity P-wave (km/s) = 5.74515 5.94903 5.84798
#
# Compressibility (1/GPa) = 0.03116210
#
# Stress axis : x y z
#
# Youngs Moduli (GPa) = 52.20545 35.12321 61.73202
#
# Poissons Ratio (x) = 0.37198 -0.05710
# Poissons Ratio (y) = 0.55290 0.41149
# Poissons Ratio (z) = -0.04829 0.23412
#
# Static dielectric constant tensor:
#      x y z
#    x 3.532690 0.000000 0.000000 
#    y 0.000000 3.453710 0.000000 
#    z 0.000000 0.000000 3.603580 
# 
# 
# High freq. dielectric constant tensor:
#      x y z
#    x 1.762330 0.000000 0.000000 
#    y 0.000000 1.747660 0.000000 
#    z 0.000000 0.000000 1.759530 
# 
# From -- ./inp_files/20838.got.cif
#   From: 2010.03.12/outbox.cif.g09.slc.cpg/sg62_11_cif.got.tgz:20838.got - 2010.04.10 19:12:36.
