data_PCOD8253433
_publ_section_title
;
Structure prediction by ZEFSAII (Michael W. Deem and Ramdas Pophale) SiO2 
 PCOD8253433
Probable space group: P N M A
;
_chemical_formula_sum "Si O2"
_cell_formula_units_Z 64
_cell_length_a 22.180169
_cell_length_b 16.431542
_cell_length_c 8.653605
_cell_angle_alpha 90.000000
_cell_angle_beta 90.000000
_cell_angle_gamma 90.000000
_cell_volume 3153.844232
_symmetry_space_group_name_H-M "P N M A"
_symmetry_group_IT_number 62
_symmetry_cell_setting 'orthorhombic'
loop_
_space_group_symop_operation_xyz
x,y,z
1/2-x,-y,1/2+z
1/2+x,1/2-y,1/2-z
-x,1/2+y,-z
-x,-y,-z
1/2+x,y,1/2-z
1/2-x,1/2+y,1/2+z
x,1/2-y,z
loop_
_atom_site_type_symbol
_atom_site_label
_atom_site_fract_x
_atom_site_fract_y
_atom_site_fract_z
Si Si1 0.545577 0.512221 0.138008
Si Si2 0.554493 0.843344 0.365875
Si Si3 0.775390 0.155008 0.313098
Si Si4 0.467140 0.578794 0.568930
Si Si5 0.679305 0.974946 0.019746
Si Si6 0.679824 0.842822 0.487261
Si Si7 0.842646 0.656001 0.990001
Si Si8 0.768066 0.586234 0.258526
O O1 0.534362 0.599018 0.223324
O O2 0.532724 0.434222 0.247363
O O3 0.613480 0.506390 0.080304
O O4 0.500000 0.500000 0.000000
O O5 0.561392 0.750000 0.307951
O O6 0.505641 0.844955 0.505420
O O7 0.616149 0.881906 0.435846
O O8 0.788126 0.250000 0.324161
O O9 0.818144 0.114532 0.442237
O O10 0.792396 0.118517 0.144087
O O11 0.705018 0.136491 0.352199
O O12 0.500000 0.500000 0.500000
O O13 0.397884 0.593271 0.520589
O O14 0.728169 0.977513 0.158611
O O15 0.694581 0.038732 0.886722
O O16 0.666423 0.750000 0.523692
O O17 0.724964 0.850567 0.345111
O O18 0.863930 0.750000 0.980548
O O19 0.812193 0.640114 0.155040
#
# Coordination Sequence:
#
# PCOD8253433 Si02
#       8
#     8   8   8   8   8   8   8   8
#     4  11  26  43  61  93 125 166 207 269 313 366
#     4  10  22  43  69  91 120 167 215 261 313 380
#     4   9  21  38  62  93 126 162 202 255 317 382
#     4  10  24  41  65  85 123 164 215 259 308 370
#     4  11  24  37  61  91 128 162 207 249 314 369
#     4  10  20  38  63  92 124 157 202 258 315 371
#     4  10  22  42  66  94 127 166 210 258 318 380
#     4  11  23  36  62  94 129 164 203 254 310 383
#
# _framework density 20.292694999999998
#
# number of rings (size 3 to 8) (size 9 to 14) (size 15 to 20)
#    0.000    1.750    1.250    1.500   10.500    2.000 
#    0.000    1.250    0.000    0.000    0.000    0.000 
#    0.000    0.000    0.000    0.000    0.000    0.000 
#
# Total GULP energy -793298.682671 kJ/mol
# GULP energy per Si atom -12395.291917 kJ/mol
# Density = 2.024651 g / cm^3
# Si number density = 20.292695 Si / 1000 Ang^3
#
#
#
# Elastic Constant Matrix: (Units=GPa)
#
#
# Indices 1 2 3 4 5 6 
#
# 1 126.1515 38.8288 73.5501 0.0000 0.0000 0.0000
# 2 38.8288 64.6144 36.8530 0.0000 0.0000 0.0000
# 3 73.5501 36.8530 135.9301 0.0000 0.0000 0.0000
# 4 0.0000 0.0000 0.0000 31.4715 0.0000 0.0000
# 5 0.0000 0.0000 0.0000 0.0000 37.3441 0.0000
# 6 0.0000 0.0000 0.0000 0.0000 0.0000 30.8981
#
#
#
# Elastic Compliance Matrix: (Units=1/GPa)
#
#
# Indices 1 2 3 4 5 6 
#
# 1 0.012528 -0.004332 -0.005604 0.000000 0.000000 0.000000
# 2 -0.004332 0.019805 -0.003026 0.000000 0.000000 0.000000
# 3 -0.005604 -0.003026 0.011209 0.000000 0.000000 0.000000
# 4 0.000000 0.000000 0.000000 0.031775 0.000000 0.000000
# 5 0.000000 0.000000 0.000000 0.000000 0.026778 0.000000
# 6 0.000000 0.000000 0.000000 0.000000 0.000000 0.032364
#
#
# Mechanical properties :
#
#
# Convention : Reuss Voigt Hill
#
# Bulk Modulus (GPa) = 56.75695 69.46220 63.10957
# Shear Modulus (GPa) = 30.07414 31.77369 30.92391
#
# Velocity S-wave (km/s) = 3.85388 3.96127 3.90794
# Velocity P-wave (km/s) = 6.91614 7.43147 7.17843
#
# Compressibility (1/GPa) = 0.01761899
#
# Stress axis : x y z
#
# Youngs Moduli (GPa) = 79.82313 50.49163 89.21147
#
# Poissons Ratio (x) = 0.21873 0.49995
# Poissons Ratio (y) = 0.34579 0.26992
# Poissons Ratio (z) = 0.44734 0.15277
#
# Static dielectric constant tensor:
#      x y z
#    x 3.838160 0.000000 0.000000 
#    y 0.000000 3.738830 0.000000 
#    z 0.000000 0.000000 4.034930 
# 
# 
# High freq. dielectric constant tensor:
#      x y z
#    x 1.793970 0.000000 0.000000 
#    y 0.000000 1.788370 0.000000 
#    z 0.000000 0.000000 1.799360 
# 
# From -- ./inp_files/8912.got.cif
#   From: 2010.03.12/outbox.cif.g09.slc.cpg/sg62_5_cif.got.tgz:8912.got - 2010.04.10 19:12:36.
