data_PCOD8253628
_publ_section_title
;
Structure prediction by ZEFSAII (Michael W. Deem and Ramdas Pophale) SiO2 
 PCOD8253628
Probable space group: P N M A
;
_chemical_formula_sum "Si O2"
_cell_formula_units_Z 48
_cell_length_a 9.339220
_cell_length_b 30.635327
_cell_length_c 8.771569
_cell_angle_alpha 90.000000
_cell_angle_beta 90.000000
_cell_angle_gamma 90.000000
_cell_volume 2509.634121
_symmetry_space_group_name_H-M "P N M A"
_symmetry_group_IT_number 62
_symmetry_cell_setting 'orthorhombic'
loop_
_space_group_symop_operation_xyz
x,y,z
1/2-x,-y,1/2+z
1/2+x,1/2-y,1/2-z
-x,1/2+y,-z
-x,-y,-z
1/2+x,y,1/2-z
1/2-x,1/2+y,1/2+z
x,1/2-y,z
loop_
_atom_site_type_symbol
_atom_site_label
_atom_site_fract_x
_atom_site_fract_y
_atom_site_fract_z
Si Si1 0.641400 0.877566 0.641131
Si Si2 0.683355 0.959155 0.437720
Si Si3 0.682784 0.377163 0.436433
Si Si4 0.814748 0.200536 0.933889
Si Si5 0.863997 0.700496 0.144587
Si Si6 0.641873 0.041092 0.638674
O O1 0.703936 0.915540 0.535372
O O2 0.470092 0.879571 0.646848
O O3 0.693745 0.883502 0.812881
O O4 0.698735 0.831351 0.577745
O O5 0.806314 0.960512 0.311744
O O6 0.529620 0.960580 0.356148
O O7 0.705530 0.000252 0.547509
O O8 0.706176 0.330811 0.518760
O O9 0.698316 0.414826 0.561431
O O10 0.798856 0.250000 0.994732
O O11 0.692207 0.188909 0.812594
O O12 0.965924 0.193499 0.849284
O O13 0.821872 0.750000 0.100181
#
# Coordination Sequence:
#
# PCOD8253628 Si02
#       6
#     8   8   8   8   8   8
#     4  10  21  35  51  74 103 133 167 206 247 294
#     4  10  21  36  54  77 103 131 166 206 247 294
#     4  10  21  35  51  74 103 133 167 206 247 294
#     4   9  18  33  52  74 100 130 166 207 249 295
#     4   9  18  33  52  74 100 130 166 207 249 295
#     4  10  21  36  54  77 103 131 166 206 247 294
#
# _framework density 19.126294999999999
#
# number of rings (size 3 to 8) (size 9 to 14) (size 15 to 20)
#    0.000    2.333    0.000    2.000    0.000    4.000 
#    0.000    0.000    0.000    0.000    0.000    0.000 
#    0.000    0.000    0.000    0.000    0.000    0.000 
#
# Total GULP energy -595429.517157 kJ/mol
# GULP energy per Si atom -12404.781607 kJ/mol
# Density = 1.908276 g / cm^3
# Si number density = 19.126295 Si / 1000 Ang^3
#
#
#
# Elastic Constant Matrix: (Units=GPa)
#
#
# Indices 1 2 3 4 5 6 
#
# 1 17.6573 15.0191 4.6385 0.0000 0.0000 0.0000
# 2 15.0191 101.9491 21.1465 0.0000 0.0000 0.0000
# 3 4.6385 21.1465 41.8327 0.0000 0.0000 0.0000
# 4 0.0000 0.0000 0.0000 26.4956 0.0000 0.0000
# 5 0.0000 0.0000 0.0000 0.0000 40.1372 0.0000
# 6 0.0000 0.0000 0.0000 0.0000 0.0000 14.6501
#
#
#
# Elastic Compliance Matrix: (Units=1/GPa)
#
#
# Indices 1 2 3 4 5 6 
#
# 1 0.065008 -0.009028 -0.002644 0.000000 0.000000 0.000000
# 2 -0.009028 0.012212 -0.005172 0.000000 0.000000 0.000000
# 3 -0.002644 -0.005172 0.026812 0.000000 0.000000 0.000000
# 4 0.000000 0.000000 0.000000 0.037742 0.000000 0.000000
# 5 0.000000 0.000000 0.000000 0.000000 0.024915 0.000000
# 6 0.000000 0.000000 0.000000 0.000000 0.000000 0.068259
#
#
# Mechanical properties :
#
#
# Convention : Reuss Voigt Hill
#
# Bulk Modulus (GPa) = 14.21613 27.00525 20.61069
# Shear Modulus (GPa) = 17.11832 24.29890 20.70861
#
# Velocity S-wave (km/s) = 2.99493 3.56820 3.29406
# Velocity P-wave (km/s) = 4.40549 5.57908 5.02665
#
# Compressibility (1/GPa) = 0.07034263
#
# Stress axis : x y z
#
# Youngs Moduli (GPa) = 15.38271 81.88906 37.29625
#
# Poissons Ratio (x) = 0.73933 0.09862
# Poissons Ratio (y) = 0.13888 0.19289
# Poissons Ratio (z) = 0.04068 0.42352
#
# Static dielectric constant tensor:
#      x y z
#    x 3.367950 0.000000 0.000000 
#    y 0.000000 3.795650 0.000000 
#    z 0.000000 0.000000 3.220810 
# 
# 
# High freq. dielectric constant tensor:
#      x y z
#    x 1.734390 0.000000 0.000000 
#    y 0.000000 1.764410 0.000000 
#    z 0.000000 0.000000 1.731790 
# 
# From -- ./inp_files/4496.got.cif
#   From: 2010.03.12/outbox.cif.g09.slc.cpg/sg62_3_cif.got.tgz:4496.got - 2010.04.10 19:12:36.
