data_PCOD8253281
_publ_section_title
;
Structure prediction by ZEFSAII (Michael W. Deem and Ramdas Pophale) SiO2 
 PCOD8253281
Probable space group: P N M A
;
_chemical_formula_sum "Si O2"
_cell_formula_units_Z 48
_cell_length_a 13.976450
_cell_length_b 8.798386
_cell_length_c 20.257339
_cell_angle_alpha 90.000000
_cell_angle_beta 90.000000
_cell_angle_gamma 90.000000
_cell_volume 2491.049069
_symmetry_space_group_name_H-M "P N M A"
_symmetry_group_IT_number 62
_symmetry_cell_setting 'orthorhombic'
loop_
_space_group_symop_operation_xyz
x,y,z
1/2-x,-y,1/2+z
1/2+x,1/2-y,1/2-z
-x,1/2+y,-z
-x,-y,-z
1/2+x,y,1/2-z
1/2-x,1/2+y,1/2+z
x,1/2-y,z
loop_
_atom_site_type_symbol
_atom_site_label
_atom_site_fract_x
_atom_site_fract_y
_atom_site_fract_z
Si Si1 0.048811 0.070117 0.313524
Si Si2 0.545153 0.424311 0.437076
Si Si3 0.558753 0.927986 0.942354
Si Si4 0.740011 0.929201 0.639998
Si Si5 0.743578 0.422858 0.498428
Si Si6 0.451315 0.929524 0.312772
O O1 0.042744 0.250000 0.301698
O O2 0.157692 0.020181 0.330122
O O3 0.979959 0.013454 0.372396
O O4 0.010122 0.984615 0.250082
O O5 0.500000 0.500000 0.500000
O O6 0.510953 0.250000 0.429328
O O7 0.658313 0.435903 0.446324
O O8 0.514186 0.520126 0.374522
O O9 0.543214 0.750000 0.945781
O O10 0.667816 0.977377 0.953908
O O11 0.500000 0.000000 0.000000
O O12 0.728589 0.750000 0.643685
O O13 0.729815 0.976058 0.563480
O O14 0.655684 0.002110 0.683791
O O15 0.756194 0.250000 0.523603
O O16 0.441388 0.750000 0.312006
#
# Coordination Sequence:
#
# PCOD8253281 Si02
#       6
#     8   8   8   8   8   8
#     4  10  23  42  63  91 125 165 208 254 312 374
#     4  11  22  38  61  91 123 162 207 257 308 362
#     4  10  20  37  61  91 123 157 201 252 304 365
#     4  11  22  39  65  91 121 162 206 255 311 377
#     4  10  21  36  61  93 125 158 202 256 309 368
#     4  12  26  42  62  91 127 167 208 259 314 371
#
# _framework density 19.268991
#
# number of rings (size 3 to 8) (size 9 to 14) (size 15 to 20)
#    0.000    1.333    3.333    2.500    0.000    4.000 
#    0.000    3.333    0.000    0.000    0.000    0.000 
#    0.000    0.000    0.000    0.000    0.000    0.000 
#
# Total GULP energy -595244.339061 kJ/mol
# GULP energy per Si atom -12400.923730 kJ/mol
# Density = 1.922513 g / cm^3
# Si number density = 19.268991 Si / 1000 Ang^3
#
#
#
# Elastic Constant Matrix: (Units=GPa)
#
#
# Indices 1 2 3 4 5 6 
#
# 1 131.4063 34.6351 47.0966 0.0000 0.0000 0.0000
# 2 34.6351 66.9174 32.6088 0.0000 0.0000 0.0000
# 3 47.0966 32.6088 124.5620 0.0000 0.0000 0.0000
# 4 0.0000 0.0000 0.0000 36.3660 0.0000 0.0000
# 5 0.0000 0.0000 0.0000 0.0000 34.4594 0.0000
# 6 0.0000 0.0000 0.0000 0.0000 0.0000 26.7759
#
#
#
# Elastic Compliance Matrix: (Units=1/GPa)
#
#
# Indices 1 2 3 4 5 6 
#
# 1 0.009517 -0.003636 -0.002646 0.000000 0.000000 0.000000
# 2 -0.003636 0.018518 -0.003473 0.000000 0.000000 0.000000
# 3 -0.002646 -0.003473 0.009938 0.000000 0.000000 0.000000
# 4 0.000000 0.000000 0.000000 0.027498 0.000000 0.000000
# 5 0.000000 0.000000 0.000000 0.000000 0.029020 0.000000
# 6 0.000000 0.000000 0.000000 0.000000 0.000000 0.037347
#
#
# Mechanical properties :
#
#
# Convention : Reuss Voigt Hill
#
# Bulk Modulus (GPa) = 54.16579 61.28522 57.72550
# Shear Modulus (GPa) = 31.74542 33.42325 32.58433
#
# Velocity S-wave (km/s) = 4.06333 4.16933 4.11667
# Velocity P-wave (km/s) = 7.08418 7.41969 7.25387
#
# Compressibility (1/GPa) = 0.01846184
#
# Stress axis : x y z
#
# Youngs Moduli (GPa) = 105.07672 54.00095 100.62468
#
# Poissons Ratio (x) = 0.19636 0.26629
# Poissons Ratio (y) = 0.38207 0.34947
# Poissons Ratio (z) = 0.27808 0.18755
#
# Static dielectric constant tensor:
#      x y z
#    x 3.374420 0.000000 0.000000 
#    y 0.000000 3.556200 0.000000 
#    z 0.000000 0.000000 4.922630 
# 
# 
# High freq. dielectric constant tensor:
#      x y z
#    x 1.770550 0.000000 0.000000 
#    y 0.000000 1.751290 0.000000 
#    z 0.000000 0.000000 1.747750 
# 
# From -- ./inp_files/26856.got.cif
#   From: 2010.03.12/outbox.cif.g09.slc.cpg/sg62_14_cif.got.tgz:26856.got - 2010.04.10 19:12:36.
