data_PCOD8253103
_publ_section_title
;
Structure prediction by ZEFSAII (Michael W. Deem and Ramdas Pophale) SiO2 
 PCOD8253103
Probable space group: P N M A
;
_chemical_formula_sum "Si O2"
_cell_formula_units_Z 48
_cell_length_a 19.550071
_cell_length_b 8.576777
_cell_length_c 14.801459
_cell_angle_alpha 90.000000
_cell_angle_beta 90.000000
_cell_angle_gamma 90.000000
_cell_volume 2481.858310
_symmetry_space_group_name_H-M "P N M A"
_symmetry_group_IT_number 62
_symmetry_cell_setting 'orthorhombic'
loop_
_space_group_symop_operation_xyz
x,y,z
1/2-x,-y,1/2+z
1/2+x,1/2-y,1/2-z
-x,1/2+y,-z
-x,-y,-z
1/2+x,y,1/2-z
1/2-x,1/2+y,1/2+z
x,1/2-y,z
loop_
_atom_site_type_symbol
_atom_site_label
_atom_site_fract_x
_atom_site_fract_y
_atom_site_fract_z
Si Si1 0.987505 0.931041 0.224512
Si Si2 0.807713 0.429302 0.387627
Si Si3 0.169388 0.431354 0.799580
Si Si4 0.558857 0.067665 0.437588
Si Si5 0.696307 0.931498 0.512678
Si Si6 0.965958 0.431152 0.412043
O O1 0.004108 0.750000 0.210733
O O2 0.910849 0.971844 0.192238
O O3 0.998431 0.977025 0.328129
O O4 0.040172 0.032736 0.166078
O O5 0.786402 0.250000 0.400011
O O6 0.796781 0.475183 0.283090
O O7 0.762071 0.536102 0.451663
O O8 0.885274 0.460783 0.416966
O O9 0.180857 0.250000 0.780768
O O10 0.205595 0.480178 0.892279
O O11 0.566079 0.250000 0.455640
O O12 0.500000 0.000000 0.500000
O O13 0.630211 0.987645 0.458960
O O14 0.689883 0.750000 0.533361
O O15 0.983167 0.250000 0.401614
O O16 0.000000 0.500000 0.500000
#
# Coordination Sequence:
#
# PCOD8253103 Si02
#       6
#     8   8   8   8   8   8
#     4  10  20  36  60  88 119 154 195 242 295 353
#     4  10  22  41  62  87 120 156 200 247 298 358
#     4  10  20  37  62  87 116 155 197 241 296 358
#     4  12  23  37  59  89 123 157 198 244 297 355
#     4  12  24  39  61  88 121 159 200 248 302 357
#     4  10  21  39  64  90 119 156 200 247 297 354
#
# _framework density 19.340347999999999
#
# number of rings (size 3 to 8) (size 9 to 14) (size 15 to 20)
#    0.000    1.333    1.667    5.000    0.000    3.333 
#    3.000    0.000    0.000    0.000    0.000    0.000 
#    0.000    0.000    0.000    0.000    0.000    0.000 
#
# Total GULP energy -595528.994331 kJ/mol
# GULP energy per Si atom -12406.854049 kJ/mol
# Density = 1.929633 g / cm^3
# Si number density = 19.340348 Si / 1000 Ang^3
#
#
#
# Elastic Constant Matrix: (Units=GPa)
#
#
# Indices 1 2 3 4 5 6 
#
# 1 57.2322 21.2217 44.3880 0.0000 0.0000 0.0000
# 2 21.2217 69.4606 16.0452 0.0000 0.0000 0.0000
# 3 44.3880 16.0452 122.7048 0.0000 0.0000 0.0000
# 4 0.0000 0.0000 0.0000 40.1895 0.0000 0.0000
# 5 0.0000 0.0000 0.0000 0.0000 31.3507 0.0000
# 6 0.0000 0.0000 0.0000 0.0000 0.0000 30.0796
#
#
#
# Elastic Compliance Matrix: (Units=1/GPa)
#
#
# Indices 1 2 3 4 5 6 
#
# 1 0.026563 -0.006080 -0.008814 0.000000 0.000000 0.000000
# 2 -0.006080 0.016236 0.000076 0.000000 0.000000 0.000000
# 3 -0.008814 0.000076 0.011328 0.000000 0.000000 0.000000
# 4 0.000000 0.000000 0.000000 0.024882 0.000000 0.000000
# 5 0.000000 0.000000 0.000000 0.000000 0.031897 0.000000
# 6 0.000000 0.000000 0.000000 0.000000 0.000000 0.033245
#
#
# Mechanical properties :
#
#
# Convention : Reuss Voigt Hill
#
# Bulk Modulus (GPa) = 40.82861 45.85639 43.34250
# Shear Modulus (GPa) = 27.47988 31.50680 29.49334
#
# Velocity S-wave (km/s) = 3.77352 4.04055 3.90932
# Velocity P-wave (km/s) = 6.33580 6.74758 6.54493
#
# Compressibility (1/GPa) = 0.02449263
#
# Stress axis : x y z
#
# Youngs Moduli (GPa) = 37.64637 61.58971 88.27565
#
# Poissons Ratio (x) = 0.37444 0.77807
# Poissons Ratio (y) = 0.22887 -0.00672
# Poissons Ratio (z) = 0.33182 -0.00469
#
# Static dielectric constant tensor:
#      x y z
#    x 3.420970 0.000000 0.000000 
#    y 0.000000 3.760050 0.000000 
#    z 0.000000 0.000000 3.671730 
# 
# 
# High freq. dielectric constant tensor:
#      x y z
#    x 1.733330 0.000000 0.000000 
#    y 0.000000 1.770260 0.000000 
#    z 0.000000 0.000000 1.766090 
# 
# From -- ./inp_files/19585.got.cif
#   From: 2010.03.12/outbox.cif.g09.slc.cpg/sg62_10_cif.got.tgz:19585.got - 2010.04.10 19:12:36.
