data_PCOD8253367
_publ_section_title
;
Structure prediction by ZEFSAII (Michael W. Deem and Ramdas Pophale) SiO2 
 PCOD8253367
Probable space group: P N M A
;
_chemical_formula_sum "Si O2"
_cell_formula_units_Z 64
_cell_length_a 24.954684
_cell_length_b 9.125457
_cell_length_c 14.282385
_cell_angle_alpha 90.000000
_cell_angle_beta 90.000000
_cell_angle_gamma 90.000000
_cell_volume 3252.426071
_symmetry_space_group_name_H-M "P N M A"
_symmetry_group_IT_number 62
_symmetry_cell_setting 'orthorhombic'
loop_
_space_group_symop_operation_xyz
x,y,z
1/2-x,-y,1/2+z
1/2+x,1/2-y,1/2-z
-x,1/2+y,-z
-x,-y,-z
1/2+x,y,1/2-z
1/2-x,1/2+y,1/2+z
x,1/2-y,z
loop_
_atom_site_type_symbol
_atom_site_label
_atom_site_fract_x
_atom_site_fract_y
_atom_site_fract_z
Si Si1 0.758559 0.915146 0.574932
Si Si2 0.367083 0.422072 0.916103
Si Si3 0.114152 0.923007 0.206739
Si Si4 0.990094 0.076636 0.901409
Si Si5 0.949284 0.581466 0.459826
Si Si6 0.578725 0.416995 0.749505
Si Si7 0.188677 0.919077 0.746728
Si Si8 0.725969 0.917835 0.369307
O O1 0.782277 0.750000 0.583182
O O2 0.716264 0.949112 0.654872
O O3 0.724826 0.933154 0.480555
O O4 0.805230 0.033418 0.583604
O O5 0.372010 0.250000 0.935681
O O6 0.393507 0.463734 0.815967
O O7 0.395728 0.509155 0.999147
O O8 0.116029 0.750000 0.194048
O O9 0.064843 0.984858 0.145367
O O10 0.170830 0.988523 0.170215
O O11 0.986560 0.250000 0.916981
O O12 0.038203 0.035046 0.831910
O O13 0.000000 0.000000 0.000000
O O14 0.951051 0.750000 0.490823
O O15 0.951147 0.565762 0.348320
O O16 0.000000 0.500000 0.500000
O O17 0.597903 0.250000 0.735594
O O18 0.629075 0.521972 0.746309
O O19 0.185932 0.750000 0.719885
O O20 0.221784 0.998028 0.665713
O O21 0.731115 0.750000 0.336318
#
# Coordination Sequence:
#
# PCOD8253367 Si02
#       8
#     8   8   8   8   8   8   8   8
#     4  10  22  37  56  85 119 155 197 246 299 353
#     4  11  21  37  62  90 119 156 198 242 296 358
#     4   9  19  37  62  85 113 156 200 237 287 364
#     4  10  22  41  63  87 116 154 202 249 293 347
#     4  11  23  40  63  90 120 156 197 243 295 356
#     4  10  23  42  61  84 121 164 201 238 293 368
#     4  11  23  38  59  90 123 153 196 255 300 339
#     4  10  20  38  61  84 115 162 202 234 294 369
#
# _framework density 19.677617999999999
#
# number of rings (size 3 to 8) (size 9 to 14) (size 15 to 20)
#    0.000    1.750    1.250    2.625    1.750    7.500 
#    0.000    3.125    0.000    0.000    0.000    0.000 
#    0.000    0.000    0.000    0.000    0.000    0.000 
#
# Total GULP energy -793835.696174 kJ/mol
# GULP energy per Si atom -12403.682753 kJ/mol
# Density = 1.963283 g / cm^3
# Si number density = 19.677618 Si / 1000 Ang^3
#
#
#
# Elastic Constant Matrix: (Units=GPa)
#
#
# Indices 1 2 3 4 5 6 
#
# 1 110.2203 43.1661 26.7585 0.0000 0.0000 0.0000
# 2 43.1661 83.1457 36.8186 0.0000 0.0000 0.0000
# 3 26.7585 36.8186 96.2629 0.0000 0.0000 0.0000
# 4 0.0000 0.0000 0.0000 29.9084 0.0000 0.0000
# 5 0.0000 0.0000 0.0000 0.0000 34.6648 0.0000
# 6 0.0000 0.0000 0.0000 0.0000 0.0000 23.1053
#
#
#
# Elastic Compliance Matrix: (Units=1/GPa)
#
#
# Indices 1 2 3 4 5 6 
#
# 1 0.011484 -0.005476 -0.001098 0.000000 0.000000 0.000000
# 2 -0.005476 0.017091 -0.005015 0.000000 0.000000 0.000000
# 3 -0.001098 -0.005015 0.012611 0.000000 0.000000 0.000000
# 4 0.000000 0.000000 0.000000 0.033435 0.000000 0.000000
# 5 0.000000 0.000000 0.000000 0.000000 0.028848 0.000000
# 6 0.000000 0.000000 0.000000 0.000000 0.000000 0.043280
#
#
# Mechanical properties :
#
#
# Convention : Reuss Voigt Hill
#
# Bulk Modulus (GPa) = 55.52733 55.90171 55.71452
# Shear Modulus (GPa) = 28.42063 29.72806 29.07434
#
# Velocity S-wave (km/s) = 3.80453 3.89106 3.84804
# Velocity P-wave (km/s) = 6.89776 6.97550 6.93674
#
# Compressibility (1/GPa) = 0.01800915
#
# Stress axis : x y z
#
# Youngs Moduli (GPa) = 87.07936 58.51199 79.29346
#
# Poissons Ratio (x) = 0.32040 0.08705
# Poissons Ratio (y) = 0.47683 0.39763
# Poissons Ratio (z) = 0.09560 0.29342
#
# Static dielectric constant tensor:
#      x y z
#    x 3.515660 0.000000 0.000000 
#    y 0.000000 3.494910 0.000000 
#    z 0.000000 0.000000 3.980750 
# 
# 
# High freq. dielectric constant tensor:
#      x y z
#    x 1.774560 0.000000 0.000000 
#    y 0.000000 1.753350 0.000000 
#    z 0.000000 0.000000 1.781260 
# 
# From -- ./inp_files/20826.got.cif
#   From: 2010.03.12/outbox.cif.g09.slc.cpg/sg62_11_cif.got.tgz:20826.got - 2010.04.10 19:12:36.
