data_PCOD8253434
_publ_section_title
;
Structure prediction by ZEFSAII (Michael W. Deem and Ramdas Pophale) SiO2 
 PCOD8253434
Probable space group: P N M A
;
_chemical_formula_sum "Si O2"
_cell_formula_units_Z 64
_cell_length_a 14.237838
_cell_length_b 9.035205
_cell_length_c 24.851767
_cell_angle_alpha 90.000000
_cell_angle_beta 90.000000
_cell_angle_gamma 90.000000
_cell_volume 3196.975669
_symmetry_space_group_name_H-M "P N M A"
_symmetry_group_IT_number 62
_symmetry_cell_setting 'orthorhombic'
loop_
_space_group_symop_operation_xyz
x,y,z
1/2-x,-y,1/2+z
1/2+x,1/2-y,1/2-z
-x,1/2+y,-z
-x,-y,-z
1/2+x,y,1/2-z
1/2-x,1/2+y,1/2+z
x,1/2-y,z
loop_
_atom_site_type_symbol
_atom_site_label
_atom_site_fract_x
_atom_site_fract_y
_atom_site_fract_z
Si Si1 0.187724 0.579430 0.115584
Si Si2 0.095959 0.424030 0.017319
Si Si3 0.254871 0.923933 0.426467
Si Si4 0.894548 0.919965 0.361064
Si Si5 0.355644 0.076027 0.737146
Si Si6 0.954667 0.417874 0.259664
Si Si7 0.213309 0.918482 0.816519
Si Si8 0.544995 0.577536 0.050445
O O1 0.159418 0.750000 0.106329
O O2 0.127015 0.479440 0.075864
O O3 0.298780 0.554237 0.105291
O O4 0.164844 0.528290 0.176139
O O5 0.079001 0.250000 0.019949
O O6 0.177386 0.466645 0.975458
O O7 0.000000 0.500000 0.000000
O O8 0.254890 0.750000 0.414675
O O9 0.150292 0.980894 0.440122
O O10 0.292135 0.006115 0.374227
O O11 0.898351 0.750000 0.341081
O O12 0.983921 0.960524 0.397211
O O13 0.893267 0.027815 0.310151
O O14 0.345458 0.250000 0.744914
O O15 0.459230 0.027853 0.753175
O O16 0.283665 0.000964 0.777249
O O17 0.989055 0.250000 0.269587
O O18 0.891543 0.426644 0.206590
O O19 0.247475 0.750000 0.822540
O O20 0.545118 0.750000 0.037965
O O21 0.500000 0.500000 0.000000
#
# Coordination Sequence:
#
# PCOD8253434 Si02
#       8
#     8   8   8   8   8   8   8   8
#     4  10  22  40  63  92 123 160 209 258 310 373
#     4  11  25  43  64  89 122 165 215 267 315 370
#     4  10  23  42  62  89 124 164 208 252 308 378
#     4  10  20  38  63  92 124 161 204 248 305 377
#     4  11  23  40  64  91 125 169 211 255 309 377
#     4  11  24  39  59  91 126 160 206 258 313 372
#     4  11  24  41  63  94 128 162 204 258 315 368
#     4  10  21  37  61  91 121 154 196 244 299 366
#
# _framework density 20.018920000000001
#
# number of rings (size 3 to 8) (size 9 to 14) (size 15 to 20)
#    0.000    1.500    1.250    3.000    1.750    6.000 
#    0.000    0.000    0.000    0.000    0.000    0.000 
#    0.000    0.000    0.000    0.000    0.000    0.000 
#
# Total GULP energy -793958.259343 kJ/mol
# GULP energy per Si atom -12405.597802 kJ/mol
# Density = 1.997336 g / cm^3
# Si number density = 20.018920 Si / 1000 Ang^3
#
#
#
# Elastic Constant Matrix: (Units=GPa)
#
#
# Indices 1 2 3 4 5 6 
#
# 1 84.5774 22.5968 14.4311 0.0000 0.0000 0.0000
# 2 22.5968 65.8343 46.5792 0.0000 0.0000 0.0000
# 3 14.4311 46.5792 91.0617 0.0000 0.0000 0.0000
# 4 0.0000 0.0000 0.0000 39.7624 0.0000 0.0000
# 5 0.0000 0.0000 0.0000 0.0000 32.5028 0.0000
# 6 0.0000 0.0000 0.0000 0.0000 0.0000 29.3189
#
#
#
# Elastic Compliance Matrix: (Units=1/GPa)
#
#
# Indices 1 2 3 4 5 6 
#
# 1 0.013024 -0.004717 0.000349 0.000000 0.000000 0.000000
# 2 -0.004717 0.025513 -0.012303 0.000000 0.000000 0.000000
# 3 0.000349 -0.012303 0.017219 0.000000 0.000000 0.000000
# 4 0.000000 0.000000 0.000000 0.025149 0.000000 0.000000
# 5 0.000000 0.000000 0.000000 0.000000 0.030767 0.000000
# 6 0.000000 0.000000 0.000000 0.000000 0.000000 0.034108
#
#
# Mechanical properties :
#
#
# Convention : Reuss Voigt Hill
#
# Bulk Modulus (GPa) = 44.61387 45.40973 45.01180
# Shear Modulus (GPa) = 26.79607 30.84123 28.81865
#
# Velocity S-wave (km/s) = 3.66257 3.92931 3.79828
# Velocity P-wave (km/s) = 6.34193 6.58169 6.46292
#
# Compressibility (1/GPa) = 0.02241456
#
# Stress axis : x y z
#
# Youngs Moduli (GPa) = 76.77963 39.19520 58.07427
#
# Poissons Ratio (x) = 0.18490 -0.02026
# Poissons Ratio (y) = 0.36219 0.71448
# Poissons Ratio (z) = -0.02679 0.48221
#
# Static dielectric constant tensor:
#      x y z
#    x 3.789260 0.000000 0.000000 
#    y 0.000000 3.622080 0.000000 
#    z 0.000000 0.000000 3.588000 
# 
# 
# High freq. dielectric constant tensor:
#      x y z
#    x 1.795250 0.000000 0.000000 
#    y 0.000000 1.782540 0.000000 
#    z 0.000000 0.000000 1.787370 
# 
# From -- ./inp_files/29894.got.cif
#   From: 2010.03.12/outbox.cif.g09.slc.cpg/sg62_15_cif.got.tgz:29894.got - 2010.04.10 19:12:36.
