data_PCOD8253336
_publ_section_title
;
Structure prediction by ZEFSAII (Michael W. Deem and Ramdas Pophale) SiO2 
 PCOD8253336
Probable space group: P N M A
;
_chemical_formula_sum "Si O2"
_cell_formula_units_Z 40
_cell_length_a 18.824006
_cell_length_b 8.951062
_cell_length_c 12.411799
_cell_angle_alpha 90.000000
_cell_angle_beta 90.000000
_cell_angle_gamma 90.000000
_cell_volume 2091.324146
_symmetry_space_group_name_H-M "P N M A"
_symmetry_group_IT_number 62
_symmetry_cell_setting 'orthorhombic'
loop_
_space_group_symop_operation_xyz
x,y,z
1/2-x,-y,1/2+z
1/2+x,1/2-y,1/2-z
-x,1/2+y,-z
-x,-y,-z
1/2+x,y,1/2-z
1/2-x,1/2+y,1/2+z
x,1/2-y,z
loop_
_atom_site_type_symbol
_atom_site_label
_atom_site_fract_x
_atom_site_fract_y
_atom_site_fract_z
Si Si1 0.547947 0.074636 0.780389
Si Si2 0.340278 0.926055 0.038869
Si Si3 0.386819 0.426709 0.820792
Si Si4 0.566830 0.926907 0.557204
Si Si5 0.686731 0.926687 0.394309
O O1 0.552139 0.250000 0.754171
O O2 0.468522 0.024195 0.809126
O O3 0.575943 0.984727 0.677928
O O4 0.597107 0.028804 0.880226
O O5 0.336981 0.750000 0.020998
O O6 0.352947 0.001338 0.925146
O O7 0.266051 0.987786 0.086520
O O8 0.380670 0.250000 0.830873
O O9 0.344032 0.490349 0.717860
O O10 0.556674 0.750000 0.555782
O O11 0.637014 0.977507 0.492904
O O12 0.500000 0.000000 0.500000
O O13 0.687161 0.750000 0.385785
#
# Coordination Sequence:
#
# PCOD8253336 Si02
#       5
#     8   8   8   8   8
#     4  10  21  38  60  84 114 150 190 234 283 334
#     4  10  22  38  58  84 115 152 191 233 281 338
#     4  10  20  38  59  81 114 151 186 233 287 333
#     4  11  21  37  60  84 114 150 189 234 282 335
#     4   9  20  38  56  80 118 151 179 234 294 328
#
# _framework density 19.126638
#
# number of rings (size 3 to 8) (size 9 to 14) (size 15 to 20)
#    0.000    2.000    2.000    1.200    2.800    1.600 
#    0.000    2.000    0.000    0.000    0.000    0.000 
#    0.000    0.000    0.000    0.000    0.000    0.000 
#
# Total GULP energy -496119.769316 kJ/mol
# GULP energy per Si atom -12402.994233 kJ/mol
# Density = 1.908311 g / cm^3
# Si number density = 19.126638 Si / 1000 Ang^3
#
#
#
# Elastic Constant Matrix: (Units=GPa)
#
#
# Indices 1 2 3 4 5 6 
#
# 1 176.7332 31.2890 101.5792 0.0000 0.0000 0.0000
# 2 31.2890 35.1466 40.9719 0.0000 0.0000 0.0000
# 3 101.5792 40.9719 172.2496 0.0000 0.0000 0.0000
# 4 0.0000 0.0000 0.0000 39.5061 0.0000 0.0000
# 5 0.0000 0.0000 0.0000 0.0000 37.0623 0.0000
# 6 0.0000 0.0000 0.0000 0.0000 0.0000 15.4912
#
#
#
# Elastic Compliance Matrix: (Units=1/GPa)
#
#
# Indices 1 2 3 4 5 6 
#
# 1 0.008709 -0.002443 -0.004554 0.000000 0.000000 0.000000
# 2 -0.002443 0.040054 -0.008087 0.000000 0.000000 0.000000
# 3 -0.004554 -0.008087 0.010415 0.000000 0.000000 0.000000
# 4 0.000000 0.000000 0.000000 0.025313 0.000000 0.000000
# 5 0.000000 0.000000 0.000000 0.000000 0.026982 0.000000
# 6 0.000000 0.000000 0.000000 0.000000 0.000000 0.064553
#
#
# Mechanical properties :
#
#
# Convention : Reuss Voigt Hill
#
# Bulk Modulus (GPa) = 34.47209 81.31218 57.89213
# Shear Modulus (GPa) = 23.16284 32.43121 27.79702
#
# Velocity S-wave (km/s) = 3.48375 4.12224 3.81637
# Velocity P-wave (km/s) = 5.85186 8.07849 7.05359
#
# Compressibility (1/GPa) = 0.02900897
#
# Stress axis : x y z
#
# Youngs Moduli (GPa) = 114.83011 24.96611 96.01682
#
# Poissons Ratio (x) = 0.06100 0.43730
# Poissons Ratio (y) = 0.28058 0.77644
# Poissons Ratio (z) = 0.52298 0.20189
#
# Static dielectric constant tensor:
#      x y z
#    x 3.837430 0.000000 0.000000 
#    y 0.000000 3.296150 0.000000 
#    z 0.000000 0.000000 3.678960 
# 
# 
# High freq. dielectric constant tensor:
#      x y z
#    x 1.757970 0.000000 0.000000 
#    y 0.000000 1.717880 0.000000 
#    z 0.000000 0.000000 1.759400 
# 
# From -- ./inp_files/13827.got.cif
#   From: 2010.03.12/outbox.cif.g09.slc.cpg/sg62_7_cif.got.tgz:13827.got - 2010.04.10 19:12:36.
