data_PCOD8253727
_publ_section_title
;
Structure prediction by ZEFSAII (Michael W. Deem and Ramdas Pophale) SiO2 
 PCOD8253727
Probable space group: P N M A
;
_chemical_formula_sum "Si O2"
_cell_formula_units_Z 64
_cell_length_a 32.673826
_cell_length_b 8.630759
_cell_length_c 11.079844
_cell_angle_alpha 90.000000
_cell_angle_beta 90.000000
_cell_angle_gamma 90.000000
_cell_volume 3124.515097
_symmetry_space_group_name_H-M "P N M A"
_symmetry_group_IT_number 62
_symmetry_cell_setting 'orthorhombic'
loop_
_space_group_symop_operation_xyz
x,y,z
1/2-x,-y,1/2+z
1/2+x,1/2-y,1/2-z
-x,1/2+y,-z
-x,-y,-z
1/2+x,y,1/2-z
1/2-x,1/2+y,1/2+z
x,1/2-y,z
loop_
_atom_site_type_symbol
_atom_site_label
_atom_site_fract_x
_atom_site_fract_y
_atom_site_fract_z
Si Si1 0.595184 0.928143 0.371513
Si Si2 0.641658 0.433555 0.591296
Si Si3 0.277778 0.920987 0.522277
Si Si4 0.616705 0.066856 0.854822
Si Si5 0.475045 0.565340 0.115807
Si Si6 0.489932 0.568625 0.633436
Si Si7 0.334402 0.576797 0.751913
Si Si8 0.306426 0.930334 0.004302
O O1 0.581107 0.750000 0.369324
O O2 0.614543 0.969313 0.499496
O O3 0.557652 0.040337 0.344147
O O4 0.628215 0.959447 0.267089
O O5 0.637004 0.250000 0.563863
O O6 0.690173 0.479070 0.581198
O O7 0.623705 0.485466 0.718082
O O8 0.261982 0.750000 0.489416
O O9 0.303568 0.922431 0.642931
O O10 0.238386 0.023690 0.548718
O O11 0.618362 0.250000 0.863999
O O12 0.572287 0.011612 0.902318
O O13 0.654521 0.991426 0.929065
O O14 0.479814 0.750000 0.115917
O O15 0.487716 0.506178 0.249748
O O16 0.500000 0.500000 0.000000
O O17 0.500000 0.500000 0.500000
O O18 0.500259 0.750000 0.631149
O O19 0.352126 0.750000 0.773690
O O20 0.308772 0.519124 0.865779
O O21 0.309775 0.750000 0.027002
#
# Coordination Sequence:
#
# PCOD8253727 Si02
#       8
#     8   8   8   8   8   8   8   8
#     4  11  22  37  61  93 122 153 200 250 303 364
#     4   9  18  37  61  85 121 163 201 245 304 363
#     4   9  19  34  53  82 117 155 193 245 303 350
#     4   9  20  38  61  86 114 156 204 247 295 362
#     4  11  24  43  66  96 131 169 218 268 326 389
#     4  12  25  43  68  97 129 166 210 265 324 384
#     4   9  20  38  57  80 117 157 198 241 298 362
#     4  10  21  36  58  84 111 153 202 241 289 361
#
# _framework density 20.483177999999999
#
# number of rings (size 3 to 8) (size 9 to 14) (size 15 to 20)
#    0.000    2.000    0.000    4.125    3.500    3.500 
#    0.000    2.500    0.000    0.000    0.000    0.000 
#    0.000    0.000    0.000    0.000    0.000    0.000 
#
# Total GULP energy -793074.837579 kJ/mol
# GULP energy per Si atom -12391.794337 kJ/mol
# Density = 2.043656 g / cm^3
# Si number density = 20.483178 Si / 1000 Ang^3
#
#
#
# Elastic Constant Matrix: (Units=GPa)
#
#
# Indices 1 2 3 4 5 6 
#
# 1 136.5836 29.3927 32.9277 0.0000 0.0000 0.0000
# 2 29.3927 70.8376 32.9285 0.0000 0.0000 0.0000
# 3 32.9277 32.9285 63.1339 0.0000 0.0000 0.0000
# 4 0.0000 0.0000 0.0000 26.1923 0.0000 0.0000
# 5 0.0000 0.0000 0.0000 0.0000 20.3836 0.0000
# 6 0.0000 0.0000 0.0000 0.0000 0.0000 33.5007
#
#
#
# Elastic Compliance Matrix: (Units=1/GPa)
#
#
# Indices 1 2 3 4 5 6 
#
# 1 0.008574 -0.001952 -0.003454 0.000000 0.000000 0.000000
# 2 -0.001952 0.019079 -0.008933 0.000000 0.000000 0.000000
# 3 -0.003454 -0.008933 0.022300 0.000000 0.000000 0.000000
# 4 0.000000 0.000000 0.000000 0.038179 0.000000 0.000000
# 5 0.000000 0.000000 0.000000 0.000000 0.049059 0.000000
# 6 0.000000 0.000000 0.000000 0.000000 0.000000 0.029850
#
#
# Mechanical properties :
#
#
# Convention : Reuss Voigt Hill
#
# Bulk Modulus (GPa) = 47.00236 51.22812 49.11524
# Shear Modulus (GPa) = 24.65348 27.70241 26.17794
#
# Velocity S-wave (km/s) = 3.47305 3.68155 3.57882
# Velocity P-wave (km/s) = 6.25135 6.56779 6.41153
#
# Compressibility (1/GPa) = 0.02127553
#
# Stress axis : x y z
#
# Youngs Moduli (GPa) = 116.62792 52.41294 44.84361
#
# Poissons Ratio (x) = 0.10233 0.15488
# Poissons Ratio (y) = 0.22769 0.40058
# Poissons Ratio (z) = 0.40280 0.46820
#
# Static dielectric constant tensor:
#      x y z
#    x 4.135550 0.000000 0.000000 
#    y 0.000000 3.882640 0.000000 
#    z 0.000000 0.000000 3.890690 
# 
# 
# High freq. dielectric constant tensor:
#      x y z
#    x 1.814810 0.000000 0.000000 
#    y 0.000000 1.777980 0.000000 
#    z 0.000000 0.000000 1.806690 
# 
# From -- ./inp_files/15783.got.cif
#   From: 2010.03.12/outbox.cif.g09.slc.cpg/sg62_8_cif.got.tgz:15783.got - 2010.04.10 19:12:36.
