data_PCOD8253262
_publ_section_title
;
Structure prediction by ZEFSAII (Michael W. Deem and Ramdas Pophale) SiO2 
 PCOD8253262
Probable space group: P N M A
;
_chemical_formula_sum "Si O2"
_cell_formula_units_Z 64
_cell_length_a 30.369042
_cell_length_b 9.234935
_cell_length_c 11.810122
_cell_angle_alpha 90.000000
_cell_angle_beta 90.000000
_cell_angle_gamma 90.000000
_cell_volume 3312.221098
_symmetry_space_group_name_H-M "P N M A"
_symmetry_group_IT_number 62
_symmetry_cell_setting 'orthorhombic'
loop_
_space_group_symop_operation_xyz
x,y,z
1/2-x,-y,1/2+z
1/2+x,1/2-y,1/2-z
-x,1/2+y,-z
-x,-y,-z
1/2+x,y,1/2-z
1/2-x,1/2+y,1/2+z
x,1/2-y,z
loop_
_atom_site_type_symbol
_atom_site_label
_atom_site_fract_x
_atom_site_fract_y
_atom_site_fract_z
Si Si1 0.461214 0.081761 0.243289
Si Si2 0.951370 0.421730 0.742978
Si Si3 0.703996 0.081395 0.229732
Si Si4 0.576142 0.584569 0.994462
Si Si5 0.792662 0.585459 0.270802
Si Si6 0.877292 0.916491 0.879330
Si Si7 0.119461 0.418608 0.855143
Si Si8 0.337561 0.914958 0.998967
O O1 0.464901 0.250000 0.276932
O O2 0.458303 0.062201 0.107408
O O3 0.504243 0.997701 0.287035
O O4 0.419204 0.015251 0.305033
O O5 0.955992 0.250000 0.757272
O O6 0.944310 0.469107 0.612645
O O7 0.911217 0.477502 0.818252
O O8 0.713235 0.250000 0.214664
O O9 0.671909 0.048757 0.335184
O O10 0.681378 0.017615 0.116571
O O11 0.750702 0.008745 0.243675
O O12 0.590667 0.750000 0.006077
O O13 0.619193 0.496705 0.961065
O O14 0.782416 0.750000 0.236326
O O15 0.834718 0.529621 0.200081
O O16 0.801072 0.570764 0.404290
O O17 0.889736 0.750000 0.851227
O O18 0.877890 0.947114 0.011793
O O19 0.110640 0.250000 0.826401
O O20 0.351761 0.750000 0.978783
#
# Coordination Sequence:
#
# PCOD8253262 Si02
#       8
#     8   8   8   8   8   8   8   8
#     4  11  23  39  61  89 119 153 193 239 292 350
#     4  11  23  39  61  89 119 153 193 239 292 350
#     4  10  22  38  59  87 117 153 194 239 290 345
#     4  10  21  37  59  90 120 150 192 239 293 347
#     4  10  22  38  59  87 117 153 194 239 290 345
#     4  10  22  41  62  85 116 155 198 242 290 345
#     4  10  22  41  62  85 116 155 198 242 290 345
#     4  10  20  37  61  86 115 154 197 239 292 347
#
# _framework density 19.322382000000001
#
# number of rings (size 3 to 8) (size 9 to 14) (size 15 to 20)
#    0.000    1.750    2.500    1.125    1.750    4.000 
#    0.000    0.000    0.000    0.000    0.000    0.000 
#    0.000    0.000    0.000    0.000    0.000    0.000 
#
# Total GULP energy -793828.833504 kJ/mol
# GULP energy per Si atom -12403.575523 kJ/mol
# Density = 1.927840 g / cm^3
# Si number density = 19.322382 Si / 1000 Ang^3
#
#
#
# Elastic Constant Matrix: (Units=GPa)
#
#
# Indices 1 2 3 4 5 6 
#
# 1 130.5026 62.6851 32.1392 0.0000 0.0000 0.0000
# 2 62.6851 76.1095 35.2402 0.0000 0.0000 0.0000
# 3 32.1392 35.2402 97.8971 0.0000 0.0000 0.0000
# 4 0.0000 0.0000 0.0000 21.3368 0.0000 0.0000
# 5 0.0000 0.0000 0.0000 0.0000 23.6398 0.0000
# 6 0.0000 0.0000 0.0000 0.0000 0.0000 41.1918
#
#
#
# Elastic Compliance Matrix: (Units=1/GPa)
#
#
# Indices 1 2 3 4 5 6 
#
# 1 0.012698 -0.010233 -0.000485 0.000000 0.000000 0.000000
# 2 -0.010233 0.024014 -0.005285 0.000000 0.000000 0.000000
# 3 -0.000485 -0.005285 0.012276 0.000000 0.000000 0.000000
# 4 0.000000 0.000000 0.000000 0.046867 0.000000 0.000000
# 5 0.000000 0.000000 0.000000 0.000000 0.042302 0.000000
# 6 0.000000 0.000000 0.000000 0.000000 0.000000 0.024277
#
#
# Mechanical properties :
#
#
# Convention : Reuss Voigt Hill
#
# Bulk Modulus (GPa) = 58.88577 62.73756 60.81166
# Shear Modulus (GPa) = 24.98737 28.86333 26.92535
#
# Velocity S-wave (km/s) = 3.59999 3.86913 3.73698
# Velocity P-wave (km/s) = 6.91531 7.24566 7.08241
#
# Compressibility (1/GPa) = 0.01698203
#
# Stress axis : x y z
#
# Youngs Moduli (GPa) = 78.75516 41.64158 81.45713
#
# Poissons Ratio (x) = 0.42614 0.03949
# Poissons Ratio (y) = 0.80594 0.43050
# Poissons Ratio (z) = 0.03818 0.22007
#
# Static dielectric constant tensor:
#      x y z
#    x 3.411710 0.000000 0.000000 
#    y 0.000000 3.466340 0.000000 
#    z 0.000000 0.000000 3.692920 
# 
# 
# High freq. dielectric constant tensor:
#      x y z
#    x 1.754550 0.000000 0.000000 
#    y 0.000000 1.747770 0.000000 
#    z 0.000000 0.000000 1.760150 
# 
# From -- ./inp_files/15759.got.cif
#   From: 2010.03.12/outbox.cif.g09.slc.cpg/sg62_8_cif.got.tgz:15759.got - 2010.04.10 19:12:36.
