data_PCOD8253664
_publ_section_title
;
Structure prediction by ZEFSAII (Michael W. Deem and Ramdas Pophale) SiO2 
 PCOD8253664
Probable space group: P N M A
;
_chemical_formula_sum "Si O2"
_cell_formula_units_Z 64
_cell_length_a 18.176226
_cell_length_b 21.652862
_cell_length_c 8.406727
_cell_angle_alpha 90.000000
_cell_angle_beta 90.000000
_cell_angle_gamma 90.000000
_cell_volume 3308.612959
_symmetry_space_group_name_H-M "P N M A"
_symmetry_group_IT_number 62
_symmetry_cell_setting 'orthorhombic'
loop_
_space_group_symop_operation_xyz
x,y,z
1/2-x,-y,1/2+z
1/2+x,1/2-y,1/2-z
-x,1/2+y,-z
-x,-y,-z
1/2+x,y,1/2-z
1/2-x,1/2+y,1/2+z
x,1/2-y,z
loop_
_atom_site_type_symbol
_atom_site_label
_atom_site_fract_x
_atom_site_fract_y
_atom_site_fract_z
Si Si1 0.741161 0.431379 0.443470
Si Si2 0.844175 0.512635 0.235456
Si Si3 0.513912 0.818325 0.861276
Si Si4 0.468255 0.422115 0.395577
Si Si5 0.391702 0.535178 0.737931
Si Si6 0.084531 0.594876 0.234864
Si Si7 0.836638 0.319424 0.545410
Si Si8 0.555312 0.410900 0.938385
O O1 0.803123 0.476741 0.376363
O O2 0.710476 0.464743 0.599849
O O3 0.676336 0.421214 0.312456
O O4 0.772154 0.363330 0.480067
O O5 0.902123 0.463526 0.168317
O O6 0.881844 0.574842 0.308356
O O7 0.489405 0.750000 0.808666
O O8 0.511295 0.864116 0.714226
O O9 0.597361 0.817611 0.921007
O O10 0.455087 0.840374 0.998171
O O11 0.543645 0.462305 0.397615
O O12 0.451471 0.391237 0.565023
O O13 0.361513 0.464675 0.729291
O O14 0.427079 0.547821 0.908388
O O15 0.131838 0.653994 0.287872
O O16 0.023438 0.572905 0.362582
O O17 0.805803 0.250000 0.573854
#
# Coordination Sequence:
#
# PCOD8253664 Si02
#       8
#     8   8   8   8   8   8   8   8
#     4  12  24  37  58  87 126 159 202 249 303 374
#     4  12  22  37  57  92 125 157 194 251 315 364
#     4   9  20  39  62  84 110 153 205 245 289 356
#     4  11  21  35  62  91 123 153 198 254 307 357
#     4  11  21  36  58  91 122 157 197 246 313 364
#     4  11  19  35  59  89 116 150 196 250 302 362
#     4  10  22  40  58  79 115 163 201 239 297 363
#     4  10  21  35  61  85 118 151 192 246 305 358
#
# _framework density 19.343451999999999
#
# number of rings (size 3 to 8) (size 9 to 14) (size 15 to 20)
#    0.000    1.250    3.750    3.750    1.750    0.500 
#    0.000    3.125    0.000    1.500    0.000    0.000 
#    0.000    0.000    0.000    0.000    0.000    0.000 
#
# Total GULP energy -793157.599026 kJ/mol
# GULP energy per Si atom -12393.087485 kJ/mol
# Density = 1.929943 g / cm^3
# Si number density = 19.343452 Si / 1000 Ang^3
#
#
#
# Elastic Constant Matrix: (Units=GPa)
#
#
# Indices 1 2 3 4 5 6 
#
# 1 92.7545 50.9201 36.0803 0.0000 0.0000 0.0000
# 2 50.9201 137.3969 44.9788 0.0000 0.0000 0.0000
# 3 36.0803 44.9788 100.2045 0.0000 0.0000 0.0000
# 4 0.0000 0.0000 0.0000 17.5039 0.0000 0.0000
# 5 0.0000 0.0000 0.0000 0.0000 32.7899 0.0000
# 6 0.0000 0.0000 0.0000 0.0000 0.0000 23.8274
#
#
#
# Elastic Compliance Matrix: (Units=1/GPa)
#
#
# Indices 1 2 3 4 5 6 
#
# 1 0.014394 -0.004264 -0.003269 0.000000 0.000000 0.000000
# 2 -0.004264 0.009795 -0.002861 0.000000 0.000000 0.000000
# 3 -0.003269 -0.002861 0.012441 0.000000 0.000000 0.000000
# 4 0.000000 0.000000 0.000000 0.057130 0.000000 0.000000
# 5 0.000000 0.000000 0.000000 0.000000 0.030497 0.000000
# 6 0.000000 0.000000 0.000000 0.000000 0.000000 0.041969
#
#
# Mechanical properties :
#
#
# Convention : Reuss Voigt Hill
#
# Bulk Modulus (GPa) = 63.12621 66.03492 64.58057
# Shear Modulus (GPa) = 26.00178 28.04933 27.02555
#
# Velocity S-wave (km/s) = 3.67033 3.81211 3.74189
# Velocity P-wave (km/s) = 7.11808 7.32041 7.21996
#
# Compressibility (1/GPa) = 0.01584128
#
# Stress axis : x y z
#
# Youngs Moduli (GPa) = 69.47534 102.08997 80.38028
#
# Poissons Ratio (x) = 0.43535 0.26272
# Poissons Ratio (y) = 0.29627 0.23000
# Poissons Ratio (z) = 0.22708 0.29212
#
# Static dielectric constant tensor:
#      x y z
#    x 3.588370 0.000000 0.000000 
#    y 0.000000 3.612500 0.000000 
#    z 0.000000 0.000000 3.714010 
# 
# 
# High freq. dielectric constant tensor:
#      x y z
#    x 1.747440 0.000000 0.000000 
#    y 0.000000 1.733320 0.000000 
#    z 0.000000 0.000000 1.763030 
# 
# From -- ./inp_files/8079.got.cif
#   From: 2010.03.12/outbox.cif.g09.slc.cpg/sg62_5_cif.got.tgz:8079.got - 2010.04.10 19:12:36.
