data_PCOD8253293
_publ_section_title
;
Structure prediction by ZEFSAII (Michael W. Deem and Ramdas Pophale) SiO2 
 PCOD8253293
Probable space group: P N M A
;
_chemical_formula_sum "Si O2"
_cell_formula_units_Z 48
_cell_length_a 10.148851
_cell_length_b 8.564346
_cell_length_c 28.766567
_cell_angle_alpha 90.000000
_cell_angle_beta 90.000000
_cell_angle_gamma 90.000000
_cell_volume 2500.340280
_symmetry_space_group_name_H-M "P N M A"
_symmetry_group_IT_number 62
_symmetry_cell_setting 'orthorhombic'
loop_
_space_group_symop_operation_xyz
x,y,z
1/2-x,-y,1/2+z
1/2+x,1/2-y,1/2-z
-x,1/2+y,-z
-x,-y,-z
1/2+x,y,1/2-z
1/2-x,1/2+y,1/2+z
x,1/2-y,z
loop_
_atom_site_type_symbol
_atom_site_label
_atom_site_fract_x
_atom_site_fract_y
_atom_site_fract_z
Si Si1 0.782194 0.427889 0.109786
Si Si2 0.366141 0.567906 0.481050
Si Si3 0.796757 0.432294 0.216029
Si Si4 0.479384 0.429428 0.121157
Si Si5 0.383152 0.933085 0.030497
Si Si6 0.514402 0.568804 0.218549
O O1 0.823069 0.250000 0.099333
O O2 0.858776 0.540786 0.074475
O O3 0.820334 0.474310 0.162114
O O4 0.626795 0.450211 0.102046
O O5 0.500000 0.500000 0.500000
O O6 0.352734 0.750000 0.492291
O O7 0.253351 0.470624 0.506191
O O8 0.817325 0.250000 0.225815
O O9 0.647488 0.474631 0.230396
O O10 0.902288 0.530946 0.244273
O O11 0.448051 0.250000 0.132521
O O12 0.381068 0.491926 0.081815
O O13 0.457318 0.526089 0.168069
O O14 0.402995 0.750000 0.035275
O O15 0.500000 0.000000 0.000000
O O16 0.549161 0.750000 0.220398
#
# Coordination Sequence:
#
# PCOD8253293 Si02
#       6
#     8   8   8   8   8   8
#     4   9  19  37  62  87 116 154 200 243 293 356
#     4  12  25  41  61  86 122 160 199 247 300 356
#     4  10  21  40  64  88 119 159 201 243 298 360
#     4  10  20  37  62  90 120 156 199 245 296 351
#     4  12  23  38  62  91 121 155 200 246 292 347
#     4  11  22  38  61  91 124 155 198 250 299 353
#
# _framework density 19.197388
#
# number of rings (size 3 to 8) (size 9 to 14) (size 15 to 20)
#    0.000    1.333    1.667    6.500    0.000    3.333 
#    3.000    0.000    0.000    0.000    0.000    0.000 
#    0.000    0.000    0.000    0.000    0.000    0.000 
#
# Total GULP energy -595447.632497 kJ/mol
# GULP energy per Si atom -12405.159010 kJ/mol
# Density = 1.915369 g / cm^3
# Si number density = 19.197388 Si / 1000 Ang^3
#
#
#
# Elastic Constant Matrix: (Units=GPa)
#
#
# Indices 1 2 3 4 5 6 
#
# 1 85.9330 12.1357 48.3843 0.0000 0.0000 0.0000
# 2 12.1357 87.7501 27.1791 0.0000 0.0000 0.0000
# 3 48.3843 27.1791 103.2592 0.0000 0.0000 0.0000
# 4 0.0000 0.0000 0.0000 38.1112 0.0000 0.0000
# 5 0.0000 0.0000 0.0000 0.0000 31.7550 0.0000
# 6 0.0000 0.0000 0.0000 0.0000 0.0000 31.5368
#
#
#
# Elastic Compliance Matrix: (Units=1/GPa)
#
#
# Indices 1 2 3 4 5 6 
#
# 1 0.015809 0.000118 -0.007438 0.000000 0.000000 0.000000
# 2 0.000118 0.012408 -0.003321 0.000000 0.000000 0.000000
# 3 -0.007438 -0.003321 0.014044 0.000000 0.000000 0.000000
# 4 0.000000 0.000000 0.000000 0.026239 0.000000 0.000000
# 5 0.000000 0.000000 0.000000 0.000000 0.031491 0.000000
# 6 0.000000 0.000000 0.000000 0.000000 0.000000 0.031709
#
#
# Mechanical properties :
#
#
# Convention : Reuss Voigt Hill
#
# Bulk Modulus (GPa) = 47.67119 50.26006 48.96562
# Shear Modulus (GPa) = 31.25467 32.89682 32.07575
#
# Velocity S-wave (km/s) = 4.03931 4.14407 4.09202
# Velocity P-wave (km/s) = 6.82940 7.00965 6.92011
#
# Compressibility (1/GPa) = 0.02097703
#
# Stress axis : x y z
#
# Youngs Moduli (GPa) = 63.25709 80.59048 71.20504
#
# Poissons Ratio (x) = -0.00948 0.52965
# Poissons Ratio (y) = -0.00744 0.23648
# Poissons Ratio (z) = 0.47053 0.26765
#
# Static dielectric constant tensor:
#      x y z
#    x 3.232620 0.000000 0.000000 
#    y 0.000000 3.534440 0.000000 
#    z 0.000000 0.000000 3.633060 
# 
# 
# High freq. dielectric constant tensor:
#      x y z
#    x 1.730540 0.000000 0.000000 
#    y 0.000000 1.760030 0.000000 
#    z 0.000000 0.000000 1.756940 
# 
# From -- ./inp_files/32021.got.cif
#   From: 2010.03.12/outbox.cif.g09.slc.cpg/sg62_17_cif.got.tgz:32021.got - 2010.04.10 19:12:36.
