data_PCOD8253773
_publ_section_title
;
Structure prediction by ZEFSAII (Michael W. Deem and Ramdas Pophale) SiO2 
 PCOD8253773
Probable space group: P N M A
;
_chemical_formula_sum "Si O2"
_cell_formula_units_Z 64
_cell_length_a 33.398973
_cell_length_b 9.248382
_cell_length_c 11.333886
_cell_angle_alpha 90.000000
_cell_angle_beta 90.000000
_cell_angle_gamma 90.000000
_cell_volume 3500.883933
_symmetry_space_group_name_H-M "P N M A"
_symmetry_group_IT_number 62
_symmetry_cell_setting 'orthorhombic'
loop_
_space_group_symop_operation_xyz
x,y,z
1/2-x,-y,1/2+z
1/2+x,1/2-y,1/2-z
-x,1/2+y,-z
-x,-y,-z
1/2+x,y,1/2-z
1/2-x,1/2+y,1/2+z
x,1/2-y,z
loop_
_atom_site_type_symbol
_atom_site_label
_atom_site_fract_x
_atom_site_fract_y
_atom_site_fract_z
Si Si1 0.401573 0.082257 0.702248
Si Si2 0.701411 0.421605 0.929804
Si Si3 0.166245 0.085134 0.320765
Si Si4 0.284647 0.582095 0.588830
Si Si5 0.854665 0.083507 0.024642
Si Si6 0.051847 0.581432 0.596875
Si Si7 0.865208 0.082151 0.293100
Si Si8 0.023153 0.582191 0.338616
O O1 0.395759 0.250000 0.727579
O O2 0.389827 0.041101 0.568152
O O3 0.447527 0.039005 0.730212
O O4 0.373215 0.005680 0.796336
O O5 0.705113 0.250000 0.914051
O O6 0.744319 0.492877 0.917184
O O7 0.672285 0.485604 0.830718
O O8 0.684868 0.467145 0.056994
O O9 0.152436 0.250000 0.327302
O O10 0.199367 0.061308 0.220775
O O11 0.277352 0.750000 0.558049
O O12 0.316139 0.517042 0.495442
O O13 0.841469 0.250000 0.006296
O O14 0.872317 0.057795 0.154064
O O15 0.047723 0.750000 0.621714
O O16 0.095377 0.526990 0.638428
O O17 0.045864 0.541049 0.460133
O O18 0.017882 0.505027 0.675795
O O19 0.856075 0.250000 0.321132
O O20 0.011964 0.750000 0.337291
#
# Coordination Sequence:
#
# PCOD8253773 Si02
#       8
#     8   8   8   8   8   8   8   8
#     4   9  17  32  55  79 101 133 176 216 258 311
#     4  11  23  36  53  78 104 134 173 216 263 314
#     4   9  20  36  52  73 103 132 165 214 261 305
#     4  10  21  37  55  76 102 135 173 213 261 313
#     4   9  19  36  56  76 104 140 175 218 266 311
#     4   9  18  32  50  75 105 139 175 213 262 317
#     4  10  21  37  55  76 106 142 177 216 264 316
#     4   9  17  30  51  77 105 134 171 219 264 309
#
# _framework density 18.281096000000002
#
# number of rings (size 3 to 8) (size 9 to 14) (size 15 to 20)
#    0.000    2.500    0.000    1.500    1.750    4.000 
#    0.000    3.125    0.000    0.000    0.000    0.000 
#    0.000    0.000    0.000    0.000    0.000    0.000 
#
# Total GULP energy -793692.136367 kJ/mol
# GULP energy per Si atom -12401.439631 kJ/mol
# Density = 1.823949 g / cm^3
# Si number density = 18.281096 Si / 1000 Ang^3
#
#
#
# Elastic Constant Matrix: (Units=GPa)
#
#
# Indices 1 2 3 4 5 6 
#
# 1 90.8937 34.3508 26.2231 0.0000 0.0000 0.0000
# 2 34.3508 55.3945 23.4741 0.0000 0.0000 0.0000
# 3 26.2231 23.4741 66.6033 0.0000 0.0000 0.0000
# 4 0.0000 0.0000 0.0000 24.5232 0.0000 0.0000
# 5 0.0000 0.0000 0.0000 0.0000 19.4339 0.0000
# 6 0.0000 0.0000 0.0000 0.0000 0.0000 34.5828
#
#
#
# Elastic Compliance Matrix: (Units=1/GPa)
#
#
# Indices 1 2 3 4 5 6 
#
# 1 0.014883 -0.007931 -0.003065 0.000000 0.000000 0.000000
# 2 -0.007931 0.025448 -0.005847 0.000000 0.000000 0.000000
# 3 -0.003065 -0.005847 0.018282 0.000000 0.000000 0.000000
# 4 0.000000 0.000000 0.000000 0.040778 0.000000 0.000000
# 5 0.000000 0.000000 0.000000 0.000000 0.051456 0.000000
# 6 0.000000 0.000000 0.000000 0.000000 0.000000 0.028916
#
#
# Mechanical properties :
#
#
# Convention : Reuss Voigt Hill
#
# Bulk Modulus (GPa) = 40.11425 42.33195 41.22310
# Shear Modulus (GPa) = 22.54733 24.29755 23.42244
#
# Velocity S-wave (km/s) = 3.51574 3.64965 3.58332
# Velocity P-wave (km/s) = 6.20252 6.40049 6.30228
#
# Compressibility (1/GPa) = 0.02492880
#
# Stress axis : x y z
#
# Youngs Moduli (GPa) = 67.19000 39.29633 54.70004
#
# Poissons Ratio (x) = 0.31164 0.16764
# Poissons Ratio (y) = 0.53285 0.31981
# Poissons Ratio (z) = 0.20592 0.22975
#
# Static dielectric constant tensor:
#      x y z
#    x 3.389260 0.000000 0.000000 
#    y 0.000000 3.387180 0.000000 
#    z 0.000000 0.000000 3.427990 
# 
# 
# High freq. dielectric constant tensor:
#      x y z
#    x 1.707500 0.000000 0.000000 
#    y 0.000000 1.707930 0.000000 
#    z 0.000000 0.000000 1.704020 
# 
# From -- ./inp_files/15913.got.cif
#   From: 2010.03.12/outbox.cif.g09.slc.cpg/sg62_8_cif.got.tgz:15913.got - 2010.04.10 19:12:36.
