data_PCOD8253776
_publ_section_title
;
Structure prediction by ZEFSAII (Michael W. Deem and Ramdas Pophale) SiO2 
 PCOD8253776
Probable space group: P N M A
;
_chemical_formula_sum "Si O2"
_cell_formula_units_Z 56
_cell_length_a 20.237788
_cell_length_b 8.774094
_cell_length_c 16.252057
_cell_angle_alpha 90.000000
_cell_angle_beta 90.000000
_cell_angle_gamma 90.000000
_cell_volume 2885.849390
_symmetry_space_group_name_H-M "P N M A"
_symmetry_group_IT_number 62
_symmetry_cell_setting 'orthorhombic'
loop_
_space_group_symop_operation_xyz
x,y,z
1/2-x,-y,1/2+z
1/2+x,1/2-y,1/2-z
-x,1/2+y,-z
-x,-y,-z
1/2+x,y,1/2-z
1/2-x,1/2+y,1/2+z
x,1/2-y,z
loop_
_atom_site_type_symbol
_atom_site_label
_atom_site_fract_x
_atom_site_fract_y
_atom_site_fract_z
Si Si1 0.651272 0.070210 0.839798
Si Si2 0.105925 0.430743 0.315260
Si Si3 0.787481 0.571879 0.815463
Si Si4 0.548590 0.069163 0.566449
Si Si5 0.675417 0.429747 0.023795
Si Si6 0.468806 0.430547 0.256966
Si Si7 0.689084 0.426547 0.502517
O O1 0.639936 0.250000 0.830073
O O2 0.721179 0.024567 0.800261
O O3 0.595007 0.979263 0.793220
O O4 0.649524 0.015112 0.934912
O O5 0.106944 0.250000 0.313870
O O6 0.158558 0.490575 0.248530
O O7 0.126094 0.492420 0.405721
O O8 0.032853 0.489099 0.293315
O O9 0.771415 0.750000 0.802868
O O10 0.816799 0.539648 0.905587
O O11 0.543521 0.250000 0.562752
O O12 0.622851 0.013948 0.546222
O O13 0.500000 0.000000 0.500000
O O14 0.528497 0.010074 0.655288
O O15 0.678684 0.250000 0.025852
O O16 0.749051 0.487485 0.042405
O O17 0.469450 0.250000 0.269669
O O18 0.700238 0.250000 0.519723
#
# Coordination Sequence:
#
# PCOD8253776 Si02
#       7
#     8   8   8   8   8   8   8
#     4  10  21  37  55  82 118 149 186 239 293 343
#     4   9  19  36  58  83 109 144 195 243 286 342
#     4   9  17  34  59  82 108 145 187 230 282 343
#     4  11  23  39  59  86 121 154 190 236 288 348
#     4   9  19  36  58  83 111 146 190 241 291 340
#     4  11  23  39  59  83 114 155 197 238 288 347
#     4   9  19  35  55  81 113 146 184 233 282 338
#
# _framework density 19.405033
#
# number of rings (size 3 to 8) (size 9 to 14) (size 15 to 20)
#    0.000    2.286    0.000    2.143    2.000    4.571 
#    0.000    5.714    0.000    0.000    0.000    0.000 
#    0.000    0.000    0.000    0.000    0.000    0.000 
#
# Total GULP energy -694503.668801 kJ/mol
# GULP energy per Si atom -12401.851229 kJ/mol
# Density = 1.936087 g / cm^3
# Si number density = 19.405033 Si / 1000 Ang^3
#
#
#
# Elastic Constant Matrix: (Units=GPa)
#
#
# Indices 1 2 3 4 5 6 
#
# 1 114.2522 29.3213 51.5150 0.0000 0.0000 0.0000
# 2 29.3213 39.2207 26.2904 0.0000 0.0000 0.0000
# 3 51.5150 26.2904 85.1128 0.0000 0.0000 0.0000
# 4 0.0000 0.0000 0.0000 27.1679 0.0000 0.0000
# 5 0.0000 0.0000 0.0000 0.0000 39.6897 0.0000
# 6 0.0000 0.0000 0.0000 0.0000 0.0000 24.9677
#
#
#
# Elastic Compliance Matrix: (Units=1/GPa)
#
#
# Indices 1 2 3 4 5 6 
#
# 1 0.012938 -0.005578 -0.006108 0.000000 0.000000 0.000000
# 2 -0.005578 0.034560 -0.007299 0.000000 0.000000 0.000000
# 3 -0.006108 -0.007299 0.017700 0.000000 0.000000 0.000000
# 4 0.000000 0.000000 0.000000 0.036808 0.000000 0.000000
# 5 0.000000 0.000000 0.000000 0.000000 0.025195 0.000000
# 6 0.000000 0.000000 0.000000 0.000000 0.000000 0.040052
#
#
# Mechanical properties :
#
#
# Convention : Reuss Voigt Hill
#
# Bulk Modulus (GPa) = 36.72644 50.31545 43.52095
# Shear Modulus (GPa) = 23.33186 27.12900 25.23043
#
# Velocity S-wave (km/s) = 3.47127 3.74309 3.60974
# Velocity P-wave (km/s) = 5.91892 6.68329 6.31268
#
# Compressibility (1/GPa) = 0.02722834
#
# Stress axis : x y z
#
# Youngs Moduli (GPa) = 77.29112 28.93551 56.49596
#
# Poissons Ratio (x) = 0.16141 0.34506
# Poissons Ratio (y) = 0.43116 0.41235
# Poissons Ratio (z) = 0.47208 0.21119
#
# Static dielectric constant tensor:
#      x y z
#    x 3.731030 0.000000 0.000000 
#    y 0.000000 3.369880 0.000000 
#    z 0.000000 0.000000 3.631190 
# 
# 
# High freq. dielectric constant tensor:
#      x y z
#    x 1.763640 0.000000 0.000000 
#    y 0.000000 1.739850 0.000000 
#    z 0.000000 0.000000 1.764360 
# 
# From -- ./inp_files/20341.got.cif
#   From: 2010.03.12/outbox.cif.g09.slc.cpg/sg62_11_cif.got.tgz:20341.got - 2010.04.10 19:12:36.
