data_PCOD8253502
_publ_section_title
;
Structure prediction by ZEFSAII (Michael W. Deem and Ramdas Pophale) SiO2 
 PCOD8253502
Probable space group: P N M A
;
_chemical_formula_sum "Si O2"
_cell_formula_units_Z 40
_cell_length_a 8.891546
_cell_length_b 23.084331
_cell_length_c 9.000483
_cell_angle_alpha 90.000000
_cell_angle_beta 90.000000
_cell_angle_gamma 90.000000
_cell_volume 1847.397657
_symmetry_space_group_name_H-M "P N M A"
_symmetry_group_IT_number 62
_symmetry_cell_setting 'orthorhombic'
loop_
_space_group_symop_operation_xyz
x,y,z
1/2-x,-y,1/2+z
1/2+x,1/2-y,1/2-z
-x,1/2+y,-z
-x,-y,-z
1/2+x,y,1/2-z
1/2-x,1/2+y,1/2+z
x,1/2-y,z
loop_
_atom_site_type_symbol
_atom_site_label
_atom_site_fract_x
_atom_site_fract_y
_atom_site_fract_z
Si Si1 0.202147 0.524356 0.895897
Si Si2 0.507938 0.418106 0.183781
Si Si3 0.521592 0.684112 0.039613
Si Si4 0.672887 0.184771 0.697694
Si Si5 0.564058 0.087056 0.507186
O O1 0.375239 0.543321 0.911646
O O2 0.191705 0.455523 0.923635
O O3 0.135197 0.542234 0.732051
O O4 0.100128 0.556027 0.022750
O O5 0.457942 0.361032 0.094215
O O6 0.594244 0.397744 0.334041
O O7 0.528715 0.750000 0.976059
O O8 0.364663 0.673284 0.127732
O O9 0.653097 0.673488 0.160779
O O10 0.625454 0.250000 0.658471
O O11 0.564067 0.145905 0.597495
#
# Coordination Sequence:
#
# PCOD8253502 Si02
#       5
#     8   8   8   8   8
#     4   9  21  38  61  90 125 155 203 244 310 351
#     4  10  20  39  62  89 118 159 203 248 291 374
#     4  10  23  40  62  90 122 160 207 253 305 361
#     4  10  22  40  60  87 120 159 200 249 305 360
#     4   9  21  39  62  86 127 156 198 253 297 366
#
# _framework density 21.652079000000001
#
# number of rings (size 3 to 8) (size 9 to 14) (size 15 to 20)
#    1.200    1.200    0.000    1.200    2.800    4.000 
#    0.000    4.000    0.000    0.000    0.000    0.000 
#    0.000    0.000    0.000    0.000    0.000    0.000 
#
# Total GULP energy -495660.076645 kJ/mol
# GULP energy per Si atom -12391.501916 kJ/mol
# Density = 2.160280 g / cm^3
# Si number density = 21.652079 Si / 1000 Ang^3
#
#
#
# Elastic Constant Matrix: (Units=GPa)
#
#
# Indices 1 2 3 4 5 6 
#
# 1 54.3688 19.7593 5.8425 0.0000 0.0000 0.0000
# 2 19.7593 105.5628 56.0855 0.0000 0.0000 0.0000
# 3 5.8425 56.0855 84.3363 0.0000 0.0000 0.0000
# 4 0.0000 0.0000 0.0000 41.6440 0.0000 0.0000
# 5 0.0000 0.0000 0.0000 0.0000 20.8168 0.0000
# 6 0.0000 0.0000 0.0000 0.0000 0.0000 27.9646
#
#
#
# Elastic Compliance Matrix: (Units=1/GPa)
#
#
# Indices 1 2 3 4 5 6 
#
# 1 0.019891 -0.004625 0.001698 0.000000 0.000000 0.000000
# 2 -0.004625 0.015724 -0.010137 0.000000 0.000000 0.000000
# 3 0.001698 -0.010137 0.018481 0.000000 0.000000 0.000000
# 4 0.000000 0.000000 0.000000 0.024013 0.000000 0.000000
# 5 0.000000 0.000000 0.000000 0.000000 0.048038 0.000000
# 6 0.000000 0.000000 0.000000 0.000000 0.000000 0.035760
#
#
# Mechanical properties :
#
#
# Convention : Reuss Voigt Hill
#
# Bulk Modulus (GPa) = 35.75454 45.29361 40.52407
# Shear Modulus (GPa) = 25.33463 28.92378 27.12920
#
# Velocity S-wave (km/s) = 3.42435 3.65888 3.54356
# Velocity P-wave (km/s) = 5.67309 6.23010 5.95811
#
# Compressibility (1/GPa) = 0.02796848
#
# Stress axis : x y z
#
# Youngs Moduli (GPa) = 50.27282 63.59529 54.11031
#
# Poissons Ratio (x) = 0.29416 -0.09188
# Poissons Ratio (y) = 0.23253 0.54850
# Poissons Ratio (z) = -0.08536 0.64464
#
# Static dielectric constant tensor:
#      x y z
#    x 3.720120 0.000000 0.000000 
#    y 0.000000 3.801080 0.000000 
#    z 0.000000 0.000000 3.610420 
# 
# 
# High freq. dielectric constant tensor:
#      x y z
#    x 1.843960 0.000000 0.000000 
#    y 0.000000 1.848200 0.000000 
#    z 0.000000 0.000000 1.827220 
# 
# From -- ./inp_files/4389.got.cif
#   From: 2010.03.12/outbox.cif.g09.slc.cpg/sg62_3_cif.got.tgz:4389.got - 2010.04.10 19:12:36.
