data_PCOD8253378
_publ_section_title
;
Structure prediction by ZEFSAII (Michael W. Deem and Ramdas Pophale) SiO2 
 PCOD8253378
Probable space group: P N M A
;
_chemical_formula_sum "Si O2"
_cell_formula_units_Z 48
_cell_length_a 8.940576
_cell_length_b 10.659489
_cell_length_c 25.573105
_cell_angle_alpha 90.000000
_cell_angle_beta 90.000000
_cell_angle_gamma 90.000000
_cell_volume 2437.167325
_symmetry_space_group_name_H-M "P N M A"
_symmetry_group_IT_number 62
_symmetry_cell_setting 'orthorhombic'
loop_
_space_group_symop_operation_xyz
x,y,z
1/2-x,-y,1/2+z
1/2+x,1/2-y,1/2-z
-x,1/2+y,-z
-x,-y,-z
1/2+x,y,1/2-z
1/2-x,1/2+y,1/2+z
x,1/2-y,z
loop_
_atom_site_type_symbol
_atom_site_label
_atom_site_fract_x
_atom_site_fract_y
_atom_site_fract_z
Si Si1 0.835305 0.513329 0.303045
Si Si2 0.846108 0.111107 0.894605
Si Si3 0.159001 0.987453 0.883370
Si Si4 0.871053 0.397399 0.007978
Si Si5 0.661108 0.894361 0.201539
Si Si6 0.785327 0.750000 0.791987
Si Si7 0.633404 0.750000 0.684799
O O1 0.783779 0.596405 0.352134
O O2 0.765771 0.559157 0.248532
O O3 0.787787 0.372455 0.318180
O O4 0.012790 0.521669 0.297323
O O5 0.913924 0.250000 0.889201
O O6 0.777556 0.095366 0.953568
O O7 0.983589 0.018357 0.884932
O O8 0.219500 0.948721 0.941341
O O9 0.177632 0.869528 0.847260
O O10 0.256959 0.094872 0.855088
O O11 0.923723 0.250000 0.017071
O O12 0.000000 0.500000 0.000000
O O13 0.617905 0.750000 0.210629
O O14 0.748604 0.750000 0.731592
O O15 0.962764 0.750000 0.797301
#
# Coordination Sequence:
#
# PCOD8253378 Si02
#       7
#     8   8   8   8   8   4   4
#     4  12  24  41  61  87 121 158 203 249 309 360
#     4  10  20  38  61  88 121 157 199 253 299 361
#     4  11  21  37  61  90 120 160 200 251 301 362
#     4   9  19  35  61  91 121 158 207 252 310 362
#     4  12  25  40  61  89 122 160 200 249 303 372
#     4  12  24  40  58  90 120 158 202 249 299 366
#     4  12  22  38  60  86 128 154 202 249 297 366
#
# _framework density 19.694997000000001
#
# number of rings (size 3 to 8) (size 9 to 14) (size 15 to 20)
#    0.000    1.000    4.167    4.000    0.000    0.667 
#    0.000    0.833    0.000    0.000    0.000    0.000 
#    0.000    0.000    0.000    0.000    0.000    0.000 
#
# Total GULP energy -594821.971969 kJ/mol
# GULP energy per Si atom -12392.124416 kJ/mol
# Density = 1.965017 g / cm^3
# Si number density = 19.694997 Si / 1000 Ang^3
#
#
#
# Elastic Constant Matrix: (Units=GPa)
#
#
# Indices 1 2 3 4 5 6 
#
# 1 63.5914 -9.6356 38.4089 0.0000 0.0000 0.0000
# 2 -9.6356 73.9999 18.7272 0.0000 0.0000 0.0000
# 3 38.4089 18.7272 150.6447 0.0000 0.0000 0.0000
# 4 0.0000 0.0000 0.0000 33.5065 0.0000 0.0000
# 5 0.0000 0.0000 0.0000 0.0000 25.1633 0.0000
# 6 0.0000 0.0000 0.0000 0.0000 0.0000 19.4202
#
#
#
# Elastic Compliance Matrix: (Units=1/GPa)
#
#
# Indices 1 2 3 4 5 6 
#
# 1 0.019646 0.003950 -0.005500 0.000000 0.000000 0.000000
# 2 0.003950 0.014747 -0.002840 0.000000 0.000000 0.000000
# 3 -0.005500 -0.002840 0.008394 0.000000 0.000000 0.000000
# 4 0.000000 0.000000 0.000000 0.029845 0.000000 0.000000
# 5 0.000000 0.000000 0.000000 0.000000 0.039740 0.000000
# 6 0.000000 0.000000 0.000000 0.000000 0.000000 0.051493
#
#
# Mechanical properties :
#
#
# Convention : Reuss Voigt Hill
#
# Bulk Modulus (GPa) = 29.40706 42.58189 35.99447
# Shear Modulus (GPa) = 27.17687 31.66704 29.42195
#
# Velocity S-wave (km/s) = 3.71871 4.01418 3.86927
# Velocity P-wave (km/s) = 5.77945 6.56905 6.18686
#
# Compressibility (1/GPa) = 0.03400544
#
# Stress axis : x y z
#
# Youngs Moduli (GPa) = 50.90113 67.81189 119.13924
#
# Poissons Ratio (x) = -0.26786 0.65527
# Poissons Ratio (y) = -0.20106 0.33839
# Poissons Ratio (z) = 0.27996 0.19261
#
# Static dielectric constant tensor:
#      x y z
#    x 3.162090 0.000000 0.000000 
#    y 0.000000 3.989060 0.000000 
#    z 0.000000 0.000000 4.171880 
# 
# 
# High freq. dielectric constant tensor:
#      x y z
#    x 1.725150 0.000000 0.000000 
#    y 0.000000 1.791370 0.000000 
#    z 0.000000 0.000000 1.784760 
# 
# From -- ./inp_files/28841.got.cif
#   From: 2010.03.12/outbox.cif.g09.slc.cpg/sg62_15_cif.got.tgz:28841.got - 2010.04.10 19:12:36.
