data_PCOD8253097
_publ_section_title
;
Structure prediction by ZEFSAII (Michael W. Deem and Ramdas Pophale) SiO2 
 PCOD8253097
Probable space group: P N M A
;
_chemical_formula_sum "Si O2"
_cell_formula_units_Z 64
_cell_length_a 24.012261
_cell_length_b 9.129704
_cell_length_c 14.708570
_cell_angle_alpha 90.000000
_cell_angle_beta 90.000000
_cell_angle_gamma 90.000000
_cell_volume 3224.483836
_symmetry_space_group_name_H-M "P N M A"
_symmetry_group_IT_number 62
_symmetry_cell_setting 'orthorhombic'
loop_
_space_group_symop_operation_xyz
x,y,z
1/2-x,-y,1/2+z
1/2+x,1/2-y,1/2-z
-x,1/2+y,-z
-x,-y,-z
1/2+x,y,1/2-z
1/2-x,1/2+y,1/2+z
x,1/2-y,z
loop_
_atom_site_type_symbol
_atom_site_label
_atom_site_fract_x
_atom_site_fract_y
_atom_site_fract_z
Si Si1 0.617062 0.421824 0.094420
Si Si2 0.112743 0.918235 0.597009
Si Si3 0.347577 0.579654 0.396772
Si Si4 0.066421 0.580913 0.241872
Si Si5 0.060316 0.418881 0.758661
Si Si6 0.354872 0.583702 0.608780
Si Si7 0.240863 0.417837 0.403753
Si Si8 0.234858 0.585422 0.583819
O O1 0.605794 0.250000 0.080018
O O2 0.574488 0.487297 0.167034
O O3 0.679155 0.448426 0.136272
O O4 0.607626 0.502884 0.999589
O O5 0.095467 0.750000 0.583728
O O6 0.176255 0.931832 0.636805
O O7 0.070728 0.990879 0.667226
O O8 0.340122 0.750000 0.382571
O O9 0.400491 0.521769 0.339867
O O10 0.356659 0.540636 0.502407
O O11 0.290799 0.508015 0.356877
O O12 0.079904 0.750000 0.262387
O O13 0.105714 0.527049 0.161007
O O14 0.003036 0.559026 0.209520
O O15 0.073068 0.250000 0.736828
O O16 0.376029 0.750000 0.624220
O O17 0.290601 0.568421 0.645484
O O18 0.257497 0.250000 0.394517
O O19 0.236951 0.460095 0.509039
O O20 0.237066 0.750000 0.539197
#
# Coordination Sequence:
#
# PCOD8253097 Si02
#       8
#     8   8   8   8   8   8   8   8
#     4  10  21  38  59  82 112 147 179 219 274 328
#     4  10  20  36  60  87 112 141 180 224 271 325
#     4   9  19  37  59  81 110 147 180 218 273 329
#     4  11  24  39  55  78 108 144 190 235 269 315
#     4  10  23  41  56  76 109 147 188 230 272 320
#     4   9  18  35  58  82 111 145 177 217 273 327
#     4   9  17  30  53  85 113 137 173 220 268 323
#     4   8  16  32  54  81 113 144 173 212 268 331
#
# _framework density 19.848137000000001
#
# number of rings (size 3 to 8) (size 9 to 14) (size 15 to 20)
#    0.000    2.500    0.000    2.250    0.000    7.500 
#    0.000    3.750    0.000    0.000    0.000    0.000 
#    0.000    0.000    0.000    0.000    0.000    0.000 
#
# Total GULP energy -793293.249083 kJ/mol
# GULP energy per Si atom -12395.207017 kJ/mol
# Density = 1.980296 g / cm^3
# Si number density = 19.848137 Si / 1000 Ang^3
#
#
#
# Elastic Constant Matrix: (Units=GPa)
#
#
# Indices 1 2 3 4 5 6 
#
# 1 79.5752 33.0382 15.0803 0.0000 0.0000 0.0000
# 2 33.0382 76.3653 25.1466 0.0000 0.0000 0.0000
# 3 15.0803 25.1466 43.7981 0.0000 0.0000 0.0000
# 4 0.0000 0.0000 0.0000 27.0149 0.0000 0.0000
# 5 0.0000 0.0000 0.0000 0.0000 33.0816 0.0000
# 6 0.0000 0.0000 0.0000 0.0000 0.0000 31.5661
#
#
#
# Elastic Compliance Matrix: (Units=1/GPa)
#
#
# Indices 1 2 3 4 5 6 
#
# 1 0.015436 -0.006077 -0.001826 0.000000 0.000000 0.000000
# 2 -0.006077 0.018540 -0.008553 0.000000 0.000000 0.000000
# 3 -0.001826 -0.008553 0.028371 0.000000 0.000000 0.000000
# 4 0.000000 0.000000 0.000000 0.037017 0.000000 0.000000
# 5 0.000000 0.000000 0.000000 0.000000 0.030228 0.000000
# 6 0.000000 0.000000 0.000000 0.000000 0.000000 0.031680
#
#
# Mechanical properties :
#
#
# Convention : Reuss Voigt Hill
#
# Bulk Modulus (GPa) = 33.97096 38.47432 36.22264
# Shear Modulus (GPa) = 24.51051 26.76408 25.63729
#
# Velocity S-wave (km/s) = 3.51793 3.67610 3.59788
# Velocity P-wave (km/s) = 5.80118 6.11921 5.96231
#
# Compressibility (1/GPa) = 0.02943691
#
# Stress axis : x y z
#
# Youngs Moduli (GPa) = 64.78482 53.93657 35.24711
#
# Poissons Ratio (x) = 0.32776 0.06435
# Poissons Ratio (y) = 0.39369 0.30145
# Poissons Ratio (z) = 0.11828 0.46130
#
# Static dielectric constant tensor:
#      x y z
#    x 3.859710 0.000000 0.000000 
#    y 0.000000 3.611050 0.000000 
#    z 0.000000 0.000000 3.324710 
# 
# 
# High freq. dielectric constant tensor:
#      x y z
#    x 1.782190 0.000000 0.000000 
#    y 0.000000 1.776390 0.000000 
#    z 0.000000 0.000000 1.748020 
# 
# From -- ./inp_files/20992.got.cif
#   From: 2010.03.12/outbox.cif.g09.slc.cpg/sg62_11_cif.got.tgz:20992.got - 2010.04.10 19:12:36.
