data_PCOD8253673
_publ_section_title
;
Structure prediction by ZEFSAII (Michael W. Deem and Ramdas Pophale) SiO2 
 PCOD8253673
Probable space group: P N M A
;
_chemical_formula_sum "Si O2"
_cell_formula_units_Z 40
_cell_length_a 9.912608
_cell_length_b 20.217469
_cell_length_c 8.819347
_cell_angle_alpha 90.000000
_cell_angle_beta 90.000000
_cell_angle_gamma 90.000000
_cell_volume 1767.466326
_symmetry_space_group_name_H-M "P N M A"
_symmetry_group_IT_number 62
_symmetry_cell_setting 'orthorhombic'
loop_
_space_group_symop_operation_xyz
x,y,z
1/2-x,-y,1/2+z
1/2+x,1/2-y,1/2-z
-x,1/2+y,-z
-x,-y,-z
1/2+x,y,1/2-z
1/2-x,1/2+y,1/2+z
x,1/2-y,z
loop_
_atom_site_type_symbol
_atom_site_label
_atom_site_fract_x
_atom_site_fract_y
_atom_site_fract_z
Si Si1 0.279227 0.750000 0.159917
Si Si2 0.669239 0.148001 0.087047
Si Si3 0.480564 0.750000 0.422542
Si Si4 0.175469 0.509691 0.422868
Si Si5 0.579015 0.991023 0.758210
Si Si6 0.960399 0.149567 0.170626
O O1 0.346154 0.750000 0.323739
O O2 0.329593 0.684108 0.074047
O O3 0.117130 0.750000 0.178329
O O4 0.667250 0.069566 0.061940
O O5 0.802864 0.169341 0.181433
O O6 0.539164 0.173187 0.179448
O O7 0.475077 0.816165 0.524050
O O8 0.159216 0.538284 0.592898
O O9 0.315590 0.533065 0.344770
O O10 0.049299 0.533857 0.316551
O O11 0.526006 0.930099 0.656084
#
# Coordination Sequence:
#
# PCOD8253673 Si02
#       6
#     4   8   4   8   8   8
#     4  10  21  36  52  76 108 134 167 216 258 298
#     4   9  18  34  54  76 104 135 170 211 252 301
#     4  10  21  36  54  78 106 134 171 212 256 308
#     4   9  18  34  53  77 106 137 172 213 256 303
#     4   9  18  34  53  76 105 136 174 214 255 302
#     4   9  18  34  55  77 102 136 174 208 250 311
#
# _framework density 22.631266
#
# number of rings (size 3 to 8) (size 9 to 14) (size 15 to 20)
#    0.000    2.800    0.000    0.600    0.000    2.400 
#    0.000   24.000    0.000    0.000    0.000    0.000 
#    0.000    0.000    0.000    0.000    0.000    0.000 
#
# Total GULP energy -495708.011017 kJ/mol
# GULP energy per Si atom -12392.700275 kJ/mol
# Density = 2.257976 g / cm^3
# Si number density = 22.631266 Si / 1000 Ang^3
#
#
#
# Elastic Constant Matrix: (Units=GPa)
#
#
# Indices 1 2 3 4 5 6 
#
# 1 42.6896 13.8039 20.9910 0.0000 0.0000 0.0000
# 2 13.8039 34.7190 21.3547 0.0000 0.0000 0.0000
# 3 20.9910 21.3547 75.8365 0.0000 0.0000 0.0000
# 4 0.0000 0.0000 0.0000 24.4943 0.0000 0.0000
# 5 0.0000 0.0000 0.0000 0.0000 53.9089 0.0000
# 6 0.0000 0.0000 0.0000 0.0000 0.0000 17.2393
#
#
#
# Elastic Compliance Matrix: (Units=1/GPa)
#
#
# Indices 1 2 3 4 5 6 
#
# 1 0.028811 -0.007922 -0.005744 0.000000 0.000000 0.000000
# 2 -0.007922 0.037014 -0.008230 0.000000 0.000000 0.000000
# 3 -0.005744 -0.008230 0.017094 0.000000 0.000000 0.000000
# 4 0.000000 0.000000 0.000000 0.040826 0.000000 0.000000
# 5 0.000000 0.000000 0.000000 0.000000 0.018550 0.000000
# 6 0.000000 0.000000 0.000000 0.000000 0.000000 0.058007
#
#
# Mechanical properties :
#
#
# Convention : Reuss Voigt Hill
#
# Bulk Modulus (GPa) = 25.55780 29.50491 27.53136
# Shear Modulus (GPa) = 19.44498 25.60153 22.52325
#
# Velocity S-wave (km/s) = 2.93441 3.36705 3.15814
# Velocity P-wave (km/s) = 4.77479 5.30863 5.04877
#
# Compressibility (1/GPa) = 0.03912700
#
# Stress axis : x y z
#
# Youngs Moduli (GPa) = 34.70910 27.01647 58.50130
#
# Poissons Ratio (x) = 0.21402 0.33603
# Poissons Ratio (y) = 0.27497 0.48147
# Poissons Ratio (z) = 0.19937 0.22235
#
# Static dielectric constant tensor:
#      x y z
#    x 4.385940 0.000000 0.000000 
#    y 0.000000 3.833380 0.000000 
#    z 0.000000 0.000000 3.890850 
# 
# 
# High freq. dielectric constant tensor:
#      x y z
#    x 1.905580 0.000000 0.000000 
#    y 0.000000 1.852650 0.000000 
#    z 0.000000 0.000000 1.876280 
# 
# From -- ./inp_files/624.got.cif
#   From: 2010.03.12/outbox.cif.g09.slc.cpg/sg62_1_cif.got.tgz:624.got - 2010.04.10 19:12:36.
