data_PCOD8253608
_publ_section_title
;
Structure prediction by ZEFSAII (Michael W. Deem and Ramdas Pophale) SiO2 
 PCOD8253608
Probable space group: P N M A
;
_chemical_formula_sum "Si O2"
_cell_formula_units_Z 64
_cell_length_a 24.620513
_cell_length_b 23.893318
_cell_length_c 5.235434
_cell_angle_alpha 90.000000
_cell_angle_beta 90.000000
_cell_angle_gamma 90.000000
_cell_volume 3079.826490
_symmetry_space_group_name_H-M "P N M A"
_symmetry_group_IT_number 62
_symmetry_cell_setting 'orthorhombic'
loop_
_space_group_symop_operation_xyz
x,y,z
1/2-x,-y,1/2+z
1/2+x,1/2-y,1/2-z
-x,1/2+y,-z
-x,-y,-z
1/2+x,y,1/2-z
1/2-x,1/2+y,1/2+z
x,1/2-y,z
loop_
_atom_site_type_symbol
_atom_site_label
_atom_site_fract_x
_atom_site_fract_y
_atom_site_fract_z
Si Si1 0.367612 0.429981 0.208523
Si Si2 0.191275 0.314370 0.631298
Si Si3 0.982113 0.886896 0.911732
Si Si4 0.542499 0.900502 0.104267
Si Si5 0.427899 0.001157 0.597478
Si Si6 0.183362 0.007043 0.333947
Si Si7 0.267697 0.410013 0.514562
Si Si8 0.376431 0.685701 0.636788
O O1 0.419046 0.450310 0.382450
O O2 0.322134 0.394636 0.357304
O O3 0.394564 0.389744 0.989443
O O4 0.338946 0.486878 0.108155
O O5 0.208767 0.250000 0.591560
O O6 0.245401 0.352126 0.627451
O O7 0.165016 0.324258 0.906040
O O8 0.150511 0.333079 0.404447
O O9 0.002595 0.882572 0.622420
O O10 0.966876 0.950923 0.988868
O O11 0.929749 0.848791 0.925971
O O12 0.024339 0.867588 0.136502
O O13 0.544763 0.967668 0.159757
O O14 0.367904 0.976717 0.657730
O O15 0.220740 0.061655 0.342417
O O16 0.217599 0.954225 0.233106
O O17 0.394254 0.750000 0.653515
#
# Coordination Sequence:
#
# PCOD8253608 Si02
#       8
#     8   8   8   8   8   8   8   8
#     4  10  22  37  51  83 123 158 193 251 288 347
#     4  10  23  41  66  91 122 159 197 251 308 367
#     4  12  23  35  63  84 112 165 196 238 297 362
#     4  11  23  38  54  87 119 156 201 234 294 350
#     4  10  22  35  54  82 126 152 195 241 291 358
#     4  10  21  32  53  86 119 161 193 247 306 366
#     4  11  21  36  59  86 125 159 210 241 309 371
#     4  10  23  43  62  93 122 149 197 256 307 356
#
# _framework density 20.780393
#
# number of rings (size 3 to 8) (size 9 to 14) (size 15 to 20)
#    0.000    1.500    2.500    2.250    7.000    0.000 
#    0.000    0.000    0.000    1.500    0.000    2.625 
#    0.000    0.000    0.000    0.000    0.000    0.000 
#
# Total GULP energy -793199.945777 kJ/mol
# GULP energy per Si atom -12393.749153 kJ/mol
# Density = 2.073310 g / cm^3
# Si number density = 20.780393 Si / 1000 Ang^3
#
#
#
# Elastic Constant Matrix: (Units=GPa)
#
#
# Indices 1 2 3 4 5 6 
#
# 1 51.6095 13.3381 15.8484 0.0000 0.0000 0.0000
# 2 13.3381 48.6506 7.8939 0.0000 0.0000 0.0000
# 3 15.8484 7.8939 93.5211 0.0000 0.0000 0.0000
# 4 0.0000 0.0000 0.0000 18.6467 0.0000 0.0000
# 5 0.0000 0.0000 0.0000 0.0000 29.6718 0.0000
# 6 0.0000 0.0000 0.0000 0.0000 0.0000 30.8566
#
#
#
# Elastic Compliance Matrix: (Units=1/GPa)
#
#
# Indices 1 2 3 4 5 6 
#
# 1 0.021776 -0.005446 -0.003231 0.000000 0.000000 0.000000
# 2 -0.005446 0.022202 -0.000951 0.000000 0.000000 0.000000
# 3 -0.003231 -0.000951 0.011321 0.000000 0.000000 0.000000
# 4 0.000000 0.000000 0.000000 0.053629 0.000000 0.000000
# 5 0.000000 0.000000 0.000000 0.000000 0.033702 0.000000
# 6 0.000000 0.000000 0.000000 0.000000 0.000000 0.032408
#
#
# Mechanical properties :
#
#
# Convention : Reuss Voigt Hill
#
# Bulk Modulus (GPa) = 27.74441 29.77132 28.75786
# Shear Modulus (GPa) = 24.23574 26.28173 25.25874
#
# Velocity S-wave (km/s) = 3.41879 3.56017 3.49020
# Velocity P-wave (km/s) = 5.38186 5.59084 5.48734
#
# Compressibility (1/GPa) = 0.03604330
#
# Stress axis : x y z
#
# Youngs Moduli (GPa) = 45.92264 45.04073 88.33527
#
# Poissons Ratio (x) = 0.24529 0.28537
# Poissons Ratio (y) = 0.25009 0.08402
# Poissons Ratio (z) = 0.14835 0.04284
#
# Static dielectric constant tensor:
#      x y z
#    x 3.974100 0.000000 0.000000 
#    y 0.000000 3.351090 0.000000 
#    z 0.000000 0.000000 3.992660 
# 
# 
# High freq. dielectric constant tensor:
#      x y z
#    x 1.830270 0.000000 0.000000 
#    y 0.000000 1.755370 0.000000 
#    z 0.000000 0.000000 1.831090 
# 
# From -- ./inp_files/3315.got.cif
#   From: 2010.03.12/outbox.cif.g09.slc.cpg/sg62_2_cif.got.tgz:3315.got - 2010.04.10 19:12:36.
