data_PCOD8253703
_publ_section_title
;
Structure prediction by ZEFSAII (Michael W. Deem and Ramdas Pophale) SiO2 
 PCOD8253703
Probable space group: P N M A
;
_chemical_formula_sum "Si O2"
_cell_formula_units_Z 64
_cell_length_a 19.489046
_cell_length_b 8.725950
_cell_length_c 19.859352
_cell_angle_alpha 90.000000
_cell_angle_beta 90.000000
_cell_angle_gamma 90.000000
_cell_volume 3377.290158
_symmetry_space_group_name_H-M "P N M A"
_symmetry_group_IT_number 62
_symmetry_cell_setting 'orthorhombic'
loop_
_space_group_symop_operation_xyz
x,y,z
1/2-x,-y,1/2+z
1/2+x,1/2-y,1/2-z
-x,1/2+y,-z
-x,-y,-z
1/2+x,y,1/2-z
1/2-x,1/2+y,1/2+z
x,1/2-y,z
loop_
_atom_site_type_symbol
_atom_site_label
_atom_site_fract_x
_atom_site_fract_y
_atom_site_fract_z
Si Si1 0.567362 0.429881 0.967753
Si Si2 0.069035 0.070406 0.824709
Si Si3 0.791387 0.068849 0.509201
Si Si4 0.779083 0.931585 0.147093
Si Si5 0.186145 0.569183 0.094190
Si Si6 0.250311 0.430071 0.215584
Si Si7 0.607324 0.428903 0.819514
Si Si8 0.466431 0.068155 0.565652
O O1 0.567224 0.250000 0.979634
O O2 0.567569 0.469882 0.888031
O O3 0.500000 0.500000 0.000000
O O4 0.633167 0.498662 0.004968
O O5 0.068129 0.250000 0.835178
O O6 0.142187 0.009024 0.852383
O O7 0.059852 0.029861 0.745342
O O8 0.007172 0.000924 0.869113
O O9 0.797231 0.250000 0.505315
O O10 0.756898 0.014450 0.578721
O O11 0.745213 0.010963 0.448419
O O12 0.775466 0.750000 0.157137
O O13 0.739681 0.011246 0.208613
O O14 0.195423 0.750000 0.088885
O O15 0.192704 0.514319 0.171074
O O16 0.112063 0.513934 0.068452
O O17 0.239222 0.250000 0.212363
O O18 0.324218 0.471836 0.184855
O O19 0.628661 0.250000 0.817622
O O20 0.471049 0.250000 0.563161
O O21 0.500000 0.000000 0.500000
#
# Coordination Sequence:
#
# PCOD8253703 Si02
#       8
#     8   8   8   8   8   8   8   8
#     4  11  23  39  60  85 117 152 190 242 295 352
#     4   8  15  33  58  82 108 146 194 233 273 333
#     4  11  22  38  62  89 114 150 197 240 290 350
#     4   9  19  36  59  84 114 149 189 237 288 346
#     4  11  22  36  56  84 119 156 192 236 292 347
#     4  11  21  34  57  84 112 146 191 239 285 342
#     4   9  18  36  61  82 108 148 192 235 286 342
#     4  10  21  36  56  82 115 152 191 236 284 341
#
# _framework density 18.950105000000001
#
# number of rings (size 3 to 8) (size 9 to 14) (size 15 to 20)
#    0.000    2.000    1.250    3.750    0.000    3.500 
#    2.250    3.750    0.000    0.000    0.000    0.000 
#    0.000    0.000    0.000    0.000    0.000    0.000 
#
# Total GULP energy -793599.448081 kJ/mol
# GULP energy per Si atom -12399.991376 kJ/mol
# Density = 1.890697 g / cm^3
# Si number density = 18.950105 Si / 1000 Ang^3
#
#
#
# Elastic Constant Matrix: (Units=GPa)
#
#
# Indices 1 2 3 4 5 6 
#
# 1 109.0857 26.3164 51.4607 0.0000 0.0000 0.0000
# 2 26.3164 43.8039 28.4481 0.0000 0.0000 0.0000
# 3 51.4607 28.4481 121.9210 0.0000 0.0000 0.0000
# 4 0.0000 0.0000 0.0000 30.3255 0.0000 0.0000
# 5 0.0000 0.0000 0.0000 0.0000 37.4029 0.0000
# 6 0.0000 0.0000 0.0000 0.0000 0.0000 24.6865
#
#
#
# Elastic Compliance Matrix: (Units=1/GPa)
#
#
# Indices 1 2 3 4 5 6 
#
# 1 0.012217 -0.004703 -0.004059 0.000000 0.000000 0.000000
# 2 -0.004703 0.028717 -0.004715 0.000000 0.000000 0.000000
# 3 -0.004059 -0.004715 0.011015 0.000000 0.000000 0.000000
# 4 0.000000 0.000000 0.000000 0.032976 0.000000 0.000000
# 5 0.000000 0.000000 0.000000 0.000000 0.026736 0.000000
# 6 0.000000 0.000000 0.000000 0.000000 0.000000 0.040508
#
#
# Mechanical properties :
#
#
# Convention : Reuss Voigt Hill
#
# Bulk Modulus (GPa) = 40.01011 54.14013 47.07512
# Shear Modulus (GPa) = 26.67303 29.72201 28.19752
#
# Velocity S-wave (km/s) = 3.75579 3.96464 3.86163
# Velocity P-wave (km/s) = 6.32196 7.04200 6.69167
#
# Compressibility (1/GPa) = 0.02499368
#
# Stress axis : x y z
#
# Youngs Moduli (GPa) = 81.85609 34.82244 90.78124
#
# Poissons Ratio (x) = 0.16378 0.36848
# Poissons Ratio (y) = 0.38500 0.42807
# Poissons Ratio (z) = 0.33225 0.16420
#
# Static dielectric constant tensor:
#      x y z
#    x 2.372140 0.000000 0.000000 
#    y 0.000000 3.328520 0.000000 
#    z 0.000000 0.000000 4.175500 
# 
# 
# High freq. dielectric constant tensor:
#      x y z
#    x 1.725040 0.000000 0.000000 
#    y 0.000000 1.725280 0.000000 
#    z 0.000000 0.000000 1.752920 
# 
# From -- ./inp_files/24731.got.cif
#   From: 2010.03.12/outbox.cif.g09.slc.cpg/sg62_13_cif.got.tgz:24731.got - 2010.04.10 19:12:36.
