data_PCOD8253275
_publ_section_title
;
Structure prediction by ZEFSAII (Michael W. Deem and Ramdas Pophale) SiO2 
 PCOD8253275
Probable space group: P N M A
;
_chemical_formula_sum "Si O2"
_cell_formula_units_Z 28
_cell_length_a 5.006192
_cell_length_b 20.828509
_cell_length_c 12.103532
_cell_angle_alpha 90.000000
_cell_angle_beta 90.000000
_cell_angle_gamma 90.000000
_cell_volume 1262.053620
_symmetry_space_group_name_H-M "P N M A"
_symmetry_group_IT_number 62
_symmetry_cell_setting 'orthorhombic'
loop_
_space_group_symop_operation_xyz
x,y,z
1/2-x,-y,1/2+z
1/2+x,1/2-y,1/2-z
-x,1/2+y,-z
-x,-y,-z
1/2+x,y,1/2-z
1/2-x,1/2+y,1/2+z
x,1/2-y,z
loop_
_atom_site_type_symbol
_atom_site_label
_atom_site_fract_x
_atom_site_fract_y
_atom_site_fract_z
Si Si1 0.653310 0.617699 0.436954
Si Si2 0.874903 0.037745 0.602408
Si Si3 0.797853 0.594779 0.684384
Si Si4 0.356638 0.250000 0.677638
O O1 0.389231 0.574895 0.434502
O O2 0.759505 0.622171 0.561922
O O3 0.582794 0.688160 0.396157
O O4 0.890187 0.587270 0.358838
O O5 0.796711 0.983527 0.691062
O O6 0.000000 0.000000 0.500000
O O7 0.574316 0.621231 0.767535
O O8 0.551269 0.250000 0.782891
#
# Coordination Sequence:
#
# PCOD8253275 Si02
#       4
#     8   8   8   4
#     4  11  23  42  61  89 128 163 207 260 303 361
#     4  10  20  37  61  89 125 162 197 248 309 361
#     4  11  21  35  60  94 124 155 193 243 311 378
#     4  12  28  46  66  88 118 168 222 262 304 362
#
# _framework density 22.186060999999999
#
# number of rings (size 3 to 8) (size 9 to 14) (size 15 to 20)
#    0.000    1.143    0.000   10.286    0.000    6.857 
#    0.000    1.429    0.000    0.000    0.000    0.000 
#    0.000    0.000    0.000    0.000    0.000    0.000 
#
# Total GULP energy -347206.089956 kJ/mol
# GULP energy per Si atom -12400.217498 kJ/mol
# Density = 2.213556 g / cm^3
# Si number density = 22.186061 Si / 1000 Ang^3
#
#
#
# Elastic Constant Matrix: (Units=GPa)
#
#
# Indices 1 2 3 4 5 6 
#
# 1 150.9813 22.0878 25.6601 0.0000 0.0000 0.0000
# 2 22.0878 88.1620 31.7872 0.0000 0.0000 0.0000
# 3 25.6601 31.7872 55.9497 0.0000 0.0000 0.0000
# 4 0.0000 0.0000 0.0000 28.5390 0.0000 0.0000
# 5 0.0000 0.0000 0.0000 0.0000 31.8163 0.0000
# 6 0.0000 0.0000 0.0000 0.0000 0.0000 26.7306
#
#
#
# Elastic Compliance Matrix: (Units=1/GPa)
#
#
# Indices 1 2 3 4 5 6 
#
# 1 0.007225 -0.000774 -0.002874 0.000000 0.000000 0.000000
# 2 -0.000774 0.014348 -0.007797 0.000000 0.000000 0.000000
# 3 -0.002874 -0.007797 0.023621 0.000000 0.000000 0.000000
# 4 0.000000 0.000000 0.000000 0.035040 0.000000 0.000000
# 5 0.000000 0.000000 0.000000 0.000000 0.031430 0.000000
# 6 0.000000 0.000000 0.000000 0.000000 0.000000 0.037410
#
#
# Mechanical properties :
#
#
# Convention : Reuss Voigt Hill
#
# Bulk Modulus (GPa) = 44.83353 50.46260 47.64806
# Shear Modulus (GPa) = 27.87105 31.78770 29.82937
#
# Velocity S-wave (km/s) = 3.54819 3.78931 3.67073
# Velocity P-wave (km/s) = 6.08589 6.47609 6.28402
#
# Compressibility (1/GPa) = 0.02230474
#
# Stress axis : x y z
#
# Youngs Moduli (GPa) = 138.40847 69.69739 42.33566
#
# Poissons Ratio (x) = 0.05394 0.12167
# Poissons Ratio (y) = 0.10712 0.33007
# Poissons Ratio (z) = 0.39777 0.54340
#
# Static dielectric constant tensor:
#      x y z
#    x 4.398340 0.000000 0.000000 
#    y 0.000000 4.023360 0.000000 
#    z 0.000000 0.000000 3.832830 
# 
# 
# High freq. dielectric constant tensor:
#      x y z
#    x 1.902310 0.000000 0.000000 
#    y 0.000000 1.843680 0.000000 
#    z 0.000000 0.000000 1.868180 
# 
# From -- ./inp_files/10628.got.cif
#   From: 2010.03.12/outbox.cif.g09.slc.cpg/sg62_6_cif.got.tgz:10628.got - 2010.04.10 19:12:36.
