data_PCOD8253994
_publ_section_title
;
Structure prediction by ZEFSAII (Michael W. Deem and Ramdas Pophale) SiO2 
 PCOD8253994
Probable space group: P N M A
;
_chemical_formula_sum "Si O2"
_cell_formula_units_Z 56
_cell_length_a 13.439348
_cell_length_b 15.798400
_cell_length_c 13.170103
_cell_angle_alpha 90.000000
_cell_angle_beta 90.000000
_cell_angle_gamma 90.000000
_cell_volume 2796.278843
_symmetry_space_group_name_H-M "P N M A"
_symmetry_group_IT_number 62
_symmetry_cell_setting 'orthorhombic'
loop_
_space_group_symop_operation_xyz
x,y,z
1/2-x,-y,1/2+z
1/2+x,1/2-y,1/2-z
-x,1/2+y,-z
-x,-y,-z
1/2+x,y,1/2-z
1/2-x,1/2+y,1/2+z
x,1/2-y,z
loop_
_atom_site_type_symbol
_atom_site_label
_atom_site_fract_x
_atom_site_fract_y
_atom_site_fract_z
Si Si1 0.871939 0.651528 0.373808
Si Si2 0.341008 0.074685 0.617710
Si Si3 0.313278 0.350481 0.106733
Si Si4 0.696800 0.459686 0.557177
Si Si5 0.960682 0.845617 0.161671
Si Si6 0.308931 0.941077 0.772176
Si Si7 0.040783 0.150157 0.416105
O O1 0.850738 0.750000 0.388285
O O2 0.767349 0.607672 0.351391
O O3 0.945318 0.632798 0.280260
O O4 0.923613 0.613676 0.474757
O O5 0.423107 0.146768 0.633849
O O6 0.340515 0.043295 0.501630
O O7 0.368470 0.995028 0.688519
O O8 0.298500 0.250000 0.092858
O O9 0.269800 0.380085 0.215153
O O10 0.428417 0.377690 0.105716
O O11 0.263410 0.398979 0.012888
O O12 0.600780 0.407844 0.590940
O O13 0.757136 0.491859 0.653759
O O14 0.926171 0.750000 0.139323
O O15 0.388720 0.883928 0.828471
O O16 0.049790 0.250000 0.416456
#
# Coordination Sequence:
#
# PCOD8253994 Si02
#       7
#     8   8   8   8   8   8   8
#     4  10  21  38  60  90 123 156 207 255 303 367
#     4  11  23  40  61  89 122 162 207 252 312 365
#     4  10  24  44  65  92 127 167 208 253 315 377
#     4  11  23  41  63  92 125 161 204 260 308 365
#     4  11  24  41  62  89 125 165 203 250 311 372
#     4  11  23  39  65  93 126 159 204 264 306 364
#     4  10  22  41  66  92 121 164 208 251 309 371
#
# _framework density 20.026616000000001
#
# number of rings (size 3 to 8) (size 9 to 14) (size 15 to 20)
#    0.000    1.429    2.857    1.714    4.000    0.571 
#    0.000    0.000    0.000    0.000    0.000    0.000 
#    0.000    0.000    0.000    0.000    0.000    0.000 
#
# Total GULP energy -694578.642792 kJ/mol
# GULP energy per Si atom -12403.190050 kJ/mol
# Density = 1.998103 g / cm^3
# Si number density = 20.026616 Si / 1000 Ang^3
#
#
#
# Elastic Constant Matrix: (Units=GPa)
#
#
# Indices 1 2 3 4 5 6 
#
# 1 123.3562 34.2878 46.8593 0.0000 0.0000 0.0000
# 2 34.2878 48.7685 27.7924 0.0000 0.0000 0.0000
# 3 46.8593 27.7924 97.2351 0.0000 0.0000 0.0000
# 4 0.0000 0.0000 0.0000 37.9089 0.0000 0.0000
# 5 0.0000 0.0000 0.0000 0.0000 28.1527 0.0000
# 6 0.0000 0.0000 0.0000 0.0000 0.0000 34.8989
#
#
#
# Elastic Compliance Matrix: (Units=1/GPa)
#
#
# Indices 1 2 3 4 5 6 
#
# 1 0.011101 -0.005682 -0.003726 0.000000 0.000000 0.000000
# 2 -0.005682 0.027403 -0.005094 0.000000 0.000000 0.000000
# 3 -0.003726 -0.005094 0.013536 0.000000 0.000000 0.000000
# 4 0.000000 0.000000 0.000000 0.026379 0.000000 0.000000
# 5 0.000000 0.000000 0.000000 0.000000 0.035521 0.000000
# 6 0.000000 0.000000 0.000000 0.000000 0.000000 0.028654
#
#
# Mechanical properties :
#
#
# Convention : Reuss Voigt Hill
#
# Bulk Modulus (GPa) = 43.40984 54.13764 48.77374
# Shear Modulus (GPa) = 27.88989 30.88678 29.38833
#
# Velocity S-wave (km/s) = 3.73586 3.93146 3.83490
# Velocity P-wave (km/s) = 6.35075 6.90652 6.63445
#
# Compressibility (1/GPa) = 0.02303625
#
# Stress axis : x y z
#
# Youngs Moduli (GPa) = 90.08023 36.49261 73.87679
#
# Poissons Ratio (x) = 0.20734 0.27526
# Poissons Ratio (y) = 0.51180 0.37636
# Poissons Ratio (z) = 0.33563 0.18591
#
# Static dielectric constant tensor:
#      x y z
#    x 3.603830 0.000000 0.000000 
#    y 0.000000 3.652590 0.000000 
#    z 0.000000 0.000000 3.809250 
# 
# 
# High freq. dielectric constant tensor:
#      x y z
#    x 1.781850 0.000000 0.000000 
#    y 0.000000 1.787460 0.000000 
#    z 0.000000 0.000000 1.792930 
# 
# From -- ./inp_files/13368.got.cif
#   From: 2010.03.12/outbox.cif.g09.slc.cpg/sg62_7_cif.got.tgz:13368.got - 2010.04.10 19:12:36.
