data_PCOD8253944
_publ_section_title
;
Structure prediction by ZEFSAII (Michael W. Deem and Ramdas Pophale) SiO2 
 PCOD8253944
Probable space group: P N M A
;
_chemical_formula_sum "Si O2"
_cell_formula_units_Z 48
_cell_length_a 28.903980
_cell_length_b 8.747324
_cell_length_c 10.186410
_cell_angle_alpha 90.000000
_cell_angle_beta 90.000000
_cell_angle_gamma 90.000000
_cell_volume 2575.455282
_symmetry_space_group_name_H-M "P N M A"
_symmetry_group_IT_number 62
_symmetry_cell_setting 'orthorhombic'
loop_
_space_group_symop_operation_xyz
x,y,z
1/2-x,-y,1/2+z
1/2+x,1/2-y,1/2-z
-x,1/2+y,-z
-x,-y,-z
1/2+x,y,1/2-z
1/2-x,1/2+y,1/2+z
x,1/2-y,z
loop_
_atom_site_type_symbol
_atom_site_label
_atom_site_fract_x
_atom_site_fract_y
_atom_site_fract_z
Si Si1 0.215754 0.071386 0.503148
Si Si2 0.112815 0.076698 0.245784
Si Si3 0.881133 0.071658 0.482634
Si Si4 0.029801 0.430217 0.616411
Si Si5 0.783950 0.925522 0.797101
Si Si6 0.483802 0.927173 0.633403
O O1 0.205059 0.250000 0.508910
O O2 0.227938 0.025256 0.352816
O O3 0.170303 0.983637 0.552377
O O4 0.257465 0.031121 0.599808
O O5 0.112093 0.250000 0.302635
O O6 0.161676 0.047052 0.174576
O O7 0.071666 0.051457 0.142693
O O8 0.106063 0.962384 0.366612
O O9 0.885044 0.250000 0.455693
O O10 0.917290 0.986060 0.388868
O O11 0.027892 0.250000 0.603341
O O12 0.000000 0.500000 0.500000
O O13 0.008936 0.481549 0.753058
O O14 0.769889 0.750000 0.821541
O O15 0.497770 0.750000 0.640737
O O16 0.500000 0.000000 0.500000
#
# Coordination Sequence:
#
# PCOD8253944 Si02
#       6
#     8   8   8   8   8   8
#     4  10  21  38  59  85 117 152 189 238 291 345
#     4   9  19  37  60  83 115 155 195 238 287 345
#     4  11  21  35  60  89 115 149 194 243 291 345
#     4  12  23  38  61  89 118 152 195 242 290 344
#     4   9  19  37  59  84 113 148 191 238 286 343
#     4  11  23  40  60  85 121 161 197 241 292 347
#
# _framework density 18.637483
#
# number of rings (size 3 to 8) (size 9 to 14) (size 15 to 20)
#    0.000    1.667    1.667    5.000    0.000    4.000 
#    3.000    0.000    0.000    0.000    0.000    0.000 
#    0.000    0.000    0.000    0.000    0.000    0.000 
#
# Total GULP energy -595339.579257 kJ/mol
# GULP energy per Si atom -12402.907901 kJ/mol
# Density = 1.859506 g / cm^3
# Si number density = 18.637483 Si / 1000 Ang^3
#
#
#
# Elastic Constant Matrix: (Units=GPa)
#
#
# Indices 1 2 3 4 5 6 
#
# 1 125.9715 52.7842 68.3625 0.0000 0.0000 0.0000
# 2 52.7842 126.9675 48.7024 0.0000 0.0000 0.0000
# 3 68.3625 48.7024 110.2798 0.0000 0.0000 0.0000
# 4 0.0000 0.0000 0.0000 33.1548 0.0000 0.0000
# 5 0.0000 0.0000 0.0000 0.0000 34.0957 0.0000
# 6 0.0000 0.0000 0.0000 0.0000 0.0000 34.3384
#
#
#
# Elastic Compliance Matrix: (Units=1/GPa)
#
#
# Indices 1 2 3 4 5 6 
#
# 1 0.012698 -0.002720 -0.006670 0.000000 0.000000 0.000000
# 2 -0.002720 0.010065 -0.002759 0.000000 0.000000 0.000000
# 3 -0.006670 -0.002759 0.014421 0.000000 0.000000 0.000000
# 4 0.000000 0.000000 0.000000 0.030162 0.000000 0.000000
# 5 0.000000 0.000000 0.000000 0.000000 0.029329 0.000000
# 6 0.000000 0.000000 0.000000 0.000000 0.000000 0.029122
#
#
# Mechanical properties :
#
#
# Convention : Reuss Voigt Hill
#
# Bulk Modulus (GPa) = 77.60499 78.10190 77.85345
# Shear Modulus (GPa) = 32.38550 33.20910 32.79730
#
# Velocity S-wave (km/s) = 4.17304 4.22577 4.19949
# Velocity P-wave (km/s) = 8.05907 8.11211 8.08563
#
# Compressibility (1/GPa) = 0.01288577
#
# Stress axis : x y z
#
# Youngs Moduli (GPa) = 78.75315 99.35272 69.34383
#
# Poissons Ratio (x) = 0.27028 0.46253
# Poissons Ratio (y) = 0.21424 0.19130
# Poissons Ratio (z) = 0.52529 0.27408
#
# Static dielectric constant tensor:
#      x y z
#    x 3.660730 0.000000 0.000000 
#    y 0.000000 3.491890 0.000000 
#    z 0.000000 0.000000 3.022720 
# 
# 
# High freq. dielectric constant tensor:
#      x y z
#    x 1.735840 0.000000 0.000000 
#    y 0.000000 1.734030 0.000000 
#    z 0.000000 0.000000 1.703990 
# 
# From -- ./inp_files/10133.got.cif
#   From: 2010.03.12/outbox.cif.g09.slc.cpg/sg62_6_cif.got.tgz:10133.got - 2010.04.10 19:12:36.
