data_PCOD8253013
_publ_section_title
;
Structure prediction by ZEFSAII (Michael W. Deem and Ramdas Pophale) SiO2 
 PCOD8253013
Probable space group: P N M A
;
_chemical_formula_sum "Si O2"
_cell_formula_units_Z 64
_cell_length_a 15.180093
_cell_length_b 27.725282
_cell_length_c 7.338792
_cell_angle_alpha 90.000000
_cell_angle_beta 90.000000
_cell_angle_gamma 90.000000
_cell_volume 3088.694703
_symmetry_space_group_name_H-M "P N M A"
_symmetry_group_IT_number 62
_symmetry_cell_setting 'orthorhombic'
loop_
_space_group_symop_operation_xyz
x,y,z
1/2-x,-y,1/2+z
1/2+x,1/2-y,1/2-z
-x,1/2+y,-z
-x,-y,-z
1/2+x,y,1/2-z
1/2-x,1/2+y,1/2+z
x,1/2-y,z
loop_
_atom_site_type_symbol
_atom_site_label
_atom_site_fract_x
_atom_site_fract_y
_atom_site_fract_z
Si Si1 0.813374 0.440814 0.585448
Si Si2 0.035389 0.694404 0.058866
Si Si3 0.463807 0.634433 0.760028
Si Si4 0.997559 0.556376 0.479239
Si Si5 0.771951 0.195307 0.001865
Si Si6 0.268418 0.615218 0.733135
Si Si7 0.582247 0.193661 0.891792
Si Si8 0.196428 0.452301 0.562132
O O1 0.782420 0.399105 0.449155
O O2 0.804905 0.490970 0.476879
O O3 0.757759 0.440091 0.768491
O O4 0.915845 0.429836 0.639166
O O5 0.012765 0.750000 0.009417
O O6 0.970214 0.675148 0.214911
O O7 0.138485 0.689490 0.116481
O O8 0.025339 0.660327 0.884773
O O9 0.368097 0.626376 0.673275
O O10 0.504609 0.582872 0.823061
O O11 0.460172 0.667492 0.937880
O O12 0.901825 0.569157 0.391792
O O13 0.000000 0.500000 0.500000
O O14 0.761715 0.250000 0.071818
O O15 0.775953 0.163028 0.183587
O O16 0.686990 0.181188 0.877510
O O17 0.264647 0.573156 0.884041
O O18 0.565926 0.250000 0.917120
#
# Coordination Sequence:
#
# PCOD8253013 Si02
#       8
#     8   8   8   8   8   8   8   8
#     4  11  20  39  62  82 117 152 192 241 294 347
#     4  10  20  36  61  88 116 155 201 241 290 353
#     4  10  20  36  58  83 118 152 196 238 290 351
#     4   9  21  38  58  84 117 151 190 243 290 342
#     4   9  19  37  59  87 122 155 196 244 290 347
#     4  10  21  36  60  86 115 159 191 237 298 346
#     4   9  19  36  57  83 119 152 185 241 295 338
#     4  10  21  38  59  86 117 149 195 241 289 349
#
# _framework density 20.720727
#
# number of rings (size 3 to 8) (size 9 to 14) (size 15 to 20)
#    0.000    2.250    1.250    1.125    0.000    4.500 
#    0.000    5.625    0.000    8.250    0.000    0.000 
#    0.000    0.000    0.000    0.000    0.000    0.000 
#
# Total GULP energy -793280.287454 kJ/mol
# GULP energy per Si atom -12395.004491 kJ/mol
# Density = 2.067357 g / cm^3
# Si number density = 20.720727 Si / 1000 Ang^3
#
#
#
# Elastic Constant Matrix: (Units=GPa)
#
#
# Indices 1 2 3 4 5 6 
#
# 1 128.1603 20.8993 51.1957 0.0000 0.0000 0.0000
# 2 20.8993 60.5309 22.5500 0.0000 0.0000 0.0000
# 3 51.1957 22.5500 79.7012 0.0000 0.0000 0.0000
# 4 0.0000 0.0000 0.0000 25.9244 0.0000 0.0000
# 5 0.0000 0.0000 0.0000 0.0000 22.0281 0.0000
# 6 0.0000 0.0000 0.0000 0.0000 0.0000 21.2989
#
#
#
# Elastic Compliance Matrix: (Units=1/GPa)
#
#
# Indices 1 2 3 4 5 6 
#
# 1 0.010580 -0.001253 -0.006442 0.000000 0.000000 0.000000
# 2 -0.001253 0.018615 -0.004462 0.000000 0.000000 0.000000
# 3 -0.006442 -0.004462 0.017947 0.000000 0.000000 0.000000
# 4 0.000000 0.000000 0.000000 0.038574 0.000000 0.000000
# 5 0.000000 0.000000 0.000000 0.000000 0.045396 0.000000
# 6 0.000000 0.000000 0.000000 0.000000 0.000000 0.046951
#
#
# Mechanical properties :
#
#
# Convention : Reuss Voigt Hill
#
# Bulk Modulus (GPa) = 43.80349 50.85359 47.32854
# Shear Modulus (GPa) = 23.81100 25.43345 24.62222
#
# Velocity S-wave (km/s) = 3.39357 3.50728 3.45090
# Velocity P-wave (km/s) = 6.04491 6.40289 6.22648
#
# Compressibility (1/GPa) = 0.02282923
#
# Stress axis : x y z
#
# Youngs Moduli (GPa) = 94.51524 53.71892 55.71964
#
# Poissons Ratio (x) = 0.06733 0.35892
# Poissons Ratio (y) = 0.11845 0.24861
# Poissons Ratio (z) = 0.60883 0.23969
#
# Static dielectric constant tensor:
#      x y z
#    x 4.216390 0.000000 0.000000 
#    y 0.000000 4.498120 0.000000 
#    z 0.000000 0.000000 3.318660 
# 
# 
# High freq. dielectric constant tensor:
#      x y z
#    x 1.828450 0.000000 0.000000 
#    y 0.000000 1.826780 0.000000 
#    z 0.000000 0.000000 1.770240 
# 
# From -- ./inp_files/1885.got.cif
#   From: 2010.03.12/outbox.cif.g09.slc.cpg/sg62_1_cif.got.tgz:1885.got - 2010.04.10 19:12:36.
