data_PCOD8253043
_publ_section_title
;
Structure prediction by ZEFSAII (Michael W. Deem and Ramdas Pophale) SiO2 
 PCOD8253043
Probable space group: P N M A
;
_chemical_formula_sum "Si O2"
_cell_formula_units_Z 48
_cell_length_a 30.517541
_cell_length_b 9.118857
_cell_length_c 8.949709
_cell_angle_alpha 90.000000
_cell_angle_beta 90.000000
_cell_angle_gamma 90.000000
_cell_volume 2490.570596
_symmetry_space_group_name_H-M "P N M A"
_symmetry_group_IT_number 62
_symmetry_cell_setting 'orthorhombic'
loop_
_space_group_symop_operation_xyz
x,y,z
1/2-x,-y,1/2+z
1/2+x,1/2-y,1/2-z
-x,1/2+y,-z
-x,-y,-z
1/2+x,y,1/2-z
1/2-x,1/2+y,1/2+z
x,1/2-y,z
loop_
_atom_site_type_symbol
_atom_site_label
_atom_site_fract_x
_atom_site_fract_y
_atom_site_fract_z
Si Si1 0.882188 0.577205 0.149353
Si Si2 0.459506 0.078767 0.189439
Si Si3 0.785410 0.078711 0.644075
Si Si4 0.868241 0.420144 0.843520
Si Si5 0.202767 0.078005 0.667724
Si Si6 0.953326 0.080773 0.653440
O O1 0.889609 0.750000 0.143375
O O2 0.926838 0.500597 0.198271
O O3 0.844020 0.533858 0.264562
O O4 0.868621 0.521673 0.987343
O O5 0.458863 0.250000 0.225640
O O6 0.508087 0.018357 0.220560
O O7 0.445207 0.043648 0.020170
O O8 0.784398 0.250000 0.608731
O O9 0.824812 0.038138 0.754065
O O10 0.740472 0.023847 0.719260
O O11 0.791832 0.997569 0.489797
O O12 0.868653 0.250000 0.891131
O O13 0.909394 0.458989 0.739998
O O14 0.207193 0.250000 0.642152
O O15 0.966860 0.250000 0.672328
#
# Coordination Sequence:
#
# PCOD8253043 Si02
#       6
#     8   8   8   8   8   8
#     4  11  23  37  54  80 114 148 184 227 273 324
#     4  10  20  36  59  83 108 143 184 226 276 330
#     4  10  21  38  60  85 113 146 185 227 271 324
#     4  10  21  37  57  81 110 145 185 227 272 324
#     4  10  22  38  57  84 115 146 182 225 273 323
#     4   9  19  36  57  82 110 140 180 229 277 327
#
# _framework density 19.272690999999998
#
# number of rings (size 3 to 8) (size 9 to 14) (size 15 to 20)
#    0.000    2.000    0.000    3.000    0.000    6.000 
#    0.000    0.000    0.000    0.000    0.000    0.000 
#    0.000    0.000    0.000    0.000    0.000    0.000 
#
# Total GULP energy -595466.281898 kJ/mol
# GULP energy per Si atom -12405.547540 kJ/mol
# Density = 1.922883 g / cm^3
# Si number density = 19.272691 Si / 1000 Ang^3
#
#
#
# Elastic Constant Matrix: (Units=GPa)
#
#
# Indices 1 2 3 4 5 6 
#
# 1 71.2372 30.7283 -1.1175 0.0000 0.0000 0.0000
# 2 30.7283 55.4210 19.4629 0.0000 0.0000 0.0000
# 3 -1.1175 19.4629 40.4132 0.0000 0.0000 0.0000
# 4 0.0000 0.0000 0.0000 38.8118 0.0000 0.0000
# 5 0.0000 0.0000 0.0000 0.0000 33.3708 0.0000
# 6 0.0000 0.0000 0.0000 0.0000 0.0000 21.7299
#
#
#
# Elastic Compliance Matrix: (Units=1/GPa)
#
#
# Indices 1 2 3 4 5 6 
#
# 1 0.020009 -0.013586 0.007097 0.000000 0.000000 0.000000
# 2 -0.013586 0.030942 -0.015277 0.000000 0.000000 0.000000
# 3 0.007097 -0.015277 0.032298 0.000000 0.000000 0.000000
# 4 0.000000 0.000000 0.000000 0.025765 0.000000 0.000000
# 5 0.000000 0.000000 0.000000 0.000000 0.029966 0.000000
# 6 0.000000 0.000000 0.000000 0.000000 0.000000 0.046020
#
#
# Mechanical properties :
#
#
# Convention : Reuss Voigt Hill
#
# Bulk Modulus (GPa) = 25.17935 29.46876 27.32406
# Shear Modulus (GPa) = 20.68051 26.64899 23.66475
#
# Velocity S-wave (km/s) = 3.27929 3.72255 3.50793
# Velocity P-wave (km/s) = 5.23751 5.81378 5.53315
#
# Compressibility (1/GPa) = 0.03971508
#
# Stress axis : x y z
#
# Youngs Moduli (GPa) = 49.97627 32.31868 30.96155
#
# Poissons Ratio (x) = 0.43910 -0.21972
# Poissons Ratio (y) = 0.67900 0.47301
# Poissons Ratio (z) = -0.35466 0.49374
#
# Static dielectric constant tensor:
#      x y z
#    x 4.137850 0.000000 0.000000 
#    y 0.000000 3.483260 0.000000 
#    z 0.000000 0.000000 3.456640 
# 
# 
# High freq. dielectric constant tensor:
#      x y z
#    x 1.766340 0.000000 0.000000 
#    y 0.000000 1.748230 0.000000 
#    z 0.000000 0.000000 1.753820 
# 
# From -- ./inp_files/10196.got.cif
#   From: 2010.03.12/outbox.cif.g09.slc.cpg/sg62_6_cif.got.tgz:10196.got - 2010.04.10 19:12:36.
