data_PCOD8253751
_publ_section_title
;
Structure prediction by ZEFSAII (Michael W. Deem and Ramdas Pophale) SiO2 
 PCOD8253751
Probable space group: P N M A
;
_chemical_formula_sum "Si O2"
_cell_formula_units_Z 64
_cell_length_a 15.480048
_cell_length_b 9.166031
_cell_length_c 23.809691
_cell_angle_alpha 90.000000
_cell_angle_beta 90.000000
_cell_angle_gamma 90.000000
_cell_volume 3378.371338
_symmetry_space_group_name_H-M "P N M A"
_symmetry_group_IT_number 62
_symmetry_cell_setting 'orthorhombic'
loop_
_space_group_symop_operation_xyz
x,y,z
1/2-x,-y,1/2+z
1/2+x,1/2-y,1/2-z
-x,1/2+y,-z
-x,-y,-z
1/2+x,y,1/2-z
1/2-x,1/2+y,1/2+z
x,1/2-y,z
loop_
_atom_site_type_symbol
_atom_site_label
_atom_site_fract_x
_atom_site_fract_y
_atom_site_fract_z
Si Si1 0.171609 0.420789 0.505891
Si Si2 0.130746 0.580520 0.998121
Si Si3 0.014987 0.421332 0.915088
Si Si4 0.000407 0.076985 0.789628
Si Si5 0.335401 0.077711 0.777287
Si Si6 0.394886 0.580200 0.883501
Si Si7 0.906036 0.422111 0.390031
Si Si8 0.660645 0.422192 0.784548
O O1 0.156842 0.250000 0.517958
O O2 0.271769 0.464359 0.511945
O O3 0.138203 0.465323 0.444672
O O4 0.116896 0.514625 0.549379
O O5 0.123881 0.750000 0.983294
O O6 0.098001 0.494103 0.943724
O O7 0.072708 0.539165 0.051890
O O8 0.032152 0.250000 0.914143
O O9 0.005443 0.486113 0.852584
O O10 0.996502 0.250000 0.792456
O O11 0.914746 0.016537 0.759636
O O12 0.083227 0.023679 0.755087
O O13 0.340785 0.250000 0.785508
O O14 0.248566 0.031328 0.745698
O O15 0.337651 0.006521 0.838592
O O16 0.379893 0.750000 0.872898
O O17 0.495021 0.537325 0.876765
O O18 0.890863 0.250000 0.390443
O O19 0.844589 0.495754 0.343781
O O20 0.656758 0.250000 0.796239
#
# Coordination Sequence:
#
# PCOD8253751 Si02
#       8
#     8   8   8   8   8   8   8   8
#     4  10  22  38  59  82 108 146 189 232 281 336
#     4   9  19  35  54  80 109 144 183 223 274 330
#     4   9  18  33  55  78 110 144 177 225 275 325
#     4   9  18  34  55  83 112 142 183 231 275 324
#     4  10  21  36  60  87 111 148 194 232 275 336
#     4  10  22  40  58  81 115 148 182 232 290 339
#     4  11  23  39  58  83 113 146 186 233 286 337
#     4  10  21  37  59  85 114 150 190 230 281 339
#
# _framework density 18.944040000000001
#
# number of rings (size 3 to 8) (size 9 to 14) (size 15 to 20)
#    0.000    2.250    1.250    0.750    3.500    2.000 
#    0.000    1.250    0.000    0.000    0.000    0.000 
#    0.000    0.000    0.000    0.000    0.000    0.000 
#
# Total GULP energy -793857.645610 kJ/mol
# GULP energy per Si atom -12404.025713 kJ/mol
# Density = 1.890092 g / cm^3
# Si number density = 18.944040 Si / 1000 Ang^3
#
#
#
# Elastic Constant Matrix: (Units=GPa)
#
#
# Indices 1 2 3 4 5 6 
#
# 1 102.0046 32.7082 44.7138 0.0000 0.0000 0.0000
# 2 32.7082 42.4445 41.6197 0.0000 0.0000 0.0000
# 3 44.7138 41.6197 136.5405 0.0000 0.0000 0.0000
# 4 0.0000 0.0000 0.0000 34.9623 0.0000 0.0000
# 5 0.0000 0.0000 0.0000 0.0000 29.2758 0.0000
# 6 0.0000 0.0000 0.0000 0.0000 0.0000 19.1554
#
#
#
# Elastic Compliance Matrix: (Units=1/GPa)
#
#
# Indices 1 2 3 4 5 6 
#
# 1 0.013310 -0.008534 -0.001758 0.000000 0.000000 0.000000
# 2 -0.008534 0.039075 -0.009116 0.000000 0.000000 0.000000
# 3 -0.001758 -0.009116 0.010678 0.000000 0.000000 0.000000
# 4 0.000000 0.000000 0.000000 0.028602 0.000000 0.000000
# 5 0.000000 0.000000 0.000000 0.000000 0.034158 0.000000
# 6 0.000000 0.000000 0.000000 0.000000 0.000000 0.052205
#
#
# Mechanical properties :
#
#
# Convention : Reuss Voigt Hill
#
# Bulk Modulus (GPa) = 41.23899 57.67478 49.45689
# Shear Modulus (GPa) = 22.22951 27.47522 24.85237
#
# Velocity S-wave (km/s) = 3.42925 3.81246 3.62592
# Velocity P-wave (km/s) = 6.12338 7.06333 6.61009
#
# Compressibility (1/GPa) = 0.02424890
#
# Stress axis : x y z
#
# Youngs Moduli (GPa) = 75.13001 25.59166 93.64889
#
# Poissons Ratio (x) = 0.21839 0.16460
# Poissons Ratio (y) = 0.64112 0.85372
# Poissons Ratio (z) = 0.13205 0.23330
#
# Static dielectric constant tensor:
#      x y z
#    x 3.587060 0.000000 0.000000 
#    y 0.000000 3.206660 0.000000 
#    z 0.000000 0.000000 3.564990 
# 
# 
# High freq. dielectric constant tensor:
#      x y z
#    x 1.744470 0.000000 0.000000 
#    y 0.000000 1.713080 0.000000 
#    z 0.000000 0.000000 1.748380 
# 
# From -- ./inp_files/29942.got.cif
#   From: 2010.03.12/outbox.cif.g09.slc.cpg/sg62_15_cif.got.tgz:29942.got - 2010.04.10 19:12:36.
