data_PCOD8253212
_publ_section_title
;
Structure prediction by ZEFSAII (Michael W. Deem and Ramdas Pophale) SiO2 
 PCOD8253212
Probable space group: P N M A
;
_chemical_formula_sum "Si O2"
_cell_formula_units_Z 64
_cell_length_a 23.912823
_cell_length_b 14.126534
_cell_length_c 9.114063
_cell_angle_alpha 90.000000
_cell_angle_beta 90.000000
_cell_angle_gamma 90.000000
_cell_volume 3078.778851
_symmetry_space_group_name_H-M "P N M A"
_symmetry_group_IT_number 62
_symmetry_cell_setting 'orthorhombic'
loop_
_space_group_symop_operation_xyz
x,y,z
1/2-x,-y,1/2+z
1/2+x,1/2-y,1/2-z
-x,1/2+y,-z
-x,-y,-z
1/2+x,y,1/2-z
1/2-x,1/2+y,1/2+z
x,1/2-y,z
loop_
_atom_site_type_symbol
_atom_site_label
_atom_site_fract_x
_atom_site_fract_y
_atom_site_fract_z
Si Si1 0.027695 0.858323 0.727222
Si Si2 0.826795 0.975305 0.426084
Si Si3 0.872699 0.445324 0.718645
Si Si4 0.052984 0.057559 0.058486
Si Si5 0.214719 0.859071 0.076454
Si Si6 0.479803 0.359879 0.908548
Si Si7 0.650256 0.640257 0.722646
Si Si8 0.914557 0.861871 0.238796
O O1 0.039830 0.750000 0.694249
O O2 0.015541 0.907953 0.569874
O O3 0.086006 0.897856 0.794829
O O4 0.974535 0.866725 0.831492
O O5 0.766720 0.928138 0.438713
O O6 0.863756 0.907556 0.325434
O O7 0.852264 0.984755 0.589384
O O8 0.820217 0.078339 0.349691
O O9 0.900517 0.500430 0.853194
O O10 0.820546 0.385316 0.778897
O O11 0.918249 0.373126 0.655515
O O12 0.086746 0.111309 0.931929
O O13 0.000000 0.000000 0.000000
O O14 0.234090 0.750000 0.088126
O O15 0.177346 0.876423 0.933885
O O16 0.493458 0.250000 0.918070
O O17 0.527098 0.404471 0.803030
O O18 0.654520 0.750000 0.770786
O O19 0.909216 0.750000 0.255790
#
# Coordination Sequence:
#
# PCOD8253212 Si02
#       8
#     8   8   8   8   8   8   8   8
#     4  10  20  37  59  87 126 165 201 254 316 387
#     4  12  24  43  68  92 130 169 224 269 327 380
#     4  12  24  38  67  95 128 167 215 273 330 389
#     4  12  23  36  59  94 130 168 211 260 322 387
#     4  11  25  45  65  91 125 170 221 275 329 384
#     4  10  21  37  60  94 129 164 208 259 325 394
#     4  10  22  40  66  94 127 166 215 269 324 383
#     4  11  24  41  62  92 133 177 215 261 323 394
#
# _framework density 20.787462000000001
#
# number of rings (size 3 to 8) (size 9 to 14) (size 15 to 20)
#    0.000    1.000    2.500    4.875    0.000    1.500 
#    0.000    1.875    0.000    4.500    0.000    0.000 
#    0.000    0.000    0.000    0.000    0.000    0.000 
#
# Total GULP energy -793688.469597 kJ/mol
# GULP energy per Si atom -12401.382337 kJ/mol
# Density = 2.074015 g / cm^3
# Si number density = 20.787462 Si / 1000 Ang^3
#
#
#
# Elastic Constant Matrix: (Units=GPa)
#
#
# Indices 1 2 3 4 5 6 
#
# 1 80.4609 30.2186 48.2233 0.0000 0.0000 0.0000
# 2 30.2186 72.0440 47.2642 0.0000 0.0000 0.0000
# 3 48.2233 47.2642 143.8768 0.0000 0.0000 0.0000
# 4 0.0000 0.0000 0.0000 27.8369 0.0000 0.0000
# 5 0.0000 0.0000 0.0000 0.0000 30.8935 0.0000
# 6 0.0000 0.0000 0.0000 0.0000 0.0000 35.7885
#
#
#
# Elastic Compliance Matrix: (Units=1/GPa)
#
#
# Indices 1 2 3 4 5 6 
#
# 1 0.016491 -0.004195 -0.004149 0.000000 0.000000 0.000000
# 2 -0.004195 0.018761 -0.004757 0.000000 0.000000 0.000000
# 3 -0.004149 -0.004757 0.009904 0.000000 0.000000 0.000000
# 4 0.000000 0.000000 0.000000 0.035924 0.000000 0.000000
# 5 0.000000 0.000000 0.000000 0.000000 0.032369 0.000000
# 6 0.000000 0.000000 0.000000 0.000000 0.000000 0.027942
#
#
# Mechanical properties :
#
#
# Convention : Reuss Voigt Hill
#
# Bulk Modulus (GPa) = 52.76190 60.86599 56.81395
# Shear Modulus (GPa) = 28.75056 30.28213 29.51635
#
# Velocity S-wave (km/s) = 3.72300 3.82088 3.77226
# Velocity P-wave (km/s) = 6.62704 6.98636 6.80907
#
# Compressibility (1/GPa) = 0.01895307
#
# Stress axis : x y z
#
# Youngs Moduli (GPa) = 60.64062 53.30276 100.97187
#
# Poissons Ratio (x) = 0.22360 0.41894
# Poissons Ratio (y) = 0.25438 0.48032
# Poissons Ratio (z) = 0.25161 0.25356
#
# Static dielectric constant tensor:
#      x y z
#    x 3.740950 0.000000 0.000000 
#    y 0.000000 3.710580 0.000000 
#    z 0.000000 0.000000 4.057240 
# 
# 
# High freq. dielectric constant tensor:
#      x y z
#    x 1.806140 0.000000 0.000000 
#    y 0.000000 1.817140 0.000000 
#    z 0.000000 0.000000 1.830510 
# 
# From -- ./inp_files/9485.got.cif
#   From: 2010.03.12/outbox.cif.g09.slc.cpg/sg62_5_cif.got.tgz:9485.got - 2010.04.10 19:12:36.
