data_PCOD8253459
_publ_section_title
;
Structure prediction by ZEFSAII (Michael W. Deem and Ramdas Pophale) SiO2 
 PCOD8253459
Probable space group: P N M A
;
_chemical_formula_sum "Si O2"
_cell_formula_units_Z 48
_cell_length_a 13.528553
_cell_length_b 15.125279
_cell_length_c 11.900978
_cell_angle_alpha 90.000000
_cell_angle_beta 90.000000
_cell_angle_gamma 90.000000
_cell_volume 2435.215471
_symmetry_space_group_name_H-M "P N M A"
_symmetry_group_IT_number 62
_symmetry_cell_setting 'orthorhombic'
loop_
_space_group_symop_operation_xyz
x,y,z
1/2-x,-y,1/2+z
1/2+x,1/2-y,1/2-z
-x,1/2+y,-z
-x,-y,-z
1/2+x,y,1/2-z
1/2-x,1/2+y,1/2+z
x,1/2-y,z
loop_
_atom_site_type_symbol
_atom_site_label
_atom_site_fract_x
_atom_site_fract_y
_atom_site_fract_z
Si Si1 0.725887 0.750000 0.551542
Si Si2 0.224705 0.417293 0.321659
Si Si3 0.512861 0.411684 0.066828
Si Si4 0.689579 0.851686 0.889036
Si Si5 0.849173 0.250000 0.799404
Si Si6 0.915276 0.750000 0.197031
Si Si7 0.259629 0.617695 0.361155
Si Si8 0.426400 0.750000 0.053471
O O1 0.705658 0.842151 0.618467
O O2 0.672849 0.750000 0.431707
O O3 0.842956 0.750000 0.540328
O O4 0.110764 0.414291 0.358084
O O5 0.228689 0.400305 0.187824
O O6 0.271040 0.513397 0.344165
O O7 0.417185 0.393475 0.143859
O O8 0.500000 0.500000 0.000000
O O9 0.509755 0.337161 0.969215
O O10 0.690044 0.750000 0.856386
O O11 0.710741 0.865936 0.019198
O O12 0.807866 0.162778 0.736224
O O13 0.967583 0.250000 0.796541
O O14 0.868972 0.837579 0.139116
O O15 0.875788 0.750000 0.325068
#
# Coordination Sequence:
#
# PCOD8253459 Si02
#       8
#     4   8   8   8   4   4   8   4
#     4  10  22  44  58  92 131 167 208 271 328 386
#     4  11  26  41  67  97 132 169 218 278 331 377
#     4  11  23  40  68  98 122 173 227 264 320 393
#     4  12  23  44  64  94 138 169 219 274 325 395
#     4  11  23  41  67  91 133 171 217 264 327 400
#     4  11  23  39  64  94 126 168 214 270 329 381
#     4  11  24  42  66  98 126 174 220 271 326 387
#     4  10  20  38  65  89 124 160 215 269 308 375
#
# _framework density 19.710781000000001
#
# number of rings (size 3 to 8) (size 9 to 14) (size 15 to 20)
#    0.000    1.000    6.667    1.000    4.667    0.000 
#    3.000    0.833    0.000    0.000    0.000    0.000 
#    0.000    0.000    0.000    0.000    0.000    0.000 
#
# Total GULP energy -594953.180679 kJ/mol
# GULP energy per Si atom -12394.857931 kJ/mol
# Density = 1.966592 g / cm^3
# Si number density = 19.710781 Si / 1000 Ang^3
#
#
#
# Elastic Constant Matrix: (Units=GPa)
#
#
# Indices 1 2 3 4 5 6 
#
# 1 81.9331 50.2145 38.0804 0.0000 0.0000 0.0000
# 2 50.2145 183.7295 46.3452 0.0000 0.0000 0.0000
# 3 38.0804 46.3452 95.4242 0.0000 0.0000 0.0000
# 4 0.0000 0.0000 0.0000 32.6094 0.0000 0.0000
# 5 0.0000 0.0000 0.0000 0.0000 33.5301 0.0000
# 6 0.0000 0.0000 0.0000 0.0000 0.0000 16.2573
#
#
#
# Elastic Compliance Matrix: (Units=1/GPa)
#
#
# Indices 1 2 3 4 5 6 
#
# 1 0.016530 -0.003252 -0.005017 0.000000 0.000000 0.000000
# 2 -0.003252 0.006843 -0.002025 0.000000 0.000000 0.000000
# 3 -0.005017 -0.002025 0.013465 0.000000 0.000000 0.000000
# 4 0.000000 0.000000 0.000000 0.030666 0.000000 0.000000
# 5 0.000000 0.000000 0.000000 0.000000 0.029824 0.000000
# 6 0.000000 0.000000 0.000000 0.000000 0.000000 0.061511
#
#
# Mechanical properties :
#
#
# Convention : Reuss Voigt Hill
#
# Bulk Modulus (GPa) = 61.54381 70.04081 65.79231
# Shear Modulus (GPa) = 27.04981 31.57581 29.31281
#
# Velocity S-wave (km/s) = 3.70852 4.00679 3.86054
# Velocity P-wave (km/s) = 7.04477 7.55097 7.30226
#
# Compressibility (1/GPa) = 0.01624859
#
# Stress axis : x y z
#
# Youngs Moduli (GPa) = 60.49582 146.14440 74.26480
#
# Poissons Ratio (x) = 0.47530 0.37259
# Poissons Ratio (y) = 0.19675 0.15042
# Poissons Ratio (z) = 0.30351 0.29600
#
# Static dielectric constant tensor:
#      x y z
#    x 3.628810 0.000000 0.000000 
#    y 0.000000 3.967330 0.000000 
#    z 0.000000 0.000000 3.529240 
# 
# 
# High freq. dielectric constant tensor:
#      x y z
#    x 1.758020 0.000000 0.000000 
#    y 0.000000 1.785580 0.000000 
#    z 0.000000 0.000000 1.764180 
# 
# From -- ./inp_files/13327.got.cif
#   From: 2010.03.12/outbox.cif.g09.slc.cpg/sg62_7_cif.got.tgz:13327.got - 2010.04.10 19:12:36.
