data_PCOD8253995
_publ_section_title
;
Structure prediction by ZEFSAII (Michael W. Deem and Ramdas Pophale) SiO2 
 PCOD8253995
Probable space group: P N M A
;
_chemical_formula_sum "Si O2"
_cell_formula_units_Z 56
_cell_length_a 14.486824
_cell_length_b 9.166483
_cell_length_c 21.572287
_cell_angle_alpha 90.000000
_cell_angle_beta 90.000000
_cell_angle_gamma 90.000000
_cell_volume 2864.653581
_symmetry_space_group_name_H-M "P N M A"
_symmetry_group_IT_number 62
_symmetry_cell_setting 'orthorhombic'
loop_
_space_group_symop_operation_xyz
x,y,z
1/2-x,-y,1/2+z
1/2+x,1/2-y,1/2-z
-x,1/2+y,-z
-x,-y,-z
1/2+x,y,1/2-z
1/2-x,1/2+y,1/2+z
x,1/2-y,z
loop_
_atom_site_type_symbol
_atom_site_label
_atom_site_fract_x
_atom_site_fract_y
_atom_site_fract_z
Si Si1 0.622871 0.921015 0.398622
Si Si2 0.085441 0.415520 0.888858
Si Si3 0.676852 0.078259 0.274995
Si Si4 0.721977 0.921373 0.524485
Si Si5 0.570914 0.421407 0.044589
Si Si6 0.012586 0.419523 0.317355
Si Si7 0.640261 0.081958 0.749360
O O1 0.633411 0.750000 0.382777
O O2 0.516371 0.961202 0.411635
O O3 0.680747 0.968040 0.458573
O O4 0.662939 0.015483 0.343168
O O5 0.107431 0.250000 0.907724
O O6 0.161823 0.514953 0.920066
O O7 0.086737 0.436133 0.815111
O O8 0.693852 0.250000 0.279063
O O9 0.590157 0.039310 0.232376
O O10 0.764299 0.003271 0.243430
O O11 0.719188 0.750000 0.533891
O O12 0.826491 0.979268 0.529180
O O13 0.563245 0.250000 0.032868
O O14 0.548856 0.462773 0.115141
O O15 0.500000 0.500000 0.000000
O O16 0.986136 0.250000 0.313359
O O17 0.921582 0.513470 0.303816
O O18 0.659570 0.250000 0.765839
#
# Coordination Sequence:
#
# PCOD8253995 Si02
#       7
#     8   8   8   8   8   8   8
#     4  10  21  39  60  89 126 159 200 249 302 365
#     4  10  21  38  60  90 124 157 198 247 298 362
#     4  11  23  39  62  91 123 160 203 253 305 362
#     4  10  22  39  62  87 120 163 202 249 303 358
#     4  10  23  42  61  87 120 157 204 252 301 358
#     4  10  22  41  62  87 121 158 202 251 298 360
#     4  11  23  38  61  89 122 159 199 250 304 362
#
# _framework density 19.548611999999999
#
# number of rings (size 3 to 8) (size 9 to 14) (size 15 to 20)
#    0.000    1.714    1.429    2.143    2.000    5.143 
#    0.000    0.000    0.000    0.000    0.000    0.000 
#    0.000    0.000    0.000    0.000    0.000    0.000 
#
# Total GULP energy -694728.142082 kJ/mol
# GULP energy per Si atom -12405.859680 kJ/mol
# Density = 1.950412 g / cm^3
# Si number density = 19.548612 Si / 1000 Ang^3
#
#
#
# Elastic Constant Matrix: (Units=GPa)
#
#
# Indices 1 2 3 4 5 6 
#
# 1 97.9179 37.7702 38.2325 0.0000 0.0000 0.0000
# 2 37.7702 57.8435 32.8588 0.0000 0.0000 0.0000
# 3 38.2325 32.8588 93.6308 0.0000 0.0000 0.0000
# 4 0.0000 0.0000 0.0000 32.9437 0.0000 0.0000
# 5 0.0000 0.0000 0.0000 0.0000 35.4298 0.0000
# 6 0.0000 0.0000 0.0000 0.0000 0.0000 31.6465
#
#
#
# Elastic Compliance Matrix: (Units=1/GPa)
#
#
# Indices 1 2 3 4 5 6 
#
# 1 0.014388 -0.007566 -0.003220 0.000000 0.000000 0.000000
# 2 -0.007566 0.025571 -0.005884 0.000000 0.000000 0.000000
# 3 -0.003220 -0.005884 0.014060 0.000000 0.000000 0.000000
# 4 0.000000 0.000000 0.000000 0.030355 0.000000 0.000000
# 5 0.000000 0.000000 0.000000 0.000000 0.028225 0.000000
# 6 0.000000 0.000000 0.000000 0.000000 0.000000 0.031599
#
#
# Mechanical properties :
#
#
# Convention : Reuss Voigt Hill
#
# Bulk Modulus (GPa) = 48.35902 51.90168 50.13035
# Shear Modulus (GPa) = 27.11019 29.37272 28.24145
#
# Velocity S-wave (km/s) = 3.72803 3.88048 3.80502
# Velocity P-wave (km/s) = 6.58198 6.83265 6.70849
#
# Compressibility (1/GPa) = 0.02067866
#
# Stress axis : x y z
#
# Youngs Moduli (GPa) = 69.50050 39.10651 71.12275
#
# Poissons Ratio (x) = 0.29588 0.22902
# Poissons Ratio (y) = 0.52584 0.41852
# Poissons Ratio (z) = 0.22379 0.23012
#
# Static dielectric constant tensor:
#      x y z
#    x 3.710470 0.000000 0.000000 
#    y 0.000000 3.521430 0.000000 
#    z 0.000000 0.000000 3.606400 
# 
# 
# High freq. dielectric constant tensor:
#      x y z
#    x 1.775550 0.000000 0.000000 
#    y 0.000000 1.757560 0.000000 
#    z 0.000000 0.000000 1.768400 
# 
# From -- ./inp_files/27230.got.cif
#   From: 2010.03.12/outbox.cif.g09.slc.cpg/sg62_14_cif.got.tgz:27230.got - 2010.04.10 19:12:36.
