data_PCOD8253139
_publ_section_title
;
Structure prediction by ZEFSAII (Michael W. Deem and Ramdas Pophale) SiO2 
 PCOD8253139
Probable space group: P N M A
;
_chemical_formula_sum "Si O2"
_cell_formula_units_Z 32
_cell_length_a 9.293074
_cell_length_b 14.335705
_cell_length_c 11.574158
_cell_angle_alpha 90.000000
_cell_angle_beta 90.000000
_cell_angle_gamma 90.000000
_cell_volume 1541.941359
_symmetry_space_group_name_H-M "P N M A"
_symmetry_group_IT_number 62
_symmetry_cell_setting 'orthorhombic'
loop_
_space_group_symop_operation_xyz
x,y,z
1/2-x,-y,1/2+z
1/2+x,1/2-y,1/2-z
-x,1/2+y,-z
-x,-y,-z
1/2+x,y,1/2-z
1/2-x,1/2+y,1/2+z
x,1/2-y,z
loop_
_atom_site_type_symbol
_atom_site_label
_atom_site_fract_x
_atom_site_fract_y
_atom_site_fract_z
Si Si1 0.942018 0.952010 0.614008
Si Si2 0.214905 0.250000 0.123816
Si Si3 0.455835 0.750000 0.855860
Si Si4 0.481275 0.645369 0.482179
Si Si5 0.623589 0.984876 0.662779
O O1 0.911218 0.844174 0.577725
O O2 0.796449 0.997492 0.665210
O O3 0.065690 0.954885 0.712113
O O4 0.000000 0.000000 0.500000
O O5 0.110393 0.250000 0.231047
O O6 0.374657 0.250000 0.165431
O O7 0.172261 0.342264 0.049183
O O8 0.540647 0.750000 0.449695
O O9 0.451758 0.583423 0.368981
O O10 0.592712 0.593216 0.566006
#
# Coordination Sequence:
#
# PCOD8253139 Si02
#       5
#     8   4   4   8   8
#     4  12  27  42  67  99 133 171 220 272 322 392
#     4  10  20  36  63  92 122 171 210 266 318 380
#     4  12  22  38  61  92 132 163 222 268 318 380
#     4   9  21  41  70  88 130 173 215 264 328 377
#     4  11  24  43  67  98 130 171 222 268 325 389
#
# _framework density 20.753059
#
# number of rings (size 3 to 8) (size 9 to 14) (size 15 to 20)
#    0.750    0.500    2.500    3.000    8.750    0.000 
#    2.250    0.000    0.000    0.000    0.000    0.000 
#    0.000    0.000    0.000    0.000    0.000    0.000 
#
# Total GULP energy -396561.666837 kJ/mol
# GULP energy per Si atom -12392.552089 kJ/mol
# Density = 2.070582 g / cm^3
# Si number density = 20.753059 Si / 1000 Ang^3
#
#
#
# Elastic Constant Matrix: (Units=GPa)
#
#
# Indices 1 2 3 4 5 6 
#
# 1 95.9515 -1.2642 26.9630 0.0000 0.0000 0.0000
# 2 -1.2642 145.2010 47.0305 0.0000 0.0000 0.0000
# 3 26.9630 47.0305 83.6550 0.0000 0.0000 0.0000
# 4 0.0000 0.0000 0.0000 24.5416 0.0000 0.0000
# 5 0.0000 0.0000 0.0000 0.0000 23.0859 0.0000
# 6 0.0000 0.0000 0.0000 0.0000 0.0000 16.1356
#
#
#
# Elastic Compliance Matrix: (Units=1/GPa)
#
#
# Indices 1 2 3 4 5 6 
#
# 1 0.011766 0.001627 -0.004707 0.000000 0.000000 0.000000
# 2 0.001627 0.008645 -0.005385 0.000000 0.000000 0.000000
# 3 -0.004707 -0.005385 0.016498 0.000000 0.000000 0.000000
# 4 0.000000 0.000000 0.000000 0.040747 0.000000 0.000000
# 5 0.000000 0.000000 0.000000 0.000000 0.043317 0.000000
# 6 0.000000 0.000000 0.000000 0.000000 0.000000 0.061975
#
#
# Mechanical properties :
#
#
# Convention : Reuss Voigt Hill
#
# Bulk Modulus (GPa) = 50.04978 52.25179 51.15079
# Shear Modulus (GPa) = 24.20867 29.55784 26.88326
#
# Velocity S-wave (km/s) = 3.41913 3.77804 3.60305
# Velocity P-wave (km/s) = 6.30527 6.65312 6.48153
#
# Compressibility (1/GPa) = 0.01998011
#
# Stress axis : x y z
#
# Youngs Moduli (GPa) = 84.99001 115.66988 60.61231
#
# Poissons Ratio (x) = -0.18820 0.28531
# Poissons Ratio (y) = -0.13828 0.32638
# Poissons Ratio (z) = 0.40005 0.62286
#
# Static dielectric constant tensor:
#      x y z
#    x 3.663750 0.000000 0.000000 
#    y 0.000000 3.833760 0.000000 
#    z 0.000000 0.000000 3.464640 
# 
# 
# High freq. dielectric constant tensor:
#      x y z
#    x 1.812290 0.000000 0.000000 
#    y 0.000000 1.822620 0.000000 
#    z 0.000000 0.000000 1.784550 
# 
# From -- ./inp_files/10964.got.cif
#   From: 2010.03.12/outbox.cif.g09.slc.cpg/sg62_6_cif.got.tgz:10964.got - 2010.04.10 19:12:36.
