data_PCOD8253169
_publ_section_title
;
Structure prediction by ZEFSAII (Michael W. Deem and Ramdas Pophale) SiO2 
 PCOD8253169
Probable space group: P N M A
;
_chemical_formula_sum "Si O2"
_cell_formula_units_Z 40
_cell_length_a 8.675731
_cell_length_b 17.095757
_cell_length_c 12.813533
_cell_angle_alpha 90.000000
_cell_angle_beta 90.000000
_cell_angle_gamma 90.000000
_cell_volume 1900.480009
_symmetry_space_group_name_H-M "P N M A"
_symmetry_group_IT_number 62
_symmetry_cell_setting 'orthorhombic'
loop_
_space_group_symop_operation_xyz
x,y,z
1/2-x,-y,1/2+z
1/2+x,1/2-y,1/2-z
-x,1/2+y,-z
-x,-y,-z
1/2+x,y,1/2-z
1/2-x,1/2+y,1/2+z
x,1/2-y,z
loop_
_atom_site_type_symbol
_atom_site_label
_atom_site_fract_x
_atom_site_fract_y
_atom_site_fract_z
Si Si1 0.498467 0.340845 0.608684
Si Si2 0.507106 0.019021 0.879377
Si Si3 0.998557 0.343060 0.123764
Si Si4 0.174149 0.158410 0.693569
Si Si5 0.755542 0.931004 0.742750
O O1 0.469739 0.250000 0.595861
O O2 0.527627 0.375706 0.493865
O O3 0.644520 0.358835 0.682932
O O4 0.342285 0.374195 0.662034
O O5 0.647175 0.973372 0.825259
O O6 0.349044 0.996057 0.822040
O O7 0.542230 0.111733 0.869986
O O8 0.500000 0.000000 0.000000
O O9 0.990000 0.250000 0.128626
O O10 0.135798 0.371546 0.196104
O O11 0.837396 0.378667 0.160614
O O12 0.150021 0.250000 0.668718
#
# Coordination Sequence:
#
# PCOD8253169 Si02
#       5
#     8   8   8   8   8
#     4   9  19  34  57  84 112 144 187 237 285 331
#     4  11  23  40  59  86 120 154 191 238 294 345
#     4  10  20  39  61  85 116 156 198 240 287 344
#     4  10  20  37  58  83 112 149 192 236 281 343
#     4  10  23  38  58  86 117 153 195 243 292 343
#
# _framework density 21.047314
#
# number of rings (size 3 to 8) (size 9 to 14) (size 15 to 20)
#    0.000    2.000    0.000    3.000    0.000    3.200 
#    0.000   12.000    0.000    0.000    0.000    0.000 
#    0.000    0.000    0.000    0.000    0.000    0.000 
#
# Total GULP energy -495930.979608 kJ/mol
# GULP energy per Si atom -12398.274490 kJ/mol
# Density = 2.099941 g / cm^3
# Si number density = 21.047314 Si / 1000 Ang^3
#
#
#
# Elastic Constant Matrix: (Units=GPa)
#
#
# Indices 1 2 3 4 5 6 
#
# 1 65.0082 2.9650 15.3861 0.0000 0.0000 0.0000
# 2 2.9650 57.4379 3.1079 0.0000 0.0000 0.0000
# 3 15.3861 3.1079 120.8153 0.0000 0.0000 0.0000
# 4 0.0000 0.0000 0.0000 27.6143 0.0000 0.0000
# 5 0.0000 0.0000 0.0000 0.0000 29.4910 0.0000
# 6 0.0000 0.0000 0.0000 0.0000 0.0000 22.3098
#
#
#
# Elastic Compliance Matrix: (Units=1/GPa)
#
#
# Indices 1 2 3 4 5 6 
#
# 1 0.015890 -0.000712 -0.002005 0.000000 0.000000 0.000000
# 2 -0.000712 0.017466 -0.000359 0.000000 0.000000 0.000000
# 3 -0.002005 -0.000359 0.008542 0.000000 0.000000 0.000000
# 4 0.000000 0.000000 0.000000 0.036213 0.000000 0.000000
# 5 0.000000 0.000000 0.000000 0.000000 0.033909 0.000000
# 6 0.000000 0.000000 0.000000 0.000000 0.000000 0.044823
#
#
# Mechanical properties :
#
#
# Convention : Reuss Voigt Hill
#
# Bulk Modulus (GPa) = 27.97491 31.79771 29.88631
# Shear Modulus (GPa) = 28.58620 30.66986 29.62803
#
# Velocity S-wave (km/s) = 3.68936 3.82145 3.75599
# Velocity P-wave (km/s) = 5.60970 5.88318 5.74807
#
# Compressibility (1/GPa) = 0.03574632
#
# Stress axis : x y z
#
# Youngs Moduli (GPa) = 62.93367 57.25331 117.07268
#
# Poissons Ratio (x) = 0.04075 0.23476
# Poissons Ratio (y) = 0.04479 0.04199
# Poissons Ratio (z) = 0.12620 0.02053
#
# Static dielectric constant tensor:
#      x y z
#    x 3.495850 0.000000 0.000000 
#    y 0.000000 3.810410 0.000000 
#    z 0.000000 0.000000 4.078750 
# 
# 
# High freq. dielectric constant tensor:
#      x y z
#    x 1.828650 0.000000 0.000000 
#    y 0.000000 1.826010 0.000000 
#    z 0.000000 0.000000 1.831300 
# 
# From -- ./inp_files/11055.got.cif
#   From: 2010.03.12/outbox.cif.g09.slc.cpg/sg62_6_cif.got.tgz:11055.got - 2010.04.10 19:12:36.
