data_PCOD8253743
_publ_section_title
;
Structure prediction by ZEFSAII (Michael W. Deem and Ramdas Pophale) SiO2 
 PCOD8253743
Probable space group: P N M A
;
_chemical_formula_sum "Si O2"
_cell_formula_units_Z 56
_cell_length_a 16.245745
_cell_length_b 8.800078
_cell_length_c 20.136175
_cell_angle_alpha 90.000000
_cell_angle_beta 90.000000
_cell_angle_gamma 90.000000
_cell_volume 2878.744562
_symmetry_space_group_name_H-M "P N M A"
_symmetry_group_IT_number 62
_symmetry_cell_setting 'orthorhombic'
loop_
_space_group_symop_operation_xyz
x,y,z
1/2-x,-y,1/2+z
1/2+x,1/2-y,1/2-z
-x,1/2+y,-z
-x,-y,-z
1/2+x,y,1/2-z
1/2-x,1/2+y,1/2+z
x,1/2-y,z
loop_
_atom_site_type_symbol
_atom_site_label
_atom_site_fract_x
_atom_site_fract_y
_atom_site_fract_z
Si Si1 0.251450 0.927992 0.479226
Si Si2 0.181554 0.072837 0.704178
Si Si3 0.678409 0.929953 0.391432
Si Si4 0.525036 0.070951 0.325977
Si Si5 0.146173 0.426251 0.849850
Si Si6 0.498179 0.430282 0.811635
Si Si7 0.566416 0.571093 0.048099
O O1 0.259227 0.750000 0.495963
O O2 0.294016 0.967863 0.409681
O O3 0.156781 0.979843 0.474494
O O4 0.295289 0.027916 0.534511
O O5 0.183553 0.250000 0.689761
O O6 0.254029 0.000246 0.659915
O O7 0.195530 0.036066 0.781921
O O8 0.092272 0.010374 0.681652
O O9 0.668948 0.750000 0.384814
O O10 0.591560 0.007209 0.377221
O O11 0.531454 0.250000 0.322868
O O12 0.436203 0.024574 0.354187
O O13 0.543243 0.004178 0.252949
O O14 0.119812 0.250000 0.850186
O O15 0.495323 0.250000 0.801474
O O16 0.448734 0.484349 0.876478
O O17 0.555715 0.750000 0.045023
O O18 0.500000 0.500000 0.000000
#
# Coordination Sequence:
#
# PCOD8253743 Si02
#       7
#     8   8   8   8   8   8   8
#     4  10  22  38  58  86 118 152 192 243 294 339
#     4   8  16  32  58  85 107 142 192 237 274 329
#     4  11  22  37  60  85 114 153 195 237 287 352
#     4  11  23  38  57  85 116 147 189 244 297 344
#     4   9  19  39  62  83 110 148 195 242 289 344
#     4   9  18  36  60  84 112 151 195 233 280 347
#     4  10  21  36  59  88 122 159 195 238 287 347
#
# _framework density 19.452925
#
# number of rings (size 3 to 8) (size 9 to 14) (size 15 to 20)
#    0.000    2.286    0.000    3.429    2.000    3.429 
#    0.000    7.143    0.000    0.000    0.000    0.000 
#    0.000    0.000    0.000    0.000    0.000    0.000 
#
# Total GULP energy -694480.064395 kJ/mol
# GULP energy per Si atom -12401.429721 kJ/mol
# Density = 1.940865 g / cm^3
# Si number density = 19.452925 Si / 1000 Ang^3
#
#
#
# Elastic Constant Matrix: (Units=GPa)
#
#
# Indices 1 2 3 4 5 6 
#
# 1 75.9919 30.3561 47.5934 0.0000 0.0000 0.0000
# 2 30.3561 61.4305 35.9761 0.0000 0.0000 0.0000
# 3 47.5934 35.9761 115.9114 0.0000 0.0000 0.0000
# 4 0.0000 0.0000 0.0000 31.8832 0.0000 0.0000
# 5 0.0000 0.0000 0.0000 0.0000 40.4517 0.0000
# 6 0.0000 0.0000 0.0000 0.0000 0.0000 23.7145
#
#
#
# Elastic Compliance Matrix: (Units=1/GPa)
#
#
# Indices 1 2 3 4 5 6 
#
# 1 0.019373 -0.006007 -0.006090 0.000000 0.000000 0.000000
# 2 -0.006007 0.021757 -0.004287 0.000000 0.000000 0.000000
# 3 -0.006090 -0.004287 0.012458 0.000000 0.000000 0.000000
# 4 0.000000 0.000000 0.000000 0.031364 0.000000 0.000000
# 5 0.000000 0.000000 0.000000 0.000000 0.024721 0.000000
# 6 0.000000 0.000000 0.000000 0.000000 0.000000 0.042168
#
#
# Mechanical properties :
#
#
# Convention : Reuss Voigt Hill
#
# Bulk Modulus (GPa) = 48.02684 53.46502 50.74593
# Shear Modulus (GPa) = 26.10289 28.50375 27.30332
#
# Velocity S-wave (km/s) = 3.66710 3.83204 3.75047
# Velocity P-wave (km/s) = 6.53242 6.86464 6.70059
#
# Compressibility (1/GPa) = 0.02082169
#
# Stress axis : x y z
#
# Youngs Moduli (GPa) = 51.61811 45.96204 80.26693
#
# Poissons Ratio (x) = 0.27607 0.48885
# Poissons Ratio (y) = 0.31005 0.34407
# Poissons Ratio (z) = 0.31437 0.19702
#
# Static dielectric constant tensor:
#      x y z
#    x 3.662200 0.000000 0.000000 
#    y 0.000000 3.304680 0.000000 
#    z 0.000000 0.000000 3.673570 
# 
# 
# High freq. dielectric constant tensor:
#      x y z
#    x 1.763400 0.000000 0.000000 
#    y 0.000000 1.733320 0.000000 
#    z 0.000000 0.000000 1.767100 
# 
# From -- ./inp_files/27188.got.cif
#   From: 2010.03.12/outbox.cif.g09.slc.cpg/sg62_14_cif.got.tgz:27188.got - 2010.04.10 19:12:36.
