data_PCOD8253824
_publ_section_title
;
Structure prediction by ZEFSAII (Michael W. Deem and Ramdas Pophale) SiO2 
 PCOD8253824
Probable space group: P N M A
;
_chemical_formula_sum "Si O2"
_cell_formula_units_Z 64
_cell_length_a 13.983022
_cell_length_b 9.054602
_cell_length_c 24.848084
_cell_angle_alpha 90.000000
_cell_angle_beta 90.000000
_cell_angle_gamma 90.000000
_cell_volume 3146.033283
_symmetry_space_group_name_H-M "P N M A"
_symmetry_group_IT_number 62
_symmetry_cell_setting 'orthorhombic'
loop_
_space_group_symop_operation_xyz
x,y,z
1/2-x,-y,1/2+z
1/2+x,1/2-y,1/2-z
-x,1/2+y,-z
-x,-y,-z
1/2+x,y,1/2-z
1/2-x,1/2+y,1/2+z
x,1/2-y,z
loop_
_atom_site_type_symbol
_atom_site_label
_atom_site_fract_x
_atom_site_fract_y
_atom_site_fract_z
Si Si1 0.425273 0.580508 0.639943
Si Si2 0.569054 0.084875 0.569988
Si Si3 0.536015 0.077702 0.856992
Si Si4 0.793676 0.586813 0.171681
Si Si5 0.781758 0.420233 0.401835
Si Si6 0.144966 0.418630 0.388652
Si Si7 0.778059 0.420430 0.008424
Si Si8 0.472460 0.578579 0.266573
O O1 0.458741 0.750000 0.637418
O O2 0.472983 0.496041 0.589524
O O3 0.312016 0.563334 0.634736
O O4 0.454116 0.514896 0.697697
O O5 0.544177 0.250000 0.549663
O O6 0.641063 0.091891 0.619267
O O7 0.619326 0.994616 0.521696
O O8 0.549294 0.250000 0.869140
O O9 0.506905 0.046768 0.795416
O O10 0.633801 0.995290 0.869007
O O11 0.451518 0.013763 0.894163
O O12 0.750406 0.750000 0.182982
O O13 0.706771 0.474197 0.162654
O O14 0.861866 0.534196 0.220603
O O15 0.806234 0.250000 0.413100
O O16 0.770300 0.500147 0.458511
O O17 0.117188 0.250000 0.378059
O O18 0.204220 0.439556 0.442871
O O19 0.796751 0.250000 0.995084
O O20 0.486807 0.750000 0.281862
#
# Coordination Sequence:
#
# PCOD8253824 Si02
#       8
#     8   8   8   8   8   8   8   8
#     4  10  21  37  59  88 120 153 189 232 285 343
#     4   9  17  32  57  87 118 151 187 229 276 331
#     4  11  24  41  60  82 110 149 196 239 282 338
#     4   8  15  31  55  83 112 141 178 224 272 323
#     4  11  25  42  58  82 117 153 191 237 288 341
#     4  10  21  37  58  85 113 143 186 236 284 337
#     4  10  21  38  61  87 115 151 193 237 288 343
#     4   9  20  38  60  86 115 149 188 231 281 338
#
# _framework density 20.343077999999998
#
# number of rings (size 3 to 8) (size 9 to 14) (size 15 to 20)
#    0.000    2.250    0.000    3.000    0.000    9.500 
#    0.000    3.750    0.000    0.000    0.000    0.000 
#    0.000    0.000    0.000    0.000    0.000    0.000 
#
# Total GULP energy -793739.694782 kJ/mol
# GULP energy per Si atom -12402.182731 kJ/mol
# Density = 2.029678 g / cm^3
# Si number density = 20.343078 Si / 1000 Ang^3
#
#
#
# Elastic Constant Matrix: (Units=GPa)
#
#
# Indices 1 2 3 4 5 6 
#
# 1 80.0825 51.2650 4.6363 0.0000 0.0000 0.0000
# 2 51.2650 151.2215 36.5422 0.0000 0.0000 0.0000
# 3 4.6363 36.5422 42.8552 0.0000 0.0000 0.0000
# 4 0.0000 0.0000 0.0000 26.8327 0.0000 0.0000
# 5 0.0000 0.0000 0.0000 0.0000 16.0380 0.0000
# 6 0.0000 0.0000 0.0000 0.0000 0.0000 34.9553
#
#
#
# Elastic Compliance Matrix: (Units=1/GPa)
#
#
# Indices 1 2 3 4 5 6 
#
# 1 0.016410 -0.006467 0.003739 0.000000 0.000000 0.000000
# 2 -0.006467 0.010877 -0.008575 0.000000 0.000000 0.000000
# 3 0.003739 -0.008575 0.030242 0.000000 0.000000 0.000000
# 4 0.000000 0.000000 0.000000 0.037268 0.000000 0.000000
# 5 0.000000 0.000000 0.000000 0.000000 0.062352 0.000000
# 6 0.000000 0.000000 0.000000 0.000000 0.000000 0.028608
#
#
# Mechanical properties :
#
#
# Convention : Reuss Voigt Hill
#
# Bulk Modulus (GPa) = 28.63444 51.00515 39.81979
# Shear Modulus (GPa) = 22.72677 27.67959 25.20318
#
# Velocity S-wave (km/s) = 3.34604 3.69269 3.52363
# Velocity P-wave (km/s) = 5.38835 6.58089 6.01425
#
# Compressibility (1/GPa) = 0.03492299
#
# Stress axis : x y z
#
# Youngs Moduli (GPa) = 60.93732 91.93507 33.06662
#
# Poissons Ratio (x) = 0.59451 -0.12363
# Poissons Ratio (y) = 0.39406 0.28356
# Poissons Ratio (z) = -0.22782 0.78837
#
# Static dielectric constant tensor:
#      x y z
#    x 3.675290 0.000000 0.000000 
#    y 0.000000 3.894030 0.000000 
#    z 0.000000 0.000000 3.541830 
# 
# 
# High freq. dielectric constant tensor:
#      x y z
#    x 1.794190 0.000000 0.000000 
#    y 0.000000 1.805260 0.000000 
#    z 0.000000 0.000000 1.782640 
# 
# From -- ./inp_files/29863.got.cif
#   From: 2010.03.12/outbox.cif.g09.slc.cpg/sg62_15_cif.got.tgz:29863.got - 2010.04.10 19:12:36.
