data_PCOD8253789
_publ_section_title
;
Structure prediction by ZEFSAII (Michael W. Deem and Ramdas Pophale) SiO2 
 PCOD8253789
Probable space group: P N M A
;
_chemical_formula_sum "Si O2"
_cell_formula_units_Z 56
_cell_length_a 21.065822
_cell_length_b 8.751802
_cell_length_c 15.203381
_cell_angle_alpha 90.000000
_cell_angle_beta 90.000000
_cell_angle_gamma 90.000000
_cell_volume 2802.954662
_symmetry_space_group_name_H-M "P N M A"
_symmetry_group_IT_number 62
_symmetry_cell_setting 'orthorhombic'
loop_
_space_group_symop_operation_xyz
x,y,z
1/2-x,-y,1/2+z
1/2+x,1/2-y,1/2-z
-x,1/2+y,-z
-x,-y,-z
1/2+x,y,1/2-z
1/2-x,1/2+y,1/2+z
x,1/2-y,z
loop_
_atom_site_type_symbol
_atom_site_label
_atom_site_fract_x
_atom_site_fract_y
_atom_site_fract_z
Si Si1 0.279549 0.427699 0.587913
Si Si2 0.902999 0.568531 0.283047
Si Si3 0.194310 0.928056 0.444881
Si Si4 0.566340 0.570330 0.970038
Si Si5 0.530567 0.924910 0.629180
Si Si6 0.736621 0.430719 0.726736
Si Si7 0.404317 0.577384 0.531654
O O1 0.264601 0.250000 0.582927
O O2 0.226117 0.509604 0.532157
O O3 0.274749 0.488109 0.687753
O O4 0.349059 0.460510 0.552672
O O5 0.911126 0.750000 0.284626
O O6 0.908139 0.507560 0.381607
O O7 0.958961 0.490623 0.226620
O O8 0.836717 0.517990 0.236925
O O9 0.207452 0.750000 0.441384
O O10 0.118687 0.961075 0.453002
O O11 0.227711 0.003513 0.358441
O O12 0.557761 0.750000 0.953574
O O13 0.500000 0.500000 0.000000
O O14 0.553980 0.750000 0.621080
O O15 0.456065 0.936123 0.608549
O O16 0.567989 0.032933 0.562406
O O17 0.739695 0.250000 0.719986
O O18 0.377982 0.750000 0.524602
#
# Coordination Sequence:
#
# PCOD8253789 Si02
#       7
#     8   8   8   8   8   8   8
#     4  11  21  36  59  87 119 154 196 248 300 363
#     4  11  21  38  63  88 121 162 204 253 313 379
#     4  10  21  40  63  88 120 160 205 259 315 370
#     4  11  24  41  63  89 122 163 212 263 314 376
#     4  10  21  37  58  86 119 156 203 252 300 361
#     4   9  20  37  59  86 116 152 198 248 306 367
#     4  10  21  37  56  84 122 159 197 247 307 364
#
# _framework density 19.978918
#
# number of rings (size 3 to 8) (size 9 to 14) (size 15 to 20)
#    0.000    1.714    1.429    3.000    0.000    4.571 
#    0.000    3.571    0.000    0.000    0.000    0.000 
#    0.000    0.000    0.000    0.000    0.000    0.000 
#
# Total GULP energy -694391.275237 kJ/mol
# GULP energy per Si atom -12399.844201 kJ/mol
# Density = 1.993345 g / cm^3
# Si number density = 19.978918 Si / 1000 Ang^3
#
#
#
# Elastic Constant Matrix: (Units=GPa)
#
#
# Indices 1 2 3 4 5 6 
#
# 1 108.0627 48.4540 50.8003 0.0000 0.0000 0.0000
# 2 48.4540 29.2660 32.6103 0.0000 0.0000 0.0000
# 3 50.8003 32.6103 108.9201 0.0000 0.0000 0.0000
# 4 0.0000 0.0000 0.0000 31.4016 0.0000 0.0000
# 5 0.0000 0.0000 0.0000 0.0000 25.8788 0.0000
# 6 0.0000 0.0000 0.0000 0.0000 0.0000 24.5012
#
#
#
# Elastic Compliance Matrix: (Units=1/GPa)
#
#
# Indices 1 2 3 4 5 6 
#
# 1 0.036101 -0.061539 0.001587 0.000000 0.000000 0.000000
# 2 -0.061539 0.156175 -0.018057 0.000000 0.000000 0.000000
# 3 0.001587 -0.018057 0.013847 0.000000 0.000000 0.000000
# 4 0.000000 0.000000 0.000000 0.031845 0.000000 0.000000
# 5 0.000000 0.000000 0.000000 0.000000 0.038642 0.000000
# 6 0.000000 0.000000 0.000000 0.000000 0.000000 0.040814
#
#
# Mechanical properties :
#
#
# Convention : Reuss Voigt Hill
#
# Bulk Modulus (GPa) = 19.95750 56.66422 38.31086
# Shear Modulus (GPa) = 10.20109 23.98194 17.09152
#
# Velocity S-wave (km/s) = 2.26208 3.46838 2.92803
# Velocity P-wave (km/s) = 4.10288 6.66807 5.53610
#
# Compressibility (1/GPa) = 0.05010648
#
# Stress axis : x y z
#
# Youngs Moduli (GPa) = 27.69998 6.40306 72.21780
#
# Poissons Ratio (x) = 0.39404 -0.11460
# Poissons Ratio (y) = 1.70462 1.30401
# Poissons Ratio (z) = -0.04396 0.11562
#
# Static dielectric constant tensor:
#      x y z
#    x 3.816020 0.000000 0.000000 
#    y 0.000000 3.550560 0.000000 
#    z 0.000000 0.000000 3.937080 
# 
# 
# High freq. dielectric constant tensor:
#      x y z
#    x 1.783370 0.000000 0.000000 
#    y 0.000000 1.773400 0.000000 
#    z 0.000000 0.000000 1.784550 
# 
# From -- ./inp_files/20250.got.cif
#   From: 2010.03.12/outbox.cif.g09.slc.cpg/sg62_11_cif.got.tgz:20250.got - 2010.04.10 19:12:36.
