data_PCOD8253462
_publ_section_title
;
Structure prediction by ZEFSAII (Michael W. Deem and Ramdas Pophale) SiO2 
 PCOD8253462
Probable space group: P N M A
;
_chemical_formula_sum "Si O2"
_cell_formula_units_Z 64
_cell_length_a 27.660413
_cell_length_b 12.566321
_cell_length_c 9.013623
_cell_angle_alpha 90.000000
_cell_angle_beta 90.000000
_cell_angle_gamma 90.000000
_cell_volume 3133.041872
_symmetry_space_group_name_H-M "P N M A"
_symmetry_group_IT_number 62
_symmetry_cell_setting 'orthorhombic'
loop_
_space_group_symop_operation_xyz
x,y,z
1/2-x,-y,1/2+z
1/2+x,1/2-y,1/2-z
-x,1/2+y,-z
-x,-y,-z
1/2+x,y,1/2-z
1/2-x,1/2+y,1/2+z
x,1/2-y,z
loop_
_atom_site_type_symbol
_atom_site_label
_atom_site_fract_x
_atom_site_fract_y
_atom_site_fract_z
Si Si1 0.229112 0.126362 0.480770
Si Si2 0.868200 0.869559 0.360798
Si Si3 0.006728 0.629039 0.819696
Si Si4 0.936490 0.027788 0.923372
Si Si5 0.140150 0.373000 0.970095
Si Si6 0.793161 0.509061 0.798640
Si Si7 0.946948 0.464518 0.447398
Si Si8 0.876346 0.371243 0.689115
O O1 0.243721 0.250000 0.481683
O O2 0.172548 0.109228 0.516298
O O3 0.260571 0.069560 0.606025
O O4 0.238821 0.079505 0.315675
O O5 0.887497 0.750000 0.370519
O O6 0.842981 0.888909 0.200055
O O7 0.916210 0.935916 0.391140
O O8 0.987401 0.750000 0.821127
O O9 0.046158 0.615804 0.690653
O O10 0.963541 0.543038 0.796055
O O11 0.028049 0.600152 0.980417
O O12 0.900400 0.111542 0.849444
O O13 0.908775 0.941016 0.021922
O O14 0.129270 0.250000 0.006538
O O15 0.179506 0.413419 0.087400
O O16 0.828307 0.442630 0.689126
O O17 0.915782 0.401443 0.566981
O O18 0.000000 0.500000 0.500000
O O19 0.860547 0.250000 0.667472
#
# Coordination Sequence:
#
# PCOD8253462 Si02
#       8
#     8   8   8   8   8   8   8   8
#     4  11  23  43  69  97 130 169 212 266 328 389
#     4  10  22  41  65  91 125 165 214 268 321 375
#     4  11  22  37  58  83 117 163 215 267 314 367
#     4  10  21  38  57  85 121 157 213 262 314 377
#     4  10  20  38  65  92 124 166 209 261 320 379
#     4  11  23  41  69  98 136 162 214 266 322 402
#     4  12  23  42  59  91 127 168 217 262 316 380
#     4  11  23  41  62  89 127 169 206 258 322 384
#
# _framework density 20.427430999999999
#
# number of rings (size 3 to 8) (size 9 to 14) (size 15 to 20)
#    0.000    1.250    3.750    2.625    0.000    1.000 
#    0.000    1.875    0.000    0.000    0.000    0.000 
#    0.000    0.000    0.000    0.000    0.000    0.000 
#
# Total GULP energy -793459.665470 kJ/mol
# GULP energy per Si atom -12397.807273 kJ/mol
# Density = 2.038094 g / cm^3
# Si number density = 20.427431 Si / 1000 Ang^3
#
#
#
# Elastic Constant Matrix: (Units=GPa)
#
#
# Indices 1 2 3 4 5 6 
#
# 1 63.3859 32.1645 21.1933 0.0000 0.0000 0.0000
# 2 32.1645 117.2541 49.3156 0.0000 0.0000 0.0000
# 3 21.1933 49.3156 88.7311 0.0000 0.0000 0.0000
# 4 0.0000 0.0000 0.0000 29.9494 0.0000 0.0000
# 5 0.0000 0.0000 0.0000 0.0000 37.8979 0.0000
# 6 0.0000 0.0000 0.0000 0.0000 0.0000 29.2339
#
#
#
# Elastic Compliance Matrix: (Units=1/GPa)
#
#
# Indices 1 2 3 4 5 6 
#
# 1 0.018622 -0.004225 -0.002100 0.000000 0.000000 0.000000
# 2 -0.004225 0.012089 -0.005710 0.000000 0.000000 0.000000
# 3 -0.002100 -0.005710 0.014945 0.000000 0.000000 0.000000
# 4 0.000000 0.000000 0.000000 0.033390 0.000000 0.000000
# 5 0.000000 0.000000 0.000000 0.000000 0.026387 0.000000
# 6 0.000000 0.000000 0.000000 0.000000 0.000000 0.034207
#
#
# Mechanical properties :
#
#
# Convention : Reuss Voigt Hill
#
# Bulk Modulus (GPa) = 46.32393 52.74644 49.53518
# Shear Modulus (GPa) = 29.25610 30.52941 29.89276
#
# Velocity S-wave (km/s) = 3.78854 3.87011 3.82954
# Velocity P-wave (km/s) = 6.47024 6.77110 6.62238
#
# Compressibility (1/GPa) = 0.02158712
#
# Stress axis : x y z
#
# Youngs Moduli (GPa) = 53.69853 82.71984 66.91267
#
# Poissons Ratio (x) = 0.34952 0.14049
# Poissons Ratio (y) = 0.22690 0.38205
# Poissons Ratio (z) = 0.11274 0.47230
#
# Static dielectric constant tensor:
#      x y z
#    x 3.581790 0.000000 0.000000 
#    y 0.000000 3.698890 0.000000 
#    z 0.000000 0.000000 3.808520 
# 
# 
# High freq. dielectric constant tensor:
#      x y z
#    x 1.786680 0.000000 0.000000 
#    y 0.000000 1.803460 0.000000 
#    z 0.000000 0.000000 1.809590 
# 
# From -- ./inp_files/10508.got.cif
#   From: 2010.03.12/outbox.cif.g09.slc.cpg/sg62_6_cif.got.tgz:10508.got - 2010.04.10 19:12:36.
