data_PCOD8253643
_publ_section_title
;
Structure prediction by ZEFSAII (Michael W. Deem and Ramdas Pophale) SiO2 
 PCOD8253643
Probable space group: P N M A
;
_chemical_formula_sum "Si O2"
_cell_formula_units_Z 56
_cell_length_a 14.154044
_cell_length_b 8.887282
_cell_length_c 22.824096
_cell_angle_alpha 90.000000
_cell_angle_beta 90.000000
_cell_angle_gamma 90.000000
_cell_volume 2871.065414
_symmetry_space_group_name_H-M "P N M A"
_symmetry_group_IT_number 62
_symmetry_cell_setting 'orthorhombic'
loop_
_space_group_symop_operation_xyz
x,y,z
1/2-x,-y,1/2+z
1/2+x,1/2-y,1/2-z
-x,1/2+y,-z
-x,-y,-z
1/2+x,y,1/2-z
1/2-x,1/2+y,1/2+z
x,1/2-y,z
loop_
_atom_site_type_symbol
_atom_site_label
_atom_site_fract_x
_atom_site_fract_y
_atom_site_fract_z
Si Si1 0.104266 0.573795 0.655419
Si Si2 0.893605 0.921139 0.224665
Si Si3 0.784765 0.573191 0.107736
Si Si4 0.722010 0.927229 0.391461
Si Si5 0.389177 0.927253 0.844021
Si Si6 0.897138 0.428787 0.002711
Si Si7 0.889702 0.423131 0.777153
O O1 0.115329 0.750000 0.650738
O O2 0.134257 0.523822 0.720565
O O3 0.173344 0.498881 0.607638
O O4 0.996771 0.523572 0.642052
O O5 0.873984 0.750000 0.243951
O O6 0.829953 0.967443 0.170110
O O7 0.001464 0.943795 0.205436
O O8 0.787678 0.750000 0.093934
O O9 0.677143 0.513067 0.109317
O O10 0.843127 0.483896 0.059783
O O11 0.732788 0.750000 0.394139
O O12 0.662460 0.985295 0.446746
O O13 0.669432 0.980123 0.332551
O O14 0.374706 0.750000 0.850394
O O15 0.361998 0.976122 0.778265
O O16 0.907425 0.250000 0.003521
O O17 0.000000 0.500000 0.000000
O O18 0.866574 0.250000 0.761444
#
# Coordination Sequence:
#
# PCOD8253643 Si02
#       7
#     8   8   8   8   8   8   8
#     4  10  21  35  54  82 114 145 183 230 279 329
#     4   9  18  33  54  80 113 148 182 222 274 335
#     4  11  22  37  58  83 110 147 191 230 273 328
#     4  10  21  37  57  80 109 146 187 226 271 326
#     4  10  21  36  53  80 115 146 180 227 278 328
#     4  11  24  42  62  85 113 145 182 227 274 325
#     4   9  17  32  54  80 110 145 181 220 269 329
#
# _framework density 19.504954000000001
#
# number of rings (size 3 to 8) (size 9 to 14) (size 15 to 20)
#    0.000    2.000    0.000    3.429    0.000   10.286 
#    0.000    3.571    0.000    0.000    0.000    0.000 
#    0.000    0.000    0.000    0.000    0.000    0.000 
#
# Total GULP energy -694580.814152 kJ/mol
# GULP energy per Si atom -12403.228824 kJ/mol
# Density = 1.946056 g / cm^3
# Si number density = 19.504954 Si / 1000 Ang^3
#
#
#
# Elastic Constant Matrix: (Units=GPa)
#
#
# Indices 1 2 3 4 5 6 
#
# 1 141.4810 47.3213 74.2944 0.0000 0.0000 0.0000
# 2 47.3213 55.8887 35.1927 0.0000 0.0000 0.0000
# 3 74.2944 35.1927 67.9199 0.0000 0.0000 0.0000
# 4 0.0000 0.0000 0.0000 29.9339 0.0000 0.0000
# 5 0.0000 0.0000 0.0000 0.0000 35.2029 0.0000
# 6 0.0000 0.0000 0.0000 0.0000 0.0000 33.8158
#
#
#
# Elastic Compliance Matrix: (Units=1/GPa)
#
#
# Indices 1 2 3 4 5 6 
#
# 1 0.017198 -0.004031 -0.016724 0.000000 0.000000 0.000000
# 2 -0.004031 0.027503 -0.009841 0.000000 0.000000 0.000000
# 3 -0.016724 -0.009841 0.038116 0.000000 0.000000 0.000000
# 4 0.000000 0.000000 0.000000 0.033407 0.000000 0.000000
# 5 0.000000 0.000000 0.000000 0.000000 0.028407 0.000000
# 6 0.000000 0.000000 0.000000 0.000000 0.000000 0.029572
#
#
# Mechanical properties :
#
#
# Convention : Reuss Voigt Hill
#
# Bulk Modulus (GPa) = 46.24307 64.32294 55.28300
# Shear Modulus (GPa) = 20.60985 27.02259 23.81622
#
# Velocity S-wave (km/s) = 3.25414 3.72616 3.49812
# Velocity P-wave (km/s) = 6.15460 7.18065 6.68733
#
# Compressibility (1/GPa) = 0.02162486
#
# Stress axis : x y z
#
# Youngs Moduli (GPa) = 58.14530 36.36003 26.23597
#
# Poissons Ratio (x) = 0.14657 0.43876
# Poissons Ratio (y) = 0.23439 0.25819
# Poissons Ratio (z) = 0.97240 0.35782
#
# Static dielectric constant tensor:
#      x y z
#    x 4.156320 0.000000 0.000000 
#    y 0.000000 3.492130 0.000000 
#    z 0.000000 0.000000 3.468370 
# 
# 
# High freq. dielectric constant tensor:
#      x y z
#    x 1.780000 0.000000 0.000000 
#    y 0.000000 1.757460 0.000000 
#    z 0.000000 0.000000 1.740010 
# 
# From -- ./inp_files/27284.got.cif
#   From: 2010.03.12/outbox.cif.g09.slc.cpg/sg62_14_cif.got.tgz:27284.got - 2010.04.10 19:12:36.
