data_PCOD8253526
_publ_section_title
;
Structure prediction by ZEFSAII (Michael W. Deem and Ramdas Pophale) SiO2 
 PCOD8253526
Probable space group: P N M A
;
_chemical_formula_sum "Si O2"
_cell_formula_units_Z 48
_cell_length_a 14.962466
_cell_length_b 8.881682
_cell_length_c 18.859763
_cell_angle_alpha 90.000000
_cell_angle_beta 90.000000
_cell_angle_gamma 90.000000
_cell_volume 2506.309078
_symmetry_space_group_name_H-M "P N M A"
_symmetry_group_IT_number 62
_symmetry_cell_setting 'orthorhombic'
loop_
_space_group_symop_operation_xyz
x,y,z
1/2-x,-y,1/2+z
1/2+x,1/2-y,1/2-z
-x,1/2+y,-z
-x,-y,-z
1/2+x,y,1/2-z
1/2-x,1/2+y,1/2+z
x,1/2-y,z
loop_
_atom_site_type_symbol
_atom_site_label
_atom_site_fract_x
_atom_site_fract_y
_atom_site_fract_z
Si Si1 0.730014 0.923920 0.418275
Si Si2 0.974218 0.425888 0.926464
Si Si3 0.119867 0.924639 0.667174
Si Si4 0.287624 0.924964 0.922233
Si Si5 0.527402 0.572435 0.074036
Si Si6 0.881960 0.424647 0.167554
O O1 0.749472 0.750000 0.400384
O O2 0.627140 0.966020 0.406429
O O3 0.756923 0.960412 0.498472
O O4 0.785828 0.029541 0.366347
O O5 0.986839 0.250000 0.936742
O O6 0.035181 0.482898 0.862654
O O7 0.000000 0.500000 0.000000
O O8 0.101182 0.750000 0.651611
O O9 0.125581 0.959220 0.749948
O O10 0.040510 0.022845 0.634868
O O11 0.311050 0.750000 0.911963
O O12 0.209533 0.977425 0.869468
O O13 0.374104 0.022202 0.902847
O O14 0.523063 0.750000 0.065064
O O15 0.500000 0.500000 0.000000
O O16 0.899044 0.250000 0.150873
#
# Coordination Sequence:
#
# PCOD8253526 Si02
#       6
#     8   8   8   8   8   8
#     4  10  21  38  62  89 122 158 198 250 300 352
#     4  11  22  38  63  93 124 161 203 251 301 359
#     4  11  24  41  63  90 123 161 201 248 306 365
#     4  10  20  39  64  89 121 158 200 249 299 353
#     4  12  24  39  62  91 122 158 204 252 300 361
#     4  10  23  43  63  89 125 161 200 250 305 362
#
# _framework density 19.151668000000001
#
# number of rings (size 3 to 8) (size 9 to 14) (size 15 to 20)
#    0.000    1.333    3.333    2.500    0.000    4.667 
#    0.000    5.000    0.000    0.000    0.000    0.000 
#    0.000    0.000    0.000    0.000    0.000    0.000 
#
# Total GULP energy -595506.265980 kJ/mol
# GULP energy per Si atom -12406.380541 kJ/mol
# Density = 1.910808 g / cm^3
# Si number density = 19.151668 Si / 1000 Ang^3
#
#
#
# Elastic Constant Matrix: (Units=GPa)
#
#
# Indices 1 2 3 4 5 6 
#
# 1 167.7319 74.7555 71.8684 0.0000 0.0000 0.0000
# 2 74.7555 101.7129 53.7683 0.0000 0.0000 0.0000
# 3 71.8684 53.7683 112.7609 0.0000 0.0000 0.0000
# 4 0.0000 0.0000 0.0000 31.2126 0.0000 0.0000
# 5 0.0000 0.0000 0.0000 0.0000 35.2445 0.0000
# 6 0.0000 0.0000 0.0000 0.0000 0.0000 38.8213
#
#
#
# Elastic Compliance Matrix: (Units=1/GPa)
#
#
# Indices 1 2 3 4 5 6 
#
# 1 0.009962 -0.005302 -0.003821 0.000000 0.000000 0.000000
# 2 -0.005302 0.015967 -0.004234 0.000000 0.000000 0.000000
# 3 -0.003821 -0.004234 0.013323 0.000000 0.000000 0.000000
# 4 0.000000 0.000000 0.000000 0.032038 0.000000 0.000000
# 5 0.000000 0.000000 0.000000 0.000000 0.028373 0.000000
# 6 0.000000 0.000000 0.000000 0.000000 0.000000 0.025759
#
#
# Mechanical properties :
#
#
# Convention : Reuss Voigt Hill
#
# Bulk Modulus (GPa) = 79.76508 86.99891 83.38200
# Shear Modulus (GPa) = 31.98647 33.17658 32.58153
#
# Velocity S-wave (km/s) = 4.09120 4.16662 4.12908
# Velocity P-wave (km/s) = 8.00355 8.28689 8.14645
#
# Compressibility (1/GPa) = 0.01253681
#
# Stress axis : x y z
#
# Youngs Moduli (GPa) = 100.38001 62.63076 75.05863
#
# Poissons Ratio (x) = 0.33205 0.28682
# Poissons Ratio (y) = 0.53219 0.31782
# Poissons Ratio (z) = 0.38358 0.26520
#
# Static dielectric constant tensor:
#      x y z
#    x -56.699350 0.000000 0.000000 
#    y 0.000000 3.485750 0.000000 
#    z 0.000000 0.000000 5.691120 
# 
# 
# High freq. dielectric constant tensor:
#      x y z
#    x 1.762120 0.000000 0.000000 
#    y 0.000000 1.747460 0.000000 
#    z 0.000000 0.000000 1.743950 
# 
# From -- ./inp_files/23677.got.cif
#   From: 2010.03.12/outbox.cif.g09.slc.cpg/sg62_12_cif.got.tgz:23677.got - 2010.04.10 19:12:36.
