data_PCOD8253159
_publ_section_title
;
Structure prediction by ZEFSAII (Michael W. Deem and Ramdas Pophale) SiO2 
 PCOD8253159
Probable space group: P N M A
;
_chemical_formula_sum "Si O2"
_cell_formula_units_Z 64
_cell_length_a 12.803067
_cell_length_b 8.693220
_cell_length_c 29.443559
_cell_angle_alpha 90.000000
_cell_angle_beta 90.000000
_cell_angle_gamma 90.000000
_cell_volume 3277.064528
_symmetry_space_group_name_H-M "P N M A"
_symmetry_group_IT_number 62
_symmetry_cell_setting 'orthorhombic'
loop_
_space_group_symop_operation_xyz
x,y,z
1/2-x,-y,1/2+z
1/2+x,1/2-y,1/2-z
-x,1/2+y,-z
-x,-y,-z
1/2+x,y,1/2-z
1/2-x,1/2+y,1/2+z
x,1/2-y,z
loop_
_atom_site_type_symbol
_atom_site_label
_atom_site_fract_x
_atom_site_fract_y
_atom_site_fract_z
Si Si1 0.107603 0.430801 0.551838
Si Si2 0.494744 0.567544 0.649483
Si Si3 0.658737 0.079566 0.796874
Si Si4 0.389501 0.567754 0.948329
Si Si5 0.716554 0.569545 0.619168
Si Si6 0.235035 0.071370 0.120699
Si Si7 0.732547 0.073081 0.219125
Si Si8 0.963511 0.424639 0.755348
O O1 0.095772 0.250000 0.555777
O O2 0.126555 0.485308 0.500224
O O3 0.208648 0.481093 0.580323
O O4 0.999811 0.503448 0.570730
O O5 0.495450 0.750000 0.658376
O O6 0.593916 0.518665 0.617595
O O7 0.385726 0.517064 0.625690
O O8 0.512900 0.482255 0.697248
O O9 0.696875 0.250000 0.811375
O O10 0.534795 0.074862 0.790048
O O11 0.703012 0.958029 0.832561
O O12 0.690749 0.038829 0.745753
O O13 0.395139 0.750000 0.943828
O O14 0.290712 0.497749 0.920185
O O15 0.721011 0.750000 0.612491
O O16 0.767766 0.521048 0.666929
O O17 0.240551 0.250000 0.109273
O O18 0.768019 0.250000 0.223920
O O19 0.622250 0.050050 0.243050
O O20 0.921102 0.250000 0.762716
#
# Coordination Sequence:
#
# PCOD8253159 Si02
#       8
#     8   8   8   8   8   8   8   8
#     4  10  21  38  61  87 117 147 180 233 291 340
#     4  10  20  37  58  80 109 148 193 234 274 328
#     4  11  23  37  53  79 114 151 191 235 286 332
#     4   9  19  39  64  88 113 146 186 230 286 344
#     4   9  19  36  59  85 110 143 189 236 278 332
#     4  11  23  37  58  84 111 150 194 234 279 338
#     4  11  21  34  55  81 110 149 193 233 276 330
#     4  11  23  36  51  75 113 152 186 235 285 329
#
# _framework density 19.529672999999999
#
# number of rings (size 3 to 8) (size 9 to 14) (size 15 to 20)
#    0.000    1.750    2.500    1.875    1.750    2.500 
#    0.000    1.875    0.000    0.000    0.000    0.000 
#    0.000    0.000    0.000    0.000    0.000    0.000 
#
# Total GULP energy -793167.995275 kJ/mol
# GULP energy per Si atom -12393.249926 kJ/mol
# Density = 1.948522 g / cm^3
# Si number density = 19.529673 Si / 1000 Ang^3
#
#
#
# Elastic Constant Matrix: (Units=GPa)
#
#
# Indices 1 2 3 4 5 6 
#
# 1 110.1520 14.9486 52.8813 0.0000 0.0000 0.0000
# 2 14.9486 34.1774 12.8138 0.0000 0.0000 0.0000
# 3 52.8813 12.8138 88.5307 0.0000 0.0000 0.0000
# 4 0.0000 0.0000 0.0000 25.5628 0.0000 0.0000
# 5 0.0000 0.0000 0.0000 0.0000 38.6332 0.0000
# 6 0.0000 0.0000 0.0000 0.0000 0.0000 21.1297
#
#
#
# Elastic Compliance Matrix: (Units=1/GPa)
#
#
# Indices 1 2 3 4 5 6 
#
# 1 0.013001 -0.002934 -0.007341 0.000000 0.000000 0.000000
# 2 -0.002934 0.031600 -0.002821 0.000000 0.000000 0.000000
# 3 -0.007341 -0.002821 0.016089 0.000000 0.000000 0.000000
# 4 0.000000 0.000000 0.000000 0.039119 0.000000 0.000000
# 5 0.000000 0.000000 0.000000 0.000000 0.025884 0.000000
# 6 0.000000 0.000000 0.000000 0.000000 0.000000 0.047327
#
#
# Mechanical properties :
#
#
# Convention : Reuss Voigt Hill
#
# Bulk Modulus (GPa) = 28.98779 43.79416 36.39098
# Shear Modulus (GPa) = 23.72910 27.21289 25.47099
#
# Velocity S-wave (km/s) = 3.48951 3.73689 3.61532
# Velocity P-wave (km/s) = 5.57770 6.41033 6.00845
#
# Compressibility (1/GPa) = 0.03449728
#
# Stress axis : x y z
#
# Youngs Moduli (GPa) = 76.91860 31.64542 62.15521
#
# Poissons Ratio (x) = 0.09285 0.45628
# Poissons Ratio (y) = 0.22568 0.17535
# Poissons Ratio (z) = 0.56466 0.08928
#
# Static dielectric constant tensor:
#      x y z
#    x 3.912480 0.000000 0.000000 
#    y 0.000000 3.432920 0.000000 
#    z 0.000000 0.000000 3.565340 
# 
# 
# High freq. dielectric constant tensor:
#      x y z
#    x 1.772660 0.000000 0.000000 
#    y 0.000000 1.750240 0.000000 
#    z 0.000000 0.000000 1.743230 
# 
# From -- ./inp_files/32525.got.cif
#   From: 2010.03.12/outbox.cif.g09.slc.cpg/sg62_17_cif.got.tgz:32525.got - 2010.04.10 19:12:36.
