data_PCOD8253455
_publ_section_title
;
Structure prediction by ZEFSAII (Michael W. Deem and Ramdas Pophale) SiO2 
 PCOD8253455
Probable space group: P N M A
;
_chemical_formula_sum "Si O2"
_cell_formula_units_Z 64
_cell_length_a 11.735836
_cell_length_b 13.342076
_cell_length_c 19.852465
_cell_angle_alpha 90.000000
_cell_angle_beta 90.000000
_cell_angle_gamma 90.000000
_cell_volume 3108.507225
_symmetry_space_group_name_H-M "P N M A"
_symmetry_group_IT_number 62
_symmetry_cell_setting 'orthorhombic'
loop_
_space_group_symop_operation_xyz
x,y,z
1/2-x,-y,1/2+z
1/2+x,1/2-y,1/2-z
-x,1/2+y,-z
-x,-y,-z
1/2+x,y,1/2-z
1/2-x,1/2+y,1/2+z
x,1/2-y,z
loop_
_atom_site_type_symbol
_atom_site_label
_atom_site_fract_x
_atom_site_fract_y
_atom_site_fract_z
Si Si1 0.893922 0.139045 0.863301
Si Si2 0.548022 0.865231 0.512414
Si Si3 0.138919 0.362332 0.651766
Si Si4 0.434024 0.632753 0.839594
Si Si5 0.200379 0.965908 0.875084
Si Si6 0.464345 0.990976 0.265632
Si Si7 0.205545 0.131234 0.975127
Si Si8 0.910424 0.465204 0.445653
O O1 0.949848 0.250000 0.855579
O O2 0.771090 0.139061 0.828080
O O3 0.968321 0.055718 0.827655
O O4 0.886057 0.113511 0.942524
O O5 0.548816 0.750000 0.531668
O O6 0.612004 0.918811 0.572777
O O7 0.416733 0.901907 0.506036
O O8 0.095557 0.250000 0.635056
O O9 0.128019 0.430478 0.586412
O O10 0.063978 0.404620 0.712516
O O11 0.426477 0.750000 0.824750
O O12 0.317090 0.595575 0.872888
O O13 0.460885 0.577859 0.768907
O O14 0.535688 0.609830 0.891203
O O15 0.224168 0.078914 0.902052
O O16 0.150264 0.964531 0.799237
O O17 0.212986 0.250000 0.963737
O O18 0.303228 0.093941 0.025117
O O19 0.000000 0.500000 0.500000
#
# Coordination Sequence:
#
# PCOD8253455 Si02
#       8
#     8   8   8   8   8   8   8   8
#     4  10  20  38  64  95 130 163 208 269 322 377
#     4  10  22  39  66 101 129 167 215 268 331 390
#     4  10  23  40  63  93 125 167 216 260 321 387
#     4  11  26  46  65  94 130 173 224 268 320 391
#     4  12  23  42  70  95 132 173 218 274 326 393
#     4  11  24  41  65  90 131 174 216 268 323 378
#     4  11  23  40  65 101 135 168 211 267 333 391
#     4  11  23  43  66  96 131 168 211 265 334 383
#
# _framework density 20.588660999999998
#
# number of rings (size 3 to 8) (size 9 to 14) (size 15 to 20)
#    0.000    1.250    2.500    3.000    1.750    2.500 
#    0.000    0.625    0.000    0.000    0.000    0.000 
#    0.000    0.000    0.000    0.000    0.000    0.000 
#
# Total GULP energy -793706.540750 kJ/mol
# GULP energy per Si atom -12401.664699 kJ/mol
# Density = 2.054180 g / cm^3
# Si number density = 20.588661 Si / 1000 Ang^3
#
#
#
# Elastic Constant Matrix: (Units=GPa)
#
#
# Indices 1 2 3 4 5 6 
#
# 1 102.0899 55.9992 33.5284 0.0000 0.0000 0.0000
# 2 55.9992 126.7839 47.0108 0.0000 0.0000 0.0000
# 3 33.5284 47.0108 84.1496 0.0000 0.0000 0.0000
# 4 0.0000 0.0000 0.0000 29.4841 0.0000 0.0000
# 5 0.0000 0.0000 0.0000 0.0000 35.8223 0.0000
# 6 0.0000 0.0000 0.0000 0.0000 0.0000 32.0328
#
#
#
# Elastic Compliance Matrix: (Units=1/GPa)
#
#
# Indices 1 2 3 4 5 6 
#
# 1 0.013349 -0.004949 -0.002554 0.000000 0.000000 0.000000
# 2 -0.004949 0.011783 -0.004611 0.000000 0.000000 0.000000
# 3 -0.002554 -0.004611 0.015477 0.000000 0.000000 0.000000
# 4 0.000000 0.000000 0.000000 0.033917 0.000000 0.000000
# 5 0.000000 0.000000 0.000000 0.000000 0.027916 0.000000
# 6 0.000000 0.000000 0.000000 0.000000 0.000000 0.031218
#
#
# Mechanical properties :
#
#
# Convention : Reuss Voigt Hill
#
# Bulk Modulus (GPa) = 61.04473 65.12224 63.08349
# Shear Modulus (GPa) = 30.60974 31.23351 30.92162
#
# Velocity S-wave (km/s) = 3.85999 3.89913 3.87961
# Velocity P-wave (km/s) = 7.04132 7.20900 7.12565
#
# Compressibility (1/GPa) = 0.01638143
#
# Stress axis : x y z
#
# Youngs Moduli (GPa) = 74.91360 84.86766 64.61206
#
# Poissons Ratio (x) = 0.42002 0.16501
# Poissons Ratio (y) = 0.37075 0.29791
# Poissons Ratio (z) = 0.19131 0.39131
#
# Static dielectric constant tensor:
#      x y z
#    x 3.945640 0.000000 0.000000 
#    y 0.000000 3.798050 0.000000 
#    z 0.000000 0.000000 3.708460 
# 
# 
# High freq. dielectric constant tensor:
#      x y z
#    x 1.814140 0.000000 0.000000 
#    y 0.000000 1.816470 0.000000 
#    z 0.000000 0.000000 1.800810 
# 
# From -- ./inp_files/23215.got.cif
#   From: 2010.03.12/outbox.cif.g09.slc.cpg/sg62_12_cif.got.tgz:23215.got - 2010.04.10 19:12:36.
