data_PCOD8253561
_publ_section_title
;
Structure prediction by ZEFSAII (Michael W. Deem and Ramdas Pophale) SiO2 
 PCOD8253561
Probable space group: P N M A
;
_chemical_formula_sum "Si O2"
_cell_formula_units_Z 44
_cell_length_a 13.242292
_cell_length_b 11.256439
_cell_length_c 14.991671
_cell_angle_alpha 90.000000
_cell_angle_beta 90.000000
_cell_angle_gamma 90.000000
_cell_volume 2234.674252
_symmetry_space_group_name_H-M "P N M A"
_symmetry_group_IT_number 62
_symmetry_cell_setting 'orthorhombic'
loop_
_space_group_symop_operation_xyz
x,y,z
1/2-x,-y,1/2+z
1/2+x,1/2-y,1/2-z
-x,1/2+y,-z
-x,-y,-z
1/2+x,y,1/2-z
1/2-x,1/2+y,1/2+z
x,1/2-y,z
loop_
_atom_site_type_symbol
_atom_site_label
_atom_site_fract_x
_atom_site_fract_y
_atom_site_fract_z
Si Si1 0.760609 0.037906 0.024085
Si Si2 0.716266 0.250000 0.909533
Si Si3 0.173261 0.115832 0.140091
Si Si4 0.205289 0.946052 0.299085
Si Si5 0.526381 0.884243 0.556821
Si Si6 0.635960 0.250000 0.723514
Si Si7 0.590495 0.750000 0.287712
O O1 0.855037 0.098971 0.076855
O O2 0.684990 0.996469 0.102312
O O3 0.698870 0.134162 0.968038
O O4 0.791268 0.933080 0.956366
O O5 0.633814 0.250000 0.831200
O O6 0.832003 0.250000 0.871173
O O7 0.212659 0.250000 0.148498
O O8 0.049740 0.109987 0.141850
O O9 0.220072 0.045313 0.223103
O O10 0.307014 0.868141 0.308222
O O11 0.109680 0.866338 0.271752
O O12 0.511818 0.750000 0.513690
O O13 0.500000 0.000000 0.500000
O O14 0.524907 0.250000 0.680215
#
# Coordination Sequence:
#
# PCOD8253561 Si02
#       7
#     8   4   8   8   8   4   4
#     4  11  20  36  61  87 123 153 204 246 305 360
#     4  10  20  40  64  90 120 156 200 254 302 360
#     4  10  21  36  54  86 129 153 194 249 307 358
#     4  10  23  38  59  94 115 163 202 247 310 362
#     4   9  19  32  54  88 117 156 191 246 308 356
#     4  10  22  42  66  83 120 165 203 248 311 353
#     4  10  22  42  62  85 120 159 213 256 289 369
#
# _framework density 19.689671000000001
#
# number of rings (size 3 to 8) (size 9 to 14) (size 15 to 20)
#    0.000    2.182    4.545    0.000    6.364    1.455 
#    0.000    0.909    0.000    0.000    0.000    0.000 
#    0.000    0.000    0.000    0.000    0.000    0.000 
#
# Total GULP energy -545074.154426 kJ/mol
# GULP energy per Si atom -12388.048964 kJ/mol
# Density = 1.964486 g / cm^3
# Si number density = 19.689671 Si / 1000 Ang^3
#
#
#
# Elastic Constant Matrix: (Units=GPa)
#
#
# Indices 1 2 3 4 5 6 
#
# 1 32.9751 10.8963 1.3023 0.0000 0.0000 0.0000
# 2 10.8963 146.6065 40.8994 0.0000 0.0000 0.0000
# 3 1.3023 40.8994 110.4427 0.0000 0.0000 0.0000
# 4 0.0000 0.0000 0.0000 31.6121 0.0000 0.0000
# 5 0.0000 0.0000 0.0000 0.0000 11.1790 0.0000
# 6 0.0000 0.0000 0.0000 0.0000 0.0000 12.4621
#
#
#
# Elastic Compliance Matrix: (Units=1/GPa)
#
#
# Indices 1 2 3 4 5 6 
#
# 1 0.031119 -0.002465 0.000546 0.000000 0.000000 0.000000
# 2 -0.002465 0.007802 -0.002860 0.000000 0.000000 0.000000
# 3 0.000546 -0.002860 0.010107 0.000000 0.000000 0.000000
# 4 0.000000 0.000000 0.000000 0.031634 0.000000 0.000000
# 5 0.000000 0.000000 0.000000 0.000000 0.089453 0.000000
# 6 0.000000 0.000000 0.000000 0.000000 0.000000 0.080243
#
#
# Mechanical properties :
#
#
# Convention : Reuss Voigt Hill
#
# Bulk Modulus (GPa) = 25.33610 44.02448 34.68029
# Shear Modulus (GPa) = 18.31008 26.84572 22.57790
#
# Velocity S-wave (km/s) = 3.05279 3.69649 3.38995
# Velocity P-wave (km/s) = 5.03206 6.37388 5.74230
#
# Compressibility (1/GPa) = 0.03946938
#
# Stress axis : x y z
#
# Youngs Moduli (GPa) = 32.13480 128.17007 98.93898
#
# Poissons Ratio (x) = 0.31596 -0.05402
# Poissons Ratio (y) = 0.07922 0.28299
# Poissons Ratio (z) = -0.01754 0.36660
#
# Static dielectric constant tensor:
#      x y z
#    x 3.338440 0.000000 0.000000 
#    y 0.000000 3.940360 0.000000 
#    z 0.000000 0.000000 3.330260 
# 
# 
# High freq. dielectric constant tensor:
#      x y z
#    x 1.724470 0.000000 0.000000 
#    y 0.000000 1.792020 0.000000 
#    z 0.000000 0.000000 1.746520 
# 
# From -- ./inp_files/18844.got.cif
#   From: 2010.03.12/outbox.cif.g09.slc.cpg/sg62_10_cif.got.tgz:18844.got - 2010.04.10 19:12:36.
