data_PCOD8253957
_publ_section_title
;
Structure prediction by ZEFSAII (Michael W. Deem and Ramdas Pophale) SiO2 
 PCOD8253957
Probable space group: P N M A
;
_chemical_formula_sum "Si O2"
_cell_formula_units_Z 64
_cell_length_a 15.370737
_cell_length_b 8.719552
_cell_length_c 23.781821
_cell_angle_alpha 90.000000
_cell_angle_beta 90.000000
_cell_angle_gamma 90.000000
_cell_volume 3187.380928
_symmetry_space_group_name_H-M "P N M A"
_symmetry_group_IT_number 62
_symmetry_cell_setting 'orthorhombic'
loop_
_space_group_symop_operation_xyz
x,y,z
1/2-x,-y,1/2+z
1/2+x,1/2-y,1/2-z
-x,1/2+y,-z
-x,-y,-z
1/2+x,y,1/2-z
1/2-x,1/2+y,1/2+z
x,1/2-y,z
loop_
_atom_site_type_symbol
_atom_site_label
_atom_site_fract_x
_atom_site_fract_y
_atom_site_fract_z
Si Si1 0.324253 0.568926 0.780475
Si Si2 0.111969 0.568939 0.615024
Si Si3 0.022861 0.570579 0.212784
Si Si4 0.361856 0.926201 0.497043
Si Si5 0.318077 0.570397 0.002688
Si Si6 0.018896 0.573669 0.083283
Si Si7 0.344869 0.931018 0.229366
Si Si8 0.915947 0.568055 0.607579
O O1 0.313651 0.750000 0.780329
O O2 0.393809 0.522193 0.733480
O O3 0.231232 0.495176 0.768465
O O4 0.357110 0.506761 0.841024
O O5 0.113654 0.750000 0.622750
O O6 0.158989 0.524914 0.557732
O O7 0.164817 0.493990 0.666257
O O8 0.013570 0.503696 0.614326
O O9 0.039776 0.750000 0.222187
O O10 0.008841 0.529744 0.147932
O O11 0.937255 0.514576 0.245771
O O12 0.331678 0.750000 0.499260
O O13 0.426569 0.958639 0.445622
O O14 0.280816 0.036609 0.486103
O O15 0.407252 0.967567 0.556069
O O16 0.331589 0.750000 0.013847
O O17 0.378089 0.509991 0.951659
O O18 0.046833 0.750000 0.074851
O O19 0.336775 0.750000 0.228661
O O20 0.917128 0.750000 0.608697
#
# Coordination Sequence:
#
# PCOD8253957 Si02
#       8
#     8   8   8   8   8   8   8   8
#     4  11  23  41  64  92 125 163 206 255 305 363
#     4  11  22  42  65  88 119 156 201 253 301 358
#     4  10  22  41  64  91 123 161 206 253 306 366
#     4  10  21  38  59  88 119 154 199 247 297 356
#     4  11  23  39  61  89 120 156 197 246 304 363
#     4   9  20  39  61  83 118 158 197 246 298 352
#     4  11  24  41  63  93 126 164 205 252 308 368
#     4   9  21  41  63  88 120 155 198 249 303 357
#
# _framework density 20.079180999999998
#
# number of rings (size 3 to 8) (size 9 to 14) (size 15 to 20)
#    0.000    1.750    1.250    2.250    3.500    1.500 
#    0.000    3.750    0.000    0.000    0.000    0.000 
#    0.000    0.000    0.000    0.000    0.000    0.000 
#
# Total GULP energy -793955.958666 kJ/mol
# GULP energy per Si atom -12405.561854 kJ/mol
# Density = 2.003348 g / cm^3
# Si number density = 20.079181 Si / 1000 Ang^3
#
#
#
# Elastic Constant Matrix: (Units=GPa)
#
#
# Indices 1 2 3 4 5 6 
#
# 1 70.8974 20.4528 -1.1122 0.0000 0.0000 0.0000
# 2 20.4528 53.1295 15.2549 0.0000 0.0000 0.0000
# 3 -1.1122 15.2549 91.7648 0.0000 0.0000 0.0000
# 4 0.0000 0.0000 0.0000 26.4288 0.0000 0.0000
# 5 0.0000 0.0000 0.0000 0.0000 26.1323 0.0000
# 6 0.0000 0.0000 0.0000 0.0000 0.0000 32.5407
#
#
#
# Elastic Compliance Matrix: (Units=1/GPa)
#
#
# Indices 1 2 3 4 5 6 
#
# 1 0.016009 -0.006530 0.001280 0.000000 0.000000 0.000000
# 2 -0.006530 0.022429 -0.003808 0.000000 0.000000 0.000000
# 3 0.001280 -0.003808 0.011546 0.000000 0.000000 0.000000
# 4 0.000000 0.000000 0.000000 0.037837 0.000000 0.000000
# 5 0.000000 0.000000 0.000000 0.000000 0.038267 0.000000
# 6 0.000000 0.000000 0.000000 0.000000 0.000000 0.030731
#
#
# Mechanical properties :
#
#
# Convention : Reuss Voigt Hill
#
# Bulk Modulus (GPa) = 31.38021 31.66473 31.52247
# Shear Modulus (GPa) = 26.94576 29.10011 28.02293
#
# Velocity S-wave (km/s) = 3.66727 3.81105 3.73985
# Velocity P-wave (km/s) = 5.79603 5.93040 5.86360
#
# Compressibility (1/GPa) = 0.03186722
#
# Stress axis : x y z
#
# Youngs Moduli (GPa) = 62.46557 44.58491 86.61059
#
# Poissons Ratio (x) = 0.29115 -0.11083
# Poissons Ratio (y) = 0.40791 0.32979
# Poissons Ratio (z) = -0.07993 0.16977
#
# Static dielectric constant tensor:
#      x y z
#    x 3.736240 0.000000 0.000000 
#    y 0.000000 3.511620 0.000000 
#    z 0.000000 0.000000 3.753980 
# 
# 
# High freq. dielectric constant tensor:
#      x y z
#    x 1.790910 0.000000 0.000000 
#    y 0.000000 1.775810 0.000000 
#    z 0.000000 0.000000 1.795150 
# 
# From -- ./inp_files/29903.got.cif
#   From: 2010.03.12/outbox.cif.g09.slc.cpg/sg62_15_cif.got.tgz:29903.got - 2010.04.10 19:12:36.
