data_PCOD8253349
_publ_section_title
;
Structure prediction by ZEFSAII (Michael W. Deem and Ramdas Pophale) SiO2 
 PCOD8253349
Probable space group: P N M A
;
_chemical_formula_sum "Si O2"
_cell_formula_units_Z 40
_cell_length_a 22.976547
_cell_length_b 17.050028
_cell_length_c 4.994306
_cell_angle_alpha 90.000000
_cell_angle_beta 90.000000
_cell_angle_gamma 90.000000
_cell_volume 1956.523220
_symmetry_space_group_name_H-M "P N M A"
_symmetry_group_IT_number 62
_symmetry_cell_setting 'orthorhombic'
loop_
_space_group_symop_operation_xyz
x,y,z
1/2-x,-y,1/2+z
1/2+x,1/2-y,1/2-z
-x,1/2+y,-z
-x,-y,-z
1/2+x,y,1/2-z
1/2-x,1/2+y,1/2+z
x,1/2-y,z
loop_
_atom_site_type_symbol
_atom_site_label
_atom_site_fract_x
_atom_site_fract_y
_atom_site_fract_z
Si Si1 0.687206 0.438745 0.404186
Si Si2 0.086781 0.750000 0.425522
Si Si3 0.256590 0.101089 0.586317
Si Si4 0.991316 0.395945 0.720991
Si Si5 0.942838 0.567589 0.776605
Si Si6 0.829598 0.250000 0.060116
O O1 0.727377 0.391185 0.618609
O O2 0.696445 0.531591 0.438309
O O3 0.619306 0.418717 0.416108
O O4 0.702801 0.415393 0.104802
O O5 0.048200 0.827471 0.398834
O O6 0.129069 0.750000 0.681251
O O7 0.128618 0.750000 0.182613
O O8 0.288010 0.176036 0.467072
O O9 0.954126 0.475364 0.737147
O O10 0.047053 0.398526 0.520663
O O11 0.013750 0.385085 0.024226
#
# Coordination Sequence:
#
# PCOD8253349 Si02
#       6
#     8   4   8   8   8   4
#     4  10  20  38  60  83 115 154 193 239 284 338
#     4  12  24  40  61  86 119 152 188 244 300 342
#     4  10  22  37  58  87 114 148 199 236 282 350
#     4  10  22  37  58  88 115 149 199 237 285 356
#     4  10  20  38  60  83 116 154 193 240 287 340
#     4  12  24  40  61  86 119 152 188 246 300 342
#
# _framework density 20.444431000000002
#
# number of rings (size 3 to 8) (size 9 to 14) (size 15 to 20)
#    0.000    1.600    0.000    4.800    0.000    6.400 
#    0.000    6.000    0.000    0.000    0.000    0.000 
#    0.000    0.000    0.000    0.000    0.000    0.000 
#
# Total GULP energy -495579.406774 kJ/mol
# GULP energy per Si atom -12389.485169 kJ/mol
# Density = 2.039790 g / cm^3
# Si number density = 20.444431 Si / 1000 Ang^3
#
#
#
# Elastic Constant Matrix: (Units=GPa)
#
#
# Indices 1 2 3 4 5 6 
#
# 1 99.6405 46.1615 27.7843 0.0000 0.0000 0.0000
# 2 46.1615 93.3913 31.5849 0.0000 0.0000 0.0000
# 3 27.7843 31.5849 115.7218 0.0000 0.0000 0.0000
# 4 0.0000 0.0000 0.0000 22.6771 0.0000 0.0000
# 5 0.0000 0.0000 0.0000 0.0000 28.0096 0.0000
# 6 0.0000 0.0000 0.0000 0.0000 0.0000 18.8298
#
#
#
# Elastic Compliance Matrix: (Units=1/GPa)
#
#
# Indices 1 2 3 4 5 6 
#
# 1 0.013260 -0.006035 -0.001537 0.000000 0.000000 0.000000
# 2 -0.006035 0.014543 -0.002520 0.000000 0.000000 0.000000
# 3 -0.001537 -0.002520 0.009698 0.000000 0.000000 0.000000
# 4 0.000000 0.000000 0.000000 0.044097 0.000000 0.000000
# 5 0.000000 0.000000 0.000000 0.000000 0.035702 0.000000
# 6 0.000000 0.000000 0.000000 0.000000 0.000000 0.053107
#
#
# Mechanical properties :
#
#
# Convention : Reuss Voigt Hill
#
# Bulk Modulus (GPa) = 57.74327 57.75722 57.75025
# Shear Modulus (GPa) = 25.46289 27.45149 26.45719
#
# Velocity S-wave (km/s) = 3.53295 3.66831 3.60127
# Velocity P-wave (km/s) = 6.70430 6.80104 6.75284
#
# Compressibility (1/GPa) = 0.01731803
#
# Stress axis : x y z
#
# Youngs Moduli (GPa) = 75.41317 68.76242 103.11111
#
# Poissons Ratio (x) = 0.41495 0.15845
# Poissons Ratio (y) = 0.45509 0.25988
# Poissons Ratio (z) = 0.11588 0.17331
#
# Static dielectric constant tensor:
#      x y z
#    x 3.567320 0.000000 0.000000 
#    y 0.000000 3.450360 0.000000 
#    z 0.000000 0.000000 3.968900 
# 
# 
# High freq. dielectric constant tensor:
#      x y z
#    x 1.801210 0.000000 0.000000 
#    y 0.000000 1.780270 0.000000 
#    z 0.000000 0.000000 1.823790 
# 
# From -- ./inp_files/2672.got.cif
#   From: 2010.03.12/outbox.cif.g09.slc.cpg/sg62_2_cif.got.tgz:2672.got - 2010.04.10 19:12:36.
