data_PCOD8253254
_publ_section_title
;
Structure prediction by ZEFSAII (Michael W. Deem and Ramdas Pophale) SiO2 
 PCOD8253254
Probable space group: P N M A
;
_chemical_formula_sum "Si O2"
_cell_formula_units_Z 64
_cell_length_a 19.802501
_cell_length_b 16.914524
_cell_length_c 9.410115
_cell_angle_alpha 90.000000
_cell_angle_beta 90.000000
_cell_angle_gamma 90.000000
_cell_volume 3151.916875
_symmetry_space_group_name_H-M "P N M A"
_symmetry_group_IT_number 62
_symmetry_cell_setting 'orthorhombic'
loop_
_space_group_symop_operation_xyz
x,y,z
1/2-x,-y,1/2+z
1/2+x,1/2-y,1/2-z
-x,1/2+y,-z
-x,-y,-z
1/2+x,y,1/2-z
1/2-x,1/2+y,1/2+z
x,1/2-y,z
loop_
_atom_site_type_symbol
_atom_site_label
_atom_site_fract_x
_atom_site_fract_y
_atom_site_fract_z
Si Si1 0.744253 0.095094 0.265780
Si Si2 0.501036 0.410499 0.050285
Si Si3 0.489044 0.838367 0.244539
Si Si4 0.863345 0.158874 0.436898
Si Si5 0.144348 0.660196 0.242623
Si Si6 0.801005 0.037583 0.973243
Si Si7 0.902869 0.841844 0.775269
Si Si8 0.935694 0.553241 0.031434
O O1 0.804906 0.149955 0.320576
O O2 0.677150 0.147645 0.261311
O O3 0.739760 0.024912 0.379469
O O4 0.756718 0.063310 0.107457
O O5 0.514842 0.350071 0.923167
O O6 0.500000 0.500000 0.000000
O O7 0.428152 0.390218 0.118540
O O8 0.560901 0.397603 0.160870
O O9 0.463074 0.750000 0.279966
O O10 0.565817 0.849296 0.296912
O O11 0.442531 0.905125 0.315785
O O12 0.884693 0.250000 0.448066
O O13 0.842003 0.129756 0.595778
O O14 0.168889 0.750000 0.227821
O O15 0.187219 0.611497 0.129744
O O16 0.870505 0.001762 0.031016
O O17 0.922354 0.750000 0.758113
O O18 0.929509 0.873196 0.925005
O O19 0.000000 0.500000 0.000000
#
# Coordination Sequence:
#
# PCOD8253254 Si02
#       8
#     8   8   8   8   8   8   8   8
#     4  11  26  41  66  90 131 174 217 267 324 389
#     4  11  24  38  69  97 127 165 215 265 323 381
#     4  10  20  37  60  91 129 164 205 258 325 386
#     4  10  22  42  66  94 128 170 215 261 325 391
#     4   9  19  37  62  89 125 164 208 265 319 379
#     4  11  24  40  62  91 129 166 223 265 318 384
#     4  11  25  44  63  94 134 169 210 270 327 379
#     4  11  22  38  62  94 125 166 209 269 324 376
#
# _framework density 20.305104
#
# number of rings (size 3 to 8) (size 9 to 14) (size 15 to 20)
#    0.000    1.500    1.250    4.125   10.500    1.000 
#    0.000    0.000    0.000    3.750    0.000    0.000 
#    0.000    0.000    0.000    0.000    0.000    0.000 
#
# Total GULP energy -793793.201728 kJ/mol
# GULP energy per Si atom -12403.018777 kJ/mol
# Density = 2.025889 g / cm^3
# Si number density = 20.305104 Si / 1000 Ang^3
#
#
#
# Elastic Constant Matrix: (Units=GPa)
#
#
# Indices 1 2 3 4 5 6 
#
# 1 90.3734 29.0311 31.5935 0.0000 0.0000 0.0000
# 2 29.0311 88.5825 15.4907 0.0000 0.0000 0.0000
# 3 31.5935 15.4907 72.5978 0.0000 0.0000 0.0000
# 4 0.0000 0.0000 0.0000 35.6020 0.0000 0.0000
# 5 0.0000 0.0000 0.0000 0.0000 39.5646 0.0000
# 6 0.0000 0.0000 0.0000 0.0000 0.0000 23.2735
#
#
#
# Elastic Compliance Matrix: (Units=1/GPa)
#
#
# Indices 1 2 3 4 5 6 
#
# 1 0.014125 -0.003692 -0.005359 0.000000 0.000000 0.000000
# 2 -0.003692 0.012691 -0.001101 0.000000 0.000000 0.000000
# 3 -0.005359 -0.001101 0.016342 0.000000 0.000000 0.000000
# 4 0.000000 0.000000 0.000000 0.028088 0.000000 0.000000
# 5 0.000000 0.000000 0.000000 0.000000 0.025275 0.000000
# 6 0.000000 0.000000 0.000000 0.000000 0.000000 0.042967
#
#
# Mechanical properties :
#
#
# Convention : Reuss Voigt Hill
#
# Bulk Modulus (GPa) = 43.75780 44.86494 44.31137
# Shear Modulus (GPa) = 29.86658 31.38388 30.62523
#
# Velocity S-wave (km/s) = 3.83938 3.93570 3.88784
# Velocity P-wave (km/s) = 6.42272 6.54189 6.48258
#
# Compressibility (1/GPa) = 0.02285307
#
# Stress axis : x y z
#
# Youngs Moduli (GPa) = 70.79821 78.79309 61.19298
#
# Poissons Ratio (x) = 0.29090 0.32794
# Poissons Ratio (y) = 0.26138 0.06740
# Poissons Ratio (z) = 0.37941 0.08678
#
# Static dielectric constant tensor:
#      x y z
#    x 3.597440 0.000000 0.000000 
#    y 0.000000 3.028090 0.000000 
#    z 0.000000 0.000000 3.728910 
# 
# 
# High freq. dielectric constant tensor:
#      x y z
#    x 1.783900 0.000000 0.000000 
#    y 0.000000 1.805450 0.000000 
#    z 0.000000 0.000000 1.796590 
# 
# From -- ./inp_files/8908.got.cif
#   From: 2010.03.12/outbox.cif.g09.slc.cpg/sg62_5_cif.got.tgz:8908.got - 2010.04.10 19:12:36.
