data_PCOD8253524
_publ_section_title
;
Structure prediction by ZEFSAII (Michael W. Deem and Ramdas Pophale) SiO2 
 PCOD8253524
Probable space group: P N M A
;
_chemical_formula_sum "Si O2"
_cell_formula_units_Z 64
_cell_length_a 18.978848
_cell_length_b 8.791382
_cell_length_c 19.021269
_cell_angle_alpha 90.000000
_cell_angle_beta 90.000000
_cell_angle_gamma 90.000000
_cell_volume 3173.704490
_symmetry_space_group_name_H-M "P N M A"
_symmetry_group_IT_number 62
_symmetry_cell_setting 'orthorhombic'
loop_
_space_group_symop_operation_xyz
x,y,z
1/2-x,-y,1/2+z
1/2+x,1/2-y,1/2-z
-x,1/2+y,-z
-x,-y,-z
1/2+x,y,1/2-z
1/2-x,1/2+y,1/2+z
x,1/2-y,z
loop_
_atom_site_type_symbol
_atom_site_label
_atom_site_fract_x
_atom_site_fract_y
_atom_site_fract_z
Si Si1 0.393584 0.575995 0.035595
Si Si2 0.468839 0.071222 0.633390
Si Si3 0.734444 0.925730 0.893982
Si Si4 0.617522 0.574090 0.235215
Si Si5 0.765720 0.427202 0.232600
Si Si6 0.873146 0.569841 0.123876
Si Si7 0.143104 0.573096 0.023375
Si Si8 0.043647 0.922075 0.407780
O O1 0.367665 0.750000 0.040352
O O2 0.333471 0.462457 0.060157
O O3 0.460852 0.545316 0.084728
O O4 0.411744 0.538044 0.955021
O O5 0.473571 0.250000 0.646472
O O6 0.420571 0.002964 0.696063
O O7 0.547780 0.002563 0.634577
O O8 0.432689 0.034416 0.558341
O O9 0.755116 0.750000 0.903282
O O10 0.717258 0.965469 0.813380
O O11 0.798601 0.029132 0.919425
O O12 0.638219 0.750000 0.246561
O O13 0.687398 0.482891 0.214973
O O14 0.561949 0.552360 0.172934
O O15 0.770679 0.250000 0.215914
O O16 0.822763 0.511296 0.184938
O O17 0.873448 0.750000 0.126130
O O18 0.844827 0.519381 0.047905
O O19 0.149768 0.750000 0.005591
O O20 0.060783 0.750000 0.432358
#
# Coordination Sequence:
#
# PCOD8253524 Si02
#       8
#     8   8   8   8   8   8   8   8
#     4  10  21  37  60  88 119 158 201 249 301 362
#     4   9  20  39  65  94 121 158 206 253 306 366
#     4  11  24  41  61  86 122 163 204 251 305 364
#     4  10  20  39  64  88 118 159 204 250 303 364
#     4  11  25  43  60  89 125 160 204 253 299 357
#     4  11  24  41  66  95 126 162 201 250 305 365
#     4  11  22  41  66  92 123 160 205 257 307 363
#     4   9  20  37  60  88 120 155 198 251 303 361
#
# _framework density 20.165707999999999
#
# number of rings (size 3 to 8) (size 9 to 14) (size 15 to 20)
#    0.000    1.750    1.250    2.250    3.500    2.500 
#    0.000    3.125    0.000    0.000    0.000    0.000 
#    0.000    0.000    0.000    0.000    0.000    0.000 
#
# Total GULP energy -793833.336483 kJ/mol
# GULP energy per Si atom -12403.645883 kJ/mol
# Density = 2.011981 g / cm^3
# Si number density = 20.165708 Si / 1000 Ang^3
#
#
#
# Elastic Constant Matrix: (Units=GPa)
#
#
# Indices 1 2 3 4 5 6 
#
# 1 105.0954 39.7232 49.1154 0.0000 0.0000 0.0000
# 2 39.7232 64.5437 37.5854 0.0000 0.0000 0.0000
# 3 49.1154 37.5854 97.6914 0.0000 0.0000 0.0000
# 4 0.0000 0.0000 0.0000 25.5413 0.0000 0.0000
# 5 0.0000 0.0000 0.0000 0.0000 32.8112 0.0000
# 6 0.0000 0.0000 0.0000 0.0000 0.0000 22.2884
#
#
#
# Elastic Compliance Matrix: (Units=1/GPa)
#
#
# Indices 1 2 3 4 5 6 
#
# 1 0.013939 -0.005796 -0.004778 0.000000 0.000000 0.000000
# 2 -0.005796 0.022377 -0.005695 0.000000 0.000000 0.000000
# 3 -0.004778 -0.005695 0.014830 0.000000 0.000000 0.000000
# 4 0.000000 0.000000 0.000000 0.039152 0.000000 0.000000
# 5 0.000000 0.000000 0.000000 0.000000 0.030477 0.000000
# 6 0.000000 0.000000 0.000000 0.000000 0.000000 0.044866
#
#
# Mechanical properties :
#
#
# Convention : Reuss Voigt Hill
#
# Bulk Modulus (GPa) = 53.74349 57.79762 55.77055
# Shear Modulus (GPa) = 24.46390 25.52194 24.99292
#
# Velocity S-wave (km/s) = 3.48680 3.56140 3.52430
# Velocity P-wave (km/s) = 6.55127 6.75537 6.65410
#
# Compressibility (1/GPa) = 0.01860691
#
# Stress axis : x y z
#
# Youngs Moduli (GPa) = 71.74152 44.68845 67.43302
#
# Poissons Ratio (x) = 0.25903 0.32218
# Poissons Ratio (y) = 0.41584 0.38404
# Poissons Ratio (z) = 0.34277 0.25450
#
# Static dielectric constant tensor:
#      x y z
#    x 3.749250 0.000000 0.000000 
#    y 0.000000 3.568350 0.000000 
#    z 0.000000 0.000000 3.658910 
# 
# 
# High freq. dielectric constant tensor:
#      x y z
#    x 1.794540 0.000000 0.000000 
#    y 0.000000 1.778170 0.000000 
#    z 0.000000 0.000000 1.794810 
# 
# From -- ./inp_files/24780.got.cif
#   From: 2010.03.12/outbox.cif.g09.slc.cpg/sg62_13_cif.got.tgz:24780.got - 2010.04.10 19:12:36.
