data_PCOD8253486
_publ_section_title
;
Structure prediction by ZEFSAII (Michael W. Deem and Ramdas Pophale) SiO2 
 PCOD8253486
Probable space group: P N M A
;
_chemical_formula_sum "Si O2"
_cell_formula_units_Z 56
_cell_length_a 21.836777
_cell_length_b 8.831266
_cell_length_c 14.706189
_cell_angle_alpha 90.000000
_cell_angle_beta 90.000000
_cell_angle_gamma 90.000000
_cell_volume 2836.035404
_symmetry_space_group_name_H-M "P N M A"
_symmetry_group_IT_number 62
_symmetry_cell_setting 'orthorhombic'
loop_
_space_group_symop_operation_xyz
x,y,z
1/2-x,-y,1/2+z
1/2+x,1/2-y,1/2-z
-x,1/2+y,-z
-x,-y,-z
1/2+x,y,1/2-z
1/2-x,1/2+y,1/2+z
x,1/2-y,z
loop_
_atom_site_type_symbol
_atom_site_label
_atom_site_fract_x
_atom_site_fract_y
_atom_site_fract_z
Si Si1 0.381200 0.428152 0.590280
Si Si2 0.679355 0.070944 0.032344
Si Si3 0.476781 0.929875 0.719527
Si Si4 0.541825 0.427953 0.076331
Si Si5 0.747566 0.070602 0.379926
Si Si6 0.222278 0.929644 0.821443
Si Si7 0.906748 0.071350 0.110724
O O1 0.378847 0.250000 0.605861
O O2 0.415859 0.505160 0.673645
O O3 0.312714 0.489772 0.582753
O O4 0.414840 0.469681 0.495454
O O5 0.685068 0.250000 0.016068
O O6 0.611642 0.022297 0.061625
O O7 0.725264 0.013149 0.110532
O O8 0.695069 0.981956 0.940286
O O9 0.472494 0.750000 0.713035
O O10 0.479478 0.984023 0.824018
O O11 0.536280 0.996035 0.667567
O O12 0.534545 0.250000 0.068725
O O13 0.500000 0.500000 0.000000
O O14 0.739089 0.250000 0.384141
O O15 0.760956 0.012591 0.278498
O O16 0.219053 0.750000 0.823925
O O17 0.156604 0.998490 0.850990
O O18 0.905211 0.250000 0.124684
#
# Coordination Sequence:
#
# PCOD8253486 Si02
#       7
#     8   8   8   8   8   8   8
#     4  11  21  37  60  86 120 156 187 232 297 352
#     4  10  20  39  60  81 115 154 187 230 296 351
#     4  10  21  38  61  86 114 152 201 244 285 341
#     4  10  23  40  61  85 116 158 198 246 296 347
#     4  11  22  35  60  90 114 148 195 241 283 341
#     4   9  18  35  59  84 113 150 191 234 287 346
#     4   9  18  34  59  86 112 149 191 235 288 345
#
# _framework density 19.745875999999999
#
# number of rings (size 3 to 8) (size 9 to 14) (size 15 to 20)
#    0.000    2.000    1.429    2.143    2.000    3.429 
#    0.000    3.571    0.000    0.000    0.000    0.000 
#    0.000    0.000    0.000    0.000    0.000    0.000 
#
# Total GULP energy -694546.747846 kJ/mol
# GULP energy per Si atom -12402.620497 kJ/mol
# Density = 1.970093 g / cm^3
# Si number density = 19.745876 Si / 1000 Ang^3
#
#
#
# Elastic Constant Matrix: (Units=GPa)
#
#
# Indices 1 2 3 4 5 6 
#
# 1 115.3186 26.6340 57.4611 0.0000 0.0000 0.0000
# 2 26.6340 27.0654 38.7900 0.0000 0.0000 0.0000
# 3 57.4611 38.7900 150.4620 0.0000 0.0000 0.0000
# 4 0.0000 0.0000 0.0000 28.5031 0.0000 0.0000
# 5 0.0000 0.0000 0.0000 0.0000 40.2333 0.0000
# 6 0.0000 0.0000 0.0000 0.0000 0.0000 27.4495
#
#
#
# Elastic Compliance Matrix: (Units=1/GPa)
#
#
# Indices 1 2 3 4 5 6 
#
# 1 0.011739 -0.008131 -0.002387 0.000000 0.000000 0.000000
# 2 -0.008131 0.064231 -0.013454 0.000000 0.000000 0.000000
# 3 -0.002387 -0.013454 0.011026 0.000000 0.000000 0.000000
# 4 0.000000 0.000000 0.000000 0.035084 0.000000 0.000000
# 5 0.000000 0.000000 0.000000 0.000000 0.024855 0.000000
# 6 0.000000 0.000000 0.000000 0.000000 0.000000 0.036431
#
#
# Mechanical properties :
#
#
# Convention : Reuss Voigt Hill
#
# Bulk Modulus (GPa) = 25.60646 59.84623 42.72635
# Shear Modulus (GPa) = 20.46442 30.56792 25.51617
#
# Velocity S-wave (km/s) = 3.22279 3.93882 3.59866
# Velocity P-wave (km/s) = 5.18119 7.14561 6.24117
#
# Compressibility (1/GPa) = 0.03905264
#
# Stress axis : x y z
#
# Youngs Moduli (GPa) = 85.18714 15.56881 90.69281
#
# Poissons Ratio (x) = 0.12659 0.21647
# Poissons Ratio (y) = 0.69265 1.22018
# Poissons Ratio (z) = 0.20333 0.20946
#
# Static dielectric constant tensor:
#      x y z
#    x 3.789400 0.000000 0.000000 
#    y 0.000000 3.207010 0.000000 
#    z 0.000000 0.000000 3.713890 
# 
# 
# High freq. dielectric constant tensor:
#      x y z
#    x 1.781270 0.000000 0.000000 
#    y 0.000000 1.734480 0.000000 
#    z 0.000000 0.000000 1.785890 
# 
# From -- ./inp_files/20205.got.cif
#   From: 2010.03.12/outbox.cif.g09.slc.cpg/sg62_11_cif.got.tgz:20205.got - 2010.04.10 19:12:36.
