data_PCOD8253005
_publ_section_title
;
Structure prediction by ZEFSAII (Michael W. Deem and Ramdas Pophale) SiO2 
 PCOD8253005
Probable space group: P N M A
;
_chemical_formula_sum "Si O2"
_cell_formula_units_Z 64
_cell_length_a 17.850190
_cell_length_b 9.019745
_cell_length_c 20.515380
_cell_angle_alpha 90.000000
_cell_angle_beta 90.000000
_cell_angle_gamma 90.000000
_cell_volume 3303.061565
_symmetry_space_group_name_H-M "P N M A"
_symmetry_group_IT_number 62
_symmetry_cell_setting 'orthorhombic'
loop_
_space_group_symop_operation_xyz
x,y,z
1/2-x,-y,1/2+z
1/2+x,1/2-y,1/2-z
-x,1/2+y,-z
-x,-y,-z
1/2+x,y,1/2-z
1/2-x,1/2+y,1/2+z
x,1/2-y,z
loop_
_atom_site_type_symbol
_atom_site_label
_atom_site_fract_x
_atom_site_fract_y
_atom_site_fract_z
Si Si1 0.420829 0.578026 0.001626
Si Si2 0.328689 0.574596 0.634442
Si Si3 0.835860 0.422808 0.612913
Si Si4 0.912153 0.076772 0.749150
Si Si5 0.666790 0.425661 0.618043
Si Si6 0.420466 0.574807 0.508132
Si Si7 0.918496 0.926459 0.243658
Si Si8 0.328631 0.922602 0.130897
O O1 0.433760 0.750000 0.988744
O O2 0.367387 0.514793 0.946572
O O3 0.500000 0.500000 0.000000
O O4 0.383660 0.548480 0.071121
O O5 0.323806 0.750000 0.639423
O O6 0.359172 0.510225 0.701663
O O7 0.383523 0.524925 0.576011
O O8 0.246707 0.513281 0.619503
O O9 0.837297 0.250000 0.594199
O O10 0.884575 0.454842 0.676490
O O11 0.751780 0.480294 0.625122
O O12 0.907161 0.250000 0.766502
O O13 0.996505 0.014556 0.753821
O O14 0.663598 0.250000 0.621601
O O15 0.632594 0.482855 0.550185
O O16 0.619149 0.491125 0.678225
O O17 0.500000 0.500000 0.500000
O O18 0.431245 0.750000 0.504521
O O19 0.919859 0.750000 0.245056
O O20 0.870976 0.984022 0.305153
O O21 0.307885 0.750000 0.138405
#
# Coordination Sequence:
#
# PCOD8253005 Si02
#       8
#     8   8   8   8   8   8   8   8
#     4  11  23  38  58  84 115 150 188 234 285 339
#     4  11  23  37  55  83 118 151 185 233 289 338
#     4  10  20  36  58  82 110 147 190 234 281 334
#     4  10  20  36  60  85 111 148 190 231 277 335
#     4   9  17  31  53  78 105 139 179 226 278 327
#     4  10  21  36  54  78 108 143 183 228 280 335
#     4   9  17  32  56  83 107 137 185 236 274 319
#     4  10  21  38  59  83 111 147 193 236 277 335
#
# _framework density 19.375962999999999
#
# number of rings (size 3 to 8) (size 9 to 14) (size 15 to 20)
#    0.000    2.000    0.000    3.750    0.000    8.500 
#    0.000    1.250    0.000    3.000    0.000    0.000 
#    0.000    0.000    0.000    0.000    0.000    0.000 
#
# Total GULP energy -793840.178789 kJ/mol
# GULP energy per Si atom -12403.752794 kJ/mol
# Density = 1.933186 g / cm^3
# Si number density = 19.375963 Si / 1000 Ang^3
#
#
#
# Elastic Constant Matrix: (Units=GPa)
#
#
# Indices 1 2 3 4 5 6 
#
# 1 104.6075 24.7217 15.3886 0.0000 0.0000 0.0000
# 2 24.7217 45.0683 31.7601 0.0000 0.0000 0.0000
# 3 15.3886 31.7601 93.5340 0.0000 0.0000 0.0000
# 4 0.0000 0.0000 0.0000 25.5744 0.0000 0.0000
# 5 0.0000 0.0000 0.0000 0.0000 36.7169 0.0000
# 6 0.0000 0.0000 0.0000 0.0000 0.0000 30.9375
#
#
#
# Elastic Compliance Matrix: (Units=1/GPa)
#
#
# Indices 1 2 3 4 5 6 
#
# 1 0.010990 -0.006250 0.000314 0.000000 0.000000 0.000000
# 2 -0.006250 0.032722 -0.010083 0.000000 0.000000 0.000000
# 3 0.000314 -0.010083 0.014063 0.000000 0.000000 0.000000
# 4 0.000000 0.000000 0.000000 0.039102 0.000000 0.000000
# 5 0.000000 0.000000 0.000000 0.000000 0.027235 0.000000
# 6 0.000000 0.000000 0.000000 0.000000 0.000000 0.032323
#
#
# Mechanical properties :
#
#
# Convention : Reuss Voigt Hill
#
# Bulk Modulus (GPa) = 38.85220 42.99451 40.92335
# Shear Modulus (GPa) = 25.37386 30.06842 27.72114
#
# Velocity S-wave (km/s) = 3.62270 3.94362 3.78656
# Velocity P-wave (km/s) = 6.13139 6.55545 6.34696
#
# Compressibility (1/GPa) = 0.02573857
#
# Stress axis : x y z
#
# Youngs Moduli (GPa) = 90.98869 30.56017 71.10690
#
# Poissons Ratio (x) = 0.19100 -0.02233
# Poissons Ratio (y) = 0.56867 0.71696
# Poissons Ratio (z) = -0.02857 0.30813
#
# Static dielectric constant tensor:
#      x y z
#    x 3.693550 0.000000 0.000000 
#    y 0.000000 3.343050 0.000000 
#    z 0.000000 0.000000 4.103890 
# 
# 
# High freq. dielectric constant tensor:
#      x y z
#    x 1.774120 0.000000 0.000000 
#    y 0.000000 1.721260 0.000000 
#    z 0.000000 0.000000 1.772750 
# 
# From -- ./inp_files/27742.got.cif
#   From: 2010.03.12/outbox.cif.g09.slc.cpg/sg62_14_cif.got.tgz:27742.got - 2010.04.10 19:12:36.
