data_PCOD8253269
_publ_section_title
;
Structure prediction by ZEFSAII (Michael W. Deem and Ramdas Pophale) SiO2 
 PCOD8253269
Probable space group: P N M A
;
_chemical_formula_sum "Si O2"
_cell_formula_units_Z 48
_cell_length_a 18.872622
_cell_length_b 8.824797
_cell_length_c 15.014953
_cell_angle_alpha 90.000000
_cell_angle_beta 90.000000
_cell_angle_gamma 90.000000
_cell_volume 2500.696248
_symmetry_space_group_name_H-M "P N M A"
_symmetry_group_IT_number 62
_symmetry_cell_setting 'orthorhombic'
loop_
_space_group_symop_operation_xyz
x,y,z
1/2-x,-y,1/2+z
1/2+x,1/2-y,1/2-z
-x,1/2+y,-z
-x,-y,-z
1/2+x,y,1/2-z
1/2-x,1/2+y,1/2+z
x,1/2-y,z
loop_
_atom_site_type_symbol
_atom_site_label
_atom_site_fract_x
_atom_site_fract_y
_atom_site_fract_z
Si Si1 0.579056 0.073413 0.272205
Si Si2 0.080130 0.926236 0.715650
Si Si3 0.573786 0.071492 0.971064
Si Si4 0.165711 0.573649 0.380594
Si Si5 0.169992 0.073783 0.866406
Si Si6 0.072812 0.073372 0.027937
O O1 0.595498 0.250000 0.255101
O O2 0.497631 0.035646 0.251685
O O3 0.595744 0.022762 0.373141
O O4 0.628632 0.971448 0.211209
O O5 0.088750 0.750000 0.693714
O O6 0.095850 0.020094 0.626959
O O7 0.137368 0.973231 0.788551
O O8 0.564822 0.250000 0.974429
O O9 0.500000 0.000000 0.000000
O O10 0.635061 0.022442 0.038234
O O11 0.152498 0.750000 0.399521
O O12 0.247916 0.534433 0.373000
O O13 0.156532 0.250000 0.845042
O O14 0.134811 0.026984 0.960215
O O15 0.058005 0.250000 0.028167
O O16 0.000000 0.000000 0.000000
#
# Coordination Sequence:
#
# PCOD8253269 Si02
#       6
#     8   8   8   8   8   8
#     4  10  21  37  60  90 120 158 206 252 304 365
#     4  11  22  38  63  93 123 158 206 255 304 366
#     4  12  24  40  64  92 122 160 207 257 309 370
#     4  11  24  41  61  90 126 164 204 252 308 366
#     4  10  23  41  61  90 128 163 201 250 307 363
#     4  10  20  37  61  88 119 154 199 248 296 357
#
# _framework density 19.194655000000001
#
# number of rings (size 3 to 8) (size 9 to 14) (size 15 to 20)
#    0.000    1.333    3.333    2.500    0.000    4.000 
#    0.000    1.667    0.000    0.000    0.000    0.000 
#    0.000    0.000    0.000    0.000    0.000    0.000 
#
# Total GULP energy -595474.745169 kJ/mol
# GULP energy per Si atom -12405.723858 kJ/mol
# Density = 1.915097 g / cm^3
# Si number density = 19.194655 Si / 1000 Ang^3
#
#
#
# Elastic Constant Matrix: (Units=GPa)
#
#
# Indices 1 2 3 4 5 6 
#
# 1 132.4586 61.8360 66.2420 0.0000 0.0000 0.0000
# 2 61.8360 100.8121 64.5841 0.0000 0.0000 0.0000
# 3 66.2420 64.5841 166.5614 0.0000 0.0000 0.0000
# 4 0.0000 0.0000 0.0000 35.9179 0.0000 0.0000
# 5 0.0000 0.0000 0.0000 0.0000 29.1531 0.0000
# 6 0.0000 0.0000 0.0000 0.0000 0.0000 26.9186
#
#
#
# Elastic Compliance Matrix: (Units=1/GPa)
#
#
# Indices 1 2 3 4 5 6 
#
# 1 0.011253 -0.005369 -0.002394 0.000000 0.000000 0.000000
# 2 -0.005369 0.015759 -0.003975 0.000000 0.000000 0.000000
# 3 -0.002394 -0.003975 0.008497 0.000000 0.000000 0.000000
# 4 0.000000 0.000000 0.000000 0.027841 0.000000 0.000000
# 5 0.000000 0.000000 0.000000 0.000000 0.034302 0.000000
# 6 0.000000 0.000000 0.000000 0.000000 0.000000 0.037149
#
#
# Mechanical properties :
#
#
# Convention : Reuss Voigt Hill
#
# Bulk Modulus (GPa) = 83.09984 87.23960 85.16972
# Shear Modulus (GPa) = 30.80930 32.20925 31.50927
#
# Velocity S-wave (km/s) = 4.01071 4.10082 4.05602
# Velocity P-wave (km/s) = 8.05202 8.24445 8.14880
#
# Compressibility (1/GPa) = 0.01203372
#
# Stress axis : x y z
#
# Youngs Moduli (GPa) = 88.86591 63.45390 117.68579
#
# Poissons Ratio (x) = 0.34068 0.28168
# Poissons Ratio (y) = 0.47711 0.46786
# Poissons Ratio (z) = 0.21270 0.25226
#
# Static dielectric constant tensor:
#      x y z
#    x 3.468590 0.000000 0.000000 
#    y 0.000000 3.390390 0.000000 
#    z 0.000000 0.000000 3.841880 
# 
# 
# High freq. dielectric constant tensor:
#      x y z
#    x 1.744220 0.000000 0.000000 
#    y 0.000000 1.750140 0.000000 
#    z 0.000000 0.000000 1.765490 
# 
# From -- ./inp_files/19575.got.cif
#   From: 2010.03.12/outbox.cif.g09.slc.cpg/sg62_10_cif.got.tgz:19575.got - 2010.04.10 19:12:36.
