data_PCOD8253879
_publ_section_title
;
Structure prediction by ZEFSAII (Michael W. Deem and Ramdas Pophale) SiO2 
 PCOD8253879
Probable space group: P N M A
;
_chemical_formula_sum "Si O2"
_cell_formula_units_Z 36
_cell_length_a 5.079537
_cell_length_b 25.707401
_cell_length_c 12.070147
_cell_angle_alpha 90.000000
_cell_angle_beta 90.000000
_cell_angle_gamma 90.000000
_cell_volume 1576.140249
_symmetry_space_group_name_H-M "P N M A"
_symmetry_group_IT_number 62
_symmetry_cell_setting 'orthorhombic'
loop_
_space_group_symop_operation_xyz
x,y,z
1/2-x,-y,1/2+z
1/2+x,1/2-y,1/2-z
-x,1/2+y,-z
-x,-y,-z
1/2+x,y,1/2-z
1/2-x,1/2+y,1/2+z
x,1/2-y,z
loop_
_atom_site_type_symbol
_atom_site_label
_atom_site_fract_x
_atom_site_fract_y
_atom_site_fract_z
Si Si1 0.520550 0.079655 0.441691
Si Si2 0.465057 0.972225 0.323246
Si Si3 0.444560 0.309587 0.819588
Si Si4 0.979456 0.644929 0.550798
Si Si5 0.523063 0.250000 0.179730
O O1 0.497505 0.063678 0.569756
O O2 0.805013 0.102738 0.412411
O O3 0.305032 0.123567 0.415062
O O4 0.474557 0.031965 0.359793
O O5 0.687704 0.959473 0.233363
O O6 0.649895 0.321264 0.721342
O O7 0.475910 0.250000 0.859010
O O8 0.505232 0.347951 0.919347
O O9 0.038167 0.699345 0.608276
O O10 0.826638 0.250000 0.216133
#
# Coordination Sequence:
#
# PCOD8253879 Si02
#       5
#     8   8   8   8   4
#     4  11  26  41  68 100 127 170 219 266 327 388
#     4  11  24  45  68  96 133 167 211 272 331 392
#     4  10  21  37  60  89 123 165 208 255 319 376
#     4  12  24  44  65  96 135 169 220 271 313 379
#     4  12  28  46  66  94 132 180 226 264 310 368
#
# _framework density 22.840605
#
# number of rings (size 3 to 8) (size 9 to 14) (size 15 to 20)
#    0.000    0.889    1.111    5.333    0.000   14.222 
#    0.000    0.000    0.000    0.000    0.000    0.000 
#    0.000    0.000    0.000    0.000    0.000    0.000 
#
# Total GULP energy -446722.806558 kJ/mol
# GULP energy per Si atom -12408.966849 kJ/mol
# Density = 2.278862 g / cm^3
# Si number density = 22.840605 Si / 1000 Ang^3
#
#
#
# Elastic Constant Matrix: (Units=GPa)
#
#
# Indices 1 2 3 4 5 6 
#
# 1 105.2625 12.8394 11.7182 0.0000 0.0000 0.0000
# 2 12.8394 77.8307 11.0846 0.0000 0.0000 0.0000
# 3 11.7182 11.0846 54.4559 0.0000 0.0000 0.0000
# 4 0.0000 0.0000 0.0000 30.8370 0.0000 0.0000
# 5 0.0000 0.0000 0.0000 0.0000 33.1342 0.0000
# 6 0.0000 0.0000 0.0000 0.0000 0.0000 36.6256
#
#
#
# Elastic Compliance Matrix: (Units=1/GPa)
#
#
# Indices 1 2 3 4 5 6 
#
# 1 0.009872 -0.001366 -0.001846 0.000000 0.000000 0.000000
# 2 -0.001366 0.013421 -0.002438 0.000000 0.000000 0.000000
# 3 -0.001846 -0.002438 0.019257 0.000000 0.000000 0.000000
# 4 0.000000 0.000000 0.000000 0.032429 0.000000 0.000000
# 5 0.000000 0.000000 0.000000 0.000000 0.030180 0.000000
# 6 0.000000 0.000000 0.000000 0.000000 0.000000 0.027303
#
#
# Mechanical properties :
#
#
# Convention : Reuss Voigt Hill
#
# Bulk Modulus (GPa) = 31.99984 34.31484 33.15734
# Shear Modulus (GPa) = 32.42981 33.57980 33.00480
#
# Velocity S-wave (km/s) = 3.77215 3.83845 3.80545
# Velocity P-wave (km/s) = 5.74567 5.89077 5.81867
#
# Compressibility (1/GPa) = 0.03125016
#
# Stress axis : x y z
#
# Youngs Moduli (GPa) = 101.29475 74.51071 51.92896
#
# Poissons Ratio (x) = 0.10175 0.09588
# Poissons Ratio (y) = 0.13833 0.12660
# Poissons Ratio (z) = 0.18703 0.18166
#
# Static dielectric constant tensor:
#      x y z
#    x 4.134130 0.000000 0.000000 
#    y 0.000000 4.190850 0.000000 
#    z 0.000000 0.000000 4.011610 
# 
# 
# High freq. dielectric constant tensor:
#      x y z
#    x 1.911030 0.000000 0.000000 
#    y 0.000000 1.915920 0.000000 
#    z 0.000000 0.000000 1.901870 
# 
# From -- ./inp_files/10678.got.cif
#   From: 2010.03.12/outbox.cif.g09.slc.cpg/sg62_6_cif.got.tgz:10678.got - 2010.04.10 19:12:36.
