data_PCOD8253738
_publ_section_title
;
Structure prediction by ZEFSAII (Michael W. Deem and Ramdas Pophale) SiO2 
 PCOD8253738
Probable space group: P N M A
;
_chemical_formula_sum "Si O2"
_cell_formula_units_Z 48
_cell_length_a 19.017702
_cell_length_b 12.833448
_cell_length_c 9.543767
_cell_angle_alpha 90.000000
_cell_angle_beta 90.000000
_cell_angle_gamma 90.000000
_cell_volume 2329.277444
_symmetry_space_group_name_H-M "P N M A"
_symmetry_group_IT_number 62
_symmetry_cell_setting 'orthorhombic'
loop_
_space_group_symop_operation_xyz
x,y,z
1/2-x,-y,1/2+z
1/2+x,1/2-y,1/2-z
-x,1/2+y,-z
-x,-y,-z
1/2+x,y,1/2-z
1/2-x,1/2+y,1/2+z
x,1/2-y,z
loop_
_atom_site_type_symbol
_atom_site_label
_atom_site_fract_x
_atom_site_fract_y
_atom_site_fract_z
Si Si1 0.214339 0.626921 0.242299
Si Si2 0.139666 0.865547 0.662058
Si Si3 0.471115 0.004623 0.289825
Si Si4 0.272418 0.545461 0.530913
Si Si5 0.065739 0.634728 0.369599
Si Si6 0.073013 0.371766 0.042752
O O1 0.236868 0.750000 0.243997
O O2 0.253789 0.561856 0.366815
O O3 0.233782 0.574045 0.091360
O O4 0.130915 0.615916 0.263786
O O5 0.134431 0.750000 0.726503
O O6 0.220224 0.885741 0.625273
O O7 0.091324 0.877657 0.526770
O O8 0.107322 0.948896 0.770127
O O9 0.502743 0.946386 0.154644
O O10 0.466446 0.918349 0.409090
O O11 0.525070 0.098046 0.324660
O O12 0.349686 0.584251 0.564606
O O13 0.035415 0.750000 0.345117
O O14 0.077068 0.250000 0.024039
#
# Coordination Sequence:
#
# PCOD8253738 Si02
#       6
#     8   8   8   8   8   8
#     4  10  21  39  63  90 123 164 209 254 310 371
#     4  10  21  36  59  85 116 158 198 243 301 358
#     4  11  21  37  58  87 116 151 198 252 296 356
#     4  11  21  41  64  88 125 166 206 253 305 367
#     4   9  18  36  60  84 114 153 191 241 306 361
#     4  11  23  37  57  85 118 156 198 246 302 357
#
# _framework density 20.607250000000001
#
# number of rings (size 3 to 8) (size 9 to 14) (size 15 to 20)
#    0.000    1.667    1.667    5.000    0.000    0.000 
#    0.000    5.833    0.000    0.000    0.000    0.000 
#    0.000    0.000    0.000    0.000    0.000    0.000 
#
# Total GULP energy -595002.598439 kJ/mol
# GULP energy per Si atom -12395.887467 kJ/mol
# Density = 2.056035 g / cm^3
# Si number density = 20.607250 Si / 1000 Ang^3
#
#
#
# Elastic Constant Matrix: (Units=GPa)
#
#
# Indices 1 2 3 4 5 6 
#
# 1 82.9283 12.8492 6.0802 0.0000 0.0000 0.0000
# 2 12.8492 115.3716 44.4526 0.0000 0.0000 0.0000
# 3 6.0802 44.4526 47.1948 0.0000 0.0000 0.0000
# 4 0.0000 0.0000 0.0000 33.9762 0.0000 0.0000
# 5 0.0000 0.0000 0.0000 0.0000 20.1960 0.0000
# 6 0.0000 0.0000 0.0000 0.0000 0.0000 25.7623
#
#
#
# Elastic Compliance Matrix: (Units=1/GPa)
#
#
# Indices 1 2 3 4 5 6 
#
# 1 0.012277 -0.001190 -0.000461 0.000000 0.000000 0.000000
# 2 -0.001190 0.013720 -0.012770 0.000000 0.000000 0.000000
# 3 -0.000461 -0.012770 0.033276 0.000000 0.000000 0.000000
# 4 0.000000 0.000000 0.000000 0.029432 0.000000 0.000000
# 5 0.000000 0.000000 0.000000 0.000000 0.049515 0.000000
# 6 0.000000 0.000000 0.000000 0.000000 0.000000 0.038816
#
#
# Mechanical properties :
#
#
# Convention : Reuss Voigt Hill
#
# Bulk Modulus (GPa) = 32.86023 41.36206 37.11115
# Shear Modulus (GPa) = 23.14579 28.12775 25.63677
#
# Velocity S-wave (km/s) = 3.35503 3.69852 3.53096
# Velocity P-wave (km/s) = 5.56677 6.19306 5.88824
#
# Compressibility (1/GPa) = 0.03043192
#
# Stress axis : x y z
#
# Youngs Moduli (GPa) = 81.45484 72.88431 30.05157
#
# Poissons Ratio (x) = 0.08670 0.01386
# Poissons Ratio (y) = 0.09690 0.38376
# Poissons Ratio (z) = 0.03756 0.93073
#
# Static dielectric constant tensor:
#      x y z
#    x 3.817570 0.000000 0.000000 
#    y 0.000000 3.852600 0.000000 
#    z 0.000000 0.000000 3.596330 
# 
# 
# High freq. dielectric constant tensor:
#      x y z
#    x 1.809560 0.000000 0.000000 
#    y 0.000000 1.810490 0.000000 
#    z 0.000000 0.000000 1.790290 
# 
# From -- ./inp_files/14115.got.cif
#   From: 2010.03.12/outbox.cif.g09.slc.cpg/sg62_8_cif.got.tgz:14115.got - 2010.04.10 19:12:36.
