data_PCOD8253522
_publ_section_title
;
Structure prediction by ZEFSAII (Michael W. Deem and Ramdas Pophale) SiO2 
 PCOD8253522
Probable space group: P N M A
;
_chemical_formula_sum "Si O2"
_cell_formula_units_Z 64
_cell_length_a 12.706606
_cell_length_b 18.229732
_cell_length_c 14.148845
_cell_angle_alpha 90.000000
_cell_angle_beta 90.000000
_cell_angle_gamma 90.000000
_cell_volume 3277.410470
_symmetry_space_group_name_H-M "P N M A"
_symmetry_group_IT_number 62
_symmetry_cell_setting 'orthorhombic'
loop_
_space_group_symop_operation_xyz
x,y,z
1/2-x,-y,1/2+z
1/2+x,1/2-y,1/2-z
-x,1/2+y,-z
-x,-y,-z
1/2+x,y,1/2-z
1/2-x,1/2+y,1/2+z
x,1/2-y,z
loop_
_atom_site_type_symbol
_atom_site_label
_atom_site_fract_x
_atom_site_fract_y
_atom_site_fract_z
Si Si1 0.849789 0.166700 0.538321
Si Si2 0.636319 0.031708 0.303177
Si Si3 0.355786 0.832182 0.578077
Si Si4 0.253011 0.539134 0.355572
Si Si5 0.778430 0.058029 0.970651
Si Si6 0.038664 0.423467 0.543466
Si Si7 0.536878 0.664615 0.431594
Si Si8 0.963548 0.926240 0.234368
O O1 0.855650 0.250000 0.577545
O O2 0.764767 0.161808 0.454824
O O3 0.817750 0.110012 0.620745
O O4 0.964322 0.140574 0.499044
O O5 0.628866 0.116796 0.330730
O O6 0.683086 0.021726 0.198414
O O7 0.712019 0.987434 0.374311
O O8 0.518451 0.999946 0.305060
O O9 0.382860 0.750000 0.611050
O O10 0.433140 0.855797 0.492606
O O11 0.302385 0.500470 0.447044
O O12 0.340974 0.569036 0.285713
O O13 0.660551 0.090244 0.981054
O O14 0.862152 0.123677 0.975555
O O15 0.019421 0.417648 0.655096
O O16 0.000000 0.500000 0.500000
O O17 0.562568 0.750000 0.434551
O O18 0.514834 0.641892 0.323100
#
# Coordination Sequence:
#
# PCOD8253522 Si02
#       8
#     8   8   8   8   8   8   8   8
#     4  11  23  39  60  90 124 160 201 245 304 370
#     4  11  20  37  60  91 120 155 209 253 300 362
#     4  10  20  39  64  87 119 161 203 254 310 363
#     4  12  21  38  62  94 118 157 207 254 303 359
#     4  11  22  38  62  89 121 159 202 257 305 362
#     4  12  22  40  59  85 126 166 201 241 300 368
#     4  10  22  40  62  91 126 159 200 259 320 366
#     4  11  22  34  60  91 118 159 203 250 298 364
#
# _framework density 19.527612999999999
#
# number of rings (size 3 to 8) (size 9 to 14) (size 15 to 20)
#    0.000    1.000    6.250    0.750    0.000    3.000 
#    0.000    0.625    0.000    3.000    0.000    0.000 
#    0.000    0.000    0.000    0.000    0.000    0.000 
#
# Total GULP energy -793559.290809 kJ/mol
# GULP energy per Si atom -12399.363919 kJ/mol
# Density = 1.948317 g / cm^3
# Si number density = 19.527613 Si / 1000 Ang^3
#
#
#
# Elastic Constant Matrix: (Units=GPa)
#
#
# Indices 1 2 3 4 5 6 
#
# 1 99.3593 38.0850 -1.3101 0.0000 0.0000 0.0000
# 2 38.0850 128.6250 38.8112 0.0000 0.0000 0.0000
# 3 -1.3101 38.8112 54.6546 0.0000 0.0000 0.0000
# 4 0.0000 0.0000 0.0000 28.9896 0.0000 0.0000
# 5 0.0000 0.0000 0.0000 0.0000 24.4735 0.0000
# 6 0.0000 0.0000 0.0000 0.0000 0.0000 31.3641
#
#
#
# Elastic Compliance Matrix: (Units=1/GPa)
#
#
# Indices 1 2 3 4 5 6 
#
# 1 0.011867 -0.004581 0.003538 0.000000 0.000000 0.000000
# 2 -0.004581 0.011663 -0.008392 0.000000 0.000000 0.000000
# 3 0.003538 -0.008392 0.024341 0.000000 0.000000 0.000000
# 4 0.000000 0.000000 0.000000 0.034495 0.000000 0.000000
# 5 0.000000 0.000000 0.000000 0.000000 0.040861 0.000000
# 6 0.000000 0.000000 0.000000 0.000000 0.000000 0.031884
#
#
# Mechanical properties :
#
#
# Convention : Reuss Voigt Hill
#
# Bulk Modulus (GPa) = 34.48276 48.20123 41.34200
# Shear Modulus (GPa) = 27.22592 30.76895 28.99744
#
# Velocity S-wave (km/s) = 3.73799 3.97377 3.85768
# Velocity P-wave (km/s) = 6.02718 6.76695 6.40775
#
# Compressibility (1/GPa) = 0.02900000
#
# Stress axis : x y z
#
# Youngs Moduli (GPa) = 84.26625 85.73956 41.08310
#
# Poissons Ratio (x) = 0.39279 -0.14534
# Poissons Ratio (y) = 0.38604 0.34477
# Poissons Ratio (z) = -0.29811 0.71953
#
# Static dielectric constant tensor:
#      x y z
#    x 3.783540 0.000000 0.000000 
#    y 0.000000 3.532700 0.000000 
#    z 0.000000 0.000000 3.439720 
# 
# 
# High freq. dielectric constant tensor:
#      x y z
#    x 1.778910 0.000000 0.000000 
#    y 0.000000 1.747740 0.000000 
#    z 0.000000 0.000000 1.744190 
# 
# From -- ./inp_files/19231.got.cif
#   From: 2010.03.12/outbox.cif.g09.slc.cpg/sg62_10_cif.got.tgz:19231.got - 2010.04.10 19:12:36.
