data_PCOD8253344
_publ_section_title
;
Structure prediction by ZEFSAII (Michael W. Deem and Ramdas Pophale) SiO2 
 PCOD8253344
Probable space group: P N M A
;
_chemical_formula_sum "Si O2"
_cell_formula_units_Z 64
_cell_length_a 30.497048
_cell_length_b 9.269603
_cell_length_c 11.963124
_cell_angle_alpha 90.000000
_cell_angle_beta 90.000000
_cell_angle_gamma 90.000000
_cell_volume 3381.921651
_symmetry_space_group_name_H-M "P N M A"
_symmetry_group_IT_number 62
_symmetry_cell_setting 'orthorhombic'
loop_
_space_group_symop_operation_xyz
x,y,z
1/2-x,-y,1/2+z
1/2+x,1/2-y,1/2-z
-x,1/2+y,-z
-x,-y,-z
1/2+x,y,1/2-z
1/2-x,1/2+y,1/2+z
x,1/2-y,z
loop_
_atom_site_type_symbol
_atom_site_label
_atom_site_fract_x
_atom_site_fract_y
_atom_site_fract_z
Si Si1 0.789930 0.414335 0.223390
Si Si2 0.455557 0.082909 0.291502
Si Si3 0.553478 0.415429 0.254774
Si Si4 0.576023 0.079575 0.505891
Si Si5 0.337115 0.085670 0.501450
Si Si6 0.298647 0.419328 0.736646
Si Si7 0.622053 0.920926 0.108668
Si Si8 0.625392 0.921363 0.855394
O O1 0.780663 0.250000 0.259345
O O2 0.747400 0.506566 0.245677
O O3 0.830598 0.477900 0.294999
O O4 0.799861 0.424611 0.092113
O O5 0.447370 0.250000 0.322372
O O6 0.501982 0.063931 0.229201
O O7 0.417528 0.022072 0.210180
O O8 0.457263 0.992982 0.406477
O O9 0.567977 0.250000 0.239075
O O10 0.562978 0.466383 0.381018
O O11 0.579958 0.512026 0.168248
O O12 0.574826 0.250000 0.522382
O O13 0.623922 0.019000 0.534198
O O14 0.354775 0.250000 0.511425
O O15 0.317041 0.031252 0.617320
O O16 0.290684 0.250000 0.741529
O O17 0.333259 0.469820 0.830400
O O18 0.616448 0.750000 0.113875
O O19 0.624215 0.979257 0.982080
O O20 0.625123 0.750000 0.853595
#
# Coordination Sequence:
#
# PCOD8253344 Si02
#       8
#     8   8   8   8   8   8   8   8
#     4  10  21  37  59  82 108 145 187 226 273 332
#     4  10  20  38  60  80 113 153 186 226 281 343
#     4  10  22  37  56  84 114 148 186 230 283 332
#     4  11  21  34  55  87 117 141 185 238 282 327
#     4  10  20  38  60  81 108 152 192 221 278 345
#     4  10  22  37  56  83 112 143 184 229 278 329
#     4  10  21  38  59  81 110 148 187 228 274 332
#     4   9  19  37  59  82 108 146 190 225 271 336
#
# _framework density 18.924151999999999
#
# number of rings (size 3 to 8) (size 9 to 14) (size 15 to 20)
#    0.000    2.000    2.500    0.750    1.750    3.000 
#    0.000    1.250    0.000    0.000    0.000    0.000 
#    0.000    0.000    0.000    0.000    0.000    0.000 
#
# Total GULP energy -793777.131370 kJ/mol
# GULP energy per Si atom -12402.767678 kJ/mol
# Density = 1.888108 g / cm^3
# Si number density = 18.924152 Si / 1000 Ang^3
#
#
#
# Elastic Constant Matrix: (Units=GPa)
#
#
# Indices 1 2 3 4 5 6 
#
# 1 118.8357 30.2271 45.9353 0.0000 0.0000 0.0000
# 2 30.2271 38.5411 28.0040 0.0000 0.0000 0.0000
# 3 45.9353 28.0040 129.6226 0.0000 0.0000 0.0000
# 4 0.0000 0.0000 0.0000 9.3418 0.0000 0.0000
# 5 0.0000 0.0000 0.0000 0.0000 25.1051 0.0000
# 6 0.0000 0.0000 0.0000 0.0000 0.0000 32.9060
#
#
#
# Elastic Compliance Matrix: (Units=1/GPa)
#
#
# Indices 1 2 3 4 5 6 
#
# 1 0.011127 -0.006953 -0.002441 0.000000 0.000000 0.000000
# 2 -0.006953 0.035123 -0.005124 0.000000 0.000000 0.000000
# 3 -0.002441 -0.005124 0.009687 0.000000 0.000000 0.000000
# 4 0.000000 0.000000 0.000000 0.107045 0.000000 0.000000
# 5 0.000000 0.000000 0.000000 0.000000 0.039833 0.000000
# 6 0.000000 0.000000 0.000000 0.000000 0.000000 0.030390
#
#
# Mechanical properties :
#
#
# Convention : Reuss Voigt Hill
#
# Bulk Modulus (GPa) = 37.17436 55.03692 46.10564
# Shear Modulus (GPa) = 18.43610 25.65945 22.04777
#
# Velocity S-wave (km/s) = 3.12462 3.68626 3.41700
# Velocity P-wave (km/s) = 5.71876 6.87489 6.32330
#
# Compressibility (1/GPa) = 0.02690026
#
# Stress axis : x y z
#
# Youngs Moduli (GPa) = 89.87019 28.47162 103.23387
#
# Poissons Ratio (x) = 0.19797 0.25200
# Poissons Ratio (y) = 0.62488 0.52897
# Poissons Ratio (z) = 0.21938 0.14589
#
# Static dielectric constant tensor:
#      x y z
#    x 3.460010 0.000000 0.000000 
#    y 0.000000 3.287570 0.000000 
#    z 0.000000 0.000000 3.708880 
# 
# 
# High freq. dielectric constant tensor:
#      x y z
#    x 1.742160 0.000000 0.000000 
#    y 0.000000 1.712950 0.000000 
#    z 0.000000 0.000000 1.742480 
# 
# From -- ./inp_files/15761.got.cif
#   From: 2010.03.12/outbox.cif.g09.slc.cpg/sg62_8_cif.got.tgz:15761.got - 2010.04.10 19:12:36.
