data_PCOD8253557
_publ_section_title
;
Structure prediction by ZEFSAII (Michael W. Deem and Ramdas Pophale) SiO2 
 PCOD8253557
Probable space group: P N M A
;
_chemical_formula_sum "Si O2"
_cell_formula_units_Z 40
_cell_length_a 9.051098
_cell_length_b 7.792574
_cell_length_c 28.840266
_cell_angle_alpha 90.000000
_cell_angle_beta 90.000000
_cell_angle_gamma 90.000000
_cell_volume 2034.142923
_symmetry_space_group_name_H-M "P N M A"
_symmetry_group_IT_number 62
_symmetry_cell_setting 'orthorhombic'
loop_
_space_group_symop_operation_xyz
x,y,z
1/2-x,-y,1/2+z
1/2+x,1/2-y,1/2-z
-x,1/2+y,-z
-x,-y,-z
1/2+x,y,1/2-z
1/2-x,1/2+y,1/2+z
x,1/2-y,z
loop_
_atom_site_type_symbol
_atom_site_label
_atom_site_fract_x
_atom_site_fract_y
_atom_site_fract_z
Si Si1 0.917291 0.053152 0.134720
Si Si2 0.401856 0.551441 0.543223
Si Si3 0.076497 0.059932 0.364251
Si Si4 0.068175 0.750000 0.299895
Si Si5 0.924874 0.942286 0.452978
Si Si6 0.584767 0.250000 0.701733
O O1 0.946495 0.250000 0.150663
O O2 0.746054 0.023025 0.122174
O O3 0.009842 0.004956 0.089546
O O4 0.966539 0.922450 0.175068
O O5 0.500000 0.500000 0.500000
O O6 0.361164 0.750000 0.540969
O O7 0.251068 0.446138 0.541973
O O8 0.060235 0.250000 0.342014
O O9 0.018068 0.919805 0.327788
O O10 0.979584 0.059249 0.410763
O O11 0.988189 0.750000 0.251364
O O12 0.241209 0.750000 0.290900
O O13 0.975771 0.750000 0.441764
O O14 0.000000 0.000000 0.500000
#
# Coordination Sequence:
#
# PCOD8253557 Si02
#       6
#     8   8   8   4   8   4
#     4   9  21  39  61  87 117 156 199 247 300 354
#     4  11  23  38  58  87 120 159 203 245 298 356
#     4  10  20  40  63  86 119 155 198 249 298 352
#     4  10  22  40  58  94 114 160 198 248 301 360
#     4  12  24  38  58  87 121 159 202 245 297 357
#     4  10  22  38  64  84 124 154 202 246 303 356
#
# _framework density 19.664300999999998
#
# number of rings (size 3 to 8) (size 9 to 14) (size 15 to 20)
#    0.000    1.600    1.000    3.600    2.800    4.000 
#    0.000    0.000    0.000    0.000    0.000    0.000 
#    0.000    0.000    0.000    0.000    0.000    0.000 
#
# Total GULP energy -496160.229643 kJ/mol
# GULP energy per Si atom -12404.005741 kJ/mol
# Density = 1.961954 g / cm^3
# Si number density = 19.664301 Si / 1000 Ang^3
#
#
#
# Elastic Constant Matrix: (Units=GPa)
#
#
# Indices 1 2 3 4 5 6 
#
# 1 82.4496 35.8674 60.0350 0.0000 0.0000 0.0000
# 2 35.8674 131.0073 70.3164 0.0000 0.0000 0.0000
# 3 60.0350 70.3164 161.3777 0.0000 0.0000 0.0000
# 4 0.0000 0.0000 0.0000 33.1901 0.0000 0.0000
# 5 0.0000 0.0000 0.0000 0.0000 41.5714 0.0000
# 6 0.0000 0.0000 0.0000 0.0000 0.0000 25.6065
#
#
#
# Elastic Compliance Matrix: (Units=1/GPa)
#
#
# Indices 1 2 3 4 5 6 
#
# 1 0.016899 -0.001635 -0.005574 0.000000 0.000000 0.000000
# 2 -0.001635 0.010121 -0.003802 0.000000 0.000000 0.000000
# 3 -0.005574 -0.003802 0.009927 0.000000 0.000000 0.000000
# 4 0.000000 0.000000 0.000000 0.030129 0.000000 0.000000
# 5 0.000000 0.000000 0.000000 0.000000 0.024055 0.000000
# 6 0.000000 0.000000 0.000000 0.000000 0.000000 0.039053
#
#
# Mechanical properties :
#
#
# Convention : Reuss Voigt Hill
#
# Bulk Modulus (GPa) = 67.00122 78.58579 72.79350
# Shear Modulus (GPa) = 31.81048 33.98133 32.89591
#
# Velocity S-wave (km/s) = 4.02640 4.16152 4.09452
# Velocity P-wave (km/s) = 7.46742 7.94616 7.71050
#
# Compressibility (1/GPa) = 0.01492510
#
# Stress axis : x y z
#
# Youngs Moduli (GPa) = 59.17653 98.80076 100.73516
#
# Poissons Ratio (x) = 0.16150 0.56153
# Poissons Ratio (y) = 0.09673 0.38300
# Poissons Ratio (z) = 0.32987 0.37565
#
# Static dielectric constant tensor:
#      x y z
#    x 3.422360 0.000000 0.000000 
#    y 0.000000 4.006950 0.000000 
#    z 0.000000 0.000000 3.462330 
# 
# 
# High freq. dielectric constant tensor:
#      x y z
#    x 1.764160 0.000000 0.000000 
#    y 0.000000 1.787330 0.000000 
#    z 0.000000 0.000000 1.757270 
# 
# From -- ./inp_files/28619.got.cif
#   From: 2010.03.12/outbox.cif.g09.slc.cpg/sg62_15_cif.got.tgz:28619.got - 2010.04.10 19:12:36.
