data_PCOD8253636
_publ_section_title
;
Structure prediction by ZEFSAII (Michael W. Deem and Ramdas Pophale) SiO2 
 PCOD8253636
Probable space group: P N M A
;
_chemical_formula_sum "Si O2"
_cell_formula_units_Z 64
_cell_length_a 10.822043
_cell_length_b 13.360587
_cell_length_c 21.877928
_cell_angle_alpha 90.000000
_cell_angle_beta 90.000000
_cell_angle_gamma 90.000000
_cell_volume 3163.304385
_symmetry_space_group_name_H-M "P N M A"
_symmetry_group_IT_number 62
_symmetry_cell_setting 'orthorhombic'
loop_
_space_group_symop_operation_xyz
x,y,z
1/2-x,-y,1/2+z
1/2+x,1/2-y,1/2-z
-x,1/2+y,-z
-x,-y,-z
1/2+x,y,1/2-z
1/2-x,1/2+y,1/2+z
x,1/2-y,z
loop_
_atom_site_type_symbol
_atom_site_label
_atom_site_fract_x
_atom_site_fract_y
_atom_site_fract_z
Si Si1 0.326679 0.522413 0.475852
Si Si2 0.069977 0.638493 0.813369
Si Si3 0.903666 0.135368 0.516051
Si Si4 0.395615 0.537208 0.224113
Si Si5 0.633984 0.868497 0.284721
Si Si6 0.792664 0.861424 0.599479
Si Si7 0.436818 0.007975 0.600797
Si Si8 0.030458 0.519942 0.595504
O O1 0.230130 0.608236 0.456541
O O2 0.276659 0.412392 0.457898
O O3 0.447845 0.551322 0.437802
O O4 0.338237 0.523125 0.549468
O O5 0.023084 0.750000 0.795480
O O6 0.085979 0.571340 0.753755
O O7 0.203916 0.645646 0.842964
O O8 0.971912 0.590156 0.860167
O O9 0.933418 0.250000 0.525349
O O10 0.009634 0.075715 0.551987
O O11 0.902417 0.104943 0.444585
O O12 0.263166 0.586381 0.242615
O O13 0.514312 0.604637 0.242955
O O14 0.388239 0.518690 0.151698
O O15 0.648863 0.750000 0.285988
O O16 0.612591 0.906736 0.353870
O O17 0.835175 0.750000 0.579078
O O18 0.905144 0.930737 0.621109
#
# Coordination Sequence:
#
# PCOD8253636 Si02
#       8
#     8   8   8   8   8   8   8   8
#     4   9  18  34  55  81 115 153 188 236 293 340
#     4   9  19  35  56  83 114 151 194 243 298 350
#     4  10  21  35  53  81 112 143 184 232 282 337
#     4  11  23  42  62  86 119 153 196 246 294 351
#     4  11  24  41  62  88 118 155 199 245 293 346
#     4   9  17  32  54  80 112 152 197 240 289 350
#     4   9  19  36  56  82 117 151 192 239 285 346
#     4  10  21  37  56  79 111 148 186 232 286 342
#
# _framework density 20.232009000000001
#
# number of rings (size 3 to 8) (size 9 to 14) (size 15 to 20)
#    0.000    2.250    0.000    2.250    0.000    4.500 
#    0.000    6.250    0.000    0.000    0.000    0.000 
#    0.000    0.000    0.000    0.000    0.000    0.000 
#
# Total GULP energy -793360.968844 kJ/mol
# GULP energy per Si atom -12396.265138 kJ/mol
# Density = 2.018596 g / cm^3
# Si number density = 20.232009 Si / 1000 Ang^3
#
#
#
# Elastic Constant Matrix: (Units=GPa)
#
#
# Indices 1 2 3 4 5 6 
#
# 1 61.6829 25.9566 12.5452 0.0000 0.0000 0.0000
# 2 25.9566 146.8822 37.1823 0.0000 0.0000 0.0000
# 3 12.5452 37.1823 92.3971 0.0000 0.0000 0.0000
# 4 0.0000 0.0000 0.0000 18.7655 0.0000 0.0000
# 5 0.0000 0.0000 0.0000 0.0000 25.0277 0.0000
# 6 0.0000 0.0000 0.0000 0.0000 0.0000 21.0802
#
#
#
# Elastic Compliance Matrix: (Units=1/GPa)
#
#
# Indices 1 2 3 4 5 6 
#
# 1 0.017647 -0.002797 -0.001271 0.000000 0.000000 0.000000
# 2 -0.002797 0.008024 -0.002849 0.000000 0.000000 0.000000
# 3 -0.001271 -0.002849 0.012142 0.000000 0.000000 0.000000
# 4 0.000000 0.000000 0.000000 0.053289 0.000000 0.000000
# 5 0.000000 0.000000 0.000000 0.000000 0.039956 0.000000
# 6 0.000000 0.000000 0.000000 0.000000 0.000000 0.047438
#
#
# Mechanical properties :
#
#
# Convention : Reuss Voigt Hill
#
# Bulk Modulus (GPa) = 41.70193 50.25894 45.98044
# Shear Modulus (GPa) = 24.95981 27.99324 26.47652
#
# Velocity S-wave (km/s) = 3.51619 3.72373 3.62144
# Velocity P-wave (km/s) = 6.09437 6.58661 6.34527
#
# Compressibility (1/GPa) = 0.02397970
#
# Stress axis : x y z
#
# Youngs Moduli (GPa) = 56.66581 124.63097 82.35950
#
# Poissons Ratio (x) = 0.34859 0.10464
# Poissons Ratio (y) = 0.15849 0.23465
# Poissons Ratio (z) = 0.07199 0.35509
#
# Static dielectric constant tensor:
#      x y z
#    x 3.808110 0.000000 0.000000 
#    y 0.000000 3.650600 0.000000 
#    z 0.000000 0.000000 3.587930 
# 
# 
# High freq. dielectric constant tensor:
#      x y z
#    x 1.798480 0.000000 0.000000 
#    y 0.000000 1.780250 0.000000 
#    z 0.000000 0.000000 1.784630 
# 
# From -- ./inp_files/29456.got.cif
#   From: 2010.03.12/outbox.cif.g09.slc.cpg/sg62_15_cif.got.tgz:29456.got - 2010.04.10 19:12:36.
