data_PCOD8253118
_publ_section_title
;
Structure prediction by ZEFSAII (Michael W. Deem and Ramdas Pophale) SiO2 
 PCOD8253118
Probable space group: P N M A
;
_chemical_formula_sum "Si O2"
_cell_formula_units_Z 64
_cell_length_a 15.209050
_cell_length_b 8.776362
_cell_length_c 23.595882
_cell_angle_alpha 90.000000
_cell_angle_beta 90.000000
_cell_angle_gamma 90.000000
_cell_volume 3149.581361
_symmetry_space_group_name_H-M "P N M A"
_symmetry_group_IT_number 62
_symmetry_cell_setting 'orthorhombic'
loop_
_space_group_symop_operation_xyz
x,y,z
1/2-x,-y,1/2+z
1/2+x,1/2-y,1/2-z
-x,1/2+y,-z
-x,-y,-z
1/2+x,y,1/2-z
1/2-x,1/2+y,1/2+z
x,1/2-y,z
loop_
_atom_site_type_symbol
_atom_site_label
_atom_site_fract_x
_atom_site_fract_y
_atom_site_fract_z
Si Si1 0.928692 0.425165 0.253731
Si Si2 0.266172 0.929222 0.752607
Si Si3 0.242970 0.924234 0.020780
Si Si4 0.822937 0.076564 0.860367
Si Si5 0.499460 0.925186 0.631056
Si Si6 0.579980 0.067732 0.166084
Si Si7 0.423563 0.928979 0.963144
Si Si8 0.580310 0.428396 0.533749
O O1 0.911055 0.250000 0.268313
O O2 0.832387 0.503333 0.245677
O O3 0.983907 0.444802 0.197059
O O4 0.990583 0.495183 0.303431
O O5 0.260203 0.750000 0.761988
O O6 0.332502 0.994890 0.800982
O O7 0.302904 0.962834 0.690525
O O8 0.219445 0.750000 0.004164
O O9 0.334656 0.975572 0.994489
O O10 0.171938 0.038837 0.996040
O O11 0.248156 0.940157 0.089107
O O12 0.826672 0.250000 0.838130
O O13 0.915886 0.026364 0.886796
O O14 0.482854 0.750000 0.614524
O O15 0.581605 0.992077 0.595767
O O16 0.580861 0.250000 0.169273
O O17 0.579289 0.007663 0.101452
O O18 0.438041 0.750000 0.961444
O O19 0.500000 0.000000 0.000000
O O20 0.500000 0.500000 0.500000
O O21 0.566359 0.250000 0.539750
#
# Coordination Sequence:
#
# PCOD8253118 Si02
#       8
#     8   8   8   8   8   8   8   8
#     4   9  19  34  59  90 113 147 196 246 296 356
#     4  10  20  36  61  88 115 150 197 248 301 359
#     4  10  23  41  60  85 120 165 208 248 305 367
#     4  11  22  37  57  84 122 159 199 248 302 368
#     4  11  21  37  61  87 120 157 198 246 302 363
#     4   9  18  36  59  88 118 148 198 252 295 352
#     4  10  23  42  65  88 119 162 209 262 310 357
#     4  12  24  38  58  88 124 160 200 244 300 366
#
# _framework density 20.320160999999999
#
# number of rings (size 3 to 8) (size 9 to 14) (size 15 to 20)
#    0.000    1.750    2.500    1.875    3.500    1.000 
#    0.000    1.875    0.000    0.000    0.000    0.000 
#    0.000    0.000    0.000    0.000    0.000    0.000 
#
# Total GULP energy -793455.682822 kJ/mol
# GULP energy per Si atom -12397.745044 kJ/mol
# Density = 2.027391 g / cm^3
# Si number density = 20.320161 Si / 1000 Ang^3
#
#
#
# Elastic Constant Matrix: (Units=GPa)
#
#
# Indices 1 2 3 4 5 6 
#
# 1 149.7175 25.3336 70.4248 0.0000 0.0000 0.0000
# 2 25.3336 44.7031 23.6644 0.0000 0.0000 0.0000
# 3 70.4248 23.6644 131.7302 0.0000 0.0000 0.0000
# 4 0.0000 0.0000 0.0000 26.0678 0.0000 0.0000
# 5 0.0000 0.0000 0.0000 0.0000 34.7323 0.0000
# 6 0.0000 0.0000 0.0000 0.0000 0.0000 20.0116
#
#
#
# Elastic Compliance Matrix: (Units=1/GPa)
#
#
# Indices 1 2 3 4 5 6 
#
# 1 0.009251 -0.002900 -0.004425 0.000000 0.000000 0.000000
# 2 -0.002900 0.025630 -0.003054 0.000000 0.000000 0.000000
# 3 -0.004425 -0.003054 0.010505 0.000000 0.000000 0.000000
# 4 0.000000 0.000000 0.000000 0.038362 0.000000 0.000000
# 5 0.000000 0.000000 0.000000 0.000000 0.028792 0.000000
# 6 0.000000 0.000000 0.000000 0.000000 0.000000 0.049971
#
#
# Mechanical properties :
#
#
# Convention : Reuss Voigt Hill
#
# Bulk Modulus (GPa) = 40.60267 62.77737 51.69002
# Shear Modulus (GPa) = 26.11259 29.94421 28.02840
#
# Velocity S-wave (km/s) = 3.58866 3.84294 3.71798
# Velocity P-wave (km/s) = 6.09886 7.11703 6.62753
#
# Compressibility (1/GPa) = 0.02462892
#
# Stress axis : x y z
#
# Youngs Moduli (GPa) = 108.09125 39.01678 95.18868
#
# Poissons Ratio (x) = 0.11317 0.42120
# Poissons Ratio (y) = 0.31352 0.29067
# Poissons Ratio (z) = 0.47829 0.11914
#
# Static dielectric constant tensor:
#      x y z
#    x 2.762650 0.000000 0.000000 
#    y 0.000000 3.375000 0.000000 
#    z 0.000000 0.000000 4.125850 
# 
# 
# High freq. dielectric constant tensor:
#      x y z
#    x 1.798100 0.000000 0.000000 
#    y 0.000000 1.758230 0.000000 
#    z 0.000000 0.000000 1.806160 
# 
# From -- ./inp_files/29920.got.cif
#   From: 2010.03.12/outbox.cif.g09.slc.cpg/sg62_15_cif.got.tgz:29920.got - 2010.04.10 19:12:36.
