data_PCOD8253887
_publ_section_title
;
Structure prediction by ZEFSAII (Michael W. Deem and Ramdas Pophale) SiO2 
 PCOD8253887
Probable space group: P N M A
;
_chemical_formula_sum "Si O2"
_cell_formula_units_Z 64
_cell_length_a 11.788230
_cell_length_b 11.844807
_cell_length_c 22.793370
_cell_angle_alpha 90.000000
_cell_angle_beta 90.000000
_cell_angle_gamma 90.000000
_cell_volume 3182.622508
_symmetry_space_group_name_H-M "P N M A"
_symmetry_group_IT_number 62
_symmetry_cell_setting 'orthorhombic'
loop_
_space_group_symop_operation_xyz
x,y,z
1/2-x,-y,1/2+z
1/2+x,1/2-y,1/2-z
-x,1/2+y,-z
-x,-y,-z
1/2+x,y,1/2-z
1/2-x,1/2+y,1/2+z
x,1/2-y,z
loop_
_atom_site_type_symbol
_atom_site_label
_atom_site_fract_x
_atom_site_fract_y
_atom_site_fract_z
Si Si1 0.615594 0.620254 0.079936
Si Si2 0.999028 0.546043 0.836441
Si Si3 0.049823 0.128079 0.284781
Si Si4 0.900600 0.967767 0.361055
Si Si5 0.755747 0.488093 0.682786
Si Si6 0.197310 0.622925 0.542298
Si Si7 0.812449 0.376074 0.802083
Si Si8 0.462661 0.618029 0.533939
O O1 0.650789 0.750000 0.081648
O O2 0.486307 0.604720 0.099838
O O3 0.704833 0.555152 0.119858
O O4 0.629420 0.573795 0.013782
O O5 0.959821 0.632037 0.785760
O O6 0.906746 0.446318 0.837295
O O7 0.004072 0.607950 0.898893
O O8 0.121559 0.498481 0.818557
O O9 0.014958 0.250000 0.309753
O O10 0.967696 0.032817 0.310256
O O11 0.180705 0.106548 0.303791
O O12 0.831546 0.054580 0.400116
O O13 0.810820 0.885280 0.331470
O O14 0.800711 0.405052 0.733585
O O15 0.158365 0.750000 0.554963
O O16 0.329031 0.615269 0.528621
O O17 0.856808 0.250000 0.806978
O O18 0.500000 0.500000 0.500000
O O19 0.501156 0.750000 0.513281
#
# Coordination Sequence:
#
# PCOD8253887 Si02
#       8
#     8   8   8   8   8   8   8   8
#     4  10  21  37  61  87 119 161 202 252 311 370
#     4  11  22  42  61  90 121 165 211 259 320 385
#     4  10  22  38  61  90 122 160 200 254 314 373
#     4  11  20  40  59  90 125 156 205 259 309 377
#     4  10  22  40  59  88 124 159 205 253 309 380
#     4  10  21  39  62  88 118 161 208 256 315 379
#     4  11  23  38  60  90 125 163 207 261 320 384
#     4  11  24  42  64  90 127 168 219 272 325 389
#
# _framework density 20.109203000000001
#
# number of rings (size 3 to 8) (size 9 to 14) (size 15 to 20)
#    0.000    1.500    2.500    2.625    0.000    2.500 
#    0.000    0.000    0.000    3.000    0.000    0.000 
#    0.000    0.000    0.000    0.000    0.000    0.000 
#
# Total GULP energy -793139.390143 kJ/mol
# GULP energy per Si atom -12392.802971 kJ/mol
# Density = 2.006343 g / cm^3
# Si number density = 20.109203 Si / 1000 Ang^3
#
#
#
# Elastic Constant Matrix: (Units=GPa)
#
#
# Indices 1 2 3 4 5 6 
#
# 1 88.8235 21.7235 -2.2041 0.0000 0.0000 0.0000
# 2 21.7235 100.0299 30.4662 0.0000 0.0000 0.0000
# 3 -2.2041 30.4662 79.5417 0.0000 0.0000 0.0000
# 4 0.0000 0.0000 0.0000 8.3238 0.0000 0.0000
# 5 0.0000 0.0000 0.0000 0.0000 29.2997 0.0000
# 6 0.0000 0.0000 0.0000 0.0000 0.0000 22.9199
#
#
#
# Elastic Compliance Matrix: (Units=1/GPa)
#
#
# Indices 1 2 3 4 5 6 
#
# 1 0.012048 -0.003077 0.001512 0.000000 0.000000 0.000000
# 2 -0.003077 0.012103 -0.004721 0.000000 0.000000 0.000000
# 3 0.001512 -0.004721 0.014422 0.000000 0.000000 0.000000
# 4 0.000000 0.000000 0.000000 0.120138 0.000000 0.000000
# 5 0.000000 0.000000 0.000000 0.000000 0.034130 0.000000
# 6 0.000000 0.000000 0.000000 0.000000 0.000000 0.043630
#
#
# Mechanical properties :
#
#
# Convention : Reuss Voigt Hill
#
# Bulk Modulus (GPa) = 38.45821 40.92960 39.69391
# Shear Modulus (GPa) = 19.40159 26.66930 23.03544
#
# Velocity S-wave (km/s) = 3.10951 3.64569 3.38822
# Velocity P-wave (km/s) = 5.66200 6.17408 5.92358
#
# Compressibility (1/GPa) = 0.02600225
#
# Stress axis : x y z
#
# Youngs Moduli (GPa) = 82.99855 82.62291 69.33755
#
# Poissons Ratio (x) = 0.25425 -0.10487
# Poissons Ratio (y) = 0.25540 0.32735
# Poissons Ratio (z) = -0.12553 0.39007
#
# Static dielectric constant tensor:
#      x y z
#    x 3.723000 0.000000 0.000000 
#    y 0.000000 3.766840 0.000000 
#    z 0.000000 0.000000 3.781060 
# 
# 
# High freq. dielectric constant tensor:
#      x y z
#    x 1.788970 0.000000 0.000000 
#    y 0.000000 1.779600 0.000000 
#    z 0.000000 0.000000 1.792640 
# 
# From -- ./inp_files/29447.got.cif
#   From: 2010.03.12/outbox.cif.g09.slc.cpg/sg62_15_cif.got.tgz:29447.got - 2010.04.10 19:12:36.
