data_PCOD8253556
_publ_section_title
;
Structure prediction by ZEFSAII (Michael W. Deem and Ramdas Pophale) SiO2 
 PCOD8253556
Probable space group: P N M A
;
_chemical_formula_sum "Si O2"
_cell_formula_units_Z 48
_cell_length_a 27.460910
_cell_length_b 9.055279
_cell_length_c 9.955369
_cell_angle_alpha 90.000000
_cell_angle_beta 90.000000
_cell_angle_gamma 90.000000
_cell_volume 2475.563795
_symmetry_space_group_name_H-M "P N M A"
_symmetry_group_IT_number 62
_symmetry_cell_setting 'orthorhombic'
loop_
_space_group_symop_operation_xyz
x,y,z
1/2-x,-y,1/2+z
1/2+x,1/2-y,1/2-z
-x,1/2+y,-z
-x,-y,-z
1/2+x,y,1/2-z
1/2-x,1/2+y,1/2+z
x,1/2-y,z
loop_
_atom_site_type_symbol
_atom_site_label
_atom_site_fract_x
_atom_site_fract_y
_atom_site_fract_z
Si Si1 0.963244 0.578410 0.401532
Si Si2 0.291329 0.575895 0.257636
Si Si3 0.140270 0.923065 0.963828
Si Si4 0.961186 0.923532 0.095232
Si Si5 0.642260 0.076565 0.986421
Si Si6 0.679688 0.579427 0.243817
O O1 0.965936 0.750000 0.433773
O O2 0.977716 0.546051 0.247826
O O3 0.908898 0.518456 0.427955
O O4 0.000000 0.500000 0.500000
O O5 0.298353 0.750000 0.284762
O O6 0.315009 0.484247 0.377680
O O7 0.315797 0.529088 0.117214
O O8 0.235441 0.527013 0.247328
O O9 0.133294 0.750000 0.934991
O O10 0.152401 0.953819 0.118129
O O11 0.091749 0.009668 0.927215
O O12 0.959111 0.750000 0.064192
O O13 0.000000 0.000000 0.000000
O O14 0.641497 0.250000 0.006027
O O15 0.650978 0.006982 0.130455
O O16 0.677767 0.750000 0.206191
#
# Coordination Sequence:
#
# PCOD8253556 Si02
#       6
#     8   8   8   8   8   8
#     4  10  23  42  64  89 119 156 197 245 300 355
#     4  10  20  40  63  85 120 161 202 249 300 352
#     4  11  23  40  62  91 124 160 202 249 300 358
#     4  11  24  44  66  91 122 158 199 248 303 360
#     4  10  21  40  62  86 119 160 200 244 300 358
#     4  10  23  38  58  90 124 159 200 248 297 350
#
# _framework density 19.389521999999999
#
# number of rings (size 3 to 8) (size 9 to 14) (size 15 to 20)
#    0.000    1.667    1.667    2.000    2.333    6.000 
#    0.000    0.000    0.000    0.000    0.000    0.000 
#    0.000    0.000    0.000    0.000    0.000    0.000 
#
# Total GULP energy -595418.449728 kJ/mol
# GULP energy per Si atom -12404.551036 kJ/mol
# Density = 1.934539 g / cm^3
# Si number density = 19.389522 Si / 1000 Ang^3
#
#
#
# Elastic Constant Matrix: (Units=GPa)
#
#
# Indices 1 2 3 4 5 6 
#
# 1 95.5605 42.2140 41.1597 0.0000 0.0000 0.0000
# 2 42.2140 68.1994 52.8811 0.0000 0.0000 0.0000
# 3 41.1597 52.8811 110.0299 0.0000 0.0000 0.0000
# 4 0.0000 0.0000 0.0000 36.8323 0.0000 0.0000
# 5 0.0000 0.0000 0.0000 0.0000 35.6399 0.0000
# 6 0.0000 0.0000 0.0000 0.0000 0.0000 33.2343
#
#
#
# Elastic Compliance Matrix: (Units=1/GPa)
#
#
# Indices 1 2 3 4 5 6 
#
# 1 0.014619 -0.007665 -0.001785 0.000000 0.000000 0.000000
# 2 -0.007665 0.027392 -0.010297 0.000000 0.000000 0.000000
# 3 -0.001785 -0.010297 0.014705 0.000000 0.000000 0.000000
# 4 0.000000 0.000000 0.000000 0.027150 0.000000 0.000000
# 5 0.000000 0.000000 0.000000 0.000000 0.028058 0.000000
# 6 0.000000 0.000000 0.000000 0.000000 0.000000 0.030089
#
#
# Mechanical properties :
#
#
# Convention : Reuss Voigt Hill
#
# Bulk Modulus (GPa) = 58.06642 60.69994 59.38318
# Shear Modulus (GPa) = 26.70229 30.31031 28.50630
#
# Velocity S-wave (km/s) = 3.71502 3.95806 3.83847
# Velocity P-wave (km/s) = 6.95803 7.22923 7.09493
#
# Compressibility (1/GPa) = 0.01722166
#
# Stress axis : x y z
#
# Youngs Moduli (GPa) = 68.40205 36.50705 68.00356
#
# Poissons Ratio (x) = 0.27983 0.12138
# Poissons Ratio (y) = 0.52431 0.70026
# Poissons Ratio (z) = 0.12209 0.37593
#
# Static dielectric constant tensor:
#      x y z
#    x 3.865450 0.000000 0.000000 
#    y 0.000000 3.696460 0.000000 
#    z 0.000000 0.000000 3.658300 
# 
# 
# High freq. dielectric constant tensor:
#      x y z
#    x 1.767760 0.000000 0.000000 
#    y 0.000000 1.752360 0.000000 
#    z 0.000000 0.000000 1.769110 
# 
# From -- ./inp_files/10217.got.cif
#   From: 2010.03.12/outbox.cif.g09.slc.cpg/sg62_6_cif.got.tgz:10217.got - 2010.04.10 19:12:36.
