data_PCOD8253484
_publ_section_title
;
Structure prediction by ZEFSAII (Michael W. Deem and Ramdas Pophale) SiO2 
 PCOD8253484
Probable space group: P N M A
;
_chemical_formula_sum "Si O2"
_cell_formula_units_Z 64
_cell_length_a 9.592160
_cell_length_b 19.173159
_cell_length_c 18.481400
_cell_angle_alpha 90.000000
_cell_angle_beta 90.000000
_cell_angle_gamma 90.000000
_cell_volume 3398.951400
_symmetry_space_group_name_H-M "P N M A"
_symmetry_group_IT_number 62
_symmetry_cell_setting 'orthorhombic'
loop_
_space_group_symop_operation_xyz
x,y,z
1/2-x,-y,1/2+z
1/2+x,1/2-y,1/2-z
-x,1/2+y,-z
-x,-y,-z
1/2+x,y,1/2-z
1/2-x,1/2+y,1/2+z
x,1/2-y,z
loop_
_atom_site_type_symbol
_atom_site_label
_atom_site_fract_x
_atom_site_fract_y
_atom_site_fract_z
Si Si1 0.776601 0.832027 0.321788
Si Si2 0.972184 0.168317 0.323914
Si Si3 0.362255 0.081980 0.044022
Si Si4 0.044335 0.168338 0.816143
Si Si5 0.599746 0.083033 0.547200
Si Si6 0.852524 0.424549 0.054134
Si Si7 0.385637 0.926325 0.050797
Si Si8 0.207668 0.667873 0.814151
O O1 0.788650 0.750000 0.336834
O O2 0.616888 0.854270 0.307125
O O3 0.837168 0.870780 0.390996
O O4 0.870489 0.855285 0.254269
O O5 0.967637 0.250000 0.336034
O O6 0.912574 0.136079 0.396817
O O7 0.871867 0.145781 0.258575
O O8 0.130832 0.144734 0.307394
O O9 0.363934 0.004958 0.080089
O O10 0.208584 0.100906 0.016350
O O11 0.454409 0.085726 0.970874
O O12 0.057772 0.250000 0.828729
O O13 0.117935 0.132411 0.884146
O O14 0.450179 0.098696 0.512184
O O15 0.612185 0.003860 0.576114
O O16 0.869653 0.373839 0.122174
O O17 0.696077 0.417450 0.024861
O O18 0.192695 0.750000 0.829977
#
# Coordination Sequence:
#
# PCOD8253484 Si02
#       8
#     8   8   8   8   8   8   8   8
#     4  10  22  39  60  83 113 150 190 234 280 334
#     4  10  22  40  58  83 115 149 190 232 279 336
#     4  10  22  37  58  86 116 147 185 236 280 332
#     4  10  22  40  58  83 115 149 190 232 279 336
#     4  10  22  37  58  86 116 147 185 236 280 332
#     4  10  20  39  59  83 114 146 189 231 280 335
#     4  10  20  39  59  83 114 146 189 231 280 335
#     4  10  22  39  60  83 113 150 190 234 280 334
#
# _framework density 18.829338
#
# number of rings (size 3 to 8) (size 9 to 14) (size 15 to 20)
#    0.000    2.000    2.500    0.000    3.500    3.000 
#    0.000    2.500    0.000    0.000    0.000    0.000 
#    0.000    0.000    0.000    0.000    0.000    0.000 
#
# Total GULP energy -793754.108011 kJ/mol
# GULP energy per Si atom -12402.407938 kJ/mol
# Density = 1.878648 g / cm^3
# Si number density = 18.829338 Si / 1000 Ang^3
#
#
#
# Elastic Constant Matrix: (Units=GPa)
#
#
# Indices 1 2 3 4 5 6 
#
# 1 77.0971 29.4840 32.7370 0.0000 0.0000 0.0000
# 2 29.4840 45.6048 48.7978 0.0000 0.0000 0.0000
# 3 32.7370 48.7978 100.8200 0.0000 0.0000 0.0000
# 4 0.0000 0.0000 0.0000 1.1355 0.0000 0.0000
# 5 0.0000 0.0000 0.0000 0.0000 22.4359 0.0000
# 6 0.0000 0.0000 0.0000 0.0000 0.0000 24.6461
#
#
#
# Elastic Compliance Matrix: (Units=1/GPa)
#
#
# Indices 1 2 3 4 5 6 
#
# 1 0.017240 -0.010694 -0.000422 0.000000 0.000000 0.000000
# 2 -0.010694 0.052117 -0.021753 0.000000 0.000000 0.000000
# 3 -0.000422 -0.021753 0.020584 0.000000 0.000000 0.000000
# 4 0.000000 0.000000 0.000000 0.880665 0.000000 0.000000
# 5 0.000000 0.000000 0.000000 0.000000 0.044571 0.000000
# 6 0.000000 0.000000 0.000000 0.000000 0.000000 0.040574
#
#
# Mechanical properties :
#
#
# Convention : Reuss Voigt Hill
#
# Bulk Modulus (GPa) = 41.31644 49.50662 45.41153
# Shear Modulus (GPa) = 4.42652 17.14371 10.78511
#
# Velocity S-wave (km/s) = 1.53492 3.02069 2.39588
# Velocity P-wave (km/s) = 5.01313 6.20608 5.64123
#
# Compressibility (1/GPa) = 0.02420344
#
# Stress axis : x y z
#
# Youngs Moduli (GPa) = 58.00626 19.18750 48.58130
#
# Poissons Ratio (x) = 0.20520 0.02048
# Poissons Ratio (y) = 0.62034 1.05677
# Poissons Ratio (z) = 0.02446 0.41738
#
# Static dielectric constant tensor:
#      x y z
#    x 3.689030 0.000000 0.000000 
#    y 0.000000 3.361350 0.000000 
#    z 0.000000 0.000000 3.253370 
# 
# 
# High freq. dielectric constant tensor:
#      x y z
#    x 1.748520 0.000000 0.000000 
#    y 0.000000 1.725000 0.000000 
#    z 0.000000 0.000000 1.725410 
# 
# From -- ./inp_files/22566.got.cif
#   From: 2010.03.12/outbox.cif.g09.slc.cpg/sg62_12_cif.got.tgz:22566.got - 2010.04.10 19:12:36.
