data_PCOD8253963
_publ_section_title
;
Structure prediction by ZEFSAII (Michael W. Deem and Ramdas Pophale) SiO2 
 PCOD8253963
Probable space group: P N M A
;
_chemical_formula_sum "Si O2"
_cell_formula_units_Z 48
_cell_length_a 18.557375
_cell_length_b 8.937570
_cell_length_c 15.042771
_cell_angle_alpha 90.000000
_cell_angle_beta 90.000000
_cell_angle_gamma 90.000000
_cell_volume 2494.961477
_symmetry_space_group_name_H-M "P N M A"
_symmetry_group_IT_number 62
_symmetry_cell_setting 'orthorhombic'
loop_
_space_group_symop_operation_xyz
x,y,z
1/2-x,-y,1/2+z
1/2+x,1/2-y,1/2-z
-x,1/2+y,-z
-x,-y,-z
1/2+x,y,1/2-z
1/2-x,1/2+y,1/2+z
x,1/2-y,z
loop_
_atom_site_type_symbol
_atom_site_label
_atom_site_fract_x
_atom_site_fract_y
_atom_site_fract_z
Si Si1 0.688819 0.923444 0.597218
Si Si2 0.345507 0.923935 0.092561
Si Si3 0.086402 0.422567 0.248644
Si Si4 0.161785 0.926647 0.407525
Si Si5 0.079154 0.577779 0.751320
Si Si6 0.180432 0.921441 0.105085
O O1 0.710360 0.750000 0.606643
O O2 0.625281 0.971483 0.663164
O O3 0.662138 0.956186 0.497440
O O4 0.759108 0.018638 0.621169
O O5 0.357097 0.750000 0.073443
O O6 0.264132 0.956595 0.124005
O O7 0.400234 0.977501 0.167489
O O8 0.363144 0.009752 0.001968
O O9 0.102012 0.250000 0.270383
O O10 0.104956 0.520563 0.334301
O O11 0.133149 0.468905 0.163937
O O12 0.003471 0.450424 0.223966
O O13 0.161868 0.750000 0.412472
O O14 0.094161 0.750000 0.726807
O O15 0.162401 0.750000 0.129534
#
# Coordination Sequence:
#
# PCOD8253963 Si02
#       6
#     8   8   8   8   8   8
#     4   9  19  38  61  83 110 143 182 230 275 318
#     4  10  21  38  60  84 110 142 182 230 279 325
#     4  11  23  37  54  80 115 151 184 222 272 327
#     4  11  22  37  59  84 109 142 185 229 274 327
#     4  10  22  38  56  81 113 149 186 224 271 326
#     4   9  19  36  58  84 111 141 181 227 273 322
#
# _framework density 19.238772999999998
#
# number of rings (size 3 to 8) (size 9 to 14) (size 15 to 20)
#    0.000    2.000    0.000    4.500    0.000    9.333 
#    0.000    0.000    0.000    0.000    0.000    0.000 
#    0.000    0.000    0.000    0.000    0.000    0.000 
#
# Total GULP energy -595456.780129 kJ/mol
# GULP energy per Si atom -12405.349586 kJ/mol
# Density = 1.919498 g / cm^3
# Si number density = 19.238773 Si / 1000 Ang^3
#
#
#
# Elastic Constant Matrix: (Units=GPa)
#
#
# Indices 1 2 3 4 5 6 
#
# 1 59.4589 32.7583 31.5983 0.0000 0.0000 0.0000
# 2 32.7583 97.8771 37.2347 0.0000 0.0000 0.0000
# 3 31.5983 37.2347 86.2852 0.0000 0.0000 0.0000
# 4 0.0000 0.0000 0.0000 35.2682 0.0000 0.0000
# 5 0.0000 0.0000 0.0000 0.0000 10.1110 0.0000
# 6 0.0000 0.0000 0.0000 0.0000 0.0000 28.0630
#
#
#
# Elastic Compliance Matrix: (Units=1/GPa)
#
#
# Indices 1 2 3 4 5 6 
#
# 1 0.023032 -0.005384 -0.006111 0.000000 0.000000 0.000000
# 2 -0.005384 0.013482 -0.003846 0.000000 0.000000 0.000000
# 3 -0.006111 -0.003846 0.015487 0.000000 0.000000 0.000000
# 4 0.000000 0.000000 0.000000 0.028354 0.000000 0.000000
# 5 0.000000 0.000000 0.000000 0.000000 0.098902 0.000000
# 6 0.000000 0.000000 0.000000 0.000000 0.000000 0.035634
#
#
# Mechanical properties :
#
#
# Convention : Reuss Voigt Hill
#
# Bulk Modulus (GPa) = 46.90711 49.64486 48.27598
# Shear Modulus (GPa) = 19.78779 24.15710 21.97245
#
# Velocity S-wave (km/s) = 3.21056 3.54735 3.38315
# Velocity P-wave (km/s) = 6.17884 6.52985 6.35677
#
# Compressibility (1/GPa) = 0.02131873
#
# Stress axis : x y z
#
# Youngs Moduli (GPa) = 43.41751 74.17295 64.56904
#
# Poissons Ratio (x) = 0.39933 0.39460
# Poissons Ratio (y) = 0.23375 0.24835
# Poissons Ratio (z) = 0.26534 0.28529
#
# Static dielectric constant tensor:
#      x y z
#    x 3.451080 0.000000 0.000000 
#    y 0.000000 3.522470 0.000000 
#    z 0.000000 0.000000 3.598940 
# 
# 
# High freq. dielectric constant tensor:
#      x y z
#    x 1.742100 0.000000 0.000000 
#    y 0.000000 1.751490 0.000000 
#    z 0.000000 0.000000 1.758500 
# 
# From -- ./inp_files/19549.got.cif
#   From: 2010.03.12/outbox.cif.g09.slc.cpg/sg62_10_cif.got.tgz:19549.got - 2010.04.10 19:12:36.
