data_PCOD8253089
_publ_section_title
;
Structure prediction by ZEFSAII (Michael W. Deem and Ramdas Pophale) SiO2 
 PCOD8253089
Probable space group: P N M A
;
_chemical_formula_sum "Si O2"
_cell_formula_units_Z 64
_cell_length_a 5.310793
_cell_length_b 18.609278
_cell_length_c 28.368622
_cell_angle_alpha 90.000000
_cell_angle_beta 90.000000
_cell_angle_gamma 90.000000
_cell_volume 2803.671574
_symmetry_space_group_name_H-M "P N M A"
_symmetry_group_IT_number 62
_symmetry_cell_setting 'orthorhombic'
loop_
_space_group_symop_operation_xyz
x,y,z
1/2-x,-y,1/2+z
1/2+x,1/2-y,1/2-z
-x,1/2+y,-z
-x,-y,-z
1/2+x,y,1/2-z
1/2-x,1/2+y,1/2+z
x,1/2-y,z
loop_
_atom_site_type_symbol
_atom_site_label
_atom_site_fract_x
_atom_site_fract_y
_atom_site_fract_z
Si Si1 0.073640 0.671182 0.401097
Si Si2 0.670109 0.664992 0.724700
Si Si3 0.135122 0.170051 0.997001
Si Si4 0.815139 0.428454 0.945748
Si Si5 0.360413 0.421772 0.072268
Si Si6 0.360073 0.079482 0.366370
Si Si7 0.416236 0.573531 0.353157
Si Si8 0.651950 0.832903 0.279338
O O1 0.004760 0.750000 0.381889
O O2 0.825352 0.634927 0.419234
O O3 0.268598 0.676768 0.443947
O O4 0.182059 0.628539 0.355751
O O5 0.420651 0.633704 0.750205
O O6 0.671138 0.750000 0.727745
O O7 0.669833 0.644256 0.669925
O O8 0.040934 0.250000 0.013070
O O9 0.918629 0.107278 0.994575
O O10 0.347392 0.141124 0.032839
O O11 0.654229 0.500600 0.954813
O O12 0.027915 0.448444 0.907698
O O13 0.628494 0.415987 0.097256
O O14 0.129753 0.410894 0.108274
O O15 0.346596 0.005943 0.334347
O O16 0.638373 0.612969 0.324056
O O17 0.908529 0.850918 0.252407
O O18 0.644997 0.750000 0.296041
#
# Coordination Sequence:
#
# PCOD8253089 Si02
#       8
#     8   8   8   8   8   8   8   8
#     4  10  20  36  60  85 115 157 210 256 296 353
#     4  10  22  42  68  96 126 162 205 255 306 363
#     4  10  23  39  58  89 121 161 212 256 306 367
#     4  10  21  39  60  87 117 162 210 259 300 361
#     4  11  24  41  62  90 129 166 198 255 316 369
#     4  11  24  41  64  94 125 160 206 246 309 378
#     4  10  22  39  58  86 120 155 205 252 304 353
#     4  10  23  39  57  85 119 155 193 238 300 363
#
# _framework density 22.827207999999999
#
# number of rings (size 3 to 8) (size 9 to 14) (size 15 to 20)
#    0.000    1.750    1.250    1.875    3.500    4.000 
#    0.000    0.000    0.000    0.000    0.000    0.000 
#    0.000    0.000    0.000    0.000    0.000    0.000 
#
# Total GULP energy -793193.043665 kJ/mol
# GULP energy per Si atom -12393.641307 kJ/mol
# Density = 2.277525 g / cm^3
# Si number density = 22.827208 Si / 1000 Ang^3
#
#
#
# Elastic Constant Matrix: (Units=GPa)
#
#
# Indices 1 2 3 4 5 6 
#
# 1 93.7840 9.2096 10.2979 0.0000 0.0000 0.0000
# 2 9.2096 38.0791 18.1978 0.0000 0.0000 0.0000
# 3 10.2979 18.1978 51.2985 0.0000 0.0000 0.0000
# 4 0.0000 0.0000 0.0000 35.5163 0.0000 0.0000
# 5 0.0000 0.0000 0.0000 0.0000 32.7751 0.0000
# 6 0.0000 0.0000 0.0000 0.0000 0.0000 20.8114
#
#
#
# Elastic Compliance Matrix: (Units=1/GPa)
#
#
# Indices 1 2 3 4 5 6 
#
# 1 0.011020 -0.001936 -0.001525 0.000000 0.000000 0.000000
# 2 -0.001936 0.031962 -0.010950 0.000000 0.000000 0.000000
# 3 -0.001525 -0.010950 0.023684 0.000000 0.000000 0.000000
# 4 0.000000 0.000000 0.000000 0.028156 0.000000 0.000000
# 5 0.000000 0.000000 0.000000 0.000000 0.030511 0.000000
# 6 0.000000 0.000000 0.000000 0.000000 0.000000 0.048051
#
#
# Mechanical properties :
#
#
# Convention : Reuss Voigt Hill
#
# Bulk Modulus (GPa) = 26.42420 28.73025 27.57723
# Shear Modulus (GPa) = 23.27507 27.51765 25.39636
#
# Velocity S-wave (km/s) = 3.19661 3.47576 3.33911
# Velocity P-wave (km/s) = 5.02248 5.35922 5.19358
#
# Compressibility (1/GPa) = 0.03784409
#
# Stress axis : x y z
#
# Youngs Moduli (GPa) = 90.74038 31.28696 42.22206
#
# Poissons Ratio (x) = 0.06058 0.06440
# Poissons Ratio (y) = 0.17571 0.46232
# Poissons Ratio (z) = 0.13841 0.34258
#
# Static dielectric constant tensor:
#      x y z
#    x 4.092400 0.000000 0.000000 
#    y 0.000000 4.433380 0.000000 
#    z 0.000000 0.000000 3.966190 
# 
# 
# High freq. dielectric constant tensor:
#      x y z
#    x 1.901970 0.000000 0.000000 
#    y 0.000000 1.906940 0.000000 
#    z 0.000000 0.000000 1.882310 
# 
# From -- ./inp_files/31710.got.cif
#   From: 2010.03.12/outbox.cif.g09.slc.cpg/sg62_16_cif.got.tgz:31710.got - 2010.04.10 19:12:36.
