data_PCOD8253015
_publ_section_title
;
Structure prediction by ZEFSAII (Michael W. Deem and Ramdas Pophale) SiO2 
 PCOD8253015
Probable space group: P N M A
;
_chemical_formula_sum "Si O2"
_cell_formula_units_Z 40
_cell_length_a 21.107150
_cell_length_b 10.933211
_cell_length_c 8.317915
_cell_angle_alpha 90.000000
_cell_angle_beta 90.000000
_cell_angle_gamma 90.000000
_cell_volume 1919.516299
_symmetry_space_group_name_H-M "P N M A"
_symmetry_group_IT_number 62
_symmetry_cell_setting 'orthorhombic'
loop_
_space_group_symop_operation_xyz
x,y,z
1/2-x,-y,1/2+z
1/2+x,1/2-y,1/2-z
-x,1/2+y,-z
-x,-y,-z
1/2+x,y,1/2-z
1/2-x,1/2+y,1/2+z
x,1/2-y,z
loop_
_atom_site_type_symbol
_atom_site_label
_atom_site_fract_x
_atom_site_fract_y
_atom_site_fract_z
Si Si1 0.074037 0.887361 0.325771
Si Si2 0.396674 0.392163 0.468349
Si Si3 0.166782 0.036877 0.531504
Si Si4 0.731068 0.614940 0.707195
Si Si5 0.935326 0.884344 0.247855
O O1 0.097381 0.750000 0.334233
O O2 0.111836 0.948189 0.470056
O O3 0.998767 0.901519 0.354066
O O4 0.093058 0.936772 0.149776
O O5 0.420814 0.250000 0.439451
O O6 0.322751 0.400520 0.427543
O O7 0.432985 0.495284 0.364270
O O8 0.220162 0.972789 0.641445
O O9 0.201539 0.095370 0.379168
O O10 0.127267 0.130690 0.641420
O O11 0.730837 0.750000 0.780752
O O12 0.940508 0.750000 0.157806
#
# Coordination Sequence:
#
# PCOD8253015 Si02
#       5
#     8   8   8   8   8
#     4  10  20  36  58  84 113 147 187 231 280 333
#     4   9  19  37  60  84 112 147 186 228 278 336
#     4  11  21  37  56  81 111 148 187 231 280 331
#     4  10  21  37  56  79 108 144 188 234 279 330
#     4  10  21  37  58  86 118 148 184 230 278 332
#
# _framework density 20.838581999999999
#
# number of rings (size 3 to 8) (size 9 to 14) (size 15 to 20)
#    0.000    2.000    0.000    3.600    0.000    0.800 
#    0.000   17.000    0.000    0.000    0.000    0.000 
#    0.000    0.000    0.000    0.000    0.000    0.000 
#
# Total GULP energy -495576.398509 kJ/mol
# GULP energy per Si atom -12389.409963 kJ/mol
# Density = 2.079115 g / cm^3
# Si number density = 20.838582 Si / 1000 Ang^3
#
#
#
# Elastic Constant Matrix: (Units=GPa)
#
#
# Indices 1 2 3 4 5 6 
#
# 1 70.0601 25.5495 13.1563 0.0000 0.0000 0.0000
# 2 25.5495 93.1134 30.6647 0.0000 0.0000 0.0000
# 3 13.1563 30.6647 57.7493 0.0000 0.0000 0.0000
# 4 0.0000 0.0000 0.0000 11.8027 0.0000 0.0000
# 5 0.0000 0.0000 0.0000 0.0000 36.5681 0.0000
# 6 0.0000 0.0000 0.0000 0.0000 0.0000 28.1589
#
#
#
# Elastic Compliance Matrix: (Units=1/GPa)
#
#
# Indices 1 2 3 4 5 6 
#
# 1 0.015980 -0.003861 -0.001590 0.000000 0.000000 0.000000
# 2 -0.003861 0.013949 -0.006527 0.000000 0.000000 0.000000
# 3 -0.001590 -0.006527 0.021144 0.000000 0.000000 0.000000
# 4 0.000000 0.000000 0.000000 0.084726 0.000000 0.000000
# 5 0.000000 0.000000 0.000000 0.000000 0.027346 0.000000
# 6 0.000000 0.000000 0.000000 0.000000 0.000000 0.035513
#
#
# Mechanical properties :
#
#
# Convention : Reuss Voigt Hill
#
# Bulk Modulus (GPa) = 36.87830 39.96263 38.42046
# Shear Modulus (GPa) = 21.58392 25.40943 23.49668
#
# Velocity S-wave (km/s) = 3.22183 3.49570 3.36155
# Velocity P-wave (km/s) = 5.61923 5.95920 5.79171
#
# Compressibility (1/GPa) = 0.02711622
#
# Stress axis : x y z
#
# Youngs Moduli (GPa) = 62.57758 71.69195 47.29389
#
# Poissons Ratio (x) = 0.27681 0.07521
# Poissons Ratio (y) = 0.24162 0.30869
# Poissons Ratio (z) = 0.09952 0.46794
#
# Static dielectric constant tensor:
#      x y z
#    x 3.799010 0.000000 0.000000 
#    y 0.000000 3.889700 0.000000 
#    z 0.000000 0.000000 3.668960 
# 
# 
# High freq. dielectric constant tensor:
#      x y z
#    x 1.821530 0.000000 0.000000 
#    y 0.000000 1.818130 0.000000 
#    z 0.000000 0.000000 1.798970 
# 
# From -- ./inp_files/7270.got.cif
#   From: 2010.03.12/outbox.cif.g09.slc.cpg/sg62_4_cif.got.tgz:7270.got - 2010.04.10 19:12:36.
