data_PCOD8253729
_publ_section_title
;
Structure prediction by ZEFSAII (Michael W. Deem and Ramdas Pophale) SiO2 
 PCOD8253729
Probable space group: P N M A
;
_chemical_formula_sum "Si O2"
_cell_formula_units_Z 56
_cell_length_a 16.410641
_cell_length_b 8.857261
_cell_length_c 19.755659
_cell_angle_alpha 90.000000
_cell_angle_beta 90.000000
_cell_angle_gamma 90.000000
_cell_volume 2871.550832
_symmetry_space_group_name_H-M "P N M A"
_symmetry_group_IT_number 62
_symmetry_cell_setting 'orthorhombic'
loop_
_space_group_symop_operation_xyz
x,y,z
1/2-x,-y,1/2+z
1/2+x,1/2-y,1/2-z
-x,1/2+y,-z
-x,-y,-z
1/2+x,y,1/2-z
1/2-x,1/2+y,1/2+z
x,1/2-y,z
loop_
_atom_site_type_symbol
_atom_site_label
_atom_site_fract_x
_atom_site_fract_y
_atom_site_fract_z
Si Si1 0.242991 0.072927 0.480338
Si Si2 0.184791 0.924007 0.733192
Si Si3 0.699331 0.074333 0.386425
Si Si4 0.522089 0.072452 0.341036
Si Si5 0.144305 0.427812 0.870119
Si Si6 0.506483 0.574533 0.806635
Si Si7 0.559994 0.428941 0.053845
O O1 0.255659 0.250000 0.469274
O O2 0.151843 0.022217 0.462083
O O3 0.259675 0.030556 0.557845
O O4 0.305205 0.982518 0.434120
O O5 0.186833 0.750000 0.756059
O O6 0.261043 0.964963 0.686062
O O7 0.102979 0.959065 0.690871
O O8 0.188937 0.021167 0.801336
O O9 0.714130 0.250000 0.404110
O O10 0.603721 0.035855 0.382163
O O11 0.503404 0.250000 0.338820
O O12 0.529912 0.010028 0.263837
O O13 0.446699 0.992898 0.377721
O O14 0.138654 0.250000 0.871521
O O15 0.487265 0.750000 0.809497
O O16 0.463381 0.502214 0.872316
O O17 0.548823 0.250000 0.051197
O O18 0.500000 0.500000 0.000000
#
# Coordination Sequence:
#
# PCOD8253729 Si02
#       7
#     8   8   8   8   8   8   8
#     4  11  24  39  58  85 121 159 196 241 293 352
#     4   9  18  35  61  87 115 150 189 239 292 350
#     4  10  21  37  62  89 115 151 196 243 295 354
#     4   9  19  37  61  86 110 145 194 246 295 346
#     4  11  23  39  59  84 117 155 196 245 295 349
#     4   8  15  31  55  82 109 141 185 230 275 334
#     4  10  21  36  58  85 116 153 191 234 284 344
#
# _framework density 19.501657000000002
#
# number of rings (size 3 to 8) (size 9 to 14) (size 15 to 20)
#    0.000    2.286    0.000    3.429    2.000    4.000 
#    0.000    4.286    0.000    0.000    0.000    0.000 
#    0.000    0.000    0.000    0.000    0.000    0.000 
#
# Total GULP energy -694450.093965 kJ/mol
# GULP energy per Si atom -12400.894535 kJ/mol
# Density = 1.945727 g / cm^3
# Si number density = 19.501657 Si / 1000 Ang^3
#
#
#
# Elastic Constant Matrix: (Units=GPa)
#
#
# Indices 1 2 3 4 5 6 
#
# 1 93.2289 37.0716 24.3152 0.0000 0.0000 0.0000
# 2 37.0716 62.2169 21.1584 0.0000 0.0000 0.0000
# 3 24.3152 21.1584 50.9039 0.0000 0.0000 0.0000
# 4 0.0000 0.0000 0.0000 33.5043 0.0000 0.0000
# 5 0.0000 0.0000 0.0000 0.0000 37.1690 0.0000
# 6 0.0000 0.0000 0.0000 0.0000 0.0000 22.0205
#
#
#
# Elastic Compliance Matrix: (Units=1/GPa)
#
#
# Indices 1 2 3 4 5 6 
#
# 1 0.014705 -0.007422 -0.003939 0.000000 0.000000 0.000000
# 2 -0.007422 0.022465 -0.005792 0.000000 0.000000 0.000000
# 3 -0.003939 -0.005792 0.023934 0.000000 0.000000 0.000000
# 4 0.000000 0.000000 0.000000 0.029847 0.000000 0.000000
# 5 0.000000 0.000000 0.000000 0.000000 0.026904 0.000000
# 6 0.000000 0.000000 0.000000 0.000000 0.000000 0.045412
#
#
# Mechanical properties :
#
#
# Convention : Reuss Voigt Hill
#
# Bulk Modulus (GPa) = 37.31777 41.27112 39.29444
# Shear Modulus (GPa) = 24.21223 26.79240 25.50232
#
# Velocity S-wave (km/s) = 3.52738 3.71057 3.62014
# Velocity P-wave (km/s) = 5.98056 6.29020 6.13733
#
# Compressibility (1/GPa) = 0.02679689
#
# Stress axis : x y z
#
# Youngs Moduli (GPa) = 68.00376 44.51326 41.78155
#
# Poissons Ratio (x) = 0.33039 0.16458
# Poissons Ratio (y) = 0.50475 0.24201
# Poissons Ratio (z) = 0.26787 0.25783
#
# Static dielectric constant tensor:
#      x y z
#    x 3.701140 0.000000 0.000000 
#    y 0.000000 3.307400 0.000000 
#    z 0.000000 0.000000 3.670930 
# 
# 
# High freq. dielectric constant tensor:
#      x y z
#    x 1.768220 0.000000 0.000000 
#    y 0.000000 1.733690 0.000000 
#    z 0.000000 0.000000 1.766130 
# 
# From -- ./inp_files/27189.got.cif
#   From: 2010.03.12/outbox.cif.g09.slc.cpg/sg62_14_cif.got.tgz:27189.got - 2010.04.10 19:12:36.
