data_PCOD8253559
_publ_section_title
;
Structure prediction by ZEFSAII (Michael W. Deem and Ramdas Pophale) SiO2 
 PCOD8253559
Probable space group: P N M A
;
_chemical_formula_sum "Si O2"
_cell_formula_units_Z 48
_cell_length_a 26.877070
_cell_length_b 9.123328
_cell_length_c 9.854311
_cell_angle_alpha 90.000000
_cell_angle_beta 90.000000
_cell_angle_gamma 90.000000
_cell_volume 2416.359097
_symmetry_space_group_name_H-M "P N M A"
_symmetry_group_IT_number 62
_symmetry_cell_setting 'orthorhombic'
loop_
_space_group_symop_operation_xyz
x,y,z
1/2-x,-y,1/2+z
1/2+x,1/2-y,1/2-z
-x,1/2+y,-z
-x,-y,-z
1/2+x,y,1/2-z
1/2-x,1/2+y,1/2+z
x,1/2-y,z
loop_
_atom_site_type_symbol
_atom_site_label
_atom_site_fract_x
_atom_site_fract_y
_atom_site_fract_z
Si Si1 0.460487 0.577186 0.751775
Si Si2 0.224398 0.418422 0.381673
Si Si3 0.384243 0.578331 0.980950
Si Si4 0.101376 0.922807 0.035575
Si Si5 0.796875 0.919728 0.921556
Si Si6 0.073980 0.920378 0.731461
O O1 0.455131 0.750000 0.723511
O O2 0.444633 0.490997 0.617209
O O3 0.516742 0.532088 0.785809
O O4 0.426406 0.524547 0.876553
O O5 0.234289 0.250000 0.423208
O O6 0.169080 0.467614 0.422337
O O7 0.263639 0.520866 0.456351
O O8 0.231918 0.439960 0.220730
O O9 0.388160 0.750000 0.002637
O O10 0.391578 0.503830 0.125449
O O11 0.102731 0.750000 0.059903
O O12 0.152014 0.992880 0.088815
O O13 0.093820 0.962914 0.879049
O O14 0.809198 0.750000 0.947823
O O15 0.080228 0.750000 0.702703
#
# Coordination Sequence:
#
# PCOD8253559 Si02
#       6
#     8   8   8   8   8   8
#     4  10  20  40  63  86 120 161 203 247 299 353
#     4  10  23  43  63  90 121 151 197 249 295 354
#     4  10  21  39  62  87 120 157 197 246 297 355
#     4  11  23  39  60  90 124 157 199 250 296 352
#     4  11  24  43  66  89 119 159 196 244 303 356
#     4  10  23  38  58  90 125 159 200 248 294 351
#
# _framework density 19.864597
#
# number of rings (size 3 to 8) (size 9 to 14) (size 15 to 20)
#    0.000    1.667    1.667    2.000    2.333    4.667 
#    0.000    0.000    0.000    0.000    0.000    0.000 
#    0.000    0.000    0.000    0.000    0.000    0.000 
#
# Total GULP energy -595493.514934 kJ/mol
# GULP energy per Si atom -12406.114894 kJ/mol
# Density = 1.981938 g / cm^3
# Si number density = 19.864597 Si / 1000 Ang^3
#
#
#
# Elastic Constant Matrix: (Units=GPa)
#
#
# Indices 1 2 3 4 5 6 
#
# 1 29.5838 3.2988 9.0807 0.0000 0.0000 0.0000
# 2 3.2988 44.8905 31.3948 0.0000 0.0000 0.0000
# 3 9.0807 31.3948 71.8320 0.0000 0.0000 0.0000
# 4 0.0000 0.0000 0.0000 35.8600 0.0000 0.0000
# 5 0.0000 0.0000 0.0000 0.0000 35.9323 0.0000
# 6 0.0000 0.0000 0.0000 0.0000 0.0000 23.6865
#
#
#
# Elastic Compliance Matrix: (Units=1/GPa)
#
#
# Indices 1 2 3 4 5 6 
#
# 1 0.035185 0.000756 -0.004778 0.000000 0.000000 0.000000
# 2 0.000756 0.032099 -0.014125 0.000000 0.000000 0.000000
# 3 -0.004778 -0.014125 0.020699 0.000000 0.000000 0.000000
# 4 0.000000 0.000000 0.000000 0.027886 0.000000 0.000000
# 5 0.000000 0.000000 0.000000 0.000000 0.027830 0.000000
# 6 0.000000 0.000000 0.000000 0.000000 0.000000 0.042218
#
#
# Mechanical properties :
#
#
# Convention : Reuss Voigt Hill
#
# Bulk Modulus (GPa) = 19.34656 25.98389 22.66523
# Shear Modulus (GPa) = 20.88197 25.93122 23.40660
#
# Velocity S-wave (km/s) = 3.24576 3.61695 3.43637
# Velocity P-wave (km/s) = 4.87924 5.52739 5.21340
#
# Compressibility (1/GPa) = 0.05168876
#
# Stress axis : x y z
#
# Youngs Moduli (GPa) = 28.42145 31.15337 48.31184
#
# Poissons Ratio (x) = -0.02356 0.23086
# Poissons Ratio (y) = -0.02150 0.68240
# Poissons Ratio (z) = 0.13581 0.44004
#
# Static dielectric constant tensor:
#      x y z
#    x 3.674030 0.000000 0.000000 
#    y 0.000000 3.526970 0.000000 
#    z 0.000000 0.000000 3.679090 
# 
# 
# High freq. dielectric constant tensor:
#      x y z
#    x 1.781520 0.000000 0.000000 
#    y 0.000000 1.770740 0.000000 
#    z 0.000000 0.000000 1.786180 
# 
# From -- ./inp_files/10163.got.cif
#   From: 2010.03.12/outbox.cif.g09.slc.cpg/sg62_6_cif.got.tgz:10163.got - 2010.04.10 19:12:36.
