data_PCOD8253815
_publ_section_title
;
Structure prediction by ZEFSAII (Michael W. Deem and Ramdas Pophale) SiO2 
 PCOD8253815
Probable space group: P N M A
;
_chemical_formula_sum "Si O2"
_cell_formula_units_Z 64
_cell_length_a 27.139901
_cell_length_b 9.234735
_cell_length_c 12.982234
_cell_angle_alpha 90.000000
_cell_angle_beta 90.000000
_cell_angle_gamma 90.000000
_cell_volume 3253.734629
_symmetry_space_group_name_H-M "P N M A"
_symmetry_group_IT_number 62
_symmetry_cell_setting 'orthorhombic'
loop_
_space_group_symop_operation_xyz
x,y,z
1/2-x,-y,1/2+z
1/2+x,1/2-y,1/2-z
-x,1/2+y,-z
-x,-y,-z
1/2+x,y,1/2-z
1/2-x,1/2+y,1/2+z
x,1/2-y,z
loop_
_atom_site_type_symbol
_atom_site_label
_atom_site_fract_x
_atom_site_fract_y
_atom_site_fract_z
Si Si1 0.550101 0.419699 0.292341
Si Si2 0.367435 0.916882 0.872074
Si Si3 0.596961 0.421382 0.507828
Si Si4 0.232837 0.588170 0.355843
Si Si5 0.201320 0.089007 0.046249
Si Si6 0.550121 0.420605 0.719320
Si Si7 0.372370 0.583453 0.106226
Si Si8 0.280970 0.077657 0.192907
O O1 0.539398 0.250000 0.285579
O O2 0.592109 0.465267 0.211253
O O3 0.564866 0.465235 0.408507
O O4 0.501639 0.504554 0.260091
O O5 0.352580 0.750000 0.855663
O O6 0.319455 0.011101 0.852131
O O7 0.388776 0.940957 0.987643
O O8 0.600345 0.250000 0.521804
O O9 0.651849 0.491954 0.492488
O O10 0.573630 0.484200 0.613202
O O11 0.227901 0.750000 0.309570
O O12 0.252097 0.595755 0.471281
O O13 0.277680 0.498592 0.303280
O O14 0.182616 0.250000 0.073303
O O15 0.227495 0.024658 0.147477
O O16 0.541617 0.250000 0.711064
O O17 0.583975 0.461446 0.816724
O O18 0.357096 0.750000 0.125638
O O19 0.326077 0.481858 0.127306
O O20 0.285741 0.250000 0.200836
#
# Coordination Sequence:
#
# PCOD8253815 Si02
#       8
#     8   8   8   8   8   8   8   8
#     4  10  21  37  58  82 109 147 191 240 296 348
#     4  10  21  38  58  81 114 152 193 240 290 345
#     4   9  17  33  56  80 110 145 185 230 283 347
#     4  11  21  35  56  84 116 152 192 233 281 339
#     4   9  18  33  54  80 111 147 186 222 272 341
#     4  10  21  37  58  82 109 147 191 240 296 348
#     4  10  21  38  58  81 114 152 193 240 290 345
#     4  11  21  35  56  84 116 152 192 233 281 339
#
# _framework density 19.669706000000001
#
# number of rings (size 3 to 8) (size 9 to 14) (size 15 to 20)
#    0.000    2.000    1.250    2.625    0.000    5.500 
#    0.000    0.000    0.000    3.000    0.000    0.000 
#    0.000    0.000    0.000    0.000    0.000    0.000 
#
# Total GULP energy -793277.630268 kJ/mol
# GULP energy per Si atom -12394.962973 kJ/mol
# Density = 1.962494 g / cm^3
# Si number density = 19.669706 Si / 1000 Ang^3
#
#
#
# Elastic Constant Matrix: (Units=GPa)
#
#
# Indices 1 2 3 4 5 6 
#
# 1 103.7410 37.5542 24.3188 0.0000 0.0000 0.0000
# 2 37.5542 60.3917 25.9318 0.0000 0.0000 0.0000
# 3 24.3188 25.9318 94.6692 0.0000 0.0000 0.0000
# 4 0.0000 0.0000 0.0000 17.3689 0.0000 0.0000
# 5 0.0000 0.0000 0.0000 0.0000 34.2577 0.0000
# 6 0.0000 0.0000 0.0000 0.0000 0.0000 35.2435
#
#
#
# Elastic Compliance Matrix: (Units=1/GPa)
#
#
# Indices 1 2 3 4 5 6 
#
# 1 0.012565 -0.007284 -0.001232 0.000000 0.000000 0.000000
# 2 -0.007284 0.022989 -0.004426 0.000000 0.000000 0.000000
# 3 -0.001232 -0.004426 0.012092 0.000000 0.000000 0.000000
# 4 0.000000 0.000000 0.000000 0.057574 0.000000 0.000000
# 5 0.000000 0.000000 0.000000 0.000000 0.029190 0.000000
# 6 0.000000 0.000000 0.000000 0.000000 0.000000 0.028374
#
#
# Mechanical properties :
#
#
# Convention : Reuss Voigt Hill
#
# Bulk Modulus (GPa) = 45.95458 48.26795 47.11126
# Shear Modulus (GPa) = 25.52017 28.77385 27.14701
#
# Velocity S-wave (km/s) = 3.60590 3.82887 3.71906
# Velocity P-wave (km/s) = 6.38361 6.64376 6.51499
#
# Compressibility (1/GPa) = 0.02176062
#
# Stress axis : x y z
#
# Youngs Moduli (GPa) = 79.58456 43.49951 82.69921
#
# Poissons Ratio (x) = 0.31687 0.10192
# Poissons Ratio (y) = 0.57973 0.36601
# Poissons Ratio (z) = 0.09808 0.19252
#
# Static dielectric constant tensor:
#      x y z
#    x 3.514670 0.000000 0.000000 
#    y 0.000000 3.353920 0.000000 
#    z 0.000000 0.000000 3.821100 
# 
# 
# High freq. dielectric constant tensor:
#      x y z
#    x 1.767920 0.000000 0.000000 
#    y 0.000000 1.736010 0.000000 
#    z 0.000000 0.000000 1.784440 
# 
# From -- ./inp_files/15910.got.cif
#   From: 2010.03.12/outbox.cif.g09.slc.cpg/sg62_8_cif.got.tgz:15910.got - 2010.04.10 19:12:36.
