data_PCOD8253399
_publ_section_title
;
Structure prediction by ZEFSAII (Michael W. Deem and Ramdas Pophale) SiO2 
 PCOD8253399
Probable space group: P N M A
;
_chemical_formula_sum "Si O2"
_cell_formula_units_Z 40
_cell_length_a 10.015970
_cell_length_b 9.104926
_cell_length_c 22.661143
_cell_angle_alpha 90.000000
_cell_angle_beta 90.000000
_cell_angle_gamma 90.000000
_cell_volume 2066.575360
_symmetry_space_group_name_H-M "P N M A"
_symmetry_group_IT_number 62
_symmetry_cell_setting 'orthorhombic'
loop_
_space_group_symop_operation_xyz
x,y,z
1/2-x,-y,1/2+z
1/2+x,1/2-y,1/2-z
-x,1/2+y,-z
-x,-y,-z
1/2+x,y,1/2-z
1/2-x,1/2+y,1/2+z
x,1/2-y,z
loop_
_atom_site_type_symbol
_atom_site_label
_atom_site_fract_x
_atom_site_fract_y
_atom_site_fract_z
Si Si1 0.516771 0.076700 0.181434
Si Si2 0.203744 0.581487 0.874369
Si Si3 0.481823 0.079819 0.695170
Si Si4 0.721286 0.420241 0.878148
Si Si5 0.138450 0.918294 0.004616
O O1 0.500493 0.250000 0.186262
O O2 0.660856 0.030555 0.156977
O O3 0.495037 0.008191 0.245236
O O4 0.406972 0.016193 0.136690
O O5 0.169233 0.750000 0.858512
O O6 0.084073 0.478033 0.853739
O O7 0.222410 0.562466 0.944586
O O8 0.511626 0.250000 0.707118
O O9 0.332448 0.054941 0.672057
O O10 0.679849 0.250000 0.881826
O O11 0.774460 0.479613 0.941060
O O12 0.103404 0.750000 0.018006
O O13 0.000000 0.000000 0.000000
#
# Coordination Sequence:
#
# PCOD8253399 Si02
#       5
#     8   8   8   8   8
#     4  11  24  39  56  85 120 156 195 237 291 346
#     4  10  22  39  61  88 119 153 192 240 290 345
#     4  11  22  38  61  87 115 153 198 240 287 345
#     4  10  22  39  60  88 119 153 193 240 291 345
#     4  10  20  38  62  88 117 149 192 242 289 345
#
# _framework density 19.355692999999999
#
# number of rings (size 3 to 8) (size 9 to 14) (size 15 to 20)
#    0.000    1.600    2.000    2.400    0.000    8.000 
#    0.000    0.000    0.000    0.000    0.000    0.000 
#    0.000    0.000    0.000    0.000    0.000    0.000 
#
# Total GULP energy -496221.186867 kJ/mol
# GULP energy per Si atom -12405.529672 kJ/mol
# Density = 1.931164 g / cm^3
# Si number density = 19.355693 Si / 1000 Ang^3
#
#
#
# Elastic Constant Matrix: (Units=GPa)
#
#
# Indices 1 2 3 4 5 6 
#
# 1 70.8873 35.4817 8.3945 0.0000 0.0000 0.0000
# 2 35.4817 70.1464 19.6958 0.0000 0.0000 0.0000
# 3 8.3945 19.6958 88.5426 0.0000 0.0000 0.0000
# 4 0.0000 0.0000 0.0000 27.3404 0.0000 0.0000
# 5 0.0000 0.0000 0.0000 0.0000 28.3168 0.0000
# 6 0.0000 0.0000 0.0000 0.0000 0.0000 33.9169
#
#
#
# Elastic Compliance Matrix: (Units=1/GPa)
#
#
# Indices 1 2 3 4 5 6 
#
# 1 0.018900 -0.009660 0.000357 0.000000 0.000000 0.000000
# 2 -0.009660 0.020143 -0.003565 0.000000 0.000000 0.000000
# 3 0.000357 -0.003565 0.012053 0.000000 0.000000 0.000000
# 4 0.000000 0.000000 0.000000 0.036576 0.000000 0.000000
# 5 0.000000 0.000000 0.000000 0.000000 0.035315 0.000000
# 6 0.000000 0.000000 0.000000 0.000000 0.000000 0.029484
#
#
# Mechanical properties :
#
#
# Convention : Reuss Voigt Hill
#
# Bulk Modulus (GPa) = 39.43210 39.63557 39.53383
# Shear Modulus (GPa) = 26.78661 28.98177 27.88419
#
# Velocity S-wave (km/s) = 3.72413 3.87373 3.79967
# Velocity P-wave (km/s) = 6.23769 6.36629 6.30232
#
# Compressibility (1/GPa) = 0.02536005
#
# Stress axis : x y z
#
# Youngs Moduli (GPa) = 52.91019 49.64444 82.96597
#
# Poissons Ratio (x) = 0.47958 -0.02962
# Poissons Ratio (y) = 0.51113 0.29576
# Poissons Ratio (z) = -0.01889 0.17698
#
# Static dielectric constant tensor:
#      x y z
#    x 3.475880 0.000000 0.000000 
#    y 0.000000 3.560320 0.000000 
#    z 0.000000 0.000000 3.779170 
# 
# 
# High freq. dielectric constant tensor:
#      x y z
#    x 1.751470 0.000000 0.000000 
#    y 0.000000 1.753950 0.000000 
#    z 0.000000 0.000000 1.770230 
# 
# From -- ./inp_files/26447.got.cif
#   From: 2010.03.12/outbox.cif.g09.slc.cpg/sg62_14_cif.got.tgz:26447.got - 2010.04.10 19:12:36.
