data_PCOD8253771
_publ_section_title
;
Structure prediction by ZEFSAII (Michael W. Deem and Ramdas Pophale) SiO2 
 PCOD8253771
Probable space group: P N M A
;
_chemical_formula_sum "Si O2"
_cell_formula_units_Z 64
_cell_length_a 9.649337
_cell_length_b 13.680382
_cell_length_c 27.113165
_cell_angle_alpha 90.000000
_cell_angle_beta 90.000000
_cell_angle_gamma 90.000000
_cell_volume 3579.117166
_symmetry_space_group_name_H-M "P N M A"
_symmetry_group_IT_number 62
_symmetry_cell_setting 'orthorhombic'
loop_
_space_group_symop_operation_xyz
x,y,z
1/2-x,-y,1/2+z
1/2+x,1/2-y,1/2-z
-x,1/2+y,-z
-x,-y,-z
1/2+x,y,1/2-z
1/2-x,1/2+y,1/2+z
x,1/2-y,z
loop_
_atom_site_type_symbol
_atom_site_label
_atom_site_fract_x
_atom_site_fract_y
_atom_site_fract_z
Si Si1 0.613338 0.045681 0.395442
Si Si2 0.134908 0.637279 0.941941
Si Si3 0.602508 0.047345 0.100937
Si Si4 0.460366 0.862597 0.797250
Si Si5 0.217960 0.640675 0.439451
Si Si6 0.957510 0.362879 0.949177
Si Si7 0.352023 0.139162 0.049503
Si Si8 0.717864 0.136618 0.297724
O O1 0.454513 0.078887 0.401567
O O2 0.697752 0.111422 0.434192
O O3 0.667374 0.064257 0.340547
O O4 0.620801 0.930035 0.408650
O O5 0.103101 0.750000 0.934822
O O6 0.294419 0.614653 0.930798
O O7 0.098765 0.604513 0.997418
O O8 0.598801 0.073563 0.158235
O O9 0.452815 0.063784 0.076807
O O10 0.647302 0.934040 0.098407
O O11 0.437780 0.750000 0.811364
O O12 0.621367 0.884212 0.786506
O O13 0.371686 0.891422 0.749704
O O14 0.199880 0.750000 0.418175
O O15 0.378846 0.616578 0.447499
O O16 0.136681 0.630138 0.490932
O O17 0.922131 0.250000 0.937750
O O18 0.384475 0.250000 0.066822
O O19 0.694521 0.250000 0.312889
#
# Coordination Sequence:
#
# PCOD8253771 Si02
#       8
#     8   8   8   8   8   8   8   8
#     4  12  20  35  58  81 109 154 191 217 277 335
#     4  11  21  32  54  85 115 148 191 230 268 333
#     4  12  22  36  55  83 115 151 186 229 280 330
#     4  10  22  39  57  82 114 143 177 224 278 335
#     4  10  21  37  55  79 112 153 195 233 273 318
#     4  10  21  37  54  80 115 149 194 240 268 311
#     4  11  21  35  55  81 118 152 180 224 281 336
#     4  10  22  38  58  83 112 144 178 222 277 337
#
# _framework density 17.881504
#
# number of rings (size 3 to 8) (size 9 to 14) (size 15 to 20)
#    0.000    1.250    3.750    3.750    1.750    0.000 
#    0.000    1.875    0.000    0.750    0.000    0.000 
#    0.000    0.000    0.000    0.000    0.000    0.000 
#
# Total GULP energy -793813.668988 kJ/mol
# GULP energy per Si atom -12403.338578 kJ/mol
# Density = 1.784081 g / cm^3
# Si number density = 17.881504 Si / 1000 Ang^3
#
#
#
# Elastic Constant Matrix: (Units=GPa)
#
#
# Indices 1 2 3 4 5 6 
#
# 1 70.9187 43.4751 46.0362 0.0000 0.0000 0.0000
# 2 43.4751 97.7046 66.6434 0.0000 0.0000 0.0000
# 3 46.0362 66.6434 109.0245 0.0000 0.0000 0.0000
# 4 0.0000 0.0000 0.0000 29.2852 0.0000 0.0000
# 5 0.0000 0.0000 0.0000 0.0000 29.3935 0.0000
# 6 0.0000 0.0000 0.0000 0.0000 0.0000 29.7559
#
#
#
# Elastic Compliance Matrix: (Units=1/GPa)
#
#
# Indices 1 2 3 4 5 6 
#
# 1 0.021118 -0.005685 -0.005442 0.000000 0.000000 0.000000
# 2 -0.005685 0.019084 -0.009265 0.000000 0.000000 0.000000
# 3 -0.005442 -0.009265 0.017134 0.000000 0.000000 0.000000
# 4 0.000000 0.000000 0.000000 0.034147 0.000000 0.000000
# 5 0.000000 0.000000 0.000000 0.000000 0.034021 0.000000
# 6 0.000000 0.000000 0.000000 0.000000 0.000000 0.033607
#
#
# Mechanical properties :
#
#
# Convention : Reuss Voigt Hill
#
# Bulk Modulus (GPa) = 60.41653 65.55079 62.98366
# Shear Modulus (GPa) = 24.34119 25.78646 25.06382
#
# Velocity S-wave (km/s) = 3.69351 3.80159 3.74794
# Velocity P-wave (km/s) = 7.21456 7.48381 7.35042
#
# Compressibility (1/GPa) = 0.01655176
#
# Stress axis : x y z
#
# Youngs Moduli (GPa) = 47.35191 52.39965 58.36399
#
# Poissons Ratio (x) = 0.29788 0.31765
# Poissons Ratio (y) = 0.26918 0.54075
# Poissons Ratio (z) = 0.25771 0.48549
#
# Static dielectric constant tensor:
#      x y z
#    x 3.360590 0.000000 0.000000 
#    y 0.000000 3.332160 0.000000 
#    z 0.000000 0.000000 3.109430 
# 
# 
# High freq. dielectric constant tensor:
#      x y z
#    x 1.702810 0.000000 0.000000 
#    y 0.000000 1.684150 0.000000 
#    z 0.000000 0.000000 1.668630 
# 
# From -- ./inp_files/28968.got.cif
#   From: 2010.03.12/outbox.cif.g09.slc.cpg/sg62_15_cif.got.tgz:28968.got - 2010.04.10 19:12:36.
