data_PCOD8253018
_publ_section_title
;
Structure prediction by ZEFSAII (Michael W. Deem and Ramdas Pophale) SiO2 
 PCOD8253018
Probable space group: P N M A
;
_chemical_formula_sum "Si O2"
_cell_formula_units_Z 48
_cell_length_a 9.349744
_cell_length_b 9.232824
_cell_length_c 28.771441
_cell_angle_alpha 90.000000
_cell_angle_beta 90.000000
_cell_angle_gamma 90.000000
_cell_volume 2483.681432
_symmetry_space_group_name_H-M "P N M A"
_symmetry_group_IT_number 62
_symmetry_cell_setting 'orthorhombic'
loop_
_space_group_symop_operation_xyz
x,y,z
1/2-x,-y,1/2+z
1/2+x,1/2-y,1/2-z
-x,1/2+y,-z
-x,-y,-z
1/2+x,y,1/2-z
1/2-x,1/2+y,1/2+z
x,1/2-y,z
loop_
_atom_site_type_symbol
_atom_site_label
_atom_site_fract_x
_atom_site_fract_y
_atom_site_fract_z
Si Si1 0.793250 0.579188 0.283711
Si Si2 0.590064 0.087335 0.963905
Si Si3 0.027447 0.422408 0.804879
Si Si4 0.294573 0.077150 0.378164
Si Si5 0.131211 0.912905 0.981359
Si Si6 0.503539 0.922329 0.136466
O O1 0.792895 0.750000 0.287055
O O2 0.630579 0.523912 0.289466
O O3 0.858733 0.530770 0.234501
O O4 0.895358 0.519297 0.324381
O O5 0.533199 0.250000 0.967190
O O6 0.569092 0.029961 0.911880
O O7 0.754671 0.075144 0.977504
O O8 0.500000 0.000000 0.000000
O O9 0.030077 0.250000 0.814226
O O10 0.069674 0.509532 0.851287
O O11 0.288159 0.250000 0.371953
O O12 0.307485 0.029771 0.432213
O O13 0.152736 0.004620 0.357126
O O14 0.079322 0.750000 0.973482
O O15 0.000000 0.000000 0.000000
O O16 0.530436 0.750000 0.140473
#
# Coordination Sequence:
#
# PCOD8253018 Si02
#       6
#     8   8   8   8   8   8
#     4   9  19  36  61  91 114 140 186 241 284 327
#     4  10  20  36  58  84 115 150 191 232 274 331
#     4  10  20  37  62  86 113 147 187 234 283 337
#     4  11  23  39  56  82 119 153 187 233 284 337
#     4  10  23  39  56  82 116 151 191 236 280 332
#     4  10  20  36  61  88 112 147 193 234 279 335
#
# _framework density 19.326149000000001
#
# number of rings (size 3 to 8) (size 9 to 14) (size 15 to 20)
#    0.000    2.000    1.667    1.500    2.333    4.667 
#    0.000    4.167    0.000    0.000    0.000    0.000 
#    0.000    0.000    0.000    0.000    0.000    0.000 
#
# Total GULP energy -595209.570559 kJ/mol
# GULP energy per Si atom -12400.199387 kJ/mol
# Density = 1.928216 g / cm^3
# Si number density = 19.326149 Si / 1000 Ang^3
#
#
#
# Elastic Constant Matrix: (Units=GPa)
#
#
# Indices 1 2 3 4 5 6 
#
# 1 119.7255 34.8474 35.3085 0.0000 0.0000 0.0000
# 2 34.8474 45.5872 25.7153 0.0000 0.0000 0.0000
# 3 35.3085 25.7153 87.2703 0.0000 0.0000 0.0000
# 4 0.0000 0.0000 0.0000 27.7511 0.0000 0.0000
# 5 0.0000 0.0000 0.0000 0.0000 42.3885 0.0000
# 6 0.0000 0.0000 0.0000 0.0000 0.0000 28.2255
#
#
#
# Elastic Compliance Matrix: (Units=1/GPa)
#
#
# Indices 1 2 3 4 5 6 
#
# 1 0.011146 -0.007168 -0.002397 0.000000 0.000000 0.000000
# 2 -0.007168 0.030918 -0.006211 0.000000 0.000000 0.000000
# 3 -0.002397 -0.006211 0.014259 0.000000 0.000000 0.000000
# 4 0.000000 0.000000 0.000000 0.036035 0.000000 0.000000
# 5 0.000000 0.000000 0.000000 0.000000 0.023591 0.000000
# 6 0.000000 0.000000 0.000000 0.000000 0.000000 0.035429
#
#
# Mechanical properties :
#
#
# Convention : Reuss Voigt Hill
#
# Bulk Modulus (GPa) = 40.36886 49.36948 44.86917
# Shear Modulus (GPa) = 26.15260 30.12046 28.13653
#
# Velocity S-wave (km/s) = 3.68261 3.95211 3.81974
# Velocity P-wave (km/s) = 6.24626 6.81370 6.53614
#
# Compressibility (1/GPa) = 0.02477157
#
# Stress axis : x y z
#
# Youngs Moduli (GPa) = 89.72113 32.34338 70.13300
#
# Poissons Ratio (x) = 0.23182 0.16814
# Poissons Ratio (y) = 0.64308 0.43556
# Poissons Ratio (z) = 0.21510 0.20087
#
# Static dielectric constant tensor:
#      x y z
#    x 3.671560 0.000000 0.000000 
#    y 0.000000 3.175820 0.000000 
#    z 0.000000 0.000000 3.880000 
# 
# 
# High freq. dielectric constant tensor:
#      x y z
#    x 1.760480 0.000000 0.000000 
#    y 0.000000 1.723110 0.000000 
#    z 0.000000 0.000000 1.766650 
# 
# From -- ./inp_files/31958.got.cif
#   From: 2010.03.12/outbox.cif.g09.slc.cpg/sg62_16_cif.got.tgz:31958.got - 2010.04.10 19:12:36.
