data_PCOD8253145
_publ_section_title
;
Structure prediction by ZEFSAII (Michael W. Deem and Ramdas Pophale) SiO2 
 PCOD8253145
Probable space group: P N M A
;
_chemical_formula_sum "Si O2"
_cell_formula_units_Z 48
_cell_length_a 8.645998
_cell_length_b 14.350482
_cell_length_c 18.354574
_cell_angle_alpha 90.000000
_cell_angle_beta 90.000000
_cell_angle_gamma 90.000000
_cell_volume 2277.329795
_symmetry_space_group_name_H-M "P N M A"
_symmetry_group_IT_number 62
_symmetry_cell_setting 'orthorhombic'
loop_
_space_group_symop_operation_xyz
x,y,z
1/2-x,-y,1/2+z
1/2+x,1/2-y,1/2-z
-x,1/2+y,-z
-x,-y,-z
1/2+x,y,1/2-z
1/2-x,1/2+y,1/2+z
x,1/2-y,z
loop_
_atom_site_type_symbol
_atom_site_label
_atom_site_fract_x
_atom_site_fract_y
_atom_site_fract_z
Si Si1 0.668790 0.982972 0.468517
Si Si2 0.758749 0.354709 0.840924
Si Si3 0.299333 0.071211 0.284718
Si Si4 0.326401 0.853156 0.917823
Si Si5 0.319284 0.356851 0.121771
Si Si6 0.034456 0.940961 0.268071
O O1 0.655230 0.908333 0.404540
O O2 0.782684 0.936550 0.527813
O O3 0.500000 0.000000 0.500000
O O4 0.734929 0.080814 0.439187
O O5 0.723845 0.250000 0.863970
O O6 0.878049 0.356800 0.773159
O O7 0.595005 0.403817 0.823498
O O8 0.291409 0.148450 0.348031
O O9 0.274282 0.112126 0.203707
O O10 0.164286 0.999507 0.309624
O O11 0.457834 0.013094 0.289608
O O12 0.311959 0.750000 0.954263
O O13 0.498546 0.868807 0.888245
O O14 0.266759 0.250000 0.110360
#
# Coordination Sequence:
#
# PCOD8253145 Si02
#       6
#     8   8   8   8   8   8
#     4  12  25  44  64  94 135 173 212 273 335 393
#     4  11  22  40  63  94 129 171 218 264 322 388
#     4  11  19  41  63  98 129 167 214 266 329 378
#     4  11  24  40  65  97 132 176 215 261 327 393
#     4  11  24  43  67  94 127 172 223 268 319 392
#     4  10  20  36  65  90 127 167 208 273 319 368
#
# _framework density 21.077316
#
# number of rings (size 3 to 8) (size 9 to 14) (size 15 to 20)
#    0.000    1.000    5.000    3.000    0.000    1.333 
#    0.000    0.000    0.000    3.000    0.000    0.000 
#    0.000    0.000    0.000    0.000    0.000    0.000 
#
# Total GULP energy -594938.646341 kJ/mol
# GULP energy per Si atom -12394.555132 kJ/mol
# Density = 2.102934 g / cm^3
# Si number density = 21.077316 Si / 1000 Ang^3
#
#
#
# Elastic Constant Matrix: (Units=GPa)
#
#
# Indices 1 2 3 4 5 6 
#
# 1 56.2042 17.0414 17.2377 0.0000 0.0000 0.0000
# 2 17.0414 122.2999 48.8670 0.0000 0.0000 0.0000
# 3 17.2377 48.8670 97.6099 0.0000 0.0000 0.0000
# 4 0.0000 0.0000 0.0000 25.0454 0.0000 0.0000
# 5 0.0000 0.0000 0.0000 0.0000 30.9843 0.0000
# 6 0.0000 0.0000 0.0000 0.0000 0.0000 23.7960
#
#
#
# Elastic Compliance Matrix: (Units=1/GPa)
#
#
# Indices 1 2 3 4 5 6 
#
# 1 0.019071 -0.001640 -0.002547 0.000000 0.000000 0.000000
# 2 -0.001640 0.010362 -0.004898 0.000000 0.000000 0.000000
# 3 -0.002547 -0.004898 0.013147 0.000000 0.000000 0.000000
# 4 0.000000 0.000000 0.000000 0.039928 0.000000 0.000000
# 5 0.000000 0.000000 0.000000 0.000000 0.032274 0.000000
# 6 0.000000 0.000000 0.000000 0.000000 0.000000 0.042024
#
#
# Mechanical properties :
#
#
# Convention : Reuss Voigt Hill
#
# Bulk Modulus (GPa) = 40.96660 49.15628 45.06144
# Shear Modulus (GPa) = 27.30574 28.82965 28.06770
#
# Velocity S-wave (km/s) = 3.60322 3.70240 3.65314
# Velocity P-wave (km/s) = 6.06543 6.45364 6.26254
#
# Compressibility (1/GPa) = 0.02441013
#
# Stress axis : x y z
#
# Youngs Moduli (GPa) = 52.43687 96.50432 76.06392
#
# Poissons Ratio (x) = 0.15823 0.19373
# Poissons Ratio (y) = 0.08598 0.37257
# Poissons Ratio (z) = 0.13355 0.47269
#
# Static dielectric constant tensor:
#      x y z
#    x 3.842130 0.000000 0.000000 
#    y 0.000000 4.007830 0.000000 
#    z 0.000000 0.000000 3.725540 
# 
# 
# High freq. dielectric constant tensor:
#      x y z
#    x 1.832970 0.000000 0.000000 
#    y 0.000000 1.832440 0.000000 
#    z 0.000000 0.000000 1.815300 
# 
# From -- ./inp_files/22187.got.cif
#   From: 2010.03.12/outbox.cif.g09.slc.cpg/sg62_12_cif.got.tgz:22187.got - 2010.04.10 19:12:36.
