data_PCOD8253857
_publ_section_title
;
Structure prediction by ZEFSAII (Michael W. Deem and Ramdas Pophale) SiO2 
 PCOD8253857
Probable space group: P N M A
;
_chemical_formula_sum "Si O2"
_cell_formula_units_Z 48
_cell_length_a 30.566476
_cell_length_b 8.935322
_cell_length_c 8.935647
_cell_angle_alpha 90.000000
_cell_angle_beta 90.000000
_cell_angle_gamma 90.000000
_cell_volume 2440.515574
_symmetry_space_group_name_H-M "P N M A"
_symmetry_group_IT_number 62
_symmetry_cell_setting 'orthorhombic'
loop_
_space_group_symop_operation_xyz
x,y,z
1/2-x,-y,1/2+z
1/2+x,1/2-y,1/2-z
-x,1/2+y,-z
-x,-y,-z
1/2+x,y,1/2-z
1/2-x,1/2+y,1/2+z
x,1/2-y,z
loop_
_atom_site_type_symbol
_atom_site_label
_atom_site_fract_x
_atom_site_fract_y
_atom_site_fract_z
Si Si1 0.871855 0.576344 0.177731
Si Si2 0.452585 0.074087 0.165051
Si Si3 0.793467 0.922332 0.648699
Si Si4 0.879129 0.577670 0.832317
Si Si5 0.207796 0.922856 0.662216
Si Si6 0.957814 0.425293 0.676992
O O1 0.878930 0.750000 0.213341
O O2 0.913112 0.487099 0.238052
O O3 0.828140 0.522920 0.257574
O O4 0.866413 0.544682 0.002652
O O5 0.455357 0.250000 0.185749
O O6 0.497442 0.004441 0.226539
O O7 0.445097 0.028593 0.992130
O O8 0.794208 0.750000 0.595690
O O9 0.838043 0.966921 0.731265
O O10 0.754274 0.952219 0.762574
O O11 0.787717 0.030995 0.509412
O O12 0.892231 0.750000 0.808662
O O13 0.919868 0.475786 0.788039
O O14 0.193675 0.750000 0.671818
O O15 0.965094 0.250000 0.692394
#
# Coordination Sequence:
#
# PCOD8253857 Si02
#       6
#     8   8   8   8   8   8
#     4  11  23  39  59  84 117 155 193 235 286 341
#     4  10  21  38  60  86 115 149 192 238 285 342
#     4  10  22  40  61  85 116 153 191 234 284 337
#     4  10  22  39  58  82 114 153 194 235 282 339
#     4  11  23  39  61  89 118 150 192 238 285 339
#     4  10  21  37  59  86 114 148 190 237 290 343
#
# _framework density 19.667974000000001
#
# number of rings (size 3 to 8) (size 9 to 14) (size 15 to 20)
#    0.000    1.667    0.000    4.000    0.000   10.000 
#    0.000    0.000    0.000    0.000    0.000    0.000 
#    0.000    0.000    0.000    0.000    0.000    0.000 
#
# Total GULP energy -595525.967279 kJ/mol
# GULP energy per Si atom -12406.790985 kJ/mol
# Density = 1.962321 g / cm^3
# Si number density = 19.667974 Si / 1000 Ang^3
#
#
#
# Elastic Constant Matrix: (Units=GPa)
#
#
# Indices 1 2 3 4 5 6 
#
# 1 205.6896 83.3851 126.6375 0.0000 0.0000 0.0000
# 2 83.3851 88.2365 79.7892 0.0000 0.0000 0.0000
# 3 126.6375 79.7892 181.7633 0.0000 0.0000 0.0000
# 4 0.0000 0.0000 0.0000 34.4484 0.0000 0.0000
# 5 0.0000 0.0000 0.0000 0.0000 35.2362 0.0000
# 6 0.0000 0.0000 0.0000 0.0000 0.0000 30.3803
#
#
#
# Elastic Compliance Matrix: (Units=1/GPa)
#
#
# Indices 1 2 3 4 5 6 
#
# 1 0.009714 -0.005074 -0.004541 0.000000 0.000000 0.000000
# 2 -0.005074 0.021444 -0.005878 0.000000 0.000000 0.000000
# 3 -0.004541 -0.005878 0.011245 0.000000 0.000000 0.000000
# 4 0.000000 0.000000 0.000000 0.029029 0.000000 0.000000
# 5 0.000000 0.000000 0.000000 0.000000 0.028380 0.000000
# 6 0.000000 0.000000 0.000000 0.000000 0.000000 0.032916
#
#
# Mechanical properties :
#
#
# Convention : Reuss Voigt Hill
#
# Bulk Modulus (GPa) = 87.58249 117.25698 102.41974
# Shear Modulus (GPa) = 29.84725 32.40482 31.12603
#
# Velocity S-wave (km/s) = 3.89981 4.06346 3.98247
# Velocity P-wave (km/s) = 8.05638 9.04230 8.56354
#
# Compressibility (1/GPa) = 0.01141781
#
# Stress axis : x y z
#
# Youngs Moduli (GPa) = 102.94076 46.63411 88.92496
#
# Poissons Ratio (x) = 0.23663 0.40378
# Poissons Ratio (y) = 0.52235 0.52269
# Poissons Ratio (z) = 0.46742 0.27411
#
# Static dielectric constant tensor:
#      x y z
#    x 3.793700 0.000000 0.000000 
#    y 0.000000 3.686730 0.000000 
#    z 0.000000 0.000000 3.626910 
# 
# 
# High freq. dielectric constant tensor:
#      x y z
#    x 1.781400 0.000000 0.000000 
#    y 0.000000 1.774220 0.000000 
#    z 0.000000 0.000000 1.770320 
# 
# From -- ./inp_files/10172.got.cif
#   From: 2010.03.12/outbox.cif.g09.slc.cpg/sg62_6_cif.got.tgz:10172.got - 2010.04.10 19:12:36.
