data_PCOD8253666
_publ_section_title
;
Structure prediction by ZEFSAII (Michael W. Deem and Ramdas Pophale) SiO2 
 PCOD8253666
Probable space group: P N M A
;
_chemical_formula_sum "Si O2"
_cell_formula_units_Z 40
_cell_length_a 5.497613
_cell_length_b 17.564335
_cell_length_c 18.448944
_cell_angle_alpha 90.000000
_cell_angle_beta 90.000000
_cell_angle_gamma 90.000000
_cell_volume 1781.465389
_symmetry_space_group_name_H-M "P N M A"
_symmetry_group_IT_number 62
_symmetry_cell_setting 'orthorhombic'
loop_
_space_group_symop_operation_xyz
x,y,z
1/2-x,-y,1/2+z
1/2+x,1/2-y,1/2-z
-x,1/2+y,-z
-x,-y,-z
1/2+x,y,1/2-z
1/2-x,1/2+y,1/2+z
x,1/2-y,z
loop_
_atom_site_type_symbol
_atom_site_label
_atom_site_fract_x
_atom_site_fract_y
_atom_site_fract_z
Si Si1 0.079696 0.338696 0.217276
Si Si2 0.310458 0.549303 0.956881
Si Si3 0.924434 0.601158 0.060439
Si Si4 0.169449 0.836896 0.574837
Si Si5 0.448458 0.661588 0.282728
O O1 0.324658 0.374878 0.255008
O O2 0.074290 0.250000 0.237464
O O3 0.106331 0.352363 0.130232
O O4 0.139594 0.486709 0.917152
O O5 0.444094 0.608056 0.901931
O O6 0.500000 0.500000 0.000000
O O7 0.172575 0.600687 0.015781
O O8 0.955268 0.651115 0.131414
O O9 0.730953 0.642949 0.008108
O O10 0.081696 0.750000 0.581678
O O11 0.697065 0.624782 0.249072
O O12 0.447570 0.750000 0.262667
#
# Coordination Sequence:
#
# PCOD8253666 Si02
#       5
#     8   8   8   8   8
#     4   9  19  35  53  79 120 157 188 240 304 360
#     4   9  21  39  61  85 121 157 208 260 314 375
#     4  10  21  40  63  86 124 169 213 263 322 388
#     4  10  21  35  61  92 116 157 211 260 317 379
#     4  10  23  41  64  98 135 171 217 276 336 391
#
# _framework density 22.453426
#
# number of rings (size 3 to 8) (size 9 to 14) (size 15 to 20)
#    0.000    2.400    0.000    0.600    8.400    1.600 
#    0.000    2.000    0.000    0.000    0.000    0.000 
#    0.000    0.000    0.000    0.000    0.000    0.000 
#
# Total GULP energy -495621.908596 kJ/mol
# GULP energy per Si atom -12390.547715 kJ/mol
# Density = 2.240232 g / cm^3
# Si number density = 22.453426 Si / 1000 Ang^3
#
#
#
# Elastic Constant Matrix: (Units=GPa)
#
#
# Indices 1 2 3 4 5 6 
#
# 1 119.5294 5.9225 20.7413 0.0000 0.0000 0.0000
# 2 5.9225 47.8905 3.3472 0.0000 0.0000 0.0000
# 3 20.7413 3.3472 86.6015 0.0000 0.0000 0.0000
# 4 0.0000 0.0000 0.0000 18.4119 0.0000 0.0000
# 5 0.0000 0.0000 0.0000 0.0000 33.2394 0.0000
# 6 0.0000 0.0000 0.0000 0.0000 0.0000 18.4939
#
#
#
# Elastic Compliance Matrix: (Units=1/GPa)
#
#
# Indices 1 2 3 4 5 6 
#
# 1 0.008771 -0.000940 -0.002064 0.000000 0.000000 0.000000
# 2 -0.000940 0.021038 -0.000588 0.000000 0.000000 0.000000
# 3 -0.002064 -0.000588 0.012064 0.000000 0.000000 0.000000
# 4 0.000000 0.000000 0.000000 0.054313 0.000000 0.000000
# 5 0.000000 0.000000 0.000000 0.000000 0.030085 0.000000
# 6 0.000000 0.000000 0.000000 0.000000 0.000000 0.054072
#
#
# Mechanical properties :
#
#
# Convention : Reuss Voigt Hill
#
# Bulk Modulus (GPa) = 28.82819 34.89373 31.86096
# Shear Modulus (GPa) = 25.11415 28.96307 27.03861
#
# Velocity S-wave (km/s) = 3.34803 3.59544 3.47394
# Velocity P-wave (km/s) = 5.27377 5.72804 5.50559
#
# Compressibility (1/GPa) = 0.03468827
#
# Stress axis : x y z
#
# Youngs Moduli (GPa) = 114.01270 47.53226 82.88937
#
# Poissons Ratio (x) = 0.04470 0.17111
# Poissons Ratio (y) = 0.10722 0.04873
# Poissons Ratio (z) = 0.23536 0.02795
#
# Static dielectric constant tensor:
#      x y z
#    x 1.667590 0.000000 0.000000 
#    y 0.000000 3.944310 0.000000 
#    z 0.000000 0.000000 3.469770 
# 
# 
# High freq. dielectric constant tensor:
#      x y z
#    x 1.901160 0.000000 0.000000 
#    y 0.000000 1.857130 0.000000 
#    z 0.000000 0.000000 1.867540 
# 
# From -- ./inp_files/21465.got.cif
#   From: 2010.03.12/outbox.cif.g09.slc.cpg/sg62_11_cif.got.tgz:21465.got - 2010.04.10 19:12:36.
