data_PCOD8253022
_publ_section_title
;
Structure prediction by ZEFSAII (Michael W. Deem and Ramdas Pophale) SiO2 
 PCOD8253022
Probable space group: P N M A
;
_chemical_formula_sum "Si O2"
_cell_formula_units_Z 40
_cell_length_a 18.278778
_cell_length_b 9.575074
_cell_length_c 12.275242
_cell_angle_alpha 90.000000
_cell_angle_beta 90.000000
_cell_angle_gamma 90.000000
_cell_volume 2148.420858
_symmetry_space_group_name_H-M "P N M A"
_symmetry_group_IT_number 62
_symmetry_cell_setting 'orthorhombic'
loop_
_space_group_symop_operation_xyz
x,y,z
1/2-x,-y,1/2+z
1/2+x,1/2-y,1/2-z
-x,1/2+y,-z
-x,-y,-z
1/2+x,y,1/2-z
1/2-x,1/2+y,1/2+z
x,1/2-y,z
loop_
_atom_site_type_symbol
_atom_site_label
_atom_site_fract_x
_atom_site_fract_y
_atom_site_fract_z
Si Si1 0.049091 0.910163 0.283453
Si Si2 0.067798 0.589157 0.038986
Si Si3 0.192869 0.913099 0.872776
Si Si4 0.854716 0.913186 0.556576
Si Si5 0.881013 0.912247 0.308648
O O1 0.059292 0.750000 0.319901
O O2 0.085016 0.938979 0.165801
O O3 0.963734 0.948240 0.275868
O O4 0.086272 0.006845 0.372022
O O5 0.046539 0.750000 0.020385
O O6 0.139614 0.546317 0.972164
O O7 0.000000 0.500000 0.000000
O O8 0.187468 0.750000 0.845116
O O9 0.273733 0.957206 0.908278
O O10 0.173311 0.998840 0.765489
O O11 0.868824 0.750000 0.573371
O O12 0.866641 0.957094 0.432244
O O13 0.862998 0.750000 0.290042
#
# Coordination Sequence:
#
# PCOD8253022 Si02
#       5
#     8   8   8   8   8
#     4  10  21  37  60  88 113 147 193 235 283 340
#     4  10  20  36  58  85 115 148 189 235 280 333
#     4  10  22  38  56  83 117 151 188 234 287 337
#     4  10  23  39  57  83 116 153 189 233 288 339
#     4  10  21  39  61  84 114 150 191 235 282 338
#
# _framework density 18.618326
#
# number of rings (size 3 to 8) (size 9 to 14) (size 15 to 20)
#    0.000    2.000    2.000    0.600    2.800    3.200 
#    0.000    0.000    0.000    0.000    0.000    0.000 
#    0.000    0.000    0.000    0.000    0.000    0.000 
#
# Total GULP energy -496198.988844 kJ/mol
# GULP energy per Si atom -12404.974721 kJ/mol
# Density = 1.857595 g / cm^3
# Si number density = 18.618326 Si / 1000 Ang^3
#
#
#
# Elastic Constant Matrix: (Units=GPa)
#
#
# Indices 1 2 3 4 5 6 
#
# 1 42.7117 20.7746 23.8391 0.0000 0.0000 0.0000
# 2 20.7746 43.5240 39.9081 0.0000 0.0000 0.0000
# 3 23.8391 39.9081 111.1575 0.0000 0.0000 0.0000
# 4 0.0000 0.0000 0.0000 30.4533 0.0000 0.0000
# 5 0.0000 0.0000 0.0000 0.0000 29.7511 0.0000
# 6 0.0000 0.0000 0.0000 0.0000 0.0000 28.0059
#
#
#
# Elastic Compliance Matrix: (Units=1/GPa)
#
#
# Indices 1 2 3 4 5 6 
#
# 1 0.030781 -0.012879 -0.001978 0.000000 0.000000 0.000000
# 2 -0.012879 0.039640 -0.011470 0.000000 0.000000 0.000000
# 3 -0.001978 -0.011470 0.013538 0.000000 0.000000 0.000000
# 4 0.000000 0.000000 0.000000 0.032837 0.000000 0.000000
# 5 0.000000 0.000000 0.000000 0.000000 0.033612 0.000000
# 6 0.000000 0.000000 0.000000 0.000000 0.000000 0.035707
#
#
# Mechanical properties :
#
#
# Convention : Reuss Voigt Hill
#
# Bulk Modulus (GPa) = 31.94190 40.71521 36.32855
# Shear Modulus (GPa) = 20.06403 25.16681 22.61542
#
# Velocity S-wave (km/s) = 3.28632 3.68057 3.48902
# Velocity P-wave (km/s) = 5.62079 6.32281 5.98211
#
# Compressibility (1/GPa) = 0.03130684
#
# Stress axis : x y z
#
# Youngs Moduli (GPa) = 32.48791 25.22720 73.86517
#
# Poissons Ratio (x) = 0.32490 0.14607
# Poissons Ratio (y) = 0.41841 0.84720
# Poissons Ratio (z) = 0.06425 0.28934
#
# Static dielectric constant tensor:
#      x y z
#    x 3.500540 0.000000 0.000000 
#    y 0.000000 3.347960 0.000000 
#    z 0.000000 0.000000 3.513110 
# 
# 
# High freq. dielectric constant tensor:
#      x y z
#    x 1.727290 0.000000 0.000000 
#    y 0.000000 1.717190 0.000000 
#    z 0.000000 0.000000 1.735860 
# 
# From -- ./inp_files/7289.got.cif
#   From: 2010.03.12/outbox.cif.g09.slc.cpg/sg62_4_cif.got.tgz:7289.got - 2010.04.10 19:12:36.
