data_PCOD8253779
_publ_section_title
;
Structure prediction by ZEFSAII (Michael W. Deem and Ramdas Pophale) SiO2 
 PCOD8253779
Probable space group: P N M A
;
_chemical_formula_sum "Si O2"
_cell_formula_units_Z 48
_cell_length_a 30.447765
_cell_length_b 9.360682
_cell_length_c 9.226468
_cell_angle_alpha 90.000000
_cell_angle_beta 90.000000
_cell_angle_gamma 90.000000
_cell_volume 2629.652675
_symmetry_space_group_name_H-M "P N M A"
_symmetry_group_IT_number 62
_symmetry_cell_setting 'orthorhombic'
loop_
_space_group_symop_operation_xyz
x,y,z
1/2-x,-y,1/2+z
1/2+x,1/2-y,1/2-z
-x,1/2+y,-z
-x,-y,-z
1/2+x,y,1/2-z
1/2-x,1/2+y,1/2+z
x,1/2-y,z
loop_
_atom_site_type_symbol
_atom_site_label
_atom_site_fract_x
_atom_site_fract_y
_atom_site_fract_z
Si Si1 0.135252 0.919046 0.920848
Si Si2 0.463434 0.411722 0.080387
Si Si3 0.035616 0.909675 0.918494
Si Si4 0.711967 0.584149 0.107933
Si Si5 0.366412 0.419521 0.095907
Si Si6 0.705911 0.416481 0.400255
O O1 0.143737 0.750000 0.939796
O O2 0.084938 0.960229 0.954236
O O3 0.147054 0.971029 0.757504
O O4 0.163526 0.006454 0.035348
O O5 0.465801 0.250000 0.022875
O O6 0.473629 0.419227 0.249158
O O7 0.414688 0.476866 0.050314
O O8 0.500000 0.500000 0.000000
O O9 0.029854 0.750000 0.975469
O O10 0.000000 0.000000 0.000000
O O11 0.706738 0.750000 0.152226
O O12 0.718267 0.487101 0.247860
O O13 0.669184 0.529017 0.020588
O O14 0.753695 0.560473 0.007160
O O15 0.369523 0.250000 0.105108
O O16 0.695807 0.250000 0.375956
#
# Coordination Sequence:
#
# PCOD8253779 Si02
#       6
#     8   8   8   8   8   8
#     4   9  18  36  58  76 102 142 179 213 261 315
#     4   9  18  33  52  75 102 133 172 214 256 304
#     4   9  19  34  53  77 105 140 179 218 261 309
#     4  10  21  37  56  77 103 137 173 209 256 312
#     4   8  16  34  57  75  96 134 179 213 247 306
#     4  11  23  36  54  82 109 134 170 217 262 306
#
# _framework density 18.253361000000002
#
# number of rings (size 3 to 8) (size 9 to 14) (size 15 to 20)
#    0.000    2.667    0.000    3.500    0.000    5.333 
#    0.000    9.167    0.000    0.000    0.000    0.000 
#    0.000    0.000    0.000    0.000    0.000    0.000 
#
# Total GULP energy -595121.411291 kJ/mol
# GULP energy per Si atom -12398.362735 kJ/mol
# Density = 1.821182 g / cm^3
# Si number density = 18.253361 Si / 1000 Ang^3
#
#
#
# Elastic Constant Matrix: (Units=GPa)
#
#
# Indices 1 2 3 4 5 6 
#
# 1 117.6136 58.5647 60.7786 0.0000 0.0000 0.0000
# 2 58.5647 80.7444 58.3621 0.0000 0.0000 0.0000
# 3 60.7786 58.3621 94.0991 0.0000 0.0000 0.0000
# 4 0.0000 0.0000 0.0000 33.2907 0.0000 0.0000
# 5 0.0000 0.0000 0.0000 0.0000 37.5305 0.0000
# 6 0.0000 0.0000 0.0000 0.0000 0.0000 30.9352
#
#
#
# Elastic Compliance Matrix: (Units=1/GPa)
#
#
# Indices 1 2 3 4 5 6 
#
# 1 0.014581 -0.006831 -0.005182 0.000000 0.000000 0.000000
# 2 -0.006831 0.025648 -0.011495 0.000000 0.000000 0.000000
# 3 -0.005182 -0.011495 0.021103 0.000000 0.000000 0.000000
# 4 0.000000 0.000000 0.000000 0.030038 0.000000 0.000000
# 5 0.000000 0.000000 0.000000 0.000000 0.026645 0.000000
# 6 0.000000 0.000000 0.000000 0.000000 0.000000 0.032326
#
#
# Mechanical properties :
#
#
# Convention : Reuss Voigt Hill
#
# Bulk Modulus (GPa) = 69.84461 71.98533 70.91497
# Shear Modulus (GPa) = 24.73655 28.00140 26.36898
#
# Velocity S-wave (km/s) = 3.68527 3.92093 3.80493
# Velocity P-wave (km/s) = 7.51367 7.74730 7.63138
#
# Compressibility (1/GPa) = 0.01431750
#
# Stress axis : x y z
#
# Youngs Moduli (GPa) = 68.58046 38.98922 47.38553
#
# Poissons Ratio (x) = 0.26633 0.24553
# Poissons Ratio (y) = 0.46846 0.54472
# Poissons Ratio (z) = 0.35535 0.44820
#
# Static dielectric constant tensor:
#      x y z
#    x 3.510500 0.000000 0.000000 
#    y 0.000000 2.271420 0.000000 
#    z 0.000000 0.000000 2.922060 
# 
# 
# High freq. dielectric constant tensor:
#      x y z
#    x 1.722190 0.000000 0.000000 
#    y 0.000000 1.686350 0.000000 
#    z 0.000000 0.000000 1.707830 
# 
# From -- ./inp_files/10126.got.cif
#   From: 2010.03.12/outbox.cif.g09.slc.cpg/sg62_6_cif.got.tgz:10126.got - 2010.04.10 19:12:36.
