data_PCOD8253859
_publ_section_title
;
Structure prediction by ZEFSAII (Michael W. Deem and Ramdas Pophale) SiO2 
 PCOD8253859
Probable space group: P N M A
;
_chemical_formula_sum "Si O2"
_cell_formula_units_Z 56
_cell_length_a 19.825389
_cell_length_b 8.982730
_cell_length_c 16.151174
_cell_angle_alpha 90.000000
_cell_angle_beta 90.000000
_cell_angle_gamma 90.000000
_cell_volume 2876.299855
_symmetry_space_group_name_H-M "P N M A"
_symmetry_group_IT_number 62
_symmetry_cell_setting 'orthorhombic'
loop_
_space_group_symop_operation_xyz
x,y,z
1/2-x,-y,1/2+z
1/2+x,1/2-y,1/2-z
-x,1/2+y,-z
-x,-y,-z
1/2+x,y,1/2-z
1/2-x,1/2+y,1/2+z
x,1/2-y,z
loop_
_atom_site_type_symbol
_atom_site_label
_atom_site_fract_x
_atom_site_fract_y
_atom_site_fract_z
Si Si1 0.824088 0.079083 0.004813
Si Si2 0.532770 0.578601 0.737656
Si Si3 0.203637 0.577410 0.182063
Si Si4 0.841137 0.425347 0.347060
Si Si5 0.889678 0.920398 0.689323
Si Si6 0.671220 0.077506 0.016551
Si Si7 0.547533 0.074265 0.567500
O O1 0.842785 0.250000 0.024243
O O2 0.749204 0.040230 0.036778
O O3 0.875186 0.973329 0.053477
O O4 0.829395 0.045852 0.907151
O O5 0.539739 0.750000 0.709375
O O6 0.597699 0.525153 0.788482
O O7 0.468782 0.556332 0.797098
O O8 0.523366 0.476496 0.657609
O O9 0.220253 0.750000 0.192893
O O10 0.273358 0.490231 0.192599
O O11 0.151222 0.526689 0.250450
O O12 0.834234 0.250000 0.351908
O O13 0.855475 0.484551 0.439028
O O14 0.867703 0.750000 0.706007
O O15 0.873921 0.965730 0.595084
O O16 0.665082 0.250000 0.992154
O O17 0.540484 0.250000 0.560022
O O18 0.500000 0.000000 0.500000
#
# Coordination Sequence:
#
# PCOD8253859 Si02
#       7
#     8   8   8   8   8   8   8
#     4   9  19  37  58  82 115 151 190 238 293 348
#     4  10  23  41  60  85 119 157 198 240 290 353
#     4  10  21  37  59  87 118 152 192 243 295 348
#     4  10  21  38  60  86 117 156 197 241 293 348
#     4  10  21  38  60  86 116 155 197 239 292 350
#     4   9  20  38  60  86 116 151 192 241 293 344
#     4  12  25  39  59  86 118 155 196 242 295 354
#
# _framework density 19.469456999999998
#
# number of rings (size 3 to 8) (size 9 to 14) (size 15 to 20)
#    0.000    2.000    0.000    3.857    2.000    8.000 
#    0.000    0.000    0.000    0.000    0.000    0.000 
#    0.000    0.000    0.000    0.000    0.000    0.000 
#
# Total GULP energy -694688.093039 kJ/mol
# GULP energy per Si atom -12405.144519 kJ/mol
# Density = 1.942514 g / cm^3
# Si number density = 19.469457 Si / 1000 Ang^3
#
#
#
# Elastic Constant Matrix: (Units=GPa)
#
#
# Indices 1 2 3 4 5 6 
#
# 1 89.0355 35.5719 42.8977 0.0000 0.0000 0.0000
# 2 35.5719 81.8859 37.3210 0.0000 0.0000 0.0000
# 3 42.8977 37.3210 75.9454 0.0000 0.0000 0.0000
# 4 0.0000 0.0000 0.0000 35.0496 0.0000 0.0000
# 5 0.0000 0.0000 0.0000 0.0000 35.6886 0.0000
# 6 0.0000 0.0000 0.0000 0.0000 0.0000 26.4455
#
#
#
# Elastic Compliance Matrix: (Units=1/GPa)
#
#
# Indices 1 2 3 4 5 6 
#
# 1 0.016260 -0.003708 -0.007362 0.000000 0.000000 0.000000
# 2 -0.003708 0.016582 -0.006054 0.000000 0.000000 0.000000
# 3 -0.007362 -0.006054 0.020301 0.000000 0.000000 0.000000
# 4 0.000000 0.000000 0.000000 0.028531 0.000000 0.000000
# 5 0.000000 0.000000 0.000000 0.000000 0.028020 0.000000
# 6 0.000000 0.000000 0.000000 0.000000 0.000000 0.037814
#
#
# Mechanical properties :
#
#
# Convention : Reuss Voigt Hill
#
# Bulk Modulus (GPa) = 52.92641 53.16090 53.04366
# Shear Modulus (GPa) = 26.58782 28.17514 27.38148
#
# Velocity S-wave (km/s) = 3.69943 3.80826 3.75424
# Velocity P-wave (km/s) = 6.74471 6.83383 6.78941
#
# Compressibility (1/GPa) = 0.01889416
#
# Stress axis : x y z
#
# Youngs Moduli (GPa) = 61.50011 60.30523 49.25817
#
# Poissons Ratio (x) = 0.22361 0.36265
# Poissons Ratio (y) = 0.22804 0.29823
# Poissons Ratio (z) = 0.45278 0.36511
#
# Static dielectric constant tensor:
#      x y z
#    x 3.626810 0.000000 0.000000 
#    y 0.000000 3.529430 0.000000 
#    z 0.000000 0.000000 3.559320 
# 
# 
# High freq. dielectric constant tensor:
#      x y z
#    x 1.764950 0.000000 0.000000 
#    y 0.000000 1.756490 0.000000 
#    z 0.000000 0.000000 1.760680 
# 
# From -- ./inp_files/20232.got.cif
#   From: 2010.03.12/outbox.cif.g09.slc.cpg/sg62_11_cif.got.tgz:20232.got - 2010.04.10 19:12:36.
