data_PCOD8253282
_publ_section_title
;
Structure prediction by ZEFSAII (Michael W. Deem and Ramdas Pophale) SiO2 
 PCOD8253282
Probable space group: P N M A
;
_chemical_formula_sum "Si O2"
_cell_formula_units_Z 64
_cell_length_a 30.399368
_cell_length_b 8.821663
_cell_length_c 11.863947
_cell_angle_alpha 90.000000
_cell_angle_beta 90.000000
_cell_angle_gamma 90.000000
_cell_volume 3181.590020
_symmetry_space_group_name_H-M "P N M A"
_symmetry_group_IT_number 62
_symmetry_cell_setting 'orthorhombic'
loop_
_space_group_symop_operation_xyz
x,y,z
1/2-x,-y,1/2+z
1/2+x,1/2-y,1/2-z
-x,1/2+y,-z
-x,-y,-z
1/2+x,y,1/2-z
1/2-x,1/2+y,1/2+z
x,1/2-y,z
loop_
_atom_site_type_symbol
_atom_site_label
_atom_site_fract_x
_atom_site_fract_y
_atom_site_fract_z
Si Si1 0.866224 0.428144 0.382024
Si Si2 0.926654 0.427968 0.985796
Si Si3 0.961205 0.429736 0.749754
Si Si4 0.295048 0.573031 0.268489
Si Si5 0.795389 0.577504 0.762429
Si Si6 0.619419 0.428627 0.122355
Si Si7 0.949537 0.071083 0.230829
Si Si8 0.836332 0.578564 0.995799
O O1 0.865400 0.250000 0.407528
O O2 0.820286 0.476374 0.325834
O O3 0.871615 0.520073 0.496069
O O4 0.905995 0.473663 0.299282
O O5 0.930668 0.250000 0.991990
O O6 0.944690 0.495410 0.103585
O O7 0.876118 0.468405 0.968314
O O8 0.953269 0.490053 0.877724
O O9 0.960336 0.250000 0.742700
O O10 0.924535 0.491795 0.665917
O O11 0.008672 0.491433 0.710891
O O12 0.301117 0.750000 0.242734
O O13 0.243846 0.532797 0.271479
O O14 0.313517 0.526436 0.389765
O O15 0.784203 0.750000 0.726984
O O16 0.839528 0.522107 0.699726
O O17 0.800994 0.564598 0.896488
O O18 0.611980 0.250000 0.127545
O O19 0.956968 0.250000 0.231827
O O20 0.854429 0.750000 0.004368
#
# Coordination Sequence:
#
# PCOD8253282 Si02
#       8
#     8   8   8   8   8   8   8   8
#     4  11  24  43  65  88 122 163 205 253 305 361
#     4  10  20  37  61  92 125 158 200 247 304 362
#     4  11  23  38  62  94 124 159 202 252 307 365
#     4  11  24  40  63  95 125 159 203 251 303 360
#     4  10  23  42  63  90 123 163 203 248 305 360
#     4  11  24  43  65  89 122 162 207 256 307 364
#     4  10  22  40  62  89 122 162 202 247 304 365
#     4  10  21  39  63  91 123 159 200 248 304 357
#
# _framework density 20.115728000000001
#
# number of rings (size 3 to 8) (size 9 to 14) (size 15 to 20)
#    0.000    1.500    2.500    1.875    1.750    4.500 
#    0.000    0.000    0.000    0.000    0.000    0.000 
#    0.000    0.000    0.000    0.000    0.000    0.000 
#
# Total GULP energy -793888.419084 kJ/mol
# GULP energy per Si atom -12404.506548 kJ/mol
# Density = 2.006994 g / cm^3
# Si number density = 20.115728 Si / 1000 Ang^3
#
#
#
# Elastic Constant Matrix: (Units=GPa)
#
#
# Indices 1 2 3 4 5 6 
#
# 1 101.7854 27.6981 13.5140 0.0000 0.0000 0.0000
# 2 27.6981 32.9735 22.5753 0.0000 0.0000 0.0000
# 3 13.5140 22.5753 87.7861 0.0000 0.0000 0.0000
# 4 0.0000 0.0000 0.0000 30.0265 0.0000 0.0000
# 5 0.0000 0.0000 0.0000 0.0000 25.3509 0.0000
# 6 0.0000 0.0000 0.0000 0.0000 0.0000 36.5131
#
#
#
# Elastic Compliance Matrix: (Units=1/GPa)
#
#
# Indices 1 2 3 4 5 6 
#
# 1 0.012803 -0.011415 0.000965 0.000000 0.000000 0.000000
# 2 -0.011415 0.046985 -0.010326 0.000000 0.000000 0.000000
# 3 0.000965 -0.010326 0.013898 0.000000 0.000000 0.000000
# 4 0.000000 0.000000 0.000000 0.033304 0.000000 0.000000
# 5 0.000000 0.000000 0.000000 0.000000 0.039446 0.000000
# 6 0.000000 0.000000 0.000000 0.000000 0.000000 0.027387
#
#
# Mechanical properties :
#
#
# Convention : Reuss Voigt Hill
#
# Bulk Modulus (GPa) = 31.11918 38.90220 35.01069
# Shear Modulus (GPa) = 22.11535 28.96195 25.53865
#
# Velocity S-wave (km/s) = 3.31933 3.79854 3.56699
# Velocity P-wave (km/s) = 5.49493 6.21448 5.86575
#
# Compressibility (1/GPa) = 0.03213452
#
# Stress axis : x y z
#
# Youngs Moduli (GPa) = 78.10814 21.28322 71.95171
#
# Poissons Ratio (x) = 0.24294 -0.06940
# Poissons Ratio (y) = 0.89159 0.74295
# Poissons Ratio (z) = -0.07534 0.21976
#
# Static dielectric constant tensor:
#      x y z
#    x 3.647100 0.000000 0.000000 
#    y 0.000000 3.566370 0.000000 
#    z 0.000000 0.000000 3.840530 
# 
# 
# High freq. dielectric constant tensor:
#      x y z
#    x 1.791370 0.000000 0.000000 
#    y 0.000000 1.781950 0.000000 
#    z 0.000000 0.000000 1.792680 
# 
# From -- ./inp_files/15888.got.cif
#   From: 2010.03.12/outbox.cif.g09.slc.cpg/sg62_8_cif.got.tgz:15888.got - 2010.04.10 19:12:36.
