data_PCOD8253739
_publ_section_title
;
Structure prediction by ZEFSAII (Michael W. Deem and Ramdas Pophale) SiO2 
 PCOD8253739
Probable space group: P N M A
;
_chemical_formula_sum "Si O2"
_cell_formula_units_Z 56
_cell_length_a 21.794362
_cell_length_b 11.452594
_cell_length_c 11.642670
_cell_angle_alpha 90.000000
_cell_angle_beta 90.000000
_cell_angle_gamma 90.000000
_cell_volume 2906.033478
_symmetry_space_group_name_H-M "P N M A"
_symmetry_group_IT_number 62
_symmetry_cell_setting 'orthorhombic'
loop_
_space_group_symop_operation_xyz
x,y,z
1/2-x,-y,1/2+z
1/2+x,1/2-y,1/2-z
-x,1/2+y,-z
-x,-y,-z
1/2+x,y,1/2-z
1/2-x,1/2+y,1/2+z
x,1/2-y,z
loop_
_atom_site_type_symbol
_atom_site_label
_atom_site_fract_x
_atom_site_fract_y
_atom_site_fract_z
Si Si1 0.947741 0.118048 0.195903
Si Si2 0.912267 0.614274 0.825667
Si Si3 0.761026 0.880877 0.216301
Si Si4 0.142560 0.526457 0.380097
Si Si5 0.347732 0.500426 0.457955
Si Si6 0.459541 0.113553 0.037357
Si Si7 0.267967 0.884049 0.037039
O O1 0.927860 0.250000 0.171594
O O2 0.902915 0.037263 0.123473
O O3 0.942275 0.090650 0.330783
O O4 0.016056 0.095069 0.149412
O O5 0.896484 0.750000 0.808230
O O6 0.898284 0.547700 0.707762
O O7 0.873426 0.565555 0.931031
O O8 0.775099 0.750000 0.247521
O O9 0.689327 0.891349 0.187359
O O10 0.774362 0.946845 0.337364
O O11 0.805028 0.912524 0.112636
O O12 0.100871 0.609005 0.459286
O O13 0.182430 0.438637 0.454265
O O14 0.302677 0.395760 0.494650
O O15 0.486575 0.250000 0.024942
O O16 0.500000 0.000000 0.000000
O O17 0.284626 0.750000 0.039191
#
# Coordination Sequence:
#
# PCOD8253739 Si02
#       7
#     8   8   8   8   8   8   8
#     4  10  22  40  62  87 122 159 201 255 306 365
#     4  11  22  38  60  87 121 163 205 255 309 367
#     4  10  21  38  58  84 118 152 193 252 300 352
#     4  11  21  38  61  87 118 160 203 249 304 373
#     4  11  21  38  60  86 120 158 200 247 303 377
#     4  11  23  41  65  93 125 162 207 256 310 368
#     4  10  21  36  59  87 116 156 202 253 308 362
#
# _framework density 19.270253
#
# number of rings (size 3 to 8) (size 9 to 14) (size 15 to 20)
#    0.000    1.429    2.857    3.000    0.000    0.571 
#    0.000    1.429    0.000    0.000    0.000    0.000 
#    0.000    0.000    0.000    0.000    0.000    0.000 
#
# Total GULP energy -693961.662348 kJ/mol
# GULP energy per Si atom -12392.172542 kJ/mol
# Density = 1.922639 g / cm^3
# Si number density = 19.270253 Si / 1000 Ang^3
#
#
#
# Elastic Constant Matrix: (Units=GPa)
#
#
# Indices 1 2 3 4 5 6 
#
# 1 66.8754 27.7074 21.1656 0.0000 0.0000 0.0000
# 2 27.7074 79.3804 25.1048 0.0000 0.0000 0.0000
# 3 21.1656 25.1048 95.5989 0.0000 0.0000 0.0000
# 4 0.0000 0.0000 0.0000 -3.8933 0.0000 0.0000
# 5 0.0000 0.0000 0.0000 0.0000 46.0368 0.0000
# 6 0.0000 0.0000 0.0000 0.0000 0.0000 11.0430
#
#
#
# Elastic Compliance Matrix: (Units=1/GPa)
#
#
# Indices 1 2 3 4 5 6 
#
# 1 0.018034 -0.005488 -0.002552 0.000000 0.000000 0.000000
# 2 -0.005488 0.015409 -0.002831 0.000000 0.000000 0.000000
# 3 -0.002552 -0.002831 0.011769 0.000000 0.000000 0.000000
# 4 0.000000 0.000000 0.000000 -0.256855 0.000000 0.000000
# 5 0.000000 0.000000 0.000000 0.000000 0.021722 0.000000
# 6 0.000000 0.000000 0.000000 0.000000 0.000000 0.090556
#
#
# Mechanical properties :
#
#
# Convention : Reuss Voigt Hill
#
# Bulk Modulus (GPa) = 42.60752 43.31225 42.95989
# Shear Modulus (GPa) = -71.63284 21.82909 -24.90187
#
# Velocity S-wave (km/s) = -6.10356 3.36934 -3.59868
# Velocity P-wave (km/s) = 5.24526 6.13691 2.25265
#
# Compressibility (1/GPa) = 0.02347004
#
# Stress axis : x y z
#
# Youngs Moduli (GPa) = 55.44941 64.89918 84.97011
#
# Poissons Ratio (x) = 0.35616 0.21682
# Poissons Ratio (y) = 0.30430 0.24058
# Poissons Ratio (z) = 0.14149 0.18375
#
# Static dielectric constant tensor:
#      x y z
#    x 3.592040 0.000000 0.000000 
#    y 0.000000 3.478300 0.000000 
#    z 0.000000 0.000000 3.892540 
# 
# 
# High freq. dielectric constant tensor:
#      x y z
#    x 1.753820 0.000000 0.000000 
#    y 0.000000 1.743280 0.000000 
#    z 0.000000 0.000000 1.771000 
# 
# From -- ./inp_files/14779.got.cif
#   From: 2010.03.12/outbox.cif.g09.slc.cpg/sg62_8_cif.got.tgz:14779.got - 2010.04.10 19:12:36.
