data_PCOD8253911
_publ_section_title
;
Structure prediction by ZEFSAII (Michael W. Deem and Ramdas Pophale) SiO2 
 PCOD8253911
Probable space group: P N M A
;
_chemical_formula_sum "Si O2"
_cell_formula_units_Z 48
_cell_length_a 13.716311
_cell_length_b 18.545702
_cell_length_c 8.034643
_cell_angle_alpha 90.000000
_cell_angle_beta 90.000000
_cell_angle_gamma 90.000000
_cell_volume 2043.841369
_symmetry_space_group_name_H-M "P N M A"
_symmetry_group_IT_number 62
_symmetry_cell_setting 'orthorhombic'
loop_
_space_group_symop_operation_xyz
x,y,z
1/2-x,-y,1/2+z
1/2+x,1/2-y,1/2-z
-x,1/2+y,-z
-x,-y,-z
1/2+x,y,1/2-z
1/2-x,1/2+y,1/2+z
x,1/2-y,z
loop_
_atom_site_type_symbol
_atom_site_label
_atom_site_fract_x
_atom_site_fract_y
_atom_site_fract_z
Si Si1 0.794468 0.872390 0.417026
Si Si2 0.072001 0.250000 0.144204
Si Si3 0.885925 0.459697 0.853003
Si Si4 0.813899 0.750000 0.163906
Si Si5 0.732012 0.750000 0.654684
Si Si6 0.886876 0.250000 0.471624
Si Si7 0.013652 0.603105 0.473465
Si Si8 0.002195 0.592701 0.830634
O O1 0.728255 0.939206 0.351176
O O2 0.823479 0.823345 0.263002
O O3 0.732570 0.822977 0.545315
O O4 0.895729 0.903441 0.485967
O O5 0.172898 0.250000 0.236755
O O6 0.015980 0.177602 0.193805
O O7 0.089986 0.250000 0.948482
O O8 0.903181 0.545976 0.867501
O O9 0.941129 0.435968 0.685279
O O10 0.926328 0.420172 0.016699
O O11 0.713831 0.750000 0.066505
O O12 0.636232 0.750000 0.772527
O O13 0.952933 0.185016 0.533079
O O14 0.048576 0.568088 0.651004
#
# Coordination Sequence:
#
# PCOD8253911 Si02
#       8
#     8   4   8   4   4   4   8   8
#     4  11  22  44  66 102 141 180 235 288 344 417
#     4  11  21  44  67 103 131 176 232 281 343 409
#     4  11  26  47  67 104 142 183 231 285 353 412
#     4  10  21  37  65  99 134 175 227 280 338 409
#     4  10  21  39  68 104 137 175 240 285 338 413
#     4  11  21  38  68 100 140 180 225 288 341 405
#     4  12  23  44  69 101 140 188 230 286 349 415
#     4  11  25  47  70 100 140 180 231 287 350 416
#
# _framework density 23.485188999999998
#
# number of rings (size 3 to 8) (size 9 to 14) (size 15 to 20)
#    0.000    1.000    3.333    4.000    0.000    2.000 
#    9.000    0.000    0.000    0.000    0.000    0.000 
#    0.000    0.000    0.000    0.000    0.000    0.000 
#
# Total GULP energy -594888.142007 kJ/mol
# GULP energy per Si atom -12393.502958 kJ/mol
# Density = 2.343174 g / cm^3
# Si number density = 23.485189 Si / 1000 Ang^3
#
#
#
# Elastic Constant Matrix: (Units=GPa)
#
#
# Indices 1 2 3 4 5 6 
#
# 1 71.9440 27.8155 27.2872 0.0000 0.0000 0.0000
# 2 27.8155 92.8727 22.3742 0.0000 0.0000 0.0000
# 3 27.2872 22.3742 153.1811 0.0000 0.0000 0.0000
# 4 0.0000 0.0000 0.0000 32.8372 0.0000 0.0000
# 5 0.0000 0.0000 0.0000 0.0000 14.9291 0.0000
# 6 0.0000 0.0000 0.0000 0.0000 0.0000 24.1497
#
#
#
# Elastic Compliance Matrix: (Units=1/GPa)
#
#
# Indices 1 2 3 4 5 6 
#
# 1 0.016462 -0.004378 -0.002293 0.000000 0.000000 0.000000
# 2 -0.004378 0.012324 -0.001020 0.000000 0.000000 0.000000
# 3 -0.002293 -0.001020 0.007086 0.000000 0.000000 0.000000
# 4 0.000000 0.000000 0.000000 0.030453 0.000000 0.000000
# 5 0.000000 0.000000 0.000000 0.000000 0.066983 0.000000
# 6 0.000000 0.000000 0.000000 0.000000 0.000000 0.041408
#
#
# Mechanical properties :
#
#
# Convention : Reuss Voigt Hill
#
# Bulk Modulus (GPa) = 48.80519 52.55018 50.67768
# Shear Modulus (GPa) = 25.38979 30.41794 27.90387
#
# Velocity S-wave (km/s) = 3.29157 3.60279 3.45069
# Velocity P-wave (km/s) = 5.93905 6.30327 6.12387
#
# Compressibility (1/GPa) = 0.02048963
#
# Stress axis : x y z
#
# Youngs Moduli (GPa) = 60.74571 81.13957 141.12901
#
# Poissons Ratio (x) = 0.35523 0.32361
# Poissons Ratio (y) = 0.26594 0.14399
# Poissons Ratio (z) = 0.13929 0.08278
#
# Static dielectric constant tensor:
#      x y z
#    x 4.090820 0.000000 0.000000 
#    y 0.000000 4.250420 0.000000 
#    z 0.000000 0.000000 4.829150 
# 
# 
# High freq. dielectric constant tensor:
#      x y z
#    x 1.915350 0.000000 0.000000 
#    y 0.000000 1.931050 0.000000 
#    z 0.000000 0.000000 1.954560 
# 
# From -- ./inp_files/6551.got.cif
#   From: 2010.03.12/outbox.cif.g09.slc.cpg/sg62_4_cif.got.tgz:6551.got - 2010.04.10 19:12:36.
