data_PCOD8253000
_publ_section_title
;
Structure prediction by ZEFSAII (Michael W. Deem and Ramdas Pophale) SiO2 
 PCOD8253000
Probable space group: P N M A
;
_chemical_formula_sum "Si O2"
_cell_formula_units_Z 48
_cell_length_a 16.869645
_cell_length_b 9.039448
_cell_length_c 16.431527
_cell_angle_alpha 90.000000
_cell_angle_beta 90.000000
_cell_angle_gamma 90.000000
_cell_volume 2505.680996
_symmetry_space_group_name_H-M "P N M A"
_symmetry_group_IT_number 62
_symmetry_cell_setting 'orthorhombic'
loop_
_space_group_symop_operation_xyz
x,y,z
1/2-x,-y,1/2+z
1/2+x,1/2-y,1/2-z
-x,1/2+y,-z
-x,-y,-z
1/2+x,y,1/2-z
1/2-x,1/2+y,1/2+z
x,1/2-y,z
loop_
_atom_site_type_symbol
_atom_site_label
_atom_site_fract_x
_atom_site_fract_y
_atom_site_fract_z
Si Si1 0.230120 0.922324 0.882761
Si Si2 0.101684 0.080601 0.443231
Si Si3 0.927886 0.078582 0.394002
Si Si4 0.991242 0.586534 0.877483
Si Si5 0.382400 0.087465 0.519510
Si Si6 0.111560 0.074624 0.767183
O O1 0.208493 0.750000 0.867960
O O2 0.324129 0.950838 0.883726
O O3 0.190977 0.017499 0.811337
O O4 0.194791 0.971606 0.970990
O O5 0.103130 0.250000 0.474789
O O6 0.022444 0.049769 0.391741
O O7 0.107114 0.972010 0.519776
O O8 0.907503 0.250000 0.380370
O O9 0.885923 0.982012 0.324942
O O10 0.975995 0.750000 0.840767
O O11 0.906594 0.518805 0.905675
O O12 0.031759 0.485386 0.809340
O O13 0.046462 0.597326 0.955596
O O14 0.365737 0.250000 0.556268
O O15 0.110401 0.250000 0.769796
#
# Coordination Sequence:
#
# PCOD8253000 Si02
#       6
#     8   8   8   8   8   8
#     4   9  18  34  55  79 108 138 171 216 268 315
#     4   9  19  37  60  82 104 135 175 217 260 310
#     4  10  20  36  58  81 106 137 175 216 259 310
#     4   9  16  27  44  67  98 135 173 210 252 305
#     4   8  14  25  43  68  98 132 167 205 251 306
#     4  11  21  33  52  78 108 140 177 219 264 312
#
# _framework density 19.156469999999999
#
# number of rings (size 3 to 8) (size 9 to 14) (size 15 to 20)
#    0.000    2.667    0.000    3.500    0.000    5.333 
#    0.000    1.667    0.000    0.000    0.000    0.000 
#    0.000    0.000    0.000    0.000    0.000    0.000 
#
# Total GULP energy -595110.845572 kJ/mol
# GULP energy per Si atom -12398.142616 kJ/mol
# Density = 1.911287 g / cm^3
# Si number density = 19.156470 Si / 1000 Ang^3
#
#
#
# Elastic Constant Matrix: (Units=GPa)
#
#
# Indices 1 2 3 4 5 6 
#
# 1 75.2506 39.6248 30.0765 0.0000 0.0000 0.0000
# 2 39.6248 130.5575 52.0811 0.0000 0.0000 0.0000
# 3 30.0765 52.0811 68.9781 0.0000 0.0000 0.0000
# 4 0.0000 0.0000 0.0000 30.8919 0.0000 0.0000
# 5 0.0000 0.0000 0.0000 0.0000 14.6107 0.0000
# 6 0.0000 0.0000 0.0000 0.0000 0.0000 22.7018
#
#
#
# Elastic Compliance Matrix: (Units=1/GPa)
#
#
# Indices 1 2 3 4 5 6 
#
# 1 0.016949 -0.003143 -0.005018 0.000000 0.000000 0.000000
# 2 -0.003143 0.011543 -0.007345 0.000000 0.000000 0.000000
# 3 -0.005018 -0.007345 0.022231 0.000000 0.000000 0.000000
# 4 0.000000 0.000000 0.000000 0.032371 0.000000 0.000000
# 5 0.000000 0.000000 0.000000 0.000000 0.068443 0.000000
# 6 0.000000 0.000000 0.000000 0.000000 0.000000 0.044049
#
#
# Mechanical properties :
#
#
# Convention : Reuss Voigt Hill
#
# Bulk Modulus (GPa) = 50.72889 57.59454 54.16172
# Shear Modulus (GPa) = 21.44364 23.84114 22.64239
#
# Velocity S-wave (km/s) = 3.34936 3.53164 3.44171
# Velocity P-wave (km/s) = 6.44178 6.83817 6.64293
#
# Compressibility (1/GPa) = 0.01971263
#
# Stress axis : x y z
#
# Youngs Moduli (GPa) = 59.00000 86.62913 44.98168
#
# Poissons Ratio (x) = 0.27224 0.22570
# Poissons Ratio (y) = 0.18541 0.33041
# Poissons Ratio (z) = 0.29604 0.63633
#
# Static dielectric constant tensor:
#      x y z
#    x 3.473830 0.000000 0.000000 
#    y 0.000000 3.646380 0.000000 
#    z 0.000000 0.000000 3.211860 
# 
# 
# High freq. dielectric constant tensor:
#      x y z
#    x 1.728950 0.000000 0.000000 
#    y 0.000000 1.748170 0.000000 
#    z 0.000000 0.000000 1.719240 
# 
# From -- ./inp_files/19665.got.cif
#   From: 2010.03.12/outbox.cif.g09.slc.cpg/sg62_10_cif.got.tgz:19665.got - 2010.04.10 19:12:36.
