data_PCOD8253737
_publ_section_title
;
Structure prediction by ZEFSAII (Michael W. Deem and Ramdas Pophale) SiO2 
 PCOD8253737
Probable space group: P N M A
;
_chemical_formula_sum "Si O2"
_cell_formula_units_Z 32
_cell_length_a 4.920951
_cell_length_b 17.427110
_cell_length_c 18.653962
_cell_angle_alpha 90.000000
_cell_angle_beta 90.000000
_cell_angle_gamma 90.000000
_cell_volume 1599.725622
_symmetry_space_group_name_H-M "P N M A"
_symmetry_group_IT_number 62
_symmetry_cell_setting 'orthorhombic'
loop_
_space_group_symop_operation_xyz
x,y,z
1/2-x,-y,1/2+z
1/2+x,1/2-y,1/2-z
-x,1/2+y,-z
-x,-y,-z
1/2+x,y,1/2-z
1/2-x,1/2+y,1/2+z
x,1/2-y,z
loop_
_atom_site_type_symbol
_atom_site_label
_atom_site_fract_x
_atom_site_fract_y
_atom_site_fract_z
Si Si1 0.619436 0.250000 0.504288
Si Si2 0.276396 0.588785 0.547376
Si Si3 0.725723 0.491746 0.094623
Si Si4 0.089739 0.884668 0.297977
Si Si5 0.602818 0.250000 0.899194
O O1 0.598113 0.174193 0.455588
O O2 0.929782 0.250000 0.529264
O O3 0.415356 0.250000 0.573248
O O4 0.472762 0.542792 0.602331
O O5 0.259838 0.554967 0.467438
O O6 0.971990 0.579939 0.577231
O O7 0.600504 0.531842 0.165099
O O8 0.398248 0.874056 0.271238
O O9 0.979594 0.824517 0.355007
#
# Coordination Sequence:
#
# PCOD8253737 Si02
#       5
#     4   8   8   8   4
#     4  12  22  37  60  88 118 157 182 239 305 356
#     4  10  21  36  59  84 114 147 191 244 302 340
#     4  10  21  37  57  84 112 151 196 245 282 341
#     4  12  24  39  57  82 119 165 199 230 275 341
#     4  12  24  37  54  86 124 159 198 223 269 362
#
# _framework density 20.003429000000001
#
# number of rings (size 3 to 8) (size 9 to 14) (size 15 to 20)
#    0.000    1.000    2.500    5.250    7.000    0.000 
#    0.000    0.000    0.000    0.000    0.000   17.500 
#    0.000    0.000    0.000    0.000    0.000    0.000 
#
# Total GULP energy -396475.292163 kJ/mol
# GULP energy per Si atom -12389.852880 kJ/mol
# Density = 1.995790 g / cm^3
# Si number density = 20.003429 Si / 1000 Ang^3
#
#
#
# Elastic Constant Matrix: (Units=GPa)
#
#
# Indices 1 2 3 4 5 6 
#
# 1 97.1999 30.5386 9.7007 0.0000 0.0000 0.0000
# 2 30.5386 107.4102 28.1883 0.0000 0.0000 0.0000
# 3 9.7007 28.1883 25.4383 0.0000 0.0000 0.0000
# 4 0.0000 0.0000 0.0000 59.0465 0.0000 0.0000
# 5 0.0000 0.0000 0.0000 0.0000 32.4422 0.0000
# 6 0.0000 0.0000 0.0000 0.0000 0.0000 26.7282
#
#
#
# Elastic Compliance Matrix: (Units=1/GPa)
#
#
# Indices 1 2 3 4 5 6 
#
# 1 0.011317 -0.002940 -0.001058 0.000000 0.000000 0.000000
# 2 -0.002940 0.013892 -0.014272 0.000000 0.000000 0.000000
# 3 -0.001058 -0.014272 0.055529 0.000000 0.000000 0.000000
# 4 0.000000 0.000000 0.000000 0.016936 0.000000 0.000000
# 5 0.000000 0.000000 0.000000 0.000000 0.030824 0.000000
# 6 0.000000 0.000000 0.000000 0.000000 0.000000 0.037414
#
#
# Mechanical properties :
#
#
# Convention : Reuss Voigt Hill
#
# Bulk Modulus (GPa) = 22.62545 40.76706 31.69625
# Shear Modulus (GPa) = 23.02190 34.41809 28.72000
#
# Velocity S-wave (km/s) = 3.39617 4.15252 3.79324
# Velocity P-wave (km/s) = 5.16855 6.58905 5.92155
#
# Compressibility (1/GPa) = 0.04419802
#
# Stress axis : x y z
#
# Youngs Moduli (GPa) = 88.35968 71.98631 18.00854
#
# Poissons Ratio (x) = 0.21165 0.01905
# Poissons Ratio (y) = 0.25979 0.25702
# Poissons Ratio (z) = 0.09347 1.02739
#
# Static dielectric constant tensor:
#      x y z
#    x 3.904800 0.000000 0.000000 
#    y 0.000000 3.600250 0.000000 
#    z 0.000000 0.000000 3.353850 
# 
# 
# High freq. dielectric constant tensor:
#      x y z
#    x 1.806130 0.000000 0.000000 
#    y 0.000000 1.771640 0.000000 
#    z 0.000000 0.000000 1.735820 
# 
# From -- ./inp_files/16088.got.cif
#   From: 2010.03.12/outbox.cif.g09.slc.cpg/sg62_9_cif.got.tgz:16088.got - 2010.04.10 19:12:36.
