data_PCOD8253753
_publ_section_title
;
Structure prediction by ZEFSAII (Michael W. Deem and Ramdas Pophale) SiO2 
 PCOD8253753
Probable space group: P N M A
;
_chemical_formula_sum "Si O2"
_cell_formula_units_Z 40
_cell_length_a 20.855112
_cell_length_b 9.719601
_cell_length_c 9.128887
_cell_angle_alpha 90.000000
_cell_angle_beta 90.000000
_cell_angle_gamma 90.000000
_cell_volume 1850.456136
_symmetry_space_group_name_H-M "P N M A"
_symmetry_group_IT_number 62
_symmetry_cell_setting 'orthorhombic'
loop_
_space_group_symop_operation_xyz
x,y,z
1/2-x,-y,1/2+z
1/2+x,1/2-y,1/2-z
-x,1/2+y,-z
-x,-y,-z
1/2+x,y,1/2-z
1/2-x,1/2+y,1/2+z
x,1/2-y,z
loop_
_atom_site_type_symbol
_atom_site_label
_atom_site_fract_x
_atom_site_fract_y
_atom_site_fract_z
Si Si1 0.397861 0.486097 0.577478
Si Si2 0.603943 0.085200 0.879058
Si Si3 0.523737 0.898399 0.689389
Si Si4 0.655150 0.594689 0.126235
Si Si5 0.702708 0.408554 0.637614
O O1 0.430751 0.393431 0.453419
O O2 0.450293 0.592379 0.638594
O O3 0.371274 0.393716 0.709159
O O4 0.337736 0.567385 0.509262
O O5 0.596196 0.250000 0.895441
O O6 0.664759 0.038198 0.780962
O O7 0.540868 0.024242 0.798341
O O8 0.610772 0.010634 0.034874
O O9 0.532317 0.750000 0.768453
O O10 0.654013 0.750000 0.059676
O O11 0.726427 0.526198 0.125755
O O12 0.714681 0.250000 0.662541
#
# Coordination Sequence:
#
# PCOD8253753 Si02
#       5
#     8   8   8   8   8
#     4  10  21  36  60  89 118 150 192 239 287 340
#     4  10  22  39  58  84 119 154 192 241 294 344
#     4  10  21  39  62  85 113 153 199 242 286 341
#     4  11  22  37  59  87 119 152 190 236 288 347
#     4   9  19  37  59  85 117 153 191 234 285 343
#
# _framework density 21.616292000000001
#
# number of rings (size 3 to 8) (size 9 to 14) (size 15 to 20)
#    0.000    2.000    0.000    3.000    0.000    8.000 
#    0.000    5.000    0.000    0.000    0.000    0.000 
#    0.000    0.000    0.000    0.000    0.000    0.000 
#
# Total GULP energy -495849.884176 kJ/mol
# GULP energy per Si atom -12396.247104 kJ/mol
# Density = 2.156709 g / cm^3
# Si number density = 21.616292 Si / 1000 Ang^3
#
#
#
# Elastic Constant Matrix: (Units=GPa)
#
#
# Indices 1 2 3 4 5 6 
#
# 1 102.7390 21.8686 29.5696 0.0000 0.0000 0.0000
# 2 21.8686 100.1949 21.2800 0.0000 0.0000 0.0000
# 3 29.5696 21.2800 90.0542 0.0000 0.0000 0.0000
# 4 0.0000 0.0000 0.0000 22.2918 0.0000 0.0000
# 5 0.0000 0.0000 0.0000 0.0000 20.4606 0.0000
# 6 0.0000 0.0000 0.0000 0.0000 0.0000 14.0843
#
#
#
# Elastic Compliance Matrix: (Units=1/GPa)
#
#
# Indices 1 2 3 4 5 6 
#
# 1 0.011025 -0.001724 -0.003213 0.000000 0.000000 0.000000
# 2 -0.001724 0.010777 -0.001981 0.000000 0.000000 0.000000
# 3 -0.003213 -0.001981 0.012627 0.000000 0.000000 0.000000
# 4 0.000000 0.000000 0.000000 0.044860 0.000000 0.000000
# 5 0.000000 0.000000 0.000000 0.000000 0.048874 0.000000
# 6 0.000000 0.000000 0.000000 0.000000 0.000000 0.071001
#
#
# Mechanical properties :
#
#
# Convention : Reuss Voigt Hill
#
# Bulk Modulus (GPa) = 48.55517 48.71383 48.63450
# Shear Modulus (GPa) = 22.74129 26.05202 24.39666
#
# Velocity S-wave (km/s) = 3.24704 3.47537 3.36314
# Velocity P-wave (km/s) = 6.04721 6.22004 6.13423
#
# Compressibility (1/GPa) = 0.02059513
#
# Stress axis : x y z
#
# Youngs Moduli (GPa) = 90.70274 92.78595 79.19314
#
# Poissons Ratio (x) = 0.15996 0.25442
# Poissons Ratio (y) = 0.15637 0.15686
# Poissons Ratio (z) = 0.29140 0.18378
#
# Static dielectric constant tensor:
#      x y z
#    x 4.142260 0.000000 0.000000 
#    y 0.000000 3.524280 0.000000 
#    z 0.000000 0.000000 3.768220 
# 
# 
# High freq. dielectric constant tensor:
#      x y z
#    x 1.856740 0.000000 0.000000 
#    y 0.000000 1.830350 0.000000 
#    z 0.000000 0.000000 1.843470 
# 
# From -- ./inp_files/7284.got.cif
#   From: 2010.03.12/outbox.cif.g09.slc.cpg/sg62_4_cif.got.tgz:7284.got - 2010.04.10 19:12:36.
