data_PCOD8253786
_publ_section_title
;
Structure prediction by ZEFSAII (Michael W. Deem and Ramdas Pophale) SiO2 
 PCOD8253786
Probable space group: P N M A
;
_chemical_formula_sum "Si O2"
_cell_formula_units_Z 48
_cell_length_a 12.305382
_cell_length_b 15.060719
_cell_length_c 12.691397
_cell_angle_alpha 90.000000
_cell_angle_beta 90.000000
_cell_angle_gamma 90.000000
_cell_volume 2352.069960
_symmetry_space_group_name_H-M "P N M A"
_symmetry_group_IT_number 62
_symmetry_cell_setting 'orthorhombic'
loop_
_space_group_symop_operation_xyz
x,y,z
1/2-x,-y,1/2+z
1/2+x,1/2-y,1/2-z
-x,1/2+y,-z
-x,-y,-z
1/2+x,y,1/2-z
1/2-x,1/2+y,1/2+z
x,1/2-y,z
loop_
_atom_site_type_symbol
_atom_site_label
_atom_site_fract_x
_atom_site_fract_y
_atom_site_fract_z
Si Si1 0.023420 0.750000 0.096038
Si Si2 0.876058 0.750000 0.902203
Si Si3 0.183737 0.250000 0.751098
Si Si4 0.787872 0.576993 0.807433
Si Si5 0.087815 0.596395 0.560106
Si Si6 0.287998 0.384480 0.606152
Si Si7 0.324544 0.250000 0.943019
Si Si8 0.649495 0.427514 0.075270
O O1 0.096204 0.663226 0.113630
O O2 0.928021 0.750000 0.183764
O O3 0.983051 0.750000 0.975043
O O4 0.870115 0.659161 0.832627
O O5 0.779043 0.750000 0.983427
O O6 0.197237 0.340393 0.683291
O O7 0.290618 0.250000 0.822959
O O8 0.666873 0.609895 0.839163
O O9 0.814760 0.487733 0.872201
O O10 0.792402 0.548816 0.684996
O O11 0.103961 0.664355 0.465022
O O12 0.115232 0.503911 0.505945
O O13 0.966833 0.615254 0.603687
O O14 0.236589 0.369322 0.489575
#
# Coordination Sequence:
#
# PCOD8253786 Si02
#       8
#     4   4   4   8   8   8   4   8
#     4  10  23  41  60  89 123 155 202 257 302 355
#     4   9  21  38  57  85 117 153 196 235 296 364
#     4  10  21  38  61  86 116 153 196 246 300 356
#     4  10  21  39  60  85 117 157 200 242 298 363
#     4   9  20  36  57  83 110 149 191 235 293 349
#     4  10  23  38  59  90 118 154 202 249 301 360
#     4   9  17  35  58  78 106 143 188 238 282 339
#     4  10  21  37  56  83 118 148 189 240 291 356
#
# _framework density 20.407554999999999
#
# number of rings (size 3 to 8) (size 9 to 14) (size 15 to 20)
#    0.000    2.333    0.000    1.000    0.000   13.333 
#    0.000    1.667    0.000    0.000    0.000    0.000 
#    0.000    0.000    0.000    0.000    0.000    0.000 
#
# Total GULP energy -594703.819499 kJ/mol
# GULP energy per Si atom -12389.662906 kJ/mol
# Density = 2.036111 g / cm^3
# Si number density = 20.407555 Si / 1000 Ang^3
#
#
#
# Elastic Constant Matrix: (Units=GPa)
#
#
# Indices 1 2 3 4 5 6 
#
# 1 120.4259 35.2766 53.6878 0.0000 0.0000 0.0000
# 2 35.2766 101.2094 14.9757 0.0000 0.0000 0.0000
# 3 53.6878 14.9757 116.5676 0.0000 0.0000 0.0000
# 4 0.0000 0.0000 0.0000 25.0203 0.0000 0.0000
# 5 0.0000 0.0000 0.0000 0.0000 34.7769 0.0000
# 6 0.0000 0.0000 0.0000 0.0000 0.0000 21.1620
#
#
#
# Elastic Compliance Matrix: (Units=1/GPa)
#
#
# Indices 1 2 3 4 5 6 
#
# 1 0.011417 -0.003263 -0.004839 0.000000 0.000000 0.000000
# 2 -0.003263 0.011005 0.000089 0.000000 0.000000 0.000000
# 3 -0.004839 0.000089 0.010796 0.000000 0.000000 0.000000
# 4 0.000000 0.000000 0.000000 0.039968 0.000000 0.000000
# 5 0.000000 0.000000 0.000000 0.000000 0.028755 0.000000
# 6 0.000000 0.000000 0.000000 0.000000 0.000000 0.047255
#
#
# Mechanical properties :
#
#
# Convention : Reuss Voigt Hill
#
# Bulk Modulus (GPa) = 58.16909 60.67589 59.42249
# Shear Modulus (GPa) = 29.24797 31.80936 30.52867
#
# Velocity S-wave (km/s) = 3.78986 3.95233 3.87195
# Velocity P-wave (km/s) = 6.90770 7.11509 7.01216
#
# Compressibility (1/GPa) = 0.01719126
#
# Stress axis : x y z
#
# Youngs Moduli (GPa) = 87.58705 90.86969 92.62652
#
# Poissons Ratio (x) = 0.29655 0.44824
# Poissons Ratio (y) = 0.28583 -0.00827
# Poissons Ratio (z) = 0.42385 -0.00811
#
# Static dielectric constant tensor:
#      x y z
#    x 3.868150 0.000000 0.000000 
#    y 0.000000 3.653100 0.000000 
#    z 0.000000 0.000000 3.746710 
# 
# 
# High freq. dielectric constant tensor:
#      x y z
#    x 1.793970 0.000000 0.000000 
#    y 0.000000 1.795140 0.000000 
#    z 0.000000 0.000000 1.797860 
# 
# From -- ./inp_files/12316.got.cif
#   From: 2010.03.12/outbox.cif.g09.slc.cpg/sg62_7_cif.got.tgz:12316.got - 2010.04.10 19:12:36.
