data_PCOD8253309
_publ_section_title
;
Structure prediction by ZEFSAII (Michael W. Deem and Ramdas Pophale) SiO2 
 PCOD8253309
Probable space group: P N M A
;
_chemical_formula_sum "Si O2"
_cell_formula_units_Z 64
_cell_length_a 19.428726
_cell_length_b 18.523233
_cell_length_c 9.330846
_cell_angle_alpha 90.000000
_cell_angle_beta 90.000000
_cell_angle_gamma 90.000000
_cell_volume 3358.011158
_symmetry_space_group_name_H-M "P N M A"
_symmetry_group_IT_number 62
_symmetry_cell_setting 'orthorhombic'
loop_
_space_group_symop_operation_xyz
x,y,z
1/2-x,-y,1/2+z
1/2+x,1/2-y,1/2-z
-x,1/2+y,-z
-x,-y,-z
1/2+x,y,1/2-z
1/2-x,1/2+y,1/2+z
x,1/2-y,z
loop_
_atom_site_type_symbol
_atom_site_label
_atom_site_fract_x
_atom_site_fract_y
_atom_site_fract_z
Si Si1 0.764951 0.447044 0.964814
Si Si2 0.588881 0.668057 0.827885
Si Si3 0.734958 0.665417 0.702854
Si Si4 0.482739 0.907524 0.641911
Si Si5 0.153979 0.166009 0.059087
Si Si6 0.376968 0.332031 0.847912
Si Si7 0.078356 0.559781 0.118254
Si Si8 0.260972 0.583022 0.349842
O O1 0.845862 0.457561 0.938788
O O2 0.724446 0.442144 0.813577
O O3 0.750215 0.374279 0.053385
O O4 0.737073 0.514367 0.056265
O O5 0.576379 0.750000 0.776895
O O6 0.661161 0.640498 0.763521
O O7 0.526231 0.618513 0.777548
O O8 0.588838 0.662820 0.997881
O O9 0.737892 0.750000 0.670997
O O10 0.791774 0.642691 0.819044
O O11 0.422045 0.851175 0.612761
O O12 0.532288 0.907389 0.506008
O O13 0.453728 0.986245 0.679208
O O14 0.160410 0.250000 0.022497
O O15 0.170691 0.119818 0.915851
O O16 0.377522 0.250000 0.790915
O O17 0.421720 0.381208 0.742951
O O18 0.298396 0.357397 0.853213
#
# Coordination Sequence:
#
# PCOD8253309 Si02
#       8
#     8   8   8   8   8   8   8   8
#     4  11  22  38  62  88 121 160 206 258 308 366
#     4  10  20  37  63  89 118 160 205 249 301 366
#     4  10  21  38  61  90 120 158 208 260 305 364
#     4  11  22  40  59  90 126 160 211 242 309 367
#     4  11  22  39  62  89 126 165 201 253 314 367
#     4  10  22  40  63  93 120 155 209 260 308 364
#     4  10  23  39  60  89 122 160 203 258 296 372
#     4  11  22  37  60  91 122 158 203 257 313 366
#
# _framework density 19.058900999999999
#
# number of rings (size 3 to 8) (size 9 to 14) (size 15 to 20)
#    0.000    1.500    3.750    1.500    1.750    4.000 
#    0.000    1.250    0.000    0.000    0.000    0.000 
#    0.000    0.000    0.000    0.000    0.000    0.000 
#
# Total GULP energy -793894.002438 kJ/mol
# GULP energy per Si atom -12404.593788 kJ/mol
# Density = 1.901552 g / cm^3
# Si number density = 19.058901 Si / 1000 Ang^3
#
#
#
# Elastic Constant Matrix: (Units=GPa)
#
#
# Indices 1 2 3 4 5 6 
#
# 1 70.5777 20.3088 27.3308 0.0000 0.0000 0.0000
# 2 20.3088 86.8977 60.6290 0.0000 0.0000 0.0000
# 3 27.3308 60.6290 112.2126 0.0000 0.0000 0.0000
# 4 0.0000 0.0000 0.0000 39.4983 0.0000 0.0000
# 5 0.0000 0.0000 0.0000 0.0000 29.9282 0.0000
# 6 0.0000 0.0000 0.0000 0.0000 0.0000 28.9384
#
#
#
# Elastic Compliance Matrix: (Units=1/GPa)
#
#
# Indices 1 2 3 4 5 6 
#
# 1 0.015784 -0.001616 -0.002972 0.000000 0.000000 0.000000
# 2 -0.001616 0.018636 -0.009676 0.000000 0.000000 0.000000
# 3 -0.002972 -0.009676 0.014863 0.000000 0.000000 0.000000
# 4 0.000000 0.000000 0.000000 0.025318 0.000000 0.000000
# 5 0.000000 0.000000 0.000000 0.000000 0.033413 0.000000
# 6 0.000000 0.000000 0.000000 0.000000 0.000000 0.034556
#
#
# Mechanical properties :
#
#
# Convention : Reuss Voigt Hill
#
# Bulk Modulus (GPa) = 48.17430 54.02503 51.09966
# Shear Modulus (GPa) = 28.08738 30.43427 29.26083
#
# Velocity S-wave (km/s) = 3.84306 4.00040 3.92252
# Velocity P-wave (km/s) = 6.70996 7.05305 6.88364
#
# Compressibility (1/GPa) = 0.02075796
#
# Stress axis : x y z
#
# Youngs Moduli (GPa) = 63.35370 53.65915 67.28019
#
# Poissons Ratio (x) = 0.08670 0.19992
# Poissons Ratio (y) = 0.10236 0.65098
# Poissons Ratio (z) = 0.18826 0.51919
#
# Static dielectric constant tensor:
#      x y z
#    x 3.387460 0.000000 0.000000 
#    y 0.000000 3.590960 0.000000 
#    z 0.000000 0.000000 3.526000 
# 
# 
# High freq. dielectric constant tensor:
#      x y z
#    x 1.727860 0.000000 0.000000 
#    y 0.000000 1.756600 0.000000 
#    z 0.000000 0.000000 1.740940 
# 
# From -- ./inp_files/8094.got.cif
#   From: 2010.03.12/outbox.cif.g09.slc.cpg/sg62_5_cif.got.tgz:8094.got - 2010.04.10 19:12:36.
