data_PCOD8253795
_publ_section_title
;
Structure prediction by ZEFSAII (Michael W. Deem and Ramdas Pophale) SiO2 
 PCOD8253795
Probable space group: P N M A
;
_chemical_formula_sum "Si O2"
_cell_formula_units_Z 48
_cell_length_a 30.200598
_cell_length_b 9.156604
_cell_length_c 9.065062
_cell_angle_alpha 90.000000
_cell_angle_beta 90.000000
_cell_angle_gamma 90.000000
_cell_volume 2506.806163
_symmetry_space_group_name_H-M "P N M A"
_symmetry_group_IT_number 62
_symmetry_cell_setting 'orthorhombic'
loop_
_space_group_symop_operation_xyz
x,y,z
1/2-x,-y,1/2+z
1/2+x,1/2-y,1/2-z
-x,1/2+y,-z
-x,-y,-z
1/2+x,y,1/2-z
1/2-x,1/2+y,1/2+z
x,1/2-y,z
loop_
_atom_site_type_symbol
_atom_site_label
_atom_site_fract_x
_atom_site_fract_y
_atom_site_fract_z
Si Si1 0.286311 0.083424 0.323524
Si Si2 0.626825 0.582222 0.861278
Si Si3 0.450190 0.079010 0.347697
Si Si4 0.868022 0.579002 0.663493
Si Si5 0.291309 0.420969 0.666021
Si Si6 0.949926 0.580853 0.856928
O O1 0.270084 0.250000 0.300918
O O2 0.334937 0.060759 0.258425
O O3 0.287734 0.042068 0.494419
O O4 0.253100 0.974126 0.244317
O O5 0.623625 0.750000 0.913595
O O6 0.581015 0.528927 0.786759
O O7 0.637131 0.482134 0.000114
O O8 0.444748 0.250000 0.373958
O O9 0.500557 0.033685 0.308429
O O10 0.434302 0.004351 0.498259
O O11 0.857884 0.750000 0.659635
O O12 0.833439 0.504212 0.771440
O O13 0.917316 0.544403 0.722227
O O14 0.297319 0.250000 0.695907
O O15 0.948548 0.750000 0.898835
#
# Coordination Sequence:
#
# PCOD8253795 Si02
#       6
#     8   8   8   8   8   8
#     4  10  22  39  58  83 112 141 178 224 272 322
#     4  10  21  37  57  81 111 146 184 226 271 321
#     4   9  18  35  58  82 109 143 184 227 271 323
#     4  11  23  37  54  80 114 147 182 225 271 321
#     4  11  23  39  60  83 108 142 182 222 269 324
#     4   9  19  35  55  81 112 145 182 226 274 322
#
# _framework density 19.147872
#
# number of rings (size 3 to 8) (size 9 to 14) (size 15 to 20)
#    0.000    2.000    0.000    3.000    0.000    8.667 
#    0.000    0.000    0.000    0.000    0.000    0.000 
#    0.000    0.000    0.000    0.000    0.000    0.000 
#
# Total GULP energy -595405.878314 kJ/mol
# GULP energy per Si atom -12404.289132 kJ/mol
# Density = 1.910429 g / cm^3
# Si number density = 19.147872 Si / 1000 Ang^3
#
#
#
# Elastic Constant Matrix: (Units=GPa)
#
#
# Indices 1 2 3 4 5 6 
#
# 1 101.8351 47.6405 59.4546 0.0000 0.0000 0.0000
# 2 47.6405 79.3192 64.3415 0.0000 0.0000 0.0000
# 3 59.4546 64.3415 138.7717 0.0000 0.0000 0.0000
# 4 0.0000 0.0000 0.0000 32.3732 0.0000 0.0000
# 5 0.0000 0.0000 0.0000 0.0000 33.3078 0.0000
# 6 0.0000 0.0000 0.0000 0.0000 0.0000 27.5149
#
#
#
# Elastic Compliance Matrix: (Units=1/GPa)
#
#
# Indices 1 2 3 4 5 6 
#
# 1 0.014659 -0.005946 -0.003523 0.000000 0.000000 0.000000
# 2 -0.005946 0.022619 -0.007940 0.000000 0.000000 0.000000
# 3 -0.003523 -0.007940 0.012397 0.000000 0.000000 0.000000
# 4 0.000000 0.000000 0.000000 0.030890 0.000000 0.000000
# 5 0.000000 0.000000 0.000000 0.000000 0.030023 0.000000
# 6 0.000000 0.000000 0.000000 0.000000 0.000000 0.036344
#
#
# Mechanical properties :
#
#
# Convention : Reuss Voigt Hill
#
# Bulk Modulus (GPa) = 67.31274 73.64439 70.47856
# Shear Modulus (GPa) = 26.78062 28.53847 27.65955
#
# Velocity S-wave (km/s) = 3.74387 3.86479 3.80481
# Velocity P-wave (km/s) = 7.34297 7.64590 7.49597
#
# Compressibility (1/GPa) = 0.01485603
#
# Stress axis : x y z
#
# Youngs Moduli (GPa) = 68.21951 44.21001 80.66534
#
# Poissons Ratio (x) = 0.26288 0.28421
# Poissons Ratio (y) = 0.40565 0.64047
# Poissons Ratio (z) = 0.24036 0.35102
#
# Static dielectric constant tensor:
#      x y z
#    x 3.760810 0.000000 0.000000 
#    y 0.000000 3.534110 0.000000 
#    z 0.000000 0.000000 3.464320 
# 
# 
# High freq. dielectric constant tensor:
#      x y z
#    x 1.759550 0.000000 0.000000 
#    y 0.000000 1.744910 0.000000 
#    z 0.000000 0.000000 1.746050 
# 
# From -- ./inp_files/10263.got.cif
#   From: 2010.03.12/outbox.cif.g09.slc.cpg/sg62_6_cif.got.tgz:10263.got - 2010.04.10 19:12:36.
