data_PCOD8253676
_publ_section_title
;
Structure prediction by ZEFSAII (Michael W. Deem and Ramdas Pophale) SiO2 
 PCOD8253676
Probable space group: P N M A
;
_chemical_formula_sum "Si O2"
_cell_formula_units_Z 64
_cell_length_a 32.209992
_cell_length_b 9.577250
_cell_length_c 10.762776
_cell_angle_alpha 90.000000
_cell_angle_beta 90.000000
_cell_angle_gamma 90.000000
_cell_volume 3320.134999
_symmetry_space_group_name_H-M "P N M A"
_symmetry_group_IT_number 62
_symmetry_cell_setting 'orthorhombic'
loop_
_space_group_symop_operation_xyz
x,y,z
1/2-x,-y,1/2+z
1/2+x,1/2-y,1/2-z
-x,1/2+y,-z
-x,-y,-z
1/2+x,y,1/2-z
1/2-x,1/2+y,1/2+z
x,1/2-y,z
loop_
_atom_site_type_symbol
_atom_site_label
_atom_site_fract_x
_atom_site_fract_y
_atom_site_fract_z
Si Si1 0.732886 0.406954 0.079175
Si Si2 0.975339 0.416689 0.893436
Si Si3 0.612635 0.902393 0.018355
Si Si4 0.617582 0.910771 0.424010
Si Si5 0.022834 0.912782 0.392263
Si Si6 0.168037 0.087528 0.629316
Si Si7 0.179631 0.904440 0.271412
Si Si8 0.323103 0.093731 0.361226
O O1 0.721463 0.250000 0.118413
O O2 0.707486 0.447553 0.956517
O O3 0.719701 0.503105 0.195839
O O4 0.782051 0.423081 0.052137
O O5 0.979009 0.250000 0.917463
O O6 0.928282 0.473136 0.910466
O O7 0.989870 0.452699 0.751011
O O8 0.000000 0.500000 0.000000
O O9 0.605521 0.750000 0.955048
O O10 0.571593 0.946219 0.093694
O O11 0.651098 0.891476 0.108990
O O12 0.624822 0.016935 0.915547
O O13 0.615065 0.750000 0.381558
O O14 0.651787 0.981109 0.333813
O O15 0.634440 0.928533 0.563137
O O16 0.013011 0.750000 0.414423
O O17 0.000000 0.000000 0.500000
O O18 0.158871 0.250000 0.641477
O O19 0.179820 0.025792 0.760886
O O20 0.195220 0.750000 0.229365
O O21 0.323189 0.250000 0.302369
#
# Coordination Sequence:
#
# PCOD8253676 Si02
#       8
#     8   8   8   8   8   8   8   8
#     4   9  20  35  51  77 111 143 175 222 279 325
#     4  10  21  40  62  87 118 154 198 249 301 357
#     4   9  17  34  58  80 103 139 183 225 271 333
#     4   9  18  35  60  82 104 143 192 233 273 332
#     4  10  21  37  59  88 119 150 192 244 298 358
#     4  10  21  36  53  78 111 143 179 229 283 331
#     4   9  16  31  59  82  98 134 185 225 263 319
#     4  10  21  36  54  78 110 148 187 227 276 337
#
# _framework density 19.276325
#
# number of rings (size 3 to 8) (size 9 to 14) (size 15 to 20)
#    0.000    2.500    1.250    0.375    1.750    3.000 
#    0.000    5.625    0.000    0.000    0.000    0.000 
#    0.000    0.000    0.000    0.000    0.000    0.000 
#
# Total GULP energy -793089.359343 kJ/mol
# GULP energy per Si atom -12392.021240 kJ/mol
# Density = 1.923245 g / cm^3
# Si number density = 19.276325 Si / 1000 Ang^3
#
#
#
# Elastic Constant Matrix: (Units=GPa)
#
#
# Indices 1 2 3 4 5 6 
#
# 1 75.0024 31.4788 41.8734 0.0000 0.0000 0.0000
# 2 31.4788 75.3267 52.8317 0.0000 0.0000 0.0000
# 3 41.8734 52.8317 106.0242 0.0000 0.0000 0.0000
# 4 0.0000 0.0000 0.0000 29.2741 0.0000 0.0000
# 5 0.0000 0.0000 0.0000 0.0000 29.5631 0.0000
# 6 0.0000 0.0000 0.0000 0.0000 0.0000 25.3149
#
#
#
# Elastic Compliance Matrix: (Units=1/GPa)
#
#
# Indices 1 2 3 4 5 6 
#
# 1 0.017804 -0.003856 -0.005110 0.000000 0.000000 0.000000
# 2 -0.003856 0.021243 -0.009062 0.000000 0.000000 0.000000
# 3 -0.005110 -0.009062 0.015966 0.000000 0.000000 0.000000
# 4 0.000000 0.000000 0.000000 0.034160 0.000000 0.000000
# 5 0.000000 0.000000 0.000000 0.000000 0.033826 0.000000
# 6 0.000000 0.000000 0.000000 0.000000 0.000000 0.039502
#
#
# Mechanical properties :
#
#
# Convention : Reuss Voigt Hill
#
# Bulk Modulus (GPa) = 52.75479 56.52456 54.63968
# Shear Modulus (GPa) = 24.40482 25.50838 24.95660
#
# Velocity S-wave (km/s) = 3.56202 3.64167 3.60206
# Velocity P-wave (km/s) = 6.65916 6.86071 6.76068
#
# Compressibility (1/GPa) = 0.01895562
#
# Stress axis : x y z
#
# Youngs Moduli (GPa) = 56.16608 47.07409 62.63406
#
# Poissons Ratio (x) = 0.18153 0.32006
# Poissons Ratio (y) = 0.21660 0.56761
# Poissons Ratio (z) = 0.28701 0.42660
#
# Static dielectric constant tensor:
#      x y z
#    x 3.572940 0.000000 0.000000 
#    y 0.000000 3.556020 0.000000 
#    z 0.000000 0.000000 3.436520 
# 
# 
# High freq. dielectric constant tensor:
#      x y z
#    x 1.748540 0.000000 0.000000 
#    y 0.000000 1.729580 0.000000 
#    z 0.000000 0.000000 1.744150 
# 
# From -- ./inp_files/15838.got.cif
#   From: 2010.03.12/outbox.cif.g09.slc.cpg/sg62_8_cif.got.tgz:15838.got - 2010.04.10 19:12:36.
