data_PCOD8253700
_publ_section_title
;
Structure prediction by ZEFSAII (Michael W. Deem and Ramdas Pophale) SiO2 
 PCOD8253700
Probable space group: P N M A
;
_chemical_formula_sum "Si O2"
_cell_formula_units_Z 48
_cell_length_a 30.261069
_cell_length_b 9.028368
_cell_length_c 9.273727
_cell_angle_alpha 90.000000
_cell_angle_beta 90.000000
_cell_angle_gamma 90.000000
_cell_volume 2533.657028
_symmetry_space_group_name_H-M "P N M A"
_symmetry_group_IT_number 62
_symmetry_cell_setting 'orthorhombic'
loop_
_space_group_symop_operation_xyz
x,y,z
1/2-x,-y,1/2+z
1/2+x,1/2-y,1/2-z
-x,1/2+y,-z
-x,-y,-z
1/2+x,y,1/2-z
1/2-x,1/2+y,1/2+z
x,1/2-y,z
loop_
_atom_site_type_symbol
_atom_site_label
_atom_site_fract_x
_atom_site_fract_y
_atom_site_fract_z
Si Si1 0.790881 0.582621 0.928644
Si Si2 0.379961 0.079403 0.599390
Si Si3 0.216252 0.083007 0.405916
Si Si4 0.882471 0.578397 0.608026
Si Si5 0.462891 0.575722 0.095472
Si Si6 0.463445 0.422738 0.403409
O O1 0.801263 0.750000 0.974281
O O2 0.834838 0.489884 0.960276
O O3 0.776492 0.571676 0.763911
O O4 0.750198 0.526697 0.021530
O O5 0.371324 0.250000 0.631612
O O6 0.416219 0.054930 0.477004
O O7 0.396948 0.007675 0.748198
O O8 0.224578 0.250000 0.461304
O O9 0.166413 0.030797 0.444181
O O10 0.881789 0.750000 0.652757
O O11 0.915851 0.544965 0.478969
O O12 0.472740 0.750000 0.109927
O O13 0.462157 0.501422 0.250250
O O14 0.500000 0.500000 0.000000
O O15 0.500000 0.500000 0.500000
O O16 0.475199 0.250000 0.384110
#
# Coordination Sequence:
#
# PCOD8253700 Si02
#       6
#     8   8   8   8   8   8
#     4  10  21  36  56  82 111 146 185 226 276 331
#     4  10  21  37  58  83 111 145 185 230 278 328
#     4   9  19  36  55  79 111 144 183 229 274 324
#     4   9  20  38  58  81 111 147 186 229 277 330
#     4  11  23  39  60  86 116 150 187 229 279 334
#     4  11  24  40  59  85 115 148 188 233 281 333
#
# _framework density 18.944946999999999
#
# number of rings (size 3 to 8) (size 9 to 14) (size 15 to 20)
#    0.000    2.000    0.000    4.000    0.000   11.333 
#    0.000    3.333    0.000    0.000    0.000    0.000 
#    0.000    0.000    0.000    0.000    0.000    0.000 
#
# Total GULP energy -595361.821437 kJ/mol
# GULP energy per Si atom -12403.371280 kJ/mol
# Density = 1.890183 g / cm^3
# Si number density = 18.944947 Si / 1000 Ang^3
#
#
#
# Elastic Constant Matrix: (Units=GPa)
#
#
# Indices 1 2 3 4 5 6 
#
# 1 117.6601 77.9761 74.8584 0.0000 0.0000 0.0000
# 2 77.9761 135.6488 81.1123 0.0000 0.0000 0.0000
# 3 74.8584 81.1123 120.8999 0.0000 0.0000 0.0000
# 4 0.0000 0.0000 0.0000 38.9255 0.0000 0.0000
# 5 0.0000 0.0000 0.0000 0.0000 32.0187 0.0000
# 6 0.0000 0.0000 0.0000 0.0000 0.0000 34.3965
#
#
#
# Elastic Compliance Matrix: (Units=1/GPa)
#
#
# Indices 1 2 3 4 5 6 
#
# 1 0.016174 -0.005526 -0.006307 0.000000 0.000000 0.000000
# 2 -0.005526 0.014199 -0.006104 0.000000 0.000000 0.000000
# 3 -0.006307 -0.006104 0.016272 0.000000 0.000000 0.000000
# 4 0.000000 0.000000 0.000000 0.025690 0.000000 0.000000
# 5 0.000000 0.000000 0.000000 0.000000 0.031232 0.000000
# 6 0.000000 0.000000 0.000000 0.000000 0.000000 0.029073
#
#
# Mechanical properties :
#
#
# Convention : Reuss Voigt Hill
#
# Bulk Modulus (GPa) = 92.85380 93.56694 93.21037
# Shear Modulus (GPa) = 29.05211 30.41894 29.73553
#
# Velocity S-wave (km/s) = 3.92024 4.01140 3.96609
# Velocity P-wave (km/s) = 8.34326 8.42325 8.38335
#
# Compressibility (1/GPa) = 0.01076962
#
# Stress axis : x y z
#
# Youngs Moduli (GPa) = 61.82724 70.42876 61.45520
#
# Poissons Ratio (x) = 0.38919 0.38761
# Poissons Ratio (y) = 0.34166 0.37515
# Poissons Ratio (z) = 0.38995 0.42992
#
# Static dielectric constant tensor:
#      x y z
#    x 3.677200 0.000000 0.000000 
#    y 0.000000 3.665860 0.000000 
#    z 0.000000 0.000000 3.169190 
# 
# 
# High freq. dielectric constant tensor:
#      x y z
#    x 1.749130 0.000000 0.000000 
#    y 0.000000 1.749130 0.000000 
#    z 0.000000 0.000000 1.733910 
# 
# From -- ./inp_files/10234.got.cif
#   From: 2010.03.12/outbox.cif.g09.slc.cpg/sg62_6_cif.got.tgz:10234.got - 2010.04.10 19:12:36.
