data_PCOD8253009
_publ_section_title
;
Structure prediction by ZEFSAII (Michael W. Deem and Ramdas Pophale) SiO2 
 PCOD8253009
Probable space group: P N M A
;
_chemical_formula_sum "Si O2"
_cell_formula_units_Z 40
_cell_length_a 13.634024
_cell_length_b 8.875295
_cell_length_c 17.475949
_cell_angle_alpha 90.000000
_cell_angle_beta 90.000000
_cell_angle_gamma 90.000000
_cell_volume 2114.694423
_symmetry_space_group_name_H-M "P N M A"
_symmetry_group_IT_number 62
_symmetry_cell_setting 'orthorhombic'
loop_
_space_group_symop_operation_xyz
x,y,z
1/2-x,-y,1/2+z
1/2+x,1/2-y,1/2-z
-x,1/2+y,-z
-x,-y,-z
1/2+x,y,1/2-z
1/2-x,1/2+y,1/2+z
x,1/2-y,z
loop_
_atom_site_type_symbol
_atom_site_label
_atom_site_fract_x
_atom_site_fract_y
_atom_site_fract_z
Si Si1 0.208342 0.425949 0.533232
Si Si2 0.822864 0.924367 0.188845
Si Si3 0.601574 0.075383 0.520156
Si Si4 0.585837 0.573096 0.833208
Si Si5 0.364430 0.925135 0.866916
O O1 0.225290 0.250000 0.543639
O O2 0.314324 0.503522 0.532327
O O3 0.148387 0.486824 0.604255
O O4 0.148346 0.463999 0.456338
O O5 0.825143 0.750000 0.212883
O O6 0.876174 0.953979 0.108788
O O7 0.880452 0.024284 0.249599
O O8 0.710191 0.977546 0.184033
O O9 0.596084 0.250000 0.500196
O O10 0.500000 0.000000 0.500000
O O11 0.600785 0.750000 0.844778
O O12 0.472761 0.526909 0.842292
O O13 0.343204 0.750000 0.851213
#
# Coordination Sequence:
#
# PCOD8253009 Si02
#       5
#     8   8   8   8   8
#     4  10  20  36  58  83 111 143 184 230 275 329
#     4  10  22  38  56  81 112 145 183 228 275 324
#     4  10  21  38  59  82 111 149 190 231 277 329
#     4  11  22  36  57  84 113 145 182 225 276 331
#     4   9  20  38  58  80 109 146 183 224 275 327
#
# _framework density 18.915261999999998
#
# number of rings (size 3 to 8) (size 9 to 14) (size 15 to 20)
#    0.000    2.000    0.000    3.000    0.000    6.400 
#    0.000    4.000    0.000    0.000    0.000    0.000 
#    0.000    0.000    0.000    0.000    0.000    0.000 
#
# Total GULP energy -496222.479327 kJ/mol
# GULP energy per Si atom -12405.561983 kJ/mol
# Density = 1.887221 g / cm^3
# Si number density = 18.915262 Si / 1000 Ang^3
#
#
#
# Elastic Constant Matrix: (Units=GPa)
#
#
# Indices 1 2 3 4 5 6 
#
# 1 161.3505 65.6694 62.0841 0.0000 0.0000 0.0000
# 2 65.6694 91.4109 41.5565 0.0000 0.0000 0.0000
# 3 62.0841 41.5565 69.0947 0.0000 0.0000 0.0000
# 4 0.0000 0.0000 0.0000 32.7376 0.0000 0.0000
# 5 0.0000 0.0000 0.0000 0.0000 26.7809 0.0000
# 6 0.0000 0.0000 0.0000 0.0000 0.0000 36.8699
#
#
#
# Elastic Compliance Matrix: (Units=1/GPa)
#
#
# Indices 1 2 3 4 5 6 
#
# 1 0.010697 -0.004563 -0.006868 0.000000 0.000000 0.000000
# 2 -0.004563 0.017003 -0.006126 0.000000 0.000000 0.000000
# 3 -0.006868 -0.006126 0.024328 0.000000 0.000000 0.000000
# 4 0.000000 0.000000 0.000000 0.030546 0.000000 0.000000
# 5 0.000000 0.000000 0.000000 0.000000 0.037340 0.000000
# 6 0.000000 0.000000 0.000000 0.000000 0.000000 0.027122
#
#
# Mechanical properties :
#
#
# Convention : Reuss Voigt Hill
#
# Bulk Modulus (GPa) = 59.11980 73.38625 66.25303
# Shear Modulus (GPa) = 26.62576 29.44741 28.03659
#
# Velocity S-wave (km/s) = 3.75591 3.94992 3.85414
# Velocity P-wave (km/s) = 7.08040 7.72555 7.41000
#
# Compressibility (1/GPa) = 0.01691481
#
# Stress axis : x y z
#
# Youngs Moduli (GPa) = 93.48216 58.81464 41.10439
#
# Poissons Ratio (x) = 0.26836 0.28229
# Poissons Ratio (y) = 0.42654 0.25182
# Poissons Ratio (z) = 0.64200 0.36031
#
# Static dielectric constant tensor:
#      x y z
#    x 3.527150 0.000000 0.000000 
#    y 0.000000 3.612220 0.000000 
#    z 0.000000 0.000000 3.418550 
# 
# 
# High freq. dielectric constant tensor:
#      x y z
#    x 1.745310 0.000000 0.000000 
#    y 0.000000 1.748500 0.000000 
#    z 0.000000 0.000000 1.732220 
# 
# From -- ./inp_files/22769.got.cif
#   From: 2010.03.12/outbox.cif.g09.slc.cpg/sg62_12_cif.got.tgz:22769.got - 2010.04.10 19:12:36.
