data_PCOD8253880
_publ_section_title
;
Structure prediction by ZEFSAII (Michael W. Deem and Ramdas Pophale) SiO2 
 PCOD8253880
Probable space group: P N M A
;
_chemical_formula_sum "Si O2"
_cell_formula_units_Z 40
_cell_length_a 15.000657
_cell_length_b 9.070805
_cell_length_c 14.896659
_cell_angle_alpha 90.000000
_cell_angle_beta 90.000000
_cell_angle_gamma 90.000000
_cell_volume 2026.959111
_symmetry_space_group_name_H-M "P N M A"
_symmetry_group_IT_number 62
_symmetry_cell_setting 'orthorhombic'
loop_
_space_group_symop_operation_xyz
x,y,z
1/2-x,-y,1/2+z
1/2+x,1/2-y,1/2-z
-x,1/2+y,-z
-x,-y,-z
1/2+x,y,1/2-z
1/2-x,1/2+y,1/2+z
x,1/2-y,z
loop_
_atom_site_type_symbol
_atom_site_label
_atom_site_fract_x
_atom_site_fract_y
_atom_site_fract_z
Si Si1 0.228974 0.577246 0.961098
Si Si2 0.494887 0.581826 0.748913
Si Si3 0.573481 0.084331 0.053808
Si Si4 0.660737 0.578322 0.341468
Si Si5 0.174437 0.074928 0.783392
O O1 0.227344 0.750000 0.935916
O O2 0.329816 0.517087 0.967254
O O3 0.179018 0.486523 0.884219
O O4 0.183290 0.545214 0.055621
O O5 0.516222 0.750000 0.721177
O O6 0.441805 0.573328 0.841065
O O7 0.430039 0.510224 0.675366
O O8 0.586000 0.492076 0.760936
O O9 0.569903 0.250000 0.018083
O O10 0.500000 0.000000 0.000000
O O11 0.642563 0.750000 0.324583
O O12 0.741077 0.524689 0.276649
O O13 0.165945 0.250000 0.785202
#
# Coordination Sequence:
#
# PCOD8253880 Si02
#       5
#     8   8   8   8   8
#     4  10  21  40  62  87 122 161 202 252 306 362
#     4  11  23  39  62  89 122 163 203 250 305 364
#     4  10  21  37  60  90 122 157 200 252 305 360
#     4  10  22  40  63  89 122 162 203 254 308 360
#     4  11  23  40  63  91 123 161 205 254 307 364
#
# _framework density 19.733993999999999
#
# number of rings (size 3 to 8) (size 9 to 14) (size 15 to 20)
#    0.000    1.600    2.000    2.400    0.000    6.400 
#    0.000    0.000    0.000    0.000    0.000    0.000 
#    0.000    0.000    0.000    0.000    0.000    0.000 
#
# Total GULP energy -496169.401359 kJ/mol
# GULP energy per Si atom -12404.235034 kJ/mol
# Density = 1.968908 g / cm^3
# Si number density = 19.733994 Si / 1000 Ang^3
#
#
#
# Elastic Constant Matrix: (Units=GPa)
#
#
# Indices 1 2 3 4 5 6 
#
# 1 66.1087 23.8341 -8.1746 0.0000 0.0000 0.0000
# 2 23.8341 68.5603 21.2018 0.0000 0.0000 0.0000
# 3 -8.1746 21.2018 57.9270 0.0000 0.0000 0.0000
# 4 0.0000 0.0000 0.0000 32.8656 0.0000 0.0000
# 5 0.0000 0.0000 0.0000 0.0000 37.9469 0.0000
# 6 0.0000 0.0000 0.0000 0.0000 0.0000 37.2127
#
#
#
# Elastic Compliance Matrix: (Units=1/GPa)
#
#
# Indices 1 2 3 4 5 6 
#
# 1 0.018826 -0.008306 0.005697 0.000000 0.000000 0.000000
# 2 -0.008306 0.020112 -0.008533 0.000000 0.000000 0.000000
# 3 0.005697 -0.008533 0.021190 0.000000 0.000000 0.000000
# 4 0.000000 0.000000 0.000000 0.030427 0.000000 0.000000
# 5 0.000000 0.000000 0.000000 0.000000 0.026353 0.000000
# 6 0.000000 0.000000 0.000000 0.000000 0.000000 0.026873
#
#
# Mechanical properties :
#
#
# Convention : Reuss Voigt Hill
#
# Bulk Modulus (GPa) = 26.42529 29.59097 28.00813
# Shear Modulus (GPa) = 27.98300 31.98735 29.98518
#
# Velocity S-wave (km/s) = 3.76973 4.03044 3.90226
# Velocity P-wave (km/s) = 5.68926 6.05696 5.87599
#
# Compressibility (1/GPa) = 0.03784254
#
# Stress axis : x y z
#
# Youngs Moduli (GPa) = 53.11903 49.72127 47.19140
#
# Poissons Ratio (x) = 0.41299 -0.26884
# Poissons Ratio (y) = 0.44122 0.40270
# Poissons Ratio (z) = -0.30261 0.42429
#
# Static dielectric constant tensor:
#      x y z
#    x 3.706320 0.000000 0.000000 
#    y 0.000000 3.641850 0.000000 
#    z 0.000000 0.000000 3.391050 
# 
# 
# High freq. dielectric constant tensor:
#      x y z
#    x 1.780440 0.000000 0.000000 
#    y 0.000000 1.766190 0.000000 
#    z 0.000000 0.000000 1.773940 
# 
# From -- ./inp_files/18598.got.cif
#   From: 2010.03.12/outbox.cif.g09.slc.cpg/sg62_10_cif.got.tgz:18598.got - 2010.04.10 19:12:36.
