data_PCOD8253149
_publ_section_title
;
Structure prediction by ZEFSAII (Michael W. Deem and Ramdas Pophale) SiO2 
 PCOD8253149
Probable space group: P N M A
;
_chemical_formula_sum "Si O2"
_cell_formula_units_Z 48
_cell_length_a 9.154729
_cell_length_b 14.121375
_cell_length_c 19.530748
_cell_angle_alpha 90.000000
_cell_angle_beta 90.000000
_cell_angle_gamma 90.000000
_cell_volume 2524.883564
_symmetry_space_group_name_H-M "P N M A"
_symmetry_group_IT_number 62
_symmetry_cell_setting 'orthorhombic'
loop_
_space_group_symop_operation_xyz
x,y,z
1/2-x,-y,1/2+z
1/2+x,1/2-y,1/2-z
-x,1/2+y,-z
-x,-y,-z
1/2+x,y,1/2-z
1/2-x,1/2+y,1/2+z
x,1/2-y,z
loop_
_atom_site_type_symbol
_atom_site_label
_atom_site_fract_x
_atom_site_fract_y
_atom_site_fract_z
Si Si1 0.638212 0.855912 0.945388
Si Si2 0.862353 0.646322 0.157377
Si Si3 0.848693 0.641642 0.470944
Si Si4 0.157823 0.480091 0.972231
Si Si5 0.879378 0.420564 0.755079
Si Si6 0.372067 0.513229 0.158516
O O1 0.668949 0.750000 0.921181
O O2 0.597887 0.914605 0.878428
O O3 0.512393 0.861988 0.001789
O O4 0.782033 0.898064 0.979322
O O5 0.855919 0.750000 0.121100
O O6 0.844325 0.558838 0.105169
O O7 0.730899 0.645364 0.212203
O O8 0.019788 0.640613 0.194094
O O9 0.789461 0.750000 0.469829
O O10 0.750413 0.577144 0.521455
O O11 0.853005 0.600691 0.394236
O O12 0.000000 0.500000 0.000000
O O13 0.777394 0.493118 0.797831
O O14 0.985656 0.477143 0.705016
#
# Coordination Sequence:
#
# PCOD8253149 Si02
#       6
#     8   8   8   8   8   8
#     4  10  20  37  60  81 103 142 188 226 267 322
#     4  11  21  35  54  80 111 143 178 217 265 322
#     4  10  21  37  59  82 108 144 185 225 269 322
#     4  11  22  35  55  84 115 142 173 227 284 324
#     4  10  22  35  53  77 109 147 179 215 262 321
#     4  10  20  37  55  78 110 140 177 222 269 319
#
# _framework density 19.010777999999998
#
# number of rings (size 3 to 8) (size 9 to 14) (size 15 to 20)
#    0.000    1.667    0.000    7.000    0.000    8.000 
#    0.000    0.833    0.000    4.000    0.000    0.000 
#    0.000    0.000    0.000    0.000    0.000    0.000 
#
# Total GULP energy -595126.993337 kJ/mol
# GULP energy per Si atom -12398.479028 kJ/mol
# Density = 1.896751 g / cm^3
# Si number density = 19.010778 Si / 1000 Ang^3
#
#
#
# Elastic Constant Matrix: (Units=GPa)
#
#
# Indices 1 2 3 4 5 6 
#
# 1 121.7592 45.0742 39.9637 0.0000 0.0000 0.0000
# 2 45.0742 152.8539 57.2669 0.0000 0.0000 0.0000
# 3 39.9637 57.2669 103.3751 0.0000 0.0000 0.0000
# 4 0.0000 0.0000 0.0000 13.2658 0.0000 0.0000
# 5 0.0000 0.0000 0.0000 0.0000 30.6731 0.0000
# 6 0.0000 0.0000 0.0000 0.0000 0.0000 19.8237
#
#
#
# Elastic Compliance Matrix: (Units=1/GPa)
#
#
# Indices 1 2 3 4 5 6 
#
# 1 0.009807 -0.001857 -0.002763 0.000000 0.000000 0.000000
# 2 -0.001857 0.008607 -0.004050 0.000000 0.000000 0.000000
# 3 -0.002763 -0.004050 0.012985 0.000000 0.000000 0.000000
# 4 0.000000 0.000000 0.000000 0.075382 0.000000 0.000000
# 5 0.000000 0.000000 0.000000 0.000000 0.032602 0.000000
# 6 0.000000 0.000000 0.000000 0.000000 0.000000 0.050445
#
#
# Mechanical properties :
#
#
# Convention : Reuss Voigt Hill
#
# Bulk Modulus (GPa) = 71.12441 73.62200 72.37321
# Shear Modulus (GPa) = 23.60112 28.46473 26.03293
#
# Velocity S-wave (km/s) = 3.52726 3.87369 3.70452
# Velocity P-wave (km/s) = 7.35409 7.66928 7.51334
#
# Compressibility (1/GPa) = 0.01405987
#
# Stress axis : x y z
#
# Youngs Moduli (GPa) = 101.96691 116.18143 77.01032
#
# Poissons Ratio (x) = 0.21574 0.21275
# Poissons Ratio (y) = 0.18935 0.31191
# Poissons Ratio (z) = 0.28170 0.47057
#
# Static dielectric constant tensor:
#      x y z
#    x 3.641660 0.000000 0.000000 
#    y 0.000000 3.546200 0.000000 
#    z 0.000000 0.000000 3.550920 
# 
# 
# High freq. dielectric constant tensor:
#      x y z
#    x 1.756480 0.000000 0.000000 
#    y 0.000000 1.726340 0.000000 
#    z 0.000000 0.000000 1.737880 
# 
# From -- ./inp_files/22207.got.cif
#   From: 2010.03.12/outbox.cif.g09.slc.cpg/sg62_12_cif.got.tgz:22207.got - 2010.04.10 19:12:36.
