data_PCOD8253068
_publ_section_title
;
Structure prediction by ZEFSAII (Michael W. Deem and Ramdas Pophale) SiO2 
 PCOD8253068
Probable space group: P N M A
;
_chemical_formula_sum "Si O2"
_cell_formula_units_Z 64
_cell_length_a 28.554300
_cell_length_b 8.754815
_cell_length_c 12.617834
_cell_angle_alpha 90.000000
_cell_angle_beta 90.000000
_cell_angle_gamma 90.000000
_cell_volume 3154.302215
_symmetry_space_group_name_H-M "P N M A"
_symmetry_group_IT_number 62
_symmetry_cell_setting 'orthorhombic'
loop_
_space_group_symop_operation_xyz
x,y,z
1/2-x,-y,1/2+z
1/2+x,1/2-y,1/2-z
-x,1/2+y,-z
-x,-y,-z
1/2+x,y,1/2-z
1/2-x,1/2+y,1/2+z
x,1/2-y,z
loop_
_atom_site_type_symbol
_atom_site_label
_atom_site_fract_x
_atom_site_fract_y
_atom_site_fract_z
Si Si1 0.170081 0.074237 0.776325
Si Si2 0.065762 0.424700 0.734537
Si Si3 0.196680 0.931061 0.992903
Si Si4 0.015554 0.930639 0.109329
Si Si5 0.636294 0.931472 0.110820
Si Si6 0.208792 0.931581 0.564259
Si Si7 0.119322 0.568602 0.157080
Si Si8 0.450309 0.071840 0.019129
O O1 0.184977 0.250000 0.759956
O O2 0.114486 0.059074 0.797813
O O3 0.184092 0.978874 0.673170
O O4 0.196696 0.009005 0.878230
O O5 0.057537 0.250000 0.698336
O O6 0.069509 0.533081 0.633973
O O7 0.022511 0.483217 0.804550
O O8 0.196960 0.750000 0.978903
O O9 0.151741 0.986970 0.060528
O O10 0.241682 0.984872 0.057930
O O11 0.016426 0.750000 0.098299
O O12 0.066665 0.994850 0.141431
O O13 0.000000 0.000000 0.000000
O O14 0.636774 0.750000 0.106803
O O15 0.640875 0.992519 0.231418
O O16 0.678221 0.991049 0.036029
O O17 0.586638 0.991971 0.066456
O O18 0.215349 0.750000 0.562425
O O19 0.117839 0.750000 0.161482
O O20 0.455944 0.250000 0.006176
O O21 0.500000 0.000000 0.000000
#
# Coordination Sequence:
#
# PCOD8253068 Si02
#       8
#     8   8   8   8   8   8   8   8
#     4  11  23  41  64  90 126 164 203 257 314 373
#     4  10  21  37  59  87 120 158 204 258 310 363
#     4  11  24  40  63  93 124 160 207 258 312 379
#     4  10  20  36  59  86 120 161 205 250 299 359
#     4   9  19  37  60  85 117 156 199 248 308 371
#     4  11  23  41  65  92 120 158 206 259 317 378
#     4   9  19  37  60  87 121 162 202 246 302 367
#     4  11  21  35  57  86 120 159 202 250 305 370
#
# _framework density 20.289747999999999
#
# number of rings (size 3 to 8) (size 9 to 14) (size 15 to 20)
#    0.000    1.750    1.250    3.000    1.750    3.000 
#    0.000    0.625    0.000    4.500    0.000    0.000 
#    0.000    0.000    0.000    0.000    0.000    0.000 
#
# Total GULP energy -793706.294082 kJ/mol
# GULP energy per Si atom -12401.660845 kJ/mol
# Density = 2.024357 g / cm^3
# Si number density = 20.289748 Si / 1000 Ang^3
#
#
#
# Elastic Constant Matrix: (Units=GPa)
#
#
# Indices 1 2 3 4 5 6 
#
# 1 116.9310 16.9059 37.4450 0.0000 0.0000 0.0000
# 2 16.9059 35.7534 14.6179 0.0000 0.0000 0.0000
# 3 37.4450 14.6179 129.2028 0.0000 0.0000 0.0000
# 4 0.0000 0.0000 0.0000 31.4030 0.0000 0.0000
# 5 0.0000 0.0000 0.0000 0.0000 37.8447 0.0000
# 6 0.0000 0.0000 0.0000 0.0000 0.0000 28.7148
#
#
#
# Elastic Compliance Matrix: (Units=1/GPa)
#
#
# Indices 1 2 3 4 5 6 
#
# 1 0.009865 -0.003665 -0.002444 0.000000 0.000000 0.000000
# 2 -0.003665 0.030688 -0.002410 0.000000 0.000000 0.000000
# 3 -0.002444 -0.002410 0.008721 0.000000 0.000000 0.000000
# 4 0.000000 0.000000 0.000000 0.031844 0.000000 0.000000
# 5 0.000000 0.000000 0.000000 0.000000 0.026424 0.000000
# 6 0.000000 0.000000 0.000000 0.000000 0.000000 0.034825
#
#
# Mechanical properties :
#
#
# Convention : Reuss Voigt Hill
#
# Bulk Modulus (GPa) = 31.02236 46.64718 38.83477
# Shear Modulus (GPa) = 29.38592 33.78706 31.58649
#
# Velocity S-wave (km/s) = 3.80980 4.08515 3.94987
# Velocity P-wave (km/s) = 5.88860 6.72991 6.32326
#
# Compressibility (1/GPa) = 0.03223482
#
# Stress axis : x y z
#
# Youngs Moduli (GPa) = 101.37166 32.58640 114.66847
#
# Poissons Ratio (x) = 0.11943 0.28028
# Poissons Ratio (y) = 0.37154 0.27632
# Poissons Ratio (z) = 0.24778 0.07853
#
# Static dielectric constant tensor:
#      x y z
#    x 3.988290 0.000000 0.000000 
#    y 0.000000 3.769310 0.000000 
#    z 0.000000 0.000000 4.217060 
# 
# 
# High freq. dielectric constant tensor:
#      x y z
#    x 1.807760 0.000000 0.000000 
#    y 0.000000 1.767650 0.000000 
#    z 0.000000 0.000000 1.802340 
# 
# From -- ./inp_files/15904.got.cif
#   From: 2010.03.12/outbox.cif.g09.slc.cpg/sg62_8_cif.got.tgz:15904.got - 2010.04.10 19:12:36.
