data_PCOD8253851
_publ_section_title
;
Structure prediction by ZEFSAII (Michael W. Deem and Ramdas Pophale) SiO2 
 PCOD8253851
Probable space group: P N M A
;
_chemical_formula_sum "Si O2"
_cell_formula_units_Z 44
_cell_length_a 5.159835
_cell_length_b 26.163238
_cell_length_c 15.865571
_cell_angle_alpha 90.000000
_cell_angle_beta 90.000000
_cell_angle_gamma 90.000000
_cell_volume 2141.820213
_symmetry_space_group_name_H-M "P N M A"
_symmetry_group_IT_number 62
_symmetry_cell_setting 'orthorhombic'
loop_
_space_group_symop_operation_xyz
x,y,z
1/2-x,-y,1/2+z
1/2+x,1/2-y,1/2-z
-x,1/2+y,-z
-x,-y,-z
1/2+x,y,1/2-z
1/2-x,1/2+y,1/2+z
x,1/2-y,z
loop_
_atom_site_type_symbol
_atom_site_label
_atom_site_fract_x
_atom_site_fract_y
_atom_site_fract_z
Si Si1 0.775578 0.078167 0.195624
Si Si2 0.443497 0.750000 0.693801
Si Si3 0.535175 0.839511 0.571939
Si Si4 0.183667 0.462305 0.804005
Si Si5 0.778244 0.633754 0.089037
Si Si6 0.232654 0.308056 0.590989
O O1 0.494054 0.089220 0.234360
O O2 0.810367 0.115179 0.116870
O O3 0.794358 0.020160 0.162119
O O4 0.228617 0.750000 0.766064
O O5 0.406719 0.800619 0.637897
O O6 0.308868 0.863969 0.512922
O O7 0.737239 0.809552 0.511221
O O8 0.399626 0.452072 0.733271
O O9 0.226791 0.425087 0.883001
O O10 0.520479 0.661740 0.120026
O O11 0.018569 0.663984 0.132838
O O12 0.213331 0.250000 0.622451
#
# Coordination Sequence:
#
# PCOD8253851 Si02
#       6
#     8   4   8   8   8   8
#     4  10  22  37  57  82 120 160 191 244 293 339
#     4  12  26  36  58  86 122 162 196 228 276 344
#     4  10  23  37  58  86 120 153 206 231 285 333
#     4  10  21  41  62  85 116 152 194 240 306 357
#     4  10  22  36  63  87 111 160 190 247 287 348
#     4  10  21  37  59  85 115 150 192 233 296 334
#
# _framework density 20.543275999999999
#
# number of rings (size 3 to 8) (size 9 to 14) (size 15 to 20)
#    1.091    0.727    0.909    2.727    6.364    0.727 
#    0.000    0.909    0.000   10.909    0.000    0.000 
#    0.000    0.000    0.000    0.000    0.000    0.000 
#
# Total GULP energy -545517.928132 kJ/mol
# GULP energy per Si atom -12398.134730 kJ/mol
# Density = 2.049652 g / cm^3
# Si number density = 20.543276 Si / 1000 Ang^3
#
#
#
# Elastic Constant Matrix: (Units=GPa)
#
#
# Indices 1 2 3 4 5 6 
#
# 1 94.5716 7.6625 -3.4259 0.0000 0.0000 0.0000
# 2 7.6625 104.8701 29.6344 0.0000 0.0000 0.0000
# 3 -3.4259 29.6344 33.4593 0.0000 0.0000 0.0000
# 4 0.0000 0.0000 0.0000 47.2412 0.0000 0.0000
# 5 0.0000 0.0000 0.0000 0.0000 9.8021 0.0000
# 6 0.0000 0.0000 0.0000 0.0000 0.0000 26.4296
#
#
#
# Elastic Compliance Matrix: (Units=1/GPa)
#
#
# Indices 1 2 3 4 5 6 
#
# 1 0.010780 -0.001467 0.002403 0.000000 0.000000 0.000000
# 2 -0.001467 0.012918 -0.011592 0.000000 0.000000 0.000000
# 3 0.002403 -0.011592 0.040400 0.000000 0.000000 0.000000
# 4 0.000000 0.000000 0.000000 0.021168 0.000000 0.000000
# 5 0.000000 0.000000 0.000000 0.000000 0.102019 0.000000
# 6 0.000000 0.000000 0.000000 0.000000 0.000000 0.037836
#
#
# Mechanical properties :
#
#
# Convention : Reuss Voigt Hill
#
# Bulk Modulus (GPa) = 23.37176 33.40478 28.38827
# Shear Modulus (GPa) = 19.17952 29.96325 24.57138
#
# Velocity S-wave (km/s) = 3.05883 3.82323 3.46219
# Velocity P-wave (km/s) = 4.88639 5.98209 5.46179
#
# Compressibility (1/GPa) = 0.04278667
#
# Stress axis : x y z
#
# Youngs Moduli (GPa) = 92.76550 77.40890 24.75257
#
# Poissons Ratio (x) = 0.11353 -0.05947
# Poissons Ratio (y) = 0.13605 0.28693
# Poissons Ratio (z) = -0.22289 0.89731
#
# Static dielectric constant tensor:
#      x y z
#    x 3.687450 0.000000 0.000000 
#    y 0.000000 3.776540 0.000000 
#    z 0.000000 0.000000 3.276540 
# 
# 
# High freq. dielectric constant tensor:
#      x y z
#    x 1.810870 0.000000 0.000000 
#    y 0.000000 1.814130 0.000000 
#    z 0.000000 0.000000 1.770220 
# 
# From -- ./inp_files/21571.got.cif
#   From: 2010.03.12/outbox.cif.g09.slc.cpg/sg62_11_cif.got.tgz:21571.got - 2010.04.10 19:12:36.
