data_PCOD8253588
_publ_section_title
;
Structure prediction by ZEFSAII (Michael W. Deem and Ramdas Pophale) SiO2 
 PCOD8253588
Probable space group: P N M A
;
_chemical_formula_sum "Si O2"
_cell_formula_units_Z 64
_cell_length_a 12.976121
_cell_length_b 17.899993
_cell_length_c 13.975718
_cell_angle_alpha 90.000000
_cell_angle_beta 90.000000
_cell_angle_gamma 90.000000
_cell_volume 3246.174611
_symmetry_space_group_name_H-M "P N M A"
_symmetry_group_IT_number 62
_symmetry_cell_setting 'orthorhombic'
loop_
_space_group_symop_operation_xyz
x,y,z
1/2-x,-y,1/2+z
1/2+x,1/2-y,1/2-z
-x,1/2+y,-z
-x,-y,-z
1/2+x,y,1/2-z
1/2-x,1/2+y,1/2+z
x,1/2-y,z
loop_
_atom_site_type_symbol
_atom_site_label
_atom_site_fract_x
_atom_site_fract_y
_atom_site_fract_z
Si Si1 0.030606 0.070083 0.119569
Si Si2 0.937330 0.589646 0.090395
Si Si3 0.763656 0.450419 0.331375
Si Si4 0.768537 0.063092 0.677134
Si Si5 0.139072 0.836101 0.797825
Si Si6 0.264950 0.663852 0.992444
Si Si7 0.125325 0.836184 0.173988
Si Si8 0.880116 0.983992 0.510174
O O1 0.140389 0.046813 0.161473
O O2 0.972879 0.125572 0.192323
O O3 0.045539 0.113122 0.019434
O O4 0.960924 0.997460 0.104746
O O5 0.818194 0.604951 0.114885
O O6 0.007319 0.641184 0.157333
O O7 0.793700 0.511733 0.252316
O O8 0.801446 0.370040 0.293512
O O9 0.817182 0.470178 0.430861
O O10 0.835929 0.124107 0.730973
O O11 0.843629 0.012894 0.612927
O O12 0.121506 0.750000 0.774983
O O13 0.202429 0.848829 0.895168
O O14 0.304284 0.750000 0.000278
O O15 0.359897 0.605552 0.996146
O O16 0.191262 0.641792 0.080569
O O17 0.132084 0.750000 0.196046
O O18 0.000000 0.000000 0.500000
#
# Coordination Sequence:
#
# PCOD8253588 Si02
#       8
#     8   8   8   8   8   8   8   8
#     4  11  21  38  66  97 126 162 214 274 321 372
#     4  11  21  38  66  97 126 162 214 274 321 372
#     4  12  24  41  65  96 132 169 217 264 315 390
#     4  12  24  41  65  96 132 169 217 264 315 390
#     4  11  24  41  66  98 129 168 215 268 329 384
#     4  10  20  41  67  97 129 161 214 272 322 384
#     4  11  24  41  66  98 129 168 215 268 329 384
#     4  12  26  43  63  99 133 173 215 263 321 383
#
# _framework density 19.715513999999999
#
# number of rings (size 3 to 8) (size 9 to 14) (size 15 to 20)
#    0.000    0.750    7.500    0.000    3.500    1.000 
#    0.000    4.375    0.000    0.000    0.000    0.000 
#    0.000    0.000    0.000    0.000    0.000    0.000 
#
# Total GULP energy -793893.144540 kJ/mol
# GULP energy per Si atom -12404.580383 kJ/mol
# Density = 1.967064 g / cm^3
# Si number density = 19.715514 Si / 1000 Ang^3
#
#
#
# Elastic Constant Matrix: (Units=GPa)
#
#
# Indices 1 2 3 4 5 6 
#
# 1 102.6051 27.9929 18.6690 0.0000 0.0000 0.0000
# 2 27.9929 95.4797 31.7854 0.0000 0.0000 0.0000
# 3 18.6690 31.7854 82.3519 0.0000 0.0000 0.0000
# 4 0.0000 0.0000 0.0000 30.5548 0.0000 0.0000
# 5 0.0000 0.0000 0.0000 0.0000 25.2554 0.0000
# 6 0.0000 0.0000 0.0000 0.0000 0.0000 30.5084
#
#
#
# Elastic Compliance Matrix: (Units=1/GPa)
#
#
# Indices 1 2 3 4 5 6 
#
# 1 0.010732 -0.002681 -0.001398 0.000000 0.000000 0.000000
# 2 -0.002681 0.012687 -0.004289 0.000000 0.000000 0.000000
# 3 -0.001398 -0.004289 0.014115 0.000000 0.000000 0.000000
# 4 0.000000 0.000000 0.000000 0.032728 0.000000 0.000000
# 5 0.000000 0.000000 0.000000 0.000000 0.039595 0.000000
# 6 0.000000 0.000000 0.000000 0.000000 0.000000 0.032778
#
#
# Mechanical properties :
#
#
# Convention : Reuss Voigt Hill
#
# Bulk Modulus (GPa) = 48.08111 48.59235 48.33673
# Shear Modulus (GPa) = 30.06519 30.72969 30.39744
#
# Velocity S-wave (km/s) = 3.90930 3.95226 3.93084
# Velocity P-wave (km/s) = 6.69457 6.74740 6.72104
#
# Compressibility (1/GPa) = 0.02079819
#
# Stress axis : x y z
#
# Youngs Moduli (GPa) = 93.17997 78.81895 70.84433
#
# Poissons Ratio (x) = 0.21131 0.09905
# Poissons Ratio (y) = 0.24981 0.30386
# Poissons Ratio (z) = 0.13028 0.33807
#
# Static dielectric constant tensor:
#      x y z
#    x 3.495830 0.000000 0.000000 
#    y 0.000000 3.556420 0.000000 
#    z 0.000000 0.000000 3.721100 
# 
# 
# High freq. dielectric constant tensor:
#      x y z
#    x 1.763010 0.000000 0.000000 
#    y 0.000000 1.761180 0.000000 
#    z 0.000000 0.000000 1.774750 
# 
# From -- ./inp_files/18268.got.cif
#   From: 2010.03.12/outbox.cif.g09.slc.cpg/sg62_10_cif.got.tgz:18268.got - 2010.04.10 19:12:36.
