data_PCOD8253258
_publ_section_title
;
Structure prediction by ZEFSAII (Michael W. Deem and Ramdas Pophale) SiO2 
 PCOD8253258
Probable space group: P N M A
;
_chemical_formula_sum "Si O2"
_cell_formula_units_Z 48
_cell_length_a 9.381236
_cell_length_b 9.229395
_cell_length_c 29.032697
_cell_angle_alpha 90.000000
_cell_angle_beta 90.000000
_cell_angle_gamma 90.000000
_cell_volume 2513.741855
_symmetry_space_group_name_H-M "P N M A"
_symmetry_group_IT_number 62
_symmetry_cell_setting 'orthorhombic'
loop_
_space_group_symop_operation_xyz
x,y,z
1/2-x,-y,1/2+z
1/2+x,1/2-y,1/2-z
-x,1/2+y,-z
-x,-y,-z
1/2+x,y,1/2-z
1/2-x,1/2+y,1/2+z
x,1/2-y,z
loop_
_atom_site_type_symbol
_atom_site_label
_atom_site_fract_x
_atom_site_fract_y
_atom_site_fract_z
Si Si1 0.991755 0.922792 0.135687
Si Si2 0.280208 0.420896 0.120050
Si Si3 0.698510 0.923227 0.711015
Si Si4 0.908378 0.912369 0.035260
Si Si5 0.129928 0.913273 0.519476
Si Si6 0.020039 0.919092 0.701969
O O1 0.995592 0.750000 0.142672
O O2 0.926545 0.971062 0.086684
O O3 0.890119 0.997013 0.172140
O O4 0.149515 0.987999 0.140374
O O5 0.242074 0.250000 0.121563
O O6 0.312334 0.475229 0.068124
O O7 0.417608 0.456884 0.151590
O O8 0.690436 0.750000 0.703969
O O9 0.630816 0.974708 0.759451
O O10 0.861061 0.983501 0.708460
O O11 0.966609 0.750000 0.032647
O O12 0.745073 0.923077 0.020775
O O13 0.000000 0.000000 0.000000
O O14 0.079464 0.750000 0.528551
O O15 0.000000 0.000000 0.500000
O O16 0.004246 0.750000 0.708704
#
# Coordination Sequence:
#
# PCOD8253258 Si02
#       6
#     8   8   8   8   8   8
#     4  11  23  37  56  84 116 149 188 231 281 337
#     4  10  20  38  61  85 113 149 193 237 281 333
#     4  10  20  37  61  85 111 144 183 230 280 334
#     4  10  21  38  57  81 112 150 193 233 274 328
#     4  10  22  37  56  83 116 151 190 234 281 335
#     4   9  19  36  61  89 111 140 187 236 280 328
#
# _framework density 19.095040000000001
#
# number of rings (size 3 to 8) (size 9 to 14) (size 15 to 20)
#    0.000    2.000    1.667    1.500    2.333    4.667 
#    0.000    4.167    0.000    0.000    0.000    0.000 
#    0.000    0.000    0.000    0.000    0.000    0.000 
#
# Total GULP energy -595176.570060 kJ/mol
# GULP energy per Si atom -12399.511876 kJ/mol
# Density = 1.905158 g / cm^3
# Si number density = 19.095040 Si / 1000 Ang^3
#
#
#
# Elastic Constant Matrix: (Units=GPa)
#
#
# Indices 1 2 3 4 5 6 
#
# 1 133.2614 33.9900 49.5719 0.0000 0.0000 0.0000
# 2 33.9900 45.3439 25.4348 0.0000 0.0000 0.0000
# 3 49.5719 25.4348 103.0767 0.0000 0.0000 0.0000
# 4 0.0000 0.0000 0.0000 28.3967 0.0000 0.0000
# 5 0.0000 0.0000 0.0000 0.0000 41.0004 0.0000
# 6 0.0000 0.0000 0.0000 0.0000 0.0000 27.9690
#
#
#
# Elastic Compliance Matrix: (Units=1/GPa)
#
#
# Indices 1 2 3 4 5 6 
#
# 1 0.010277 -0.005724 -0.003530 0.000000 0.000000 0.000000
# 2 -0.005724 0.028784 -0.004350 0.000000 0.000000 0.000000
# 3 -0.003530 -0.004350 0.012473 0.000000 0.000000 0.000000
# 4 0.000000 0.000000 0.000000 0.035215 0.000000 0.000000
# 5 0.000000 0.000000 0.000000 0.000000 0.024390 0.000000
# 6 0.000000 0.000000 0.000000 0.000000 0.000000 0.035754
#
#
# Mechanical properties :
#
#
# Convention : Reuss Voigt Hill
#
# Bulk Modulus (GPa) = 41.10775 55.51950 48.31363
# Shear Modulus (GPa) = 27.44091 30.98556 29.21324
#
# Velocity S-wave (km/s) = 3.79498 4.03265 3.91562
# Velocity P-wave (km/s) = 6.38571 7.12892 6.76752
#
# Compressibility (1/GPa) = 0.02432631
#
# Stress axis : x y z
#
# Youngs Moduli (GPa) = 97.30359 34.74124 80.17535
#
# Poissons Ratio (x) = 0.19885 0.28303
# Poissons Ratio (y) = 0.55693 0.34877
# Poissons Ratio (z) = 0.34350 0.15113
#
# Static dielectric constant tensor:
#      x y z
#    x 3.585230 0.000000 0.000000 
#    y 0.000000 3.266820 0.000000 
#    z 0.000000 0.000000 3.509790 
# 
# 
# High freq. dielectric constant tensor:
#      x y z
#    x 1.750870 0.000000 0.000000 
#    y 0.000000 1.717150 0.000000 
#    z 0.000000 0.000000 1.757690 
# 
# From -- ./inp_files/31953.got.cif
#   From: 2010.03.12/outbox.cif.g09.slc.cpg/sg62_16_cif.got.tgz:31953.got - 2010.04.10 19:12:36.
