data_PCOD8253571
_publ_section_title
;
Structure prediction by ZEFSAII (Michael W. Deem and Ramdas Pophale) SiO2 
 PCOD8253571
Probable space group: P N M A
;
_chemical_formula_sum "Si O2"
_cell_formula_units_Z 56
_cell_length_a 14.874510
_cell_length_b 21.424806
_cell_length_c 9.011231
_cell_angle_alpha 90.000000
_cell_angle_beta 90.000000
_cell_angle_gamma 90.000000
_cell_volume 2871.730554
_symmetry_space_group_name_H-M "P N M A"
_symmetry_group_IT_number 62
_symmetry_cell_setting 'orthorhombic'
loop_
_space_group_symop_operation_xyz
x,y,z
1/2-x,-y,1/2+z
1/2+x,1/2-y,1/2-z
-x,1/2+y,-z
-x,-y,-z
1/2+x,y,1/2-z
1/2-x,1/2+y,1/2+z
x,1/2-y,z
loop_
_atom_site_type_symbol
_atom_site_label
_atom_site_fract_x
_atom_site_fract_y
_atom_site_fract_z
Si Si1 0.782422 0.938366 0.870391
Si Si2 0.046236 0.678313 0.889790
Si Si3 0.143397 0.999226 0.422434
Si Si4 0.561648 0.178525 0.098143
Si Si5 0.539783 0.066679 0.549586
Si Si6 0.516099 0.418998 0.883702
Si Si7 0.256381 0.319748 0.283540
O O1 0.735155 0.871333 0.845014
O O2 0.807509 0.970660 0.716674
O O3 0.715886 0.984796 0.952723
O O4 0.866847 0.923554 0.970406
O O5 0.015936 0.750000 0.929908
O O6 0.154041 0.676499 0.881359
O O7 0.996615 0.654842 0.739569
O O8 0.022547 0.626722 0.013934
O O9 0.089114 0.937343 0.373388
O O10 0.068844 0.045421 0.485861
O O11 0.541381 0.250000 0.079904
O O12 0.667890 0.164248 0.118980
O O13 0.525233 0.151470 0.942020
O O14 0.559975 0.067927 0.724558
O O15 0.500000 0.000000 0.500000
O O16 0.246686 0.250000 0.214400
#
# Coordination Sequence:
#
# PCOD8253571 Si02
#       7
#     8   8   8   8   8   8   8
#     4  12  23  40  62  93 126 164 214 257 315 377
#     4  10  22  41  66  90 124 169 212 260 319 383
#     4  11  24  38  61  88 125 167 203 259 319 373
#     4  10  20  40  66  91 119 163 212 256 312 378
#     4  12  25  39  60  93 130 168 212 262 312 384
#     4  11  23  41  59  89 129 163 206 260 317 372
#     4  10  21  38  65  92 118 158 211 258 306 378
#
# _framework density 19.500437999999999
#
# number of rings (size 3 to 8) (size 9 to 14) (size 15 to 20)
#    0.000    1.143    4.286    1.714    6.000    0.571 
#    2.571    0.000    0.000    0.000    0.000    0.000 
#    0.000    0.000    0.000    0.000    0.000    0.000 
#
# Total GULP energy -694270.953767 kJ/mol
# GULP energy per Si atom -12397.695603 kJ/mol
# Density = 1.945605 g / cm^3
# Si number density = 19.500438 Si / 1000 Ang^3
#
#
#
# Elastic Constant Matrix: (Units=GPa)
#
#
# Indices 1 2 3 4 5 6 
#
# 1 91.5386 35.4119 25.6982 0.0000 0.0000 0.0000
# 2 35.4119 75.5082 38.1422 0.0000 0.0000 0.0000
# 3 25.6982 38.1422 107.9680 0.0000 0.0000 0.0000
# 4 0.0000 0.0000 0.0000 31.3492 0.0000 0.0000
# 5 0.0000 0.0000 0.0000 0.0000 30.2122 0.0000
# 6 0.0000 0.0000 0.0000 0.0000 0.0000 25.3574
#
#
#
# Elastic Compliance Matrix: (Units=1/GPa)
#
#
# Indices 1 2 3 4 5 6 
#
# 1 0.013469 -0.005718 -0.001186 0.000000 0.000000 0.000000
# 2 -0.005718 0.018547 -0.005191 0.000000 0.000000 0.000000
# 3 -0.001186 -0.005191 0.011378 0.000000 0.000000 0.000000
# 4 0.000000 0.000000 0.000000 0.031899 0.000000 0.000000
# 5 0.000000 0.000000 0.000000 0.000000 0.033099 0.000000
# 6 0.000000 0.000000 0.000000 0.000000 0.000000 0.039436
#
#
# Mechanical properties :
#
#
# Convention : Reuss Voigt Hill
#
# Bulk Modulus (GPa) = 52.07045 52.61325 52.34185
# Shear Modulus (GPa) = 28.02362 29.10127 28.56245
#
# Velocity S-wave (km/s) = 3.79499 3.86727 3.83130
# Velocity P-wave (km/s) = 6.77959 6.85421 6.81700
#
# Compressibility (1/GPa) = 0.01920475
#
# Stress axis : x y z
#
# Youngs Moduli (GPa) = 74.24348 53.91571 87.88681
#
# Poissons Ratio (x) = 0.30827 0.10423
# Poissons Ratio (y) = 0.42450 0.45626
# Poissons Ratio (z) = 0.08805 0.27990
#
# Static dielectric constant tensor:
#      x y z
#    x 3.779940 0.000000 0.000000 
#    y 0.000000 3.869910 0.000000 
#    z 0.000000 0.000000 3.523010 
# 
# 
# High freq. dielectric constant tensor:
#      x y z
#    x 1.770040 0.000000 0.000000 
#    y 0.000000 1.773760 0.000000 
#    z 0.000000 0.000000 1.737030 
# 
# From -- ./inp_files/6751.got.cif
#   From: 2010.03.12/outbox.cif.g09.slc.cpg/sg62_4_cif.got.tgz:6751.got - 2010.04.10 19:12:36.
