data_PCOD8253767
_publ_section_title
;
Structure prediction by ZEFSAII (Michael W. Deem and Ramdas Pophale) SiO2 
 PCOD8253767
Probable space group: P N M A
;
_chemical_formula_sum "Si O2"
_cell_formula_units_Z 44
_cell_length_a 5.012854
_cell_length_b 16.525445
_cell_length_c 28.915640
_cell_angle_alpha 90.000000
_cell_angle_beta 90.000000
_cell_angle_gamma 90.000000
_cell_volume 2395.361297
_symmetry_space_group_name_H-M "P N M A"
_symmetry_group_IT_number 62
_symmetry_cell_setting 'orthorhombic'
loop_
_space_group_symop_operation_xyz
x,y,z
1/2-x,-y,1/2+z
1/2+x,1/2-y,1/2-z
-x,1/2+y,-z
-x,-y,-z
1/2+x,y,1/2-z
1/2-x,1/2+y,1/2+z
x,1/2-y,z
loop_
_atom_site_type_symbol
_atom_site_label
_atom_site_fract_x
_atom_site_fract_y
_atom_site_fract_z
Si Si1 0.383140 0.074381 0.218646
Si Si2 0.996762 0.343557 0.093379
Si Si3 0.006374 0.058766 0.379382
Si Si4 0.943034 0.062984 0.540300
Si Si5 0.066595 0.658134 0.014333
Si Si6 0.482861 0.250000 0.221982
O O1 0.598068 0.056873 0.258664
O O2 0.427987 0.023819 0.171739
O O3 0.400903 0.166347 0.197301
O O4 0.002505 0.250000 0.108870
O O5 0.784274 0.392192 0.124349
O O6 0.287456 0.381509 0.099106
O O7 0.908435 0.353248 0.040469
O O8 0.036934 0.979195 0.410150
O O9 0.647764 0.097673 0.535698
O O10 0.150580 0.136632 0.537092
O O11 0.000000 0.000000 0.500000
O O12 0.991992 0.750000 0.026906
O O13 0.799949 0.250000 0.231184
#
# Coordination Sequence:
#
# PCOD8253767 Si02
#       6
#     8   8   8   8   8   4
#     4  10  21  37  50  71 103 137 183 229 268 311
#     4  11  22  34  50  78 110 146 188 221 262 317
#     4  12  23  35  56  78 104 149 182 231 272 314
#     4  12  21  37  57  82 114 141 183 225 268 324
#     4  11  22  38  56  78 114 151 180 220 267 318
#     4   8  16  30  48  62  88 132 170 214 258 282
#
# _framework density 18.368836999999999
#
# number of rings (size 3 to 8) (size 9 to 14) (size 15 to 20)
#    0.000    1.091    3.636    3.818    2.545    2.909 
#    3.273    0.000    0.000    0.000    0.000    0.000 
#    0.000   14.545    0.000    0.000    0.000    0.000 
#
# Total GULP energy -545628.379860 kJ/mol
# GULP energy per Si atom -12400.644997 kJ/mol
# Density = 1.832703 g / cm^3
# Si number density = 18.368837 Si / 1000 Ang^3
#
#
#
# Elastic Constant Matrix: (Units=GPa)
#
#
# Indices 1 2 3 4 5 6 
#
# 1 70.7221 4.9192 -9.8351 0.0000 0.0000 0.0000
# 2 4.9192 47.9585 19.5711 0.0000 0.0000 0.0000
# 3 -9.8351 19.5711 61.3213 0.0000 0.0000 0.0000
# 4 0.0000 0.0000 0.0000 19.1761 0.0000 0.0000
# 5 0.0000 0.0000 0.0000 0.0000 17.8725 0.0000
# 6 0.0000 0.0000 0.0000 0.0000 0.0000 32.2700
#
#
#
# Elastic Compliance Matrix: (Units=1/GPa)
#
#
# Indices 1 2 3 4 5 6 
#
# 1 0.014796 -0.002858 0.003285 0.000000 0.000000 0.000000
# 2 -0.002858 0.024526 -0.008286 0.000000 0.000000 0.000000
# 3 0.003285 -0.008286 0.019479 0.000000 0.000000 0.000000
# 4 0.000000 0.000000 0.000000 0.052148 0.000000 0.000000
# 5 0.000000 0.000000 0.000000 0.000000 0.055952 0.000000
# 6 0.000000 0.000000 0.000000 0.000000 0.000000 0.030988
#
#
# Mechanical properties :
#
#
# Convention : Reuss Voigt Hill
#
# Bulk Modulus (GPa) = 23.21137 23.25692 23.23414
# Shear Modulus (GPa) = 21.93292 24.88686 23.40989
#
# Velocity S-wave (km/s) = 3.45922 3.68481 3.57380
# Velocity P-wave (km/s) = 5.34964 5.54908 5.45027
#
# Compressibility (1/GPa) = 0.04308234
#
# Stress axis : x y z
#
# Youngs Moduli (GPa) = 67.58796 40.77322 51.33737
#
# Poissons Ratio (x) = 0.11654 -0.16866
# Poissons Ratio (y) = 0.19318 0.42538
# Poissons Ratio (z) = -0.22204 0.33785
#
# Static dielectric constant tensor:
#      x y z
#    x 3.569230 0.000000 0.000000 
#    y 0.000000 3.230020 0.000000 
#    z 0.000000 0.000000 3.270190 
# 
# 
# High freq. dielectric constant tensor:
#      x y z
#    x 1.736710 0.000000 0.000000 
#    y 0.000000 1.672710 0.000000 
#    z 0.000000 0.000000 1.697350 
# 
# From -- ./inp_files/30368.got.cif
#   From: 2010.03.12/outbox.cif.g09.slc.cpg/sg62_16_cif.got.tgz:30368.got - 2010.04.10 19:12:36.
