data_PCOD8253402
_publ_section_title
;
Structure prediction by ZEFSAII (Michael W. Deem and Ramdas Pophale) SiO2 
 PCOD8253402
Probable space group: P N M A
;
_chemical_formula_sum "Si O2"
_cell_formula_units_Z 56
_cell_length_a 18.632778
_cell_length_b 16.174858
_cell_length_c 9.478288
_cell_angle_alpha 90.000000
_cell_angle_beta 90.000000
_cell_angle_gamma 90.000000
_cell_volume 2856.590496
_symmetry_space_group_name_H-M "P N M A"
_symmetry_group_IT_number 62
_symmetry_cell_setting 'orthorhombic'
loop_
_space_group_symop_operation_xyz
x,y,z
1/2-x,-y,1/2+z
1/2+x,1/2-y,1/2-z
-x,1/2+y,-z
-x,-y,-z
1/2+x,y,1/2-z
1/2-x,1/2+y,1/2+z
x,1/2-y,z
loop_
_atom_site_type_symbol
_atom_site_label
_atom_site_fract_x
_atom_site_fract_y
_atom_site_fract_z
Si Si1 0.284135 0.915521 0.114408
Si Si2 0.861648 0.420575 0.330717
Si Si3 0.731034 0.346288 0.182384
Si Si4 0.423107 0.989192 0.433939
Si Si5 0.347465 0.498121 0.717787
Si Si6 0.581747 0.158315 0.758941
Si Si7 0.960258 0.075656 0.570504
O O1 0.223121 0.939330 0.230221
O O2 0.339300 0.848056 0.173121
O O3 0.327927 0.000527 0.086467
O O4 0.248815 0.876123 0.974971
O O5 0.800974 0.356536 0.281251
O O6 0.908968 0.449299 0.196851
O O7 0.912693 0.378767 0.449231
O O8 0.706803 0.250000 0.187068
O O9 0.667185 0.407355 0.232932
O O10 0.362703 0.000620 0.551157
O O11 0.500000 0.000000 0.500000
O O12 0.420983 0.895972 0.380333
O O13 0.412675 0.457229 0.800169
O O14 0.568827 0.250000 0.705467
O O15 0.519706 0.137943 0.871869
O O16 0.000000 0.000000 0.500000
#
# Coordination Sequence:
#
# PCOD8253402 Si02
#       7
#     8   8   8   8   8   8   8
#     4  10  20  38  62  88 122 164 208 249 310 384
#     4  10  21  36  61  91 117 161 210 249 295 378
#     4  11  22  37  60  93 127 155 200 264 315 356
#     4  11  20  39  63  88 120 161 208 249 304 376
#     4  11  22  38  66  93 116 167 216 250 301 386
#     4  11  24  39  62  95 131 163 208 270 321 364
#     4  12  20  40  66  91 122 170 215 245 304 386
#
# _framework density 19.603788999999999
#
# number of rings (size 3 to 8) (size 9 to 14) (size 15 to 20)
#    0.000    1.143    7.143    0.429    0.000    1.143 
#    0.000    3.571    0.000    3.429    0.000    0.000 
#    0.000    0.000    0.000    0.000    0.000    0.000 
#
# Total GULP energy -694261.343010 kJ/mol
# GULP energy per Si atom -12397.523982 kJ/mol
# Density = 1.955917 g / cm^3
# Si number density = 19.603789 Si / 1000 Ang^3
#
#
#
# Elastic Constant Matrix: (Units=GPa)
#
#
# Indices 1 2 3 4 5 6 
#
# 1 97.1540 30.9005 35.2251 0.0000 0.0000 0.0000
# 2 30.9005 84.7654 34.9138 0.0000 0.0000 0.0000
# 3 35.2251 34.9138 103.2873 0.0000 0.0000 0.0000
# 4 0.0000 0.0000 0.0000 16.3131 0.0000 0.0000
# 5 0.0000 0.0000 0.0000 0.0000 42.8589 0.0000
# 6 0.0000 0.0000 0.0000 0.0000 0.0000 18.1211
#
#
#
# Elastic Compliance Matrix: (Units=1/GPa)
#
#
# Indices 1 2 3 4 5 6 
#
# 1 0.012469 -0.003246 -0.003155 0.000000 0.000000 0.000000
# 2 -0.003246 0.014550 -0.003811 0.000000 0.000000 0.000000
# 3 -0.003155 -0.003811 0.012046 0.000000 0.000000 0.000000
# 4 0.000000 0.000000 0.000000 0.061300 0.000000 0.000000
# 5 0.000000 0.000000 0.000000 0.000000 0.023332 0.000000
# 6 0.000000 0.000000 0.000000 0.000000 0.000000 0.055184
#
#
# Mechanical properties :
#
#
# Convention : Reuss Voigt Hill
#
# Bulk Modulus (GPa) = 53.64648 54.14284 53.89466
# Shear Modulus (GPa) = 24.32827 27.73642 26.03235
#
# Velocity S-wave (km/s) = 3.52660 3.76553 3.64802
# Velocity P-wave (km/s) = 6.63380 6.82526 6.73021
#
# Compressibility (1/GPa) = 0.01864055
#
# Stress axis : x y z
#
# Youngs Moduli (GPa) = 80.19654 68.72644 83.01383
#
# Poissons Ratio (x) = 0.22308 0.26194
# Poissons Ratio (y) = 0.26031 0.31640
# Poissons Ratio (z) = 0.25305 0.26195
#
# Static dielectric constant tensor:
#      x y z
#    x 4.434680 0.000000 0.000000 
#    y 0.000000 3.309010 0.000000 
#    z 0.000000 0.000000 4.255920 
# 
# 
# High freq. dielectric constant tensor:
#      x y z
#    x 1.777570 0.000000 0.000000 
#    y 0.000000 1.728260 0.000000 
#    z 0.000000 0.000000 1.772930 
# 
# From -- ./inp_files/8726.got.cif
#   From: 2010.03.12/outbox.cif.g09.slc.cpg/sg62_5_cif.got.tgz:8726.got - 2010.04.10 19:12:36.
