data_PCOD8253710
_publ_section_title
;
Structure prediction by ZEFSAII (Michael W. Deem and Ramdas Pophale) SiO2 
 PCOD8253710
Probable space group: P N M A
;
_chemical_formula_sum "Si O2"
_cell_formula_units_Z 64
_cell_length_a 18.993937
_cell_length_b 8.939876
_cell_length_c 19.170736
_cell_angle_alpha 90.000000
_cell_angle_beta 90.000000
_cell_angle_gamma 90.000000
_cell_volume 3255.256949
_symmetry_space_group_name_H-M "P N M A"
_symmetry_group_IT_number 62
_symmetry_cell_setting 'orthorhombic'
loop_
_space_group_symop_operation_xyz
x,y,z
1/2-x,-y,1/2+z
1/2+x,1/2-y,1/2-z
-x,1/2+y,-z
-x,-y,-z
1/2+x,y,1/2-z
1/2-x,1/2+y,1/2+z
x,1/2-y,z
loop_
_atom_site_type_symbol
_atom_site_label
_atom_site_fract_x
_atom_site_fract_y
_atom_site_fract_z
Si Si1 0.961571 0.580512 0.139384
Si Si2 0.298073 0.072898 0.710279
Si Si3 0.664539 0.079386 0.543205
Si Si4 0.401251 0.577620 0.605164
Si Si5 0.307553 0.574632 0.974192
Si Si6 0.624984 0.426399 0.166912
Si Si7 0.020782 0.078594 0.699598
Si Si8 0.838415 0.571817 0.372654
O O1 0.983362 0.750000 0.118573
O O2 0.885852 0.541024 0.107661
O O3 0.953954 0.563289 0.221606
O O4 0.017021 0.464221 0.108246
O O5 0.298069 0.250000 0.719722
O O6 0.223874 0.014032 0.678627
O O7 0.360340 0.028741 0.658166
O O8 0.314299 0.000200 0.785271
O O9 0.690588 0.250000 0.545560
O O10 0.623843 0.044718 0.472289
O O11 0.730952 0.973686 0.550208
O O12 0.390518 0.750000 0.626897
O O13 0.307180 0.750000 0.983771
O O14 0.362182 0.526985 0.913705
O O15 0.327706 0.503855 0.049460
O O16 0.629952 0.250000 0.177623
O O17 0.547538 0.479290 0.187338
O O18 0.002566 0.250000 0.680674
O O19 0.085399 0.016308 0.653281
O O20 0.835962 0.750000 0.372877
#
# Coordination Sequence:
#
# PCOD8253710 Si02
#       8
#     8   8   8   8   8   8   8   8
#     4  10  21  36  56  84 118 156 196 237 287 348
#     4  11  21  37  64  88 113 154 196 237 287 349
#     4  10  22  37  56  87 123 155 194 244 288 343
#     4  11  21  35  57  86 122 157 190 238 292 344
#     4  10  22  41  61  84 118 158 195 240 294 348
#     4  11  24  40  59  87 122 154 191 242 296 346
#     4  10  21  39  62  86 113 151 198 244 288 343
#     4   9  20  39  63  88 113 149 198 242 285 343
#
# _framework density 19.660506999999999
#
# number of rings (size 3 to 8) (size 9 to 14) (size 15 to 20)
#    0.000    1.750    2.500    1.500    1.750    2.500 
#    0.000    1.875    0.000    0.000    0.000    0.000 
#    0.000    0.000    0.000    0.000    0.000    0.000 
#
# Total GULP energy -793735.552785 kJ/mol
# GULP energy per Si atom -12402.118012 kJ/mol
# Density = 1.961576 g / cm^3
# Si number density = 19.660507 Si / 1000 Ang^3
#
#
#
# Elastic Constant Matrix: (Units=GPa)
#
#
# Indices 1 2 3 4 5 6 
#
# 1 70.3070 8.4641 85.0690 0.0000 0.0000 0.0000
# 2 8.4641 24.9772 70.1608 0.0000 0.0000 0.0000
# 3 85.0690 70.1608 65.9007 0.0000 0.0000 0.0000
# 4 0.0000 0.0000 0.0000 17.3238 0.0000 0.0000
# 5 0.0000 0.0000 0.0000 0.0000 33.2594 0.0000
# 6 0.0000 0.0000 0.0000 0.0000 0.0000 18.9490
#
#
#
# Elastic Compliance Matrix: (Units=1/GPa)
#
#
# Indices 1 2 3 4 5 6 
#
# 1 0.010408 -0.017188 0.004863 0.000000 0.000000 0.000000
# 2 -0.017188 0.008270 0.013382 0.000000 0.000000 0.000000
# 3 0.004863 0.013382 -0.005351 0.000000 0.000000 0.000000
# 4 0.000000 0.000000 0.000000 0.057724 0.000000 0.000000
# 5 0.000000 0.000000 0.000000 0.000000 0.030067 0.000000
# 6 0.000000 0.000000 0.000000 0.000000 0.000000 0.052773
#
#
# Mechanical properties :
#
#
# Convention : Reuss Voigt Hill
#
# Bulk Modulus (GPa) = 64.75373 54.28584 59.51979
# Shear Modulus (GPa) = 31.86260 13.73917 22.80089
#
# Velocity S-wave (km/s) = 4.03008 2.64639 3.40918
# Velocity P-wave (km/s) = 7.39344 6.08354 6.77024
#
# Compressibility (1/GPa) = 0.01544312
#
# Stress axis : x y z
#
# Youngs Moduli (GPa) = 96.07774 120.91625 -186.88871
#
# Poissons Ratio (x) = 2.07828 0.90888
# Poissons Ratio (y) = 1.65136 2.50100
# Poissons Ratio (z) = -0.46724 -1.61814
#
# Static dielectric constant tensor:
#      x y z
#    x 3.612140 0.000000 0.000000 
#    y 0.000000 3.425090 0.000000 
#    z 0.000000 0.000000 3.951650 
# 
# 
# High freq. dielectric constant tensor:
#      x y z
#    x 1.767270 0.000000 0.000000 
#    y 0.000000 1.748500 0.000000 
#    z 0.000000 0.000000 1.779710 
# 
# From -- ./inp_files/27770.got.cif
#   From: 2010.03.12/outbox.cif.g09.slc.cpg/sg62_14_cif.got.tgz:27770.got - 2010.04.10 19:12:36.
