data_PCOD8253563
_publ_section_title
;
Structure prediction by ZEFSAII (Michael W. Deem and Ramdas Pophale) SiO2 
 PCOD8253563
Probable space group: P N M A
;
_chemical_formula_sum "Si O2"
_cell_formula_units_Z 56
_cell_length_a 14.469031
_cell_length_b 8.800823
_cell_length_c 21.766358
_cell_angle_alpha 90.000000
_cell_angle_beta 90.000000
_cell_angle_gamma 90.000000
_cell_volume 2771.714550
_symmetry_space_group_name_H-M "P N M A"
_symmetry_group_IT_number 62
_symmetry_cell_setting 'orthorhombic'
loop_
_space_group_symop_operation_xyz
x,y,z
1/2-x,-y,1/2+z
1/2+x,1/2-y,1/2-z
-x,1/2+y,-z
-x,-y,-z
1/2+x,y,1/2-z
1/2-x,1/2+y,1/2+z
x,1/2-y,z
loop_
_atom_site_type_symbol
_atom_site_label
_atom_site_fract_x
_atom_site_fract_y
_atom_site_fract_z
Si Si1 0.609867 0.573024 0.758392
Si Si2 0.723750 0.070873 0.989418
Si Si3 0.202982 0.571649 0.266541
Si Si4 0.920551 0.572432 0.388089
Si Si5 0.369497 0.074847 0.897832
Si Si6 0.933879 0.572416 0.823226
Si Si7 0.926744 0.069739 0.953916
O O1 0.634106 0.750000 0.753967
O O2 0.690841 0.476137 0.727172
O O3 0.597146 0.527167 0.828570
O O4 0.517593 0.532276 0.721811
O O5 0.723605 0.250000 0.989592
O O6 0.649858 0.011754 0.939600
O O7 0.825023 0.008925 0.972285
O O8 0.696221 0.016946 0.056886
O O9 0.194075 0.750000 0.254294
O O10 0.150389 0.521776 0.328389
O O11 0.160061 0.484392 0.208462
O O12 0.905518 0.750000 0.372147
O O13 0.023591 0.543138 0.413196
O O14 0.343740 0.250000 0.905739
O O15 0.926097 0.750000 0.837376
O O16 0.951211 0.483494 0.885842
O O17 0.931971 0.250000 0.957584
O O18 0.000000 0.000000 0.000000
#
# Coordination Sequence:
#
# PCOD8253563 Si02
#       7
#     8   8   8   8   8   8   8
#     4  11  24  39  62  94 126 163 206 258 315 371
#     4  10  23  40  62  89 121 162 206 256 311 369
#     4  11  23  40  63  93 127 167 210 257 314 379
#     4  10  20  40  64  92 126 161 205 254 309 378
#     4  10  22  38  61  93 125 160 205 253 310 375
#     4  11  24  43  66  95 127 163 209 263 319 375
#     4  11  25  44  65  92 125 168 216 263 317 375
#
# _framework density 20.204101000000001
#
# number of rings (size 3 to 8) (size 9 to 14) (size 15 to 20)
#    0.000    1.429    1.429    3.000    2.000    6.286 
#    0.000    0.000    0.000    0.000    0.000    0.000 
#    0.000    0.000    0.000    0.000    0.000    0.000 
#
# Total GULP energy -694776.967036 kJ/mol
# GULP energy per Si atom -12406.731554 kJ/mol
# Density = 2.015812 g / cm^3
# Si number density = 20.204101 Si / 1000 Ang^3
#
#
#
# Elastic Constant Matrix: (Units=GPa)
#
#
# Indices 1 2 3 4 5 6 
#
# 1 101.0496 34.9101 41.0843 0.0000 0.0000 0.0000
# 2 34.9101 45.5574 33.8694 0.0000 0.0000 0.0000
# 3 41.0843 33.8694 114.4606 0.0000 0.0000 0.0000
# 4 0.0000 0.0000 0.0000 39.4792 0.0000 0.0000
# 5 0.0000 0.0000 0.0000 0.0000 28.8455 0.0000
# 6 0.0000 0.0000 0.0000 0.0000 0.0000 33.0924
#
#
#
# Elastic Compliance Matrix: (Units=1/GPa)
#
#
# Indices 1 2 3 4 5 6 
#
# 1 0.013940 -0.008926 -0.002362 0.000000 0.000000 0.000000
# 2 -0.008926 0.033856 -0.006814 0.000000 0.000000 0.000000
# 3 -0.002362 -0.006814 0.011601 0.000000 0.000000 0.000000
# 4 0.000000 0.000000 0.000000 0.025330 0.000000 0.000000
# 5 0.000000 0.000000 0.000000 0.000000 0.034667 0.000000
# 6 0.000000 0.000000 0.000000 0.000000 0.000000 0.030218
#
#
# Mechanical properties :
#
#
# Convention : Reuss Voigt Hill
#
# Bulk Modulus (GPa) = 43.11823 53.42168 48.26995
# Shear Modulus (GPa) = 25.83317 30.36367 28.09842
#
# Velocity S-wave (km/s) = 3.57965 3.88086 3.73329
# Velocity P-wave (km/s) = 6.20264 6.82494 6.52122
#
# Compressibility (1/GPa) = 0.02319205
#
# Stress axis : x y z
#
# Youngs Moduli (GPa) = 71.73422 29.53664 86.19938
#
# Poissons Ratio (x) = 0.26364 0.20365
# Poissons Ratio (y) = 0.64030 0.58739
# Poissons Ratio (z) = 0.16947 0.20127
#
# Static dielectric constant tensor:
#      x y z
#    x 3.970530 0.000000 0.000000 
#    y 0.000000 3.593680 0.000000 
#    z 0.000000 0.000000 3.781320 
# 
# 
# High freq. dielectric constant tensor:
#      x y z
#    x 1.804010 0.000000 0.000000 
#    y 0.000000 1.787090 0.000000 
#    z 0.000000 0.000000 1.797080 
# 
# From -- ./inp_files/27107.got.cif
#   From: 2010.03.12/outbox.cif.g09.slc.cpg/sg62_14_cif.got.tgz:27107.got - 2010.04.10 19:12:36.
