data_PCOD8253658
_publ_section_title
;
Structure prediction by ZEFSAII (Michael W. Deem and Ramdas Pophale) SiO2 
 PCOD8253658
Probable space group: P N M A
;
_chemical_formula_sum "Si O2"
_cell_formula_units_Z 48
_cell_length_a 5.508594
_cell_length_b 13.720548
_cell_length_c 29.088349
_cell_angle_alpha 90.000000
_cell_angle_beta 90.000000
_cell_angle_gamma 90.000000
_cell_volume 2198.524423
_symmetry_space_group_name_H-M "P N M A"
_symmetry_group_IT_number 62
_symmetry_cell_setting 'orthorhombic'
loop_
_space_group_symop_operation_xyz
x,y,z
1/2-x,-y,1/2+z
1/2+x,1/2-y,1/2-z
-x,1/2+y,-z
-x,-y,-z
1/2+x,y,1/2-z
1/2-x,1/2+y,1/2+z
x,1/2-y,z
loop_
_atom_site_type_symbol
_atom_site_label
_atom_site_fract_x
_atom_site_fract_y
_atom_site_fract_z
Si Si1 0.342872 0.357936 0.008936
Si Si2 0.109159 0.981472 0.650786
Si Si3 0.340113 0.994633 0.936123
Si Si4 0.777804 0.637506 0.277200
Si Si5 0.378789 0.636737 0.776621
Si Si6 0.962092 0.641974 0.899907
O O1 0.423732 0.250000 0.994217
O O2 0.579504 0.416125 0.025583
O O3 0.151959 0.354203 0.049551
O O4 0.235632 0.411947 0.963491
O O5 0.883890 0.932078 0.678340
O O6 0.284598 0.888741 0.641392
O O7 0.046076 0.026559 0.600476
O O8 0.235895 0.069179 0.678173
O O9 0.156833 0.942799 0.901774
O O10 0.534079 0.614541 0.248178
O O11 0.774646 0.750000 0.292910
O O12 0.130563 0.609728 0.750077
O O13 0.376251 0.750000 0.790226
O O14 0.065248 0.750000 0.887912
#
# Coordination Sequence:
#
# PCOD8253658 Si02
#       6
#     8   8   8   8   8   8
#     4   9  19  38  57  81 115 154 200 247 303 372
#     4  11  23  36  58  88 119 152 198 252 306 363
#     4  10  21  35  58  86 115 157 198 248 309 373
#     4  10  23  43  67  91 122 167 213 256 308 368
#     4  10  22  38  57  84 118 158 199 240 293 359
#     4  10  21  36  57  85 118 156 197 246 307 372
#
# _framework density 21.832825
#
# number of rings (size 3 to 8) (size 9 to 14) (size 15 to 20)
#    0.000    2.000    0.000    2.500    4.667    2.667 
#    0.000    0.833    0.000    0.000    0.000    0.000 
#    0.000    0.000    0.000    0.000    0.000    0.000 
#
# Total GULP energy -594825.906863 kJ/mol
# GULP energy per Si atom -12392.206393 kJ/mol
# Density = 2.178313 g / cm^3
# Si number density = 21.832825 Si / 1000 Ang^3
#
#
#
# Elastic Constant Matrix: (Units=GPa)
#
#
# Indices 1 2 3 4 5 6 
#
# 1 84.0317 27.9549 25.1267 0.0000 0.0000 0.0000
# 2 27.9549 126.5113 79.7060 0.0000 0.0000 0.0000
# 3 25.1267 79.7060 103.3242 0.0000 0.0000 0.0000
# 4 0.0000 0.0000 0.0000 33.2827 0.0000 0.0000
# 5 0.0000 0.0000 0.0000 0.0000 16.1272 0.0000
# 6 0.0000 0.0000 0.0000 0.0000 0.0000 28.4989
#
#
#
# Elastic Compliance Matrix: (Units=1/GPa)
#
#
# Indices 1 2 3 4 5 6 
#
# 1 0.013022 -0.001717 -0.001843 0.000000 0.000000 0.000000
# 2 -0.001717 0.015605 -0.011621 0.000000 0.000000 0.000000
# 3 -0.001843 -0.011621 0.019091 0.000000 0.000000 0.000000
# 4 0.000000 0.000000 0.000000 0.030046 0.000000 0.000000
# 5 0.000000 0.000000 0.000000 0.000000 0.062007 0.000000
# 6 0.000000 0.000000 0.000000 0.000000 0.000000 0.035089
#
#
# Mechanical properties :
#
#
# Convention : Reuss Voigt Hill
#
# Bulk Modulus (GPa) = 57.60865 64.38249 60.99557
# Shear Modulus (GPa) = 23.69606 27.65373 25.67490
#
# Velocity S-wave (km/s) = 3.29803 3.56281 3.43297
# Velocity P-wave (km/s) = 6.39892 6.81746 6.61150
#
# Compressibility (1/GPa) = 0.01735850
#
# Stress axis : x y z
#
# Youngs Moduli (GPa) = 76.79139 64.08183 52.38168
#
# Poissons Ratio (x) = 0.11000 0.09652
# Poissons Ratio (y) = 0.13182 0.60870
# Poissons Ratio (z) = 0.14149 0.74467
#
# Static dielectric constant tensor:
#      x y z
#    x 3.850760 0.000000 0.000000 
#    y 0.000000 4.128210 0.000000 
#    z 0.000000 0.000000 3.851840 
# 
# 
# High freq. dielectric constant tensor:
#      x y z
#    x 1.845090 0.000000 0.000000 
#    y 0.000000 1.861190 0.000000 
#    z 0.000000 0.000000 1.859020 
# 
# From -- ./inp_files/30393.got.cif
#   From: 2010.03.12/outbox.cif.g09.slc.cpg/sg62_16_cif.got.tgz:30393.got - 2010.04.10 19:12:36.
