data_PCOD8253935
_publ_section_title
;
Structure prediction by ZEFSAII (Michael W. Deem and Ramdas Pophale) SiO2 
 PCOD8253935
Probable space group: P N M A
;
_chemical_formula_sum "Si O2"
_cell_formula_units_Z 64
_cell_length_a 14.646387
_cell_length_b 8.857475
_cell_length_c 24.303793
_cell_angle_alpha 90.000000
_cell_angle_beta 90.000000
_cell_angle_gamma 90.000000
_cell_volume 3152.931229
_symmetry_space_group_name_H-M "P N M A"
_symmetry_group_IT_number 62
_symmetry_cell_setting 'orthorhombic'
loop_
_space_group_symop_operation_xyz
x,y,z
1/2-x,-y,1/2+z
1/2+x,1/2-y,1/2-z
-x,1/2+y,-z
-x,-y,-z
1/2+x,y,1/2-z
1/2-x,1/2+y,1/2+z
x,1/2-y,z
loop_
_atom_site_type_symbol
_atom_site_label
_atom_site_fract_x
_atom_site_fract_y
_atom_site_fract_z
Si Si1 0.596640 0.428140 0.650002
Si Si2 0.110676 0.571676 0.154771
Si Si3 0.097875 0.074307 0.729963
Si Si4 0.890787 0.921539 0.617384
Si Si5 0.267384 0.928113 0.441848
Si Si6 0.093049 0.424394 0.261490
Si Si7 0.257317 0.427538 0.556492
Si Si8 0.396647 0.426106 0.120022
O O1 0.594610 0.250000 0.643694
O O2 0.492623 0.486583 0.643412
O O3 0.639441 0.470044 0.710109
O O4 0.660567 0.496426 0.602290
O O5 0.115990 0.750000 0.165562
O O6 0.150736 0.484412 0.208935
O O7 0.170908 0.523036 0.102972
O O8 0.112065 0.250000 0.716640
O O9 0.141391 0.980667 0.679634
O O10 0.991557 0.037685 0.735124
O O11 0.877645 0.750000 0.597192
O O12 0.854231 0.939456 0.680318
O O13 0.997047 0.967477 0.613870
O O14 0.834630 0.029687 0.577236
O O15 0.274793 0.750000 0.447303
O O16 0.291768 0.001153 0.499919
O O17 0.061800 0.250000 0.253627
O O18 0.251526 0.250000 0.549447
O O19 0.157360 0.489811 0.571709
O O20 0.378642 0.250000 0.114917
#
# Coordination Sequence:
#
# PCOD8253935 Si02
#       8
#     8   8   8   8   8   8   8   8
#     4   8  17  35  57  82 112 144 179 220 268 323
#     4   9  19  37  59  81 110 148 184 222 273 333
#     4   9  16  31  56  84 115 147 179 219 270 331
#     4   9  20  38  57  80 112 145 177 219 272 327
#     4  11  23  38  57  80 107 143 188 232 271 319
#     4   9  17  31  54  85 116 144 179 224 273 325
#     4  11  24  40  57  79 108 144 188 233 278 330
#     4  10  21  38  59  83 112 145 182 227 277 329
#
# _framework density 20.298572
#
# number of rings (size 3 to 8) (size 9 to 14) (size 15 to 20)
#    0.000    2.500    0.000    3.375    0.000    6.000 
#    0.000   10.000    0.000    0.000    0.000    0.000 
#    0.000    0.000    0.000    0.000    0.000    0.000 
#
# Total GULP energy -793363.671934 kJ/mol
# GULP energy per Si atom -12396.307374 kJ/mol
# Density = 2.025237 g / cm^3
# Si number density = 20.298572 Si / 1000 Ang^3
#
#
#
# Elastic Constant Matrix: (Units=GPa)
#
#
# Indices 1 2 3 4 5 6 
#
# 1 46.0570 12.1917 15.8605 0.0000 0.0000 0.0000
# 2 12.1917 50.7662 22.1005 0.0000 0.0000 0.0000
# 3 15.8605 22.1005 94.9343 0.0000 0.0000 0.0000
# 4 0.0000 0.0000 0.0000 39.1483 0.0000 0.0000
# 5 0.0000 0.0000 0.0000 0.0000 32.5641 0.0000
# 6 0.0000 0.0000 0.0000 0.0000 0.0000 18.9541
#
#
#
# Elastic Compliance Matrix: (Units=1/GPa)
#
#
# Indices 1 2 3 4 5 6 
#
# 1 0.023910 -0.004454 -0.002958 0.000000 0.000000 0.000000
# 2 -0.004454 0.022749 -0.004552 0.000000 0.000000 0.000000
# 3 -0.002958 -0.004552 0.012087 0.000000 0.000000 0.000000
# 4 0.000000 0.000000 0.000000 0.025544 0.000000 0.000000
# 5 0.000000 0.000000 0.000000 0.000000 0.030709 0.000000
# 6 0.000000 0.000000 0.000000 0.000000 0.000000 0.052759
#
#
# Mechanical properties :
#
#
# Convention : Reuss Voigt Hill
#
# Bulk Modulus (GPa) = 28.72000 32.45142 30.58571
# Shear Modulus (GPa) = 24.59512 27.57364 26.08438
#
# Velocity S-wave (km/s) = 3.48468 3.68965 3.58863
# Velocity P-wave (km/s) = 5.51091 5.84578 5.68081
#
# Compressibility (1/GPa) = 0.03481895
#
# Stress axis : x y z
#
# Youngs Moduli (GPa) = 41.82376 43.95704 82.73099
#
# Poissons Ratio (x) = 0.19581 0.24468
# Poissons Ratio (y) = 0.18630 0.37658
# Poissons Ratio (z) = 0.12370 0.20008
#
# Static dielectric constant tensor:
#      x y z
#    x 3.528520 0.000000 0.000000 
#    y 0.000000 3.522140 0.000000 
#    z 0.000000 0.000000 4.026570 
# 
# 
# High freq. dielectric constant tensor:
#      x y z
#    x 1.772130 0.000000 0.000000 
#    y 0.000000 1.783600 0.000000 
#    z 0.000000 0.000000 1.802790 
# 
# From -- ./inp_files/29841.got.cif
#   From: 2010.03.12/outbox.cif.g09.slc.cpg/sg62_15_cif.got.tgz:29841.got - 2010.04.10 19:12:36.
