data_PCOD8253689
_publ_section_title
;
Structure prediction by ZEFSAII (Michael W. Deem and Ramdas Pophale) SiO2 
 PCOD8253689
Probable space group: P N M A
;
_chemical_formula_sum "Si O2"
_cell_formula_units_Z 64
_cell_length_a 28.915705
_cell_length_b 9.009776
_cell_length_c 12.791234
_cell_angle_alpha 90.000000
_cell_angle_beta 90.000000
_cell_angle_gamma 90.000000
_cell_volume 3332.423766
_symmetry_space_group_name_H-M "P N M A"
_symmetry_group_IT_number 62
_symmetry_cell_setting 'orthorhombic'
loop_
_space_group_symop_operation_xyz
x,y,z
1/2-x,-y,1/2+z
1/2+x,1/2-y,1/2-z
-x,1/2+y,-z
-x,-y,-z
1/2+x,y,1/2-z
1/2-x,1/2+y,1/2+z
x,1/2-y,z
loop_
_atom_site_type_symbol
_atom_site_label
_atom_site_fract_x
_atom_site_fract_y
_atom_site_fract_z
Si Si1 0.576614 0.415819 0.915481
Si Si2 0.295169 0.578107 0.943375
Si Si3 0.695155 0.576579 0.628275
Si Si4 0.610906 0.923781 0.109865
Si Si5 0.608839 0.073496 0.532939
Si Si6 0.567809 0.575733 0.332215
Si Si7 0.535940 0.426194 0.704766
Si Si8 0.179593 0.412941 0.667815
O O1 0.559635 0.250000 0.944882
O O2 0.545041 0.486739 0.822898
O O3 0.627455 0.409572 0.869426
O O4 0.576429 0.512787 0.020808
O O5 0.305544 0.750000 0.919355
O O6 0.247279 0.523872 0.893942
O O7 0.337303 0.486327 0.895033
O O8 0.289047 0.551531 0.067324
O O9 0.688456 0.750000 0.606046
O O10 0.659976 0.486372 0.555740
O O11 0.686348 0.542409 0.749269
O O12 0.613351 0.750000 0.092258
O O13 0.590068 0.966058 0.221613
O O14 0.609763 0.250000 0.531584
O O15 0.573569 0.012726 0.621868
O O16 0.593984 0.015502 0.420344
O O17 0.572124 0.750000 0.355874
O O18 0.514519 0.523414 0.332546
O O19 0.540151 0.250000 0.710494
O O20 0.192101 0.250000 0.715214
#
# Coordination Sequence:
#
# PCOD8253689 Si02
#       8
#     8   8   8   8   8   8   8   8
#     4   9  17  34  59  81 109 149 189 229 277 334
#     4   9  21  39  57  78 109 149 188 226 279 341
#     4  11  22  36  57  85 112 141 183 233 284 336
#     4  10  21  36  55  83 116 148 186 235 287 335
#     4  11  22  38  59  83 112 148 193 234 279 341
#     4  10  22  39  57  81 118 156 189 234 287 334
#     4   9  18  36  60  83 111 151 192 233 284 336
#     4   9  17  34  56  77 105 142 182 225 273 326
#
# _framework density 19.205241000000001
#
# number of rings (size 3 to 8) (size 9 to 14) (size 15 to 20)
#    0.000    2.250    1.250    2.250    0.000    5.500 
#    0.000    5.000    0.000    0.000    0.000    0.000 
#    0.000    0.000    0.000    0.000    0.000    0.000 
#
# Total GULP energy -793558.395442 kJ/mol
# GULP energy per Si atom -12399.349929 kJ/mol
# Density = 1.916153 g / cm^3
# Si number density = 19.205241 Si / 1000 Ang^3
#
#
#
# Elastic Constant Matrix: (Units=GPa)
#
#
# Indices 1 2 3 4 5 6 
#
# 1 43.0304 23.2630 32.0537 0.0000 0.0000 0.0000
# 2 23.2630 62.2534 46.4627 0.0000 0.0000 0.0000
# 3 32.0537 46.4627 111.0110 0.0000 0.0000 0.0000
# 4 0.0000 0.0000 0.0000 32.8896 0.0000 0.0000
# 5 0.0000 0.0000 0.0000 0.0000 14.9041 0.0000
# 6 0.0000 0.0000 0.0000 0.0000 0.0000 18.1899
#
#
#
# Elastic Compliance Matrix: (Units=1/GPa)
#
#
# Indices 1 2 3 4 5 6 
#
# 1 0.031736 -0.007301 -0.006108 0.000000 0.000000 0.000000
# 2 -0.007301 0.025040 -0.008372 0.000000 0.000000 0.000000
# 3 -0.006108 -0.008372 0.014276 0.000000 0.000000 0.000000
# 4 0.000000 0.000000 0.000000 0.030405 0.000000 0.000000
# 5 0.000000 0.000000 0.000000 0.000000 0.067096 0.000000
# 6 0.000000 0.000000 0.000000 0.000000 0.000000 0.054976
#
#
# Mechanical properties :
#
#
# Convention : Reuss Voigt Hill
#
# Bulk Modulus (GPa) = 36.37634 46.65040 41.51337
# Shear Modulus (GPa) = 18.09931 20.83107 19.46519
#
# Velocity S-wave (km/s) = 3.07321 3.29698 3.18706
# Velocity P-wave (km/s) = 5.61914 6.23191 5.93344
#
# Compressibility (1/GPa) = 0.02749040
#
# Stress axis : x y z
#
# Youngs Moduli (GPa) = 31.50989 39.93581 70.04783
#
# Poissons Ratio (x) = 0.29155 0.42785
# Poissons Ratio (y) = 0.23004 0.58647
# Poissons Ratio (z) = 0.19246 0.33436
#
# Static dielectric constant tensor:
#      x y z
#    x 3.598450 0.000000 0.000000 
#    y 0.000000 3.375410 0.000000 
#    z 0.000000 0.000000 3.762610 
# 
# 
# High freq. dielectric constant tensor:
#      x y z
#    x 1.746650 0.000000 0.000000 
#    y 0.000000 1.731850 0.000000 
#    z 0.000000 0.000000 1.754890 
# 
# From -- ./inp_files/15865.got.cif
#   From: 2010.03.12/outbox.cif.g09.slc.cpg/sg62_8_cif.got.tgz:15865.got - 2010.04.10 19:12:36.
