data_PCOD8253635
_publ_section_title
;
Structure prediction by ZEFSAII (Michael W. Deem and Ramdas Pophale) SiO2 
 PCOD8253635
Probable space group: P N M A
;
_chemical_formula_sum "Si O2"
_cell_formula_units_Z 64
_cell_length_a 19.087703
_cell_length_b 8.982179
_cell_length_c 20.614220
_cell_angle_alpha 90.000000
_cell_angle_beta 90.000000
_cell_angle_gamma 90.000000
_cell_volume 3534.290807
_symmetry_space_group_name_H-M "P N M A"
_symmetry_group_IT_number 62
_symmetry_cell_setting 'orthorhombic'
loop_
_space_group_symop_operation_xyz
x,y,z
1/2-x,-y,1/2+z
1/2+x,1/2-y,1/2-z
-x,1/2+y,-z
-x,-y,-z
1/2+x,y,1/2-z
1/2-x,1/2+y,1/2+z
x,1/2-y,z
loop_
_atom_site_type_symbol
_atom_site_label
_atom_site_fract_x
_atom_site_fract_y
_atom_site_fract_z
Si Si1 0.453972 0.575006 0.187270
Si Si2 0.536657 0.926485 0.060883
Si Si3 0.167177 0.419646 0.240796
Si Si4 0.029241 0.925988 0.935993
Si Si5 0.539481 0.575071 0.313467
Si Si6 0.329224 0.576693 0.892615
Si Si7 0.673530 0.922168 0.761517
Si Si8 0.675493 0.574537 0.617452
O O1 0.446824 0.750000 0.184467
O O2 0.495646 0.517033 0.124637
O O3 0.494815 0.522915 0.251494
O O4 0.376309 0.506308 0.187725
O O5 0.535335 0.750000 0.053674
O O6 0.616876 0.980527 0.065254
O O7 0.500000 0.000000 0.000000
O O8 0.144120 0.250000 0.227164
O O9 0.119899 0.532116 0.199554
O O10 0.159657 0.455102 0.316734
O O11 0.246428 0.445940 0.216960
O O12 0.019773 0.750000 0.940238
O O13 0.111490 0.969914 0.929435
O O14 0.986635 0.985664 0.875240
O O15 0.000000 0.000000 0.000000
O O16 0.533615 0.750000 0.326912
O O17 0.340323 0.750000 0.909071
O O18 0.250330 0.521619 0.911597
O O19 0.652576 0.750000 0.762652
O O20 0.662184 0.991818 0.689409
O O21 0.681960 0.750000 0.627835
#
# Coordination Sequence:
#
# PCOD8253635 Si02
#       8
#     8   8   8   8   8   8   8   8
#     4  10  21  35  53  80 113 141 176 225 275 325
#     4  11  23  39  55  80 113 147 185 227 275 327
#     4   9  18  32  54  84 113 141 180 229 277 328
#     4  11  22  38  58  82 114 150 189 230 277 331
#     4  11  21  35  55  82 113 145 183 227 276 328
#     4   9  17  33  57  82 107 140 181 223 273 330
#     4   9  17  32  55  83 110 140 183 227 273 329
#     4   8  16  32  55  81 108 140 179 223 271 327
#
# _framework density 18.108301000000001
#
# number of rings (size 3 to 8) (size 9 to 14) (size 15 to 20)
#    0.000    2.250    2.500    2.625    0.000    2.000 
#    0.000    4.375    0.000    1.500    0.000    0.000 
#    0.000    0.000    0.000    0.000    0.000    0.000 
#
# Total GULP energy -793580.988032 kJ/mol
# GULP energy per Si atom -12399.702938 kJ/mol
# Density = 1.806709 g / cm^3
# Si number density = 18.108301 Si / 1000 Ang^3
#
#
#
# Elastic Constant Matrix: (Units=GPa)
#
#
# Indices 1 2 3 4 5 6 
#
# 1 144.3104 48.0721 66.0534 0.0000 0.0000 0.0000
# 2 48.0721 54.5965 43.6349 0.0000 0.0000 0.0000
# 3 66.0534 43.6349 103.3688 0.0000 0.0000 0.0000
# 4 0.0000 0.0000 0.0000 28.2216 0.0000 0.0000
# 5 0.0000 0.0000 0.0000 0.0000 28.7815 0.0000
# 6 0.0000 0.0000 0.0000 0.0000 0.0000 32.8895
#
#
#
# Elastic Compliance Matrix: (Units=1/GPa)
#
#
# Indices 1 2 3 4 5 6 
#
# 1 0.011009 -0.006144 -0.004441 0.000000 0.000000 0.000000
# 2 -0.006144 0.031070 -0.009190 0.000000 0.000000 0.000000
# 3 -0.004441 -0.009190 0.016391 0.000000 0.000000 0.000000
# 4 0.000000 0.000000 0.000000 0.035434 0.000000 0.000000
# 5 0.000000 0.000000 0.000000 0.000000 0.034745 0.000000
# 6 0.000000 0.000000 0.000000 0.000000 0.000000 0.030405
#
#
# Mechanical properties :
#
#
# Convention : Reuss Voigt Hill
#
# Bulk Modulus (GPa) = 52.85121 68.64405 60.74763
# Shear Modulus (GPa) = 24.40085 27.61289 26.00687
#
# Velocity S-wave (km/s) = 3.67481 3.90920 3.79381
# Velocity P-wave (km/s) = 6.87424 7.63974 7.26707
#
# Compressibility (1/GPa) = 0.01892104
#
# Stress axis : x y z
#
# Youngs Moduli (GPa) = 90.83503 32.18490 61.00737
#
# Poissons Ratio (x) = 0.19773 0.27096
# Poissons Ratio (y) = 0.55806 0.56065
# Poissons Ratio (z) = 0.40343 0.29577
#
# Static dielectric constant tensor:
#      x y z
#    x 3.576020 0.000000 0.000000 
#    y 0.000000 3.168410 0.000000 
#    z 0.000000 0.000000 3.625160 
# 
# 
# High freq. dielectric constant tensor:
#      x y z
#    x 1.716820 0.000000 0.000000 
#    y 0.000000 1.690550 0.000000 
#    z 0.000000 0.000000 1.675020 
# 
# From -- ./inp_files/27709.got.cif
#   From: 2010.03.12/outbox.cif.g09.slc.cpg/sg62_14_cif.got.tgz:27709.got - 2010.04.10 19:12:36.
