data_PCOD8253965
_publ_section_title
;
Structure prediction by ZEFSAII (Michael W. Deem and Ramdas Pophale) SiO2 
 PCOD8253965
Probable space group: P N M A
;
_chemical_formula_sum "Si O2"
_cell_formula_units_Z 56
_cell_length_a 21.032803
_cell_length_b 8.880537
_cell_length_c 14.780336
_cell_angle_alpha 90.000000
_cell_angle_beta 90.000000
_cell_angle_gamma 90.000000
_cell_volume 2760.709369
_symmetry_space_group_name_H-M "P N M A"
_symmetry_group_IT_number 62
_symmetry_cell_setting 'orthorhombic'
loop_
_space_group_symop_operation_xyz
x,y,z
1/2-x,-y,1/2+z
1/2+x,1/2-y,1/2-z
-x,1/2+y,-z
-x,-y,-z
1/2+x,y,1/2-z
1/2-x,1/2+y,1/2+z
x,1/2-y,z
loop_
_atom_site_type_symbol
_atom_site_label
_atom_site_fract_x
_atom_site_fract_y
_atom_site_fract_z
Si Si1 0.024035 0.922701 0.268234
Si Si2 0.231977 0.581038 0.498400
Si Si3 0.132547 0.418121 0.936021
Si Si4 0.840135 0.071143 0.673212
Si Si5 0.267141 0.571665 0.186238
Si Si6 0.447641 0.078403 0.559790
Si Si7 0.103750 0.572236 0.755399
O O1 0.012716 0.750000 0.297118
O O2 0.088052 0.990810 0.313604
O O3 0.036282 0.938939 0.162921
O O4 0.960842 0.016282 0.294861
O O5 0.217291 0.750000 0.534923
O O6 0.291786 0.587213 0.430039
O O7 0.177469 0.522918 0.429620
O O8 0.244771 0.470495 0.581629
O O9 0.103538 0.250000 0.924893
O O10 0.101229 0.521927 0.859539
O O11 0.116689 0.488469 0.034454
O O12 0.840974 0.250000 0.684334
O O13 0.790060 0.009380 0.749272
O O14 0.272719 0.750000 0.195722
O O15 0.334604 0.500301 0.210650
O O16 0.438870 0.250000 0.531046
O O17 0.500000 0.000000 0.500000
O O18 0.107889 0.750000 0.746927
#
# Coordination Sequence:
#
# PCOD8253965 Si02
#       7
#     8   8   8   8   8   8   8
#     4  10  21  38  60  84 117 162 204 248 305 368
#     4  10  21  39  62  90 121 154 198 253 305 356
#     4  11  21  36  58  84 120 160 198 247 305 365
#     4   9  19  39  64  88 120 159 199 248 305 363
#     4  11  22  41  66  92 122 160 205 250 304 368
#     4  11  21  32  51  82 118 154 198 244 299 366
#     4  12  24  38  59  87 121 159 202 250 300 359
#
# _framework density 20.284641000000001
#
# number of rings (size 3 to 8) (size 9 to 14) (size 15 to 20)
#    0.000    1.429    2.857    3.429    0.000    2.857 
#    0.000    2.857    0.000    0.000    0.000    0.000 
#    0.000    0.000    0.000    0.000    0.000    0.000 
#
# Total GULP energy -694152.711239 kJ/mol
# GULP energy per Si atom -12395.584129 kJ/mol
# Density = 2.023847 g / cm^3
# Si number density = 20.284641 Si / 1000 Ang^3
#
#
#
# Elastic Constant Matrix: (Units=GPa)
#
#
# Indices 1 2 3 4 5 6 
#
# 1 124.8839 32.7238 22.3789 0.0000 0.0000 0.0000
# 2 32.7238 85.0529 20.4403 0.0000 0.0000 0.0000
# 3 22.3789 20.4403 53.9637 0.0000 0.0000 0.0000
# 4 0.0000 0.0000 0.0000 29.0286 0.0000 0.0000
# 5 0.0000 0.0000 0.0000 0.0000 34.5140 0.0000
# 6 0.0000 0.0000 0.0000 0.0000 0.0000 23.4400
#
#
#
# Elastic Compliance Matrix: (Units=1/GPa)
#
#
# Indices 1 2 3 4 5 6 
#
# 1 0.009259 -0.002904 -0.002740 0.000000 0.000000 0.000000
# 2 -0.002904 0.013846 -0.004040 0.000000 0.000000 0.000000
# 3 -0.002740 -0.004040 0.021198 0.000000 0.000000 0.000000
# 4 0.000000 0.000000 0.000000 0.034449 0.000000 0.000000
# 5 0.000000 0.000000 0.000000 0.000000 0.028974 0.000000
# 6 0.000000 0.000000 0.000000 0.000000 0.000000 0.042662
#
#
# Mechanical properties :
#
#
# Convention : Reuss Voigt Hill
#
# Bulk Modulus (GPa) = 40.10519 46.10962 43.10740
# Shear Modulus (GPa) = 28.07934 29.95367 29.01650
#
# Velocity S-wave (km/s) = 3.72461 3.84691 3.78625
# Velocity P-wave (km/s) = 6.18959 6.52014 6.35702
#
# Compressibility (1/GPa) = 0.02493443
#
# Stress axis : x y z
#
# Youngs Moduli (GPa) = 107.99853 72.22485 47.17531
#
# Poissons Ratio (x) = 0.20974 0.12926
# Poissons Ratio (y) = 0.31363 0.19059
# Poissons Ratio (z) = 0.29591 0.29180
#
# Static dielectric constant tensor:
#      x y z
#    x 5.465310 0.000000 0.000000 
#    y 0.000000 4.005850 0.000000 
#    z 0.000000 0.000000 3.091760 
# 
# 
# High freq. dielectric constant tensor:
#      x y z
#    x 1.809210 0.000000 0.000000 
#    y 0.000000 1.775900 0.000000 
#    z 0.000000 0.000000 1.774690 
# 
# From -- ./inp_files/20439.got.cif
#   From: 2010.03.12/outbox.cif.g09.slc.cpg/sg62_11_cif.got.tgz:20439.got - 2010.04.10 19:12:36.
