data_PCOD8253419
_publ_section_title
;
Structure prediction by ZEFSAII (Michael W. Deem and Ramdas Pophale) SiO2 
 PCOD8253419
Probable space group: P N M A
;
_chemical_formula_sum "Si O2"
_cell_formula_units_Z 48
_cell_length_a 18.674849
_cell_length_b 8.761096
_cell_length_c 14.877736
_cell_angle_alpha 90.000000
_cell_angle_beta 90.000000
_cell_angle_gamma 90.000000
_cell_volume 2434.178298
_symmetry_space_group_name_H-M "P N M A"
_symmetry_group_IT_number 62
_symmetry_cell_setting 'orthorhombic'
loop_
_space_group_symop_operation_xyz
x,y,z
1/2-x,-y,1/2+z
1/2+x,1/2-y,1/2-z
-x,1/2+y,-z
-x,-y,-z
1/2+x,y,1/2-z
1/2-x,1/2+y,1/2+z
x,1/2-y,z
loop_
_atom_site_type_symbol
_atom_site_label
_atom_site_fract_x
_atom_site_fract_y
_atom_site_fract_z
Si Si1 0.084624 0.071324 0.746727
Si Si2 0.217262 0.569338 0.497110
Si Si3 0.020148 0.570379 0.094512
Si Si4 0.563067 0.930675 0.941625
Si Si5 0.745414 0.070257 0.702167
Si Si6 0.170224 0.430269 0.142717
O O1 0.076472 0.250000 0.727061
O O2 0.166251 0.025500 0.766117
O O3 0.039170 0.021124 0.833057
O O4 0.054765 0.980122 0.661544
O O5 0.216049 0.750000 0.503432
O O6 0.138286 0.505545 0.519365
O O7 0.243295 0.515042 0.399721
O O8 0.273444 0.505356 0.569711
O O9 0.022644 0.750000 0.083282
O O10 0.095648 0.511090 0.127628
O O11 0.000000 0.500000 0.000000
O O12 0.558978 0.750000 0.948251
O O13 0.500000 0.000000 0.000000
O O14 0.759914 0.250000 0.712466
O O15 0.802437 0.975607 0.759146
O O16 0.159989 0.250000 0.134807
#
# Coordination Sequence:
#
# PCOD8253419 Si02
#       6
#     8   8   8   8   8   8
#     4  10  22  41  64  89 124 165 204 249 308 370
#     4   9  20  39  62  85 120 161 197 246 308 361
#     4  11  24  42  64  92 124 163 205 254 309 367
#     4  11  23  40  61  88 123 164 208 257 308 364
#     4  10  20  38  63  88 115 157 203 246 300 364
#     4  11  22  40  62  91 125 159 199 250 305 365
#
# _framework density 19.719179
#
# number of rings (size 3 to 8) (size 9 to 14) (size 15 to 20)
#    0.000    1.667    1.667    2.500    2.333    4.000 
#    0.000    4.167    0.000    0.000    0.000    0.000 
#    0.000    0.000    0.000    0.000    0.000    0.000 
#
# Total GULP energy -595431.356042 kJ/mol
# GULP energy per Si atom -12404.819918 kJ/mol
# Density = 1.967430 g / cm^3
# Si number density = 19.719179 Si / 1000 Ang^3
#
#
#
# Elastic Constant Matrix: (Units=GPa)
#
#
# Indices 1 2 3 4 5 6 
#
# 1 120.6109 36.5170 42.6314 0.0000 0.0000 0.0000
# 2 36.5170 44.7014 45.5965 0.0000 0.0000 0.0000
# 3 42.6314 45.5965 130.4237 0.0000 0.0000 0.0000
# 4 0.0000 0.0000 0.0000 35.2207 0.0000 0.0000
# 5 0.0000 0.0000 0.0000 0.0000 41.9284 0.0000
# 6 0.0000 0.0000 0.0000 0.0000 0.0000 32.2718
#
#
#
# Elastic Compliance Matrix: (Units=1/GPa)
#
#
# Indices 1 2 3 4 5 6 
#
# 1 0.011058 -0.008310 -0.000709 0.000000 0.000000 0.000000
# 2 -0.008310 0.041014 -0.011623 0.000000 0.000000 0.000000
# 3 -0.000709 -0.011623 0.011962 0.000000 0.000000 0.000000
# 4 0.000000 0.000000 0.000000 0.028392 0.000000 0.000000
# 5 0.000000 0.000000 0.000000 0.000000 0.023850 0.000000
# 6 0.000000 0.000000 0.000000 0.000000 0.000000 0.030987
#
#
# Mechanical properties :
#
#
# Convention : Reuss Voigt Hill
#
# Bulk Modulus (GPa) = 43.95344 60.58064 52.26704
# Shear Modulus (GPa) = 25.49326 33.28361 29.38844
#
# Velocity S-wave (km/s) = 3.59948 4.11284 3.86469
# Velocity P-wave (km/s) = 6.29389 7.30358 6.81745
#
# Compressibility (1/GPa) = 0.02275135
#
# Stress axis : x y z
#
# Youngs Moduli (GPa) = 90.43453 24.38186 83.59490
#
# Poissons Ratio (x) = 0.20260 0.05930
# Poissons Ratio (y) = 0.75147 0.97158
# Poissons Ratio (z) = 0.06415 0.28338
#
# Static dielectric constant tensor:
#      x y z
#    x 3.775700 0.000000 0.000000 
#    y 0.000000 3.446170 0.000000 
#    z 0.000000 0.000000 3.782410 
# 
# 
# High freq. dielectric constant tensor:
#      x y z
#    x 1.783690 0.000000 0.000000 
#    y 0.000000 1.754000 0.000000 
#    z 0.000000 0.000000 1.785470 
# 
# From -- ./inp_files/19652.got.cif
#   From: 2010.03.12/outbox.cif.g09.slc.cpg/sg62_10_cif.got.tgz:19652.got - 2010.04.10 19:12:36.
