data_PCOD8253706
_publ_section_title
;
Structure prediction by ZEFSAII (Michael W. Deem and Ramdas Pophale) SiO2 
 PCOD8253706
Probable space group: P N M A
;
_chemical_formula_sum "Si O2"
_cell_formula_units_Z 40
_cell_length_a 30.876646
_cell_length_b 11.397955
_cell_length_c 5.087145
_cell_angle_alpha 90.000000
_cell_angle_beta 90.000000
_cell_angle_gamma 90.000000
_cell_volume 1790.322102
_symmetry_space_group_name_H-M "P N M A"
_symmetry_group_IT_number 62
_symmetry_cell_setting 'orthorhombic'
loop_
_space_group_symop_operation_xyz
x,y,z
1/2-x,-y,1/2+z
1/2+x,1/2-y,1/2-z
-x,1/2+y,-z
-x,-y,-z
1/2+x,y,1/2-z
1/2-x,1/2+y,1/2+z
x,1/2-y,z
loop_
_atom_site_type_symbol
_atom_site_label
_atom_site_fract_x
_atom_site_fract_y
_atom_site_fract_z
Si Si1 0.511208 0.380296 0.848633
Si Si2 0.783341 0.119017 0.765248
Si Si3 0.098935 0.017017 0.646617
Si Si4 0.923425 0.120295 0.868122
Si Si5 0.193248 0.482416 0.734857
O O1 0.505982 0.250000 0.989480
O O2 0.561736 0.389669 0.767060
O O3 0.476304 0.381693 0.610899
O O4 0.500000 0.500000 0.000000
O O5 0.798431 0.250000 0.823564
O O6 0.798120 0.086050 0.472947
O O7 0.731082 0.113368 0.794010
O O8 0.806841 0.034585 0.972021
O O9 0.093287 0.971167 0.350306
O O10 0.146351 0.076058 0.677947
O O11 0.095662 0.908375 0.847122
O O12 0.907030 0.250000 0.791029
#
# Coordination Sequence:
#
# PCOD8253706 Si02
#       5
#     8   8   8   8   8
#     4   9  20  39  61  87 121 161 199 241 293 346
#     4  10  21  39  58  78 112 150 184 234 294 347
#     4  11  21  36  57  85 115 147 192 242 288 342
#     4  10  21  36  56  83 117 154 192 236 289 346
#     4  10  22  36  56  85 110 142 192 235 283 349
#
# _framework density 22.342347
#
# number of rings (size 3 to 8) (size 9 to 14) (size 15 to 20)
#    0.000    2.000    0.000    3.000    0.000    6.400 
#    0.000    8.000    0.000    9.600    0.000    0.000 
#    0.000    0.000    0.000    0.000    0.000    0.000 
#
# Total GULP energy -495527.337591 kJ/mol
# GULP energy per Si atom -12388.183440 kJ/mol
# Density = 2.229150 g / cm^3
# Si number density = 22.342347 Si / 1000 Ang^3
#
#
#
# Elastic Constant Matrix: (Units=GPa)
#
#
# Indices 1 2 3 4 5 6 
#
# 1 150.4190 6.0255 5.8216 0.0000 0.0000 0.0000
# 2 6.0255 72.2159 6.3146 0.0000 0.0000 0.0000
# 3 5.8216 6.3146 82.5033 0.0000 0.0000 0.0000
# 4 0.0000 0.0000 0.0000 18.6384 0.0000 0.0000
# 5 0.0000 0.0000 0.0000 0.0000 24.1019 0.0000
# 6 0.0000 0.0000 0.0000 0.0000 0.0000 6.9621
#
#
#
# Elastic Compliance Matrix: (Units=1/GPa)
#
#
# Indices 1 2 3 4 5 6 
#
# 1 0.006686 -0.000520 -0.000432 0.000000 0.000000 0.000000
# 2 -0.000520 0.013981 -0.001033 0.000000 0.000000 0.000000
# 3 -0.000432 -0.001033 0.012230 0.000000 0.000000 0.000000
# 4 0.000000 0.000000 0.000000 0.053653 0.000000 0.000000
# 5 0.000000 0.000000 0.000000 0.000000 0.041491 0.000000
# 6 0.000000 0.000000 0.000000 0.000000 0.000000 0.143634
#
#
# Mechanical properties :
#
#
# Convention : Reuss Voigt Hill
#
# Bulk Modulus (GPa) = 34.57066 37.94020 36.25543
# Shear Modulus (GPa) = 17.52618 29.07224 23.29921
#
# Velocity S-wave (km/s) = 2.80382 3.61115 3.23279
# Velocity P-wave (km/s) = 5.09790 5.86561 5.49518
#
# Compressibility (1/GPa) = 0.02892626
#
# Stress axis : x y z
#
# Youngs Moduli (GPa) = 149.57420 71.52498 81.76413
#
# Poissons Ratio (x) = 0.03720 0.03532
# Poissons Ratio (y) = 0.07779 0.08449
# Poissons Ratio (z) = 0.06461 0.07391
#
# Static dielectric constant tensor:
#      x y z
#    x 4.686410 0.000000 0.000000 
#    y 0.000000 3.831180 0.000000 
#    z 0.000000 0.000000 3.743590 
# 
# 
# High freq. dielectric constant tensor:
#      x y z
#    x 1.901040 0.000000 0.000000 
#    y 0.000000 1.850830 0.000000 
#    z 0.000000 0.000000 1.863000 
# 
# From -- ./inp_files/3051.got.cif
#   From: 2010.03.12/outbox.cif.g09.slc.cpg/sg62_2_cif.got.tgz:3051.got - 2010.04.10 19:12:36.
