data_PCOD8253298
_publ_section_title
;
Structure prediction by ZEFSAII (Michael W. Deem and Ramdas Pophale) SiO2 
 PCOD8253298
Probable space group: P N M A
;
_chemical_formula_sum "Si O2"
_cell_formula_units_Z 48
_cell_length_a 17.783483
_cell_length_b 14.390063
_cell_length_c 8.218324
_cell_angle_alpha 90.000000
_cell_angle_beta 90.000000
_cell_angle_gamma 90.000000
_cell_volume 2103.113825
_symmetry_space_group_name_H-M "P N M A"
_symmetry_group_IT_number 62
_symmetry_cell_setting 'orthorhombic'
loop_
_space_group_symop_operation_xyz
x,y,z
1/2-x,-y,1/2+z
1/2+x,1/2-y,1/2-z
-x,1/2+y,-z
-x,-y,-z
1/2+x,y,1/2-z
1/2-x,1/2+y,1/2+z
x,1/2-y,z
loop_
_atom_site_type_symbol
_atom_site_label
_atom_site_fract_x
_atom_site_fract_y
_atom_site_fract_z
Si Si1 0.838480 0.250000 0.529354
Si Si2 0.784902 0.554114 0.732916
Si Si3 0.438892 0.750000 0.392845
Si Si4 0.814662 0.750000 0.843772
Si Si5 0.616297 0.750000 0.399880
Si Si6 0.891461 0.052795 0.942277
Si Si7 0.960964 0.943327 0.229398
Si Si8 0.644072 0.951579 0.929726
O O1 0.750209 0.250000 0.482515
O O2 0.849869 0.250000 0.720261
O O3 0.877125 0.156305 0.459745
O O4 0.807710 0.662247 0.722885
O O5 0.825525 0.516187 0.895028
O O6 0.809314 0.495426 0.577726
O O7 0.695687 0.541806 0.765670
O O8 0.394430 0.750000 0.563476
O O9 0.526967 0.750000 0.427537
O O10 0.420041 0.656659 0.291217
O O11 0.644652 0.845499 0.484044
O O12 0.948257 0.065839 0.783937
O O13 0.938311 0.016667 0.092097
O O14 0.932061 0.988996 0.398428
#
# Coordination Sequence:
#
# PCOD8253298 Si02
#       8
#     4   8   4   4   4   8   8   8
#     4  10  22  41  60  90 127 161 199 265 313 350
#     4  11  22  40  62  88 119 160 204 251 311 363
#     4  10  20  37  62  91 128 160 208 250 310 367
#     4  10  22  39  64  89 126 159 204 261 309 363
#     4  10  20  37  62  94 123 166 207 248 306 374
#     4  10  20  38  63  89 123 162 206 250 300 369
#     4  10  22  38  61  92 125 163 204 251 306 363
#     4  11  24  41  64  90 123 161 207 254 310 370
#
# _framework density 22.8233
#
# number of rings (size 3 to 8) (size 9 to 14) (size 15 to 20)
#    0.000    1.667    3.333    1.000    2.333    2.000 
#    0.000    5.000    0.000    0.000    0.000    0.000 
#    0.000    0.000    0.000    0.000    0.000    0.000 
#
# Total GULP energy -594957.425191 kJ/mol
# GULP energy per Si atom -12394.946358 kJ/mol
# Density = 2.277135 g / cm^3
# Si number density = 22.823300 Si / 1000 Ang^3
#
#
#
# Elastic Constant Matrix: (Units=GPa)
#
#
# Indices 1 2 3 4 5 6 
#
# 1 51.7175 10.0755 4.2528 0.0000 0.0000 0.0000
# 2 10.0755 193.8910 15.7779 0.0000 0.0000 0.0000
# 3 4.2528 15.7779 33.6290 0.0000 0.0000 0.0000
# 4 0.0000 0.0000 0.0000 32.9155 0.0000 0.0000
# 5 0.0000 0.0000 0.0000 0.0000 35.4421 0.0000
# 6 0.0000 0.0000 0.0000 0.0000 0.0000 17.1986
#
#
#
# Elastic Compliance Matrix: (Units=1/GPa)
#
#
# Indices 1 2 3 4 5 6 
#
# 1 0.019674 -0.000852 -0.002088 0.000000 0.000000 0.000000
# 2 -0.000852 0.005399 -0.002425 0.000000 0.000000 0.000000
# 3 -0.002088 -0.002425 0.031138 0.000000 0.000000 0.000000
# 4 0.000000 0.000000 0.000000 0.030381 0.000000 0.000000
# 5 0.000000 0.000000 0.000000 0.000000 0.028215 0.000000
# 6 0.000000 0.000000 0.000000 0.000000 0.000000 0.058144
#
#
# Mechanical properties :
#
#
# Convention : Reuss Voigt Hill
#
# Bulk Modulus (GPa) = 21.98802 37.71667 29.85235
# Shear Modulus (GPa) = 25.14552 33.71999 29.43276
#
# Velocity S-wave (km/s) = 3.32286 3.84791 3.59499
# Velocity P-wave (km/s) = 4.93729 6.02522 5.50818
#
# Compressibility (1/GPa) = 0.04547930
#
# Stress axis : x y z
#
# Youngs Moduli (GPa) = 50.82961 185.21266 32.11488
#
# Poissons Ratio (x) = 0.15788 0.06706
# Poissons Ratio (y) = 0.04333 0.07789
# Poissons Ratio (z) = 0.10613 0.44921
#
# Static dielectric constant tensor:
#      x y z
#    x 4.176100 0.000000 0.000000 
#    y 0.000000 4.745570 0.000000 
#    z 0.000000 0.000000 3.720370 
# 
# 
# High freq. dielectric constant tensor:
#      x y z
#    x 1.892600 0.000000 0.000000 
#    y 0.000000 1.926610 0.000000 
#    z 0.000000 0.000000 1.874730 
# 
# From -- ./inp_files/7721.got.cif
#   From: 2010.03.12/outbox.cif.g09.slc.cpg/sg62_4_cif.got.tgz:7721.got - 2010.04.10 19:12:36.
