data_PCOD8253620
_publ_section_title
;
Structure prediction by ZEFSAII (Michael W. Deem and Ramdas Pophale) SiO2 
 PCOD8253620
Probable space group: P N M A
;
_chemical_formula_sum "Si O2"
_cell_formula_units_Z 56
_cell_length_a 11.523078
_cell_length_b 20.111825
_cell_length_c 12.893175
_cell_angle_alpha 90.000000
_cell_angle_beta 90.000000
_cell_angle_gamma 90.000000
_cell_volume 2987.994959
_symmetry_space_group_name_H-M "P N M A"
_symmetry_group_IT_number 62
_symmetry_cell_setting 'orthorhombic'
loop_
_space_group_symop_operation_xyz
x,y,z
1/2-x,-y,1/2+z
1/2+x,1/2-y,1/2-z
-x,1/2+y,-z
-x,-y,-z
1/2+x,y,1/2-z
1/2-x,1/2+y,1/2+z
x,1/2-y,z
loop_
_atom_site_type_symbol
_atom_site_label
_atom_site_fract_x
_atom_site_fract_y
_atom_site_fract_z
Si Si1 0.842211 0.562000 0.002679
Si Si2 0.721015 0.473510 0.719252
Si Si3 0.300419 0.324294 0.288975
Si Si4 0.857985 0.921098 0.600074
Si Si5 0.477958 0.327001 0.473401
Si Si6 0.123247 0.921530 0.628534
Si Si7 0.317510 0.076715 0.580331
O O1 0.707997 0.565738 0.967792
O O2 0.887166 0.491084 0.954432
O O3 0.851442 0.563437 0.128447
O O4 0.909245 0.626304 0.958353
O O5 0.823267 0.512982 0.661959
O O6 0.635710 0.522437 0.782146
O O7 0.781193 0.422555 0.799093
O O8 0.260542 0.250000 0.270377
O O9 0.184876 0.359540 0.330774
O O10 0.407296 0.331291 0.367562
O O11 0.343819 0.351514 0.179305
O O12 0.799268 0.917793 0.487435
O O13 0.994833 0.919638 0.582671
O O14 0.509622 0.250000 0.500574
O O15 0.399897 0.359486 0.564466
#
# Coordination Sequence:
#
# PCOD8253620 Si02
#       7
#     8   8   8   8   8   8   8
#     4  10  21  36  54  87 114 139 181 230 278 321
#     4   9  20  33  54  85 106 147 176 220 281 322
#     4   9  20  35  54  79 107 147 183 216 277 337
#     4   9  19  35  52  81 114 135 178 231 270 326
#     4  10  21  37  57  80 109 145 186 228 267 326
#     4  10  21  34  54  82 115 138 176 230 276 329
#     4   9  19  36  58  82 109 144 181 223 277 325
#
# _framework density 18.741665000000001
#
# number of rings (size 3 to 8) (size 9 to 14) (size 15 to 20)
#    0.000    2.571    0.000    1.286    8.000    6.286 
#    0.000    0.714    0.000    0.000    0.000    0.000 
#    0.000    0.000    0.000    0.000    0.000    0.000 
#
# Total GULP energy -694210.579680 kJ/mol
# GULP energy per Si atom -12396.617494 kJ/mol
# Density = 1.869901 g / cm^3
# Si number density = 18.741665 Si / 1000 Ang^3
#
#
#
# Elastic Constant Matrix: (Units=GPa)
#
#
# Indices 1 2 3 4 5 6 
#
# 1 80.1052 22.0783 3.7234 0.0000 0.0000 0.0000
# 2 22.0783 99.2239 13.0281 0.0000 0.0000 0.0000
# 3 3.7234 13.0281 75.1074 0.0000 0.0000 0.0000
# 4 0.0000 0.0000 0.0000 21.3489 0.0000 0.0000
# 5 0.0000 0.0000 0.0000 0.0000 14.0219 0.0000
# 6 0.0000 0.0000 0.0000 0.0000 0.0000 20.7243
#
#
#
# Elastic Compliance Matrix: (Units=1/GPa)
#
#
# Indices 1 2 3 4 5 6 
#
# 1 0.013301 -0.002940 -0.000149 0.000000 0.000000 0.000000
# 2 -0.002940 0.010963 -0.001756 0.000000 0.000000 0.000000
# 3 -0.000149 -0.001756 0.013626 0.000000 0.000000 0.000000
# 4 0.000000 0.000000 0.000000 0.046841 0.000000 0.000000
# 5 0.000000 0.000000 0.000000 0.000000 0.071317 0.000000
# 6 0.000000 0.000000 0.000000 0.000000 0.000000 0.048252
#
#
# Mechanical properties :
#
#
# Convention : Reuss Voigt Hill
#
# Bulk Modulus (GPa) = 35.46159 36.89956 36.18057
# Shear Modulus (GPa) = 22.38230 25.59280 23.98755
#
# Velocity S-wave (km/s) = 3.45955 3.69935 3.58146
# Velocity P-wave (km/s) = 5.90934 6.16265 6.03732
#
# Compressibility (1/GPa) = 0.02819953
#
# Stress axis : x y z
#
# Youngs Moduli (GPa) = 75.18326 91.21642 73.38775
#
# Poissons Ratio (x) = 0.26817 0.01097
# Poissons Ratio (y) = 0.22104 0.12886
# Poissons Ratio (z) = 0.01123 0.16017
#
# Static dielectric constant tensor:
#      x y z
#    x 3.232000 0.000000 0.000000 
#    y 0.000000 3.514520 0.000000 
#    z 0.000000 0.000000 3.485130 
# 
# 
# High freq. dielectric constant tensor:
#      x y z
#    x 1.720800 0.000000 0.000000 
#    y 0.000000 1.709930 0.000000 
#    z 0.000000 0.000000 1.721580 
# 
# From -- ./inp_files/12403.got.cif
#   From: 2010.03.12/outbox.cif.g09.slc.cpg/sg62_7_cif.got.tgz:12403.got - 2010.04.10 19:12:36.
