data_PCOD8253869
_publ_section_title
;
Structure prediction by ZEFSAII (Michael W. Deem and Ramdas Pophale) SiO2 
 PCOD8253869
Probable space group: P N M A
;
_chemical_formula_sum "Si O2"
_cell_formula_units_Z 64
_cell_length_a 23.539235
_cell_length_b 9.581795
_cell_length_c 15.284781
_cell_angle_alpha 90.000000
_cell_angle_beta 90.000000
_cell_angle_gamma 90.000000
_cell_volume 3447.453684
_symmetry_space_group_name_H-M "P N M A"
_symmetry_group_IT_number 62
_symmetry_cell_setting 'orthorhombic'
loop_
_space_group_symop_operation_xyz
x,y,z
1/2-x,-y,1/2+z
1/2+x,1/2-y,1/2-z
-x,1/2+y,-z
-x,-y,-z
1/2+x,y,1/2-z
1/2-x,1/2+y,1/2+z
x,1/2-y,z
loop_
_atom_site_type_symbol
_atom_site_label
_atom_site_fract_x
_atom_site_fract_y
_atom_site_fract_z
Si Si1 0.996257 0.413828 0.672103
Si Si2 0.015559 0.588701 0.127619
Si Si3 0.786992 0.913702 0.032359
Si Si4 0.277986 0.910738 0.826164
Si Si5 0.381429 0.589039 0.104298
Si Si6 0.584869 0.088808 0.498284
Si Si7 0.723124 0.588502 0.856658
Si Si8 0.103593 0.090372 0.403141
O O1 0.987242 0.250000 0.658151
O O2 0.057246 0.461991 0.636839
O O3 0.991503 0.457913 0.772760
O O4 0.949002 0.491580 0.616102
O O5 0.032359 0.750000 0.119188
O O6 0.956151 0.557168 0.079783
O O7 0.066182 0.499429 0.085944
O O8 0.779795 0.750000 0.049718
O O9 0.852628 0.957129 0.026556
O O10 0.761166 0.994432 0.113702
O O11 0.756603 0.959668 0.942910
O O12 0.266763 0.750000 0.851781
O O13 0.263865 0.941020 0.725429
O O14 0.344225 0.947680 0.839388
O O15 0.371821 0.750000 0.129350
O O16 0.334165 0.499775 0.154462
O O17 0.375338 0.563133 0.001303
O O18 0.583244 0.250000 0.470137
O O19 0.705896 0.750000 0.862102
O O20 0.083810 0.250000 0.391077
#
# Coordination Sequence:
#
# PCOD8253869 Si02
#       8
#     8   8   8   8   8   8   8   8
#     4  10  22  36  56  83 111 142 184 234 279 328
#     4   9  19  36  53  79 112 143 181 229 275 324
#     4  10  21  37  60  86 111 148 190 230 279 335
#     4  10  22  39  58  84 118 150 186 234 282 332
#     4  10  21  39  60  82 110 147 186 229 281 333
#     4   9  19  35  57  80 109 147 184 223 273 329
#     4  10  22  38  57  85 118 149 187 234 280 332
#     4  10  21  38  59  82 110 146 186 228 279 334
#
# _framework density 18.564426999999998
#
# number of rings (size 3 to 8) (size 9 to 14) (size 15 to 20)
#    0.000    2.250    1.250    0.375    3.500    3.000 
#    0.000    0.000    0.000    0.000    0.000    0.000 
#    0.000    0.000    0.000    0.000    0.000    0.000 
#
# Total GULP energy -793906.869484 kJ/mol
# GULP energy per Si atom -12404.794836 kJ/mol
# Density = 1.852217 g / cm^3
# Si number density = 18.564427 Si / 1000 Ang^3
#
#
#
# Elastic Constant Matrix: (Units=GPa)
#
#
# Indices 1 2 3 4 5 6 
#
# 1 79.0598 29.6562 5.5025 0.0000 0.0000 0.0000
# 2 29.6562 41.0375 16.1816 0.0000 0.0000 0.0000
# 3 5.5025 16.1816 51.7468 0.0000 0.0000 0.0000
# 4 0.0000 0.0000 0.0000 26.2563 0.0000 0.0000
# 5 0.0000 0.0000 0.0000 0.0000 26.1107 0.0000
# 6 0.0000 0.0000 0.0000 0.0000 0.0000 32.5514
#
#
#
# Elastic Compliance Matrix: (Units=1/GPa)
#
#
# Indices 1 2 3 4 5 6 
#
# 1 0.017611 -0.013674 0.002403 0.000000 0.000000 0.000000
# 2 -0.013674 0.038413 -0.010558 0.000000 0.000000 0.000000
# 3 0.002403 -0.010558 0.022371 0.000000 0.000000 0.000000
# 4 0.000000 0.000000 0.000000 0.038086 0.000000 0.000000
# 5 0.000000 0.000000 0.000000 0.000000 0.038298 0.000000
# 6 0.000000 0.000000 0.000000 0.000000 0.000000 0.030721
#
#
# Mechanical properties :
#
#
# Convention : Reuss Voigt Hill
#
# Bulk Modulus (GPa) = 28.78781 30.50271 29.64526
# Shear Modulus (GPa) = 20.76960 25.01726 22.89343
#
# Velocity S-wave (km/s) = 3.34845 3.67494 3.51549
# Velocity P-wave (km/s) = 5.52179 5.87140 5.69927
#
# Compressibility (1/GPa) = 0.03473692
#
# Stress axis : x y z
#
# Youngs Moduli (GPa) = 56.78347 26.03288 44.70108
#
# Poissons Ratio (x) = 0.35598 -0.10744
# Poissons Ratio (y) = 0.77647 0.47195
# Poissons Ratio (z) = -0.13647 0.27485
#
# Static dielectric constant tensor:
#      x y z
#    x 3.427350 0.000000 0.000000 
#    y 0.000000 3.345950 0.000000 
#    z 0.000000 0.000000 3.442010 
# 
# 
# High freq. dielectric constant tensor:
#      x y z
#    x 1.727350 0.000000 0.000000 
#    y 0.000000 1.714290 0.000000 
#    z 0.000000 0.000000 1.726230 
# 
# From -- ./inp_files/20840.got.cif
#   From: 2010.03.12/outbox.cif.g09.slc.cpg/sg62_11_cif.got.tgz:20840.got - 2010.04.10 19:12:36.
