data_PCOD8253613
_publ_section_title
;
Structure prediction by ZEFSAII (Michael W. Deem and Ramdas Pophale) SiO2 
 PCOD8253613
Probable space group: P N M A
;
_chemical_formula_sum "Si O2"
_cell_formula_units_Z 56
_cell_length_a 22.179459
_cell_length_b 14.780528
_cell_length_c 9.010765
_cell_angle_alpha 90.000000
_cell_angle_beta 90.000000
_cell_angle_gamma 90.000000
_cell_volume 2953.946060
_symmetry_space_group_name_H-M "P N M A"
_symmetry_group_IT_number 62
_symmetry_cell_setting 'orthorhombic'
loop_
_space_group_symop_operation_xyz
x,y,z
1/2-x,-y,1/2+z
1/2+x,1/2-y,1/2-z
-x,1/2+y,-z
-x,-y,-z
1/2+x,y,1/2-z
1/2-x,1/2+y,1/2+z
x,1/2-y,z
loop_
_atom_site_type_symbol
_atom_site_label
_atom_site_fract_x
_atom_site_fract_y
_atom_site_fract_z
Si Si1 0.143379 0.527993 0.804221
Si Si2 0.914192 0.357820 0.945537
Si Si3 0.885454 0.351967 0.623203
Si Si4 0.714994 0.853628 0.908461
Si Si5 0.468350 0.644602 0.618216
Si Si6 0.154996 0.353622 0.971182
Si Si7 0.532601 0.933213 0.891250
O O1 0.198144 0.578985 0.723679
O O2 0.163346 0.424889 0.837875
O O3 0.084767 0.518042 0.701758
O O4 0.131583 0.588236 0.949725
O O5 0.903332 0.250000 0.963104
O O6 0.904243 0.398491 0.779382
O O7 0.982440 0.383342 0.994072
O O8 0.878162 0.250000 0.672339
O O9 0.821223 0.386033 0.557089
O O10 0.936564 0.358157 0.496262
O O11 0.695140 0.750000 0.871460
O O12 0.786390 0.858987 0.926422
O O13 0.467934 0.750000 0.640627
O O14 0.402698 0.612053 0.565032
O O15 0.482908 0.605974 0.780331
O O16 0.146260 0.250000 0.911751
O O17 0.500000 0.000000 0.000000
#
# Coordination Sequence:
#
# PCOD8253613 Si02
#       7
#     8   8   8   8   8   8   8
#     4  10  21  36  57  82 110 145 186 236 279 329
#     4   9  18  32  58  89 112 141 187 236 277 325
#     4   9  18  33  55  81 108 141 181 234 280 318
#     4   9  19  39  60  79 108 146 189 231 281 331
#     4   9  19  36  55  77 112 152 185 221 280 343
#     4  10  22  38  58  81 113 154 189 226 278 343
#     4  10  21  33  52  81 112 142 183 229 278 332
#
# _framework density 18.957692999999999
#
# number of rings (size 3 to 8) (size 9 to 14) (size 15 to 20)
#    0.000    2.571    0.000    0.857    4.000    5.714 
#    2.571    0.714    0.000    0.857    0.000    0.000 
#    0.000    0.000    0.000    0.000    0.000    0.000 
#
# Total GULP energy -694052.074037 kJ/mol
# GULP energy per Si atom -12393.787036 kJ/mol
# Density = 1.891454 g / cm^3
# Si number density = 18.957693 Si / 1000 Ang^3
#
#
#
# Elastic Constant Matrix: (Units=GPa)
#
#
# Indices 1 2 3 4 5 6 
#
# 1 101.1907 32.2345 50.8717 0.0000 0.0000 0.0000
# 2 32.2345 62.7393 47.2549 0.0000 0.0000 0.0000
# 3 50.8717 47.2549 128.8076 0.0000 0.0000 0.0000
# 4 0.0000 0.0000 0.0000 35.0038 0.0000 0.0000
# 5 0.0000 0.0000 0.0000 0.0000 17.9510 0.0000
# 6 0.0000 0.0000 0.0000 0.0000 0.0000 20.1807
#
#
#
# Elastic Compliance Matrix: (Units=1/GPa)
#
#
# Indices 1 2 3 4 5 6 
#
# 1 0.012980 -0.003880 -0.003703 0.000000 0.000000 0.000000
# 2 -0.003880 0.023185 -0.006973 0.000000 0.000000 0.000000
# 3 -0.003703 -0.006973 0.011784 0.000000 0.000000 0.000000
# 4 0.000000 0.000000 0.000000 0.028568 0.000000 0.000000
# 5 0.000000 0.000000 0.000000 0.000000 0.055707 0.000000
# 6 0.000000 0.000000 0.000000 0.000000 0.000000 0.049552
#
#
# Mechanical properties :
#
#
# Convention : Reuss Voigt Hill
#
# Bulk Modulus (GPa) = 53.08822 61.49554 57.29188
# Shear Modulus (GPa) = 23.02370 25.45220 24.23795
#
# Velocity S-wave (km/s) = 3.48872 3.66810 3.57953
# Velocity P-wave (km/s) = 6.65526 7.10272 6.88263
#
# Compressibility (1/GPa) = 0.01883657
#
# Stress axis : x y z
#
# Youngs Moduli (GPa) = 77.04263 43.13204 84.85923
#
# Poissons Ratio (x) = 0.16734 0.31423
# Poissons Ratio (y) = 0.29891 0.59175
# Poissons Ratio (z) = 0.28528 0.30077
#
# Static dielectric constant tensor:
#      x y z
#    x 3.675930 0.000000 0.000000 
#    y 0.000000 3.499590 0.000000 
#    z 0.000000 0.000000 3.626680 
# 
# 
# High freq. dielectric constant tensor:
#      x y z
#    x 1.732750 0.000000 0.000000 
#    y 0.000000 1.732930 0.000000 
#    z 0.000000 0.000000 1.732460 
# 
# From -- ./inp_files/8721.got.cif
#   From: 2010.03.12/outbox.cif.g09.slc.cpg/sg62_5_cif.got.tgz:8721.got - 2010.04.10 19:12:36.
