data_PCOD8253115
_publ_section_title
;
Structure prediction by ZEFSAII (Michael W. Deem and Ramdas Pophale) SiO2 
 PCOD8253115
Probable space group: P N M A
;
_chemical_formula_sum "Si O2"
_cell_formula_units_Z 40
_cell_length_a 5.074779
_cell_length_b 10.790615
_cell_length_c 28.590967
_cell_angle_alpha 90.000000
_cell_angle_beta 90.000000
_cell_angle_gamma 90.000000
_cell_volume 1565.640964
_symmetry_space_group_name_H-M "P N M A"
_symmetry_group_IT_number 62
_symmetry_cell_setting 'orthorhombic'
loop_
_space_group_symop_operation_xyz
x,y,z
1/2-x,-y,1/2+z
1/2+x,1/2-y,1/2-z
-x,1/2+y,-z
-x,-y,-z
1/2+x,y,1/2-z
1/2-x,1/2+y,1/2+z
x,1/2-y,z
loop_
_atom_site_type_symbol
_atom_site_label
_atom_site_fract_x
_atom_site_fract_y
_atom_site_fract_z
Si Si1 0.039600 0.496238 0.648400
Si Si2 0.828050 0.250000 0.628810
Si Si3 0.795626 0.498884 0.458270
Si Si4 0.837035 0.250000 0.932473
Si Si5 0.137778 0.250000 0.069350
Si Si6 0.860061 0.750000 0.632085
Si Si7 0.105959 0.894720 0.220216
O O1 0.860625 0.374135 0.660847
O O2 0.068463 0.499558 0.592481
O O3 0.902977 0.625960 0.663519
O O4 0.320644 0.477107 0.674291
O O5 0.037450 0.250000 0.586643
O O6 0.532453 0.250000 0.610809
O O7 0.621134 0.624855 0.463016
O O8 0.000000 0.500000 0.500000
O O9 0.610500 0.375804 0.461606
O O10 0.433530 0.250000 0.089481
O O11 0.933606 0.250000 0.111758
O O12 0.823087 0.930744 0.240484
O O13 0.120497 0.750000 0.206189
#
# Coordination Sequence:
#
# PCOD8253115 Si02
#       7
#     8   4   8   4   4   4   8
#     4  10  21  41  61  93 123 166 205 260 314 379
#     4  10  20  36  61  87 116 154 206 255 307 358
#     4  10  21  39  62  90 127 168 215 262 315 375
#     4  10  21  36  56  87 116 156 208 257 298 356
#     4  10  21  40  56  85 122 166 204 251 306 370
#     4  10  22  38  63  85 122 162 202 243 313 372
#     4  10  22  40  64  94 124 159 203 261 322 379
#
# _framework density 25.548639000000001
#
# number of rings (size 3 to 8) (size 9 to 14) (size 15 to 20)
#    0.000    2.000    1.000    1.800    0.000    6.400 
#    0.000   25.000    0.000    0.000    0.000    0.000 
#    0.000    0.000    0.000    0.000    0.000    0.000 
#
# Total GULP energy -495718.014977 kJ/mol
# GULP energy per Si atom -12392.950374 kJ/mol
# Density = 2.549049 g / cm^3
# Si number density = 25.548639 Si / 1000 Ang^3
#
#
#
# Elastic Constant Matrix: (Units=GPa)
#
#
# Indices 1 2 3 4 5 6 
#
# 1 42.8415 8.3927 4.7158 0.0000 0.0000 0.0000
# 2 8.3927 252.1399 2.0366 0.0000 0.0000 0.0000
# 3 4.7158 2.0366 73.7036 0.0000 0.0000 0.0000
# 4 0.0000 0.0000 0.0000 1285.1270 0.0000 0.0000
# 5 0.0000 0.0000 0.0000 0.0000 28.5602 0.0000
# 6 0.0000 0.0000 0.0000 0.0000 0.0000 73.5501
#
#
#
# Elastic Compliance Matrix: (Units=1/GPa)
#
#
# Indices 1 2 3 4 5 6 
#
# 1 0.023658 -0.000775 -0.001492 0.000000 0.000000 0.000000
# 2 -0.000775 0.003992 -0.000061 0.000000 0.000000 0.000000
# 3 -0.001492 -0.000061 0.013665 0.000000 0.000000 0.000000
# 4 0.000000 0.000000 0.000000 0.000778 0.000000 0.000000
# 5 0.000000 0.000000 0.000000 0.000000 0.035014 0.000000
# 6 0.000000 0.000000 0.000000 0.000000 0.000000 0.013596
#
#
# Mechanical properties :
#
#
# Convention : Reuss Voigt Hill
#
# Bulk Modulus (GPa) = 27.27879 44.33060 35.80470
# Shear Modulus (GPa) = 46.47713 301.01679 173.74696
#
# Velocity S-wave (km/s) = 4.26979 10.86632 8.25554
# Velocity P-wave (km/s) = 5.91680 13.22214 10.24289
#
# Compressibility (1/GPa) = 0.03665852
#
# Stress axis : x y z
#
# Youngs Moduli (GPa) = 42.26897 250.47885 73.17958
#
# Poissons Ratio (x) = 0.19423 0.10921
# Poissons Ratio (y) = 0.03278 0.00444
# Poissons Ratio (z) = 0.06308 0.01521
#
# Static dielectric constant tensor:
#      x y z
#    x 4.340480 0.000000 0.000000 
#    y 0.000000 6.996000 0.000000 
#    z 0.000000 0.000000 4.287040 
# 
# 
# High freq. dielectric constant tensor:
#      x y z
#    x 2.009570 0.000000 0.000000 
#    y 0.000000 2.039490 0.000000 
#    z 0.000000 0.000000 2.004430 
# 
# From -- ./inp_files/30291.got.cif
#   From: 2010.03.12/outbox.cif.g09.slc.cpg/sg62_16_cif.got.tgz:30291.got - 2010.04.10 19:12:36.
