data_PCOD8253968
_publ_section_title
;
Structure prediction by ZEFSAII (Michael W. Deem and Ramdas Pophale) SiO2 
 PCOD8253968
Probable space group: P N M A
;
_chemical_formula_sum "Si O2"
_cell_formula_units_Z 48
_cell_length_a 30.162242
_cell_length_b 8.765068
_cell_length_c 9.137683
_cell_angle_alpha 90.000000
_cell_angle_beta 90.000000
_cell_angle_gamma 90.000000
_cell_volume 2415.766739
_symmetry_space_group_name_H-M "P N M A"
_symmetry_group_IT_number 62
_symmetry_cell_setting 'orthorhombic'
loop_
_space_group_symop_operation_xyz
x,y,z
1/2-x,-y,1/2+z
1/2+x,1/2-y,1/2-z
-x,1/2+y,-z
-x,-y,-z
1/2+x,y,1/2-z
1/2-x,1/2+y,1/2+z
x,1/2-y,z
loop_
_atom_site_type_symbol
_atom_site_label
_atom_site_fract_x
_atom_site_fract_y
_atom_site_fract_z
Si Si1 0.876204 0.571729 0.150195
Si Si2 0.448229 0.073219 0.157689
Si Si3 0.791662 0.069874 0.659636
Si Si4 0.877193 0.429741 0.839307
Si Si5 0.208175 0.071088 0.658054
Si Si6 0.949073 0.927127 0.646834
O O1 0.876750 0.750000 0.111844
O O2 0.922723 0.524624 0.221510
O O3 0.837237 0.528429 0.261497
O O4 0.867700 0.475858 0.004886
O O5 0.435890 0.250000 0.175103
O O6 0.499892 0.041432 0.184789
O O7 0.434062 0.020528 0.995889
O O8 0.789283 0.250000 0.650847
O O9 0.835779 0.015219 0.742391
O O10 0.749080 0.006448 0.746963
O O11 0.791674 0.006768 0.497788
O O12 0.884927 0.250000 0.828513
O O13 0.920980 0.516160 0.784507
O O14 0.213018 0.250000 0.633828
O O15 0.940377 0.750000 0.615392
#
# Coordination Sequence:
#
# PCOD8253968 Si02
#       6
#     8   8   8   8   8   8
#     4  11  23  38  58  84 115 151 191 235 283 336
#     4  10  21  38  60  85 114 149 189 234 284 338
#     4  10  22  39  59  85 115 148 187 230 279 334
#     4  11  23  38  58  84 115 151 191 235 283 336
#     4  10  22  39  59  85 115 148 187 230 279 334
#     4  10  21  38  60  85 114 149 189 234 284 338
#
# _framework density 19.869468999999999
#
# number of rings (size 3 to 8) (size 9 to 14) (size 15 to 20)
#    0.000    1.667    0.000    4.000    0.000    8.667 
#    0.000    0.000    0.000    0.000    0.000    0.000 
#    0.000    0.000    0.000    0.000    0.000    0.000 
#
# Total GULP energy -595533.022804 kJ/mol
# GULP energy per Si atom -12406.937975 kJ/mol
# Density = 1.982425 g / cm^3
# Si number density = 19.869469 Si / 1000 Ang^3
#
#
#
# Elastic Constant Matrix: (Units=GPa)
#
#
# Indices 1 2 3 4 5 6 
#
# 1 108.1469 43.7531 61.7468 0.0000 0.0000 0.0000
# 2 43.7531 34.3908 20.7133 0.0000 0.0000 0.0000
# 3 61.7468 20.7133 128.4595 0.0000 0.0000 0.0000
# 4 0.0000 0.0000 0.0000 42.1136 0.0000 0.0000
# 5 0.0000 0.0000 0.0000 0.0000 30.7631 0.0000
# 6 0.0000 0.0000 0.0000 0.0000 0.0000 17.4281
#
#
#
# Elastic Compliance Matrix: (Units=1/GPa)
#
#
# Indices 1 2 3 4 5 6 
#
# 1 0.023992 -0.026113 -0.007321 0.000000 0.000000 0.000000
# 2 -0.026113 0.060627 0.002776 0.000000 0.000000 0.000000
# 3 -0.007321 0.002776 0.010856 0.000000 0.000000 0.000000
# 4 0.000000 0.000000 0.000000 0.023745 0.000000 0.000000
# 5 0.000000 0.000000 0.000000 0.000000 0.032506 0.000000
# 6 0.000000 0.000000 0.000000 0.000000 0.000000 0.057378
#
#
# Mechanical properties :
#
#
# Convention : Reuss Voigt Hill
#
# Bulk Modulus (GPa) = 29.27567 58.15818 43.71692
# Shear Modulus (GPa) = 17.74254 27.71325 22.72790
#
# Velocity S-wave (km/s) = 2.99148 3.73871 3.38577
# Velocity P-wave (km/s) = 5.16700 6.92610 6.11019
#
# Compressibility (1/GPa) = 0.03415806
#
# Stress axis : x y z
#
# Youngs Moduli (GPa) = 41.68138 16.49417 92.11364
#
# Poissons Ratio (x) = 0.43071 0.67441
# Poissons Ratio (y) = 1.08843 -0.25571
# Poissons Ratio (z) = 0.30517 -0.04579
#
# Static dielectric constant tensor:
#      x y z
#    x 3.966750 0.000000 0.000000 
#    y 0.000000 3.583220 0.000000 
#    z 0.000000 0.000000 3.566790 
# 
# 
# High freq. dielectric constant tensor:
#      x y z
#    x 1.788620 0.000000 0.000000 
#    y 0.000000 1.778010 0.000000 
#    z 0.000000 0.000000 1.781550 
# 
# From -- ./inp_files/4492.got.cif
#   From: 2010.03.12/outbox.cif.g09.slc.cpg/sg62_3_cif.got.tgz:4492.got - 2010.04.10 19:12:36.
