data_PCOD8253090
_publ_section_title
;
Structure prediction by ZEFSAII (Michael W. Deem and Ramdas Pophale) SiO2 
 PCOD8253090
Probable space group: P N M A
;
_chemical_formula_sum "Si O2"
_cell_formula_units_Z 48
_cell_length_a 8.871089
_cell_length_b 8.951294
_cell_length_c 30.232377
_cell_angle_alpha 90.000000
_cell_angle_beta 90.000000
_cell_angle_gamma 90.000000
_cell_volume 2400.684301
_symmetry_space_group_name_H-M "P N M A"
_symmetry_group_IT_number 62
_symmetry_cell_setting 'orthorhombic'
loop_
_space_group_symop_operation_xyz
x,y,z
1/2-x,-y,1/2+z
1/2+x,1/2-y,1/2-z
-x,1/2+y,-z
-x,-y,-z
1/2+x,y,1/2-z
1/2-x,1/2+y,1/2+z
x,1/2-y,z
loop_
_atom_site_type_symbol
_atom_site_label
_atom_site_fract_x
_atom_site_fract_y
_atom_site_fract_z
Si Si1 0.125468 0.079479 0.379331
Si Si2 0.630699 0.923615 0.281413
Si Si3 0.185682 0.578191 0.793739
Si Si4 0.650201 0.074340 0.447993
Si Si5 0.310633 0.074798 0.463875
Si Si6 0.817354 0.922011 0.368502
O O1 0.066926 0.250000 0.381247
O O2 0.258811 0.064029 0.343957
O O3 0.190844 0.028824 0.426621
O O4 0.989927 0.971839 0.366468
O O5 0.590662 0.750000 0.275192
O O6 0.750081 0.950277 0.320206
O O7 0.701184 0.985251 0.236569
O O8 0.480470 0.012625 0.292326
O O9 0.182693 0.750000 0.777889
O O10 0.668545 0.250000 0.449511
O O11 0.476277 0.022921 0.448074
O O12 0.734973 0.007565 0.490843
O O13 0.725294 0.016851 0.403610
O O14 0.309245 0.250000 0.472883
O O15 0.807837 0.750000 0.382289
#
# Coordination Sequence:
#
# PCOD8253090 Si02
#       6
#     8   8   8   8   8   8
#     4  10  22  39  59  84 115 151 191 237 287 340
#     4  11  24  41  61  87 120 156 193 237 291 347
#     4  11  23  40  64  91 118 152 195 241 289 343
#     4  10  20  36  60  86 113 148 190 237 288 342
#     4   9  19  37  59  84 114 147 187 235 287 343
#     4  11  24  39  57  83 116 154 194 236 284 341
#
# _framework density 19.994298000000001
#
# number of rings (size 3 to 8) (size 9 to 14) (size 15 to 20)
#    0.000    1.667    0.000    4.000    0.000   10.000 
#    0.000    0.000    0.000    0.000    0.000    0.000 
#    0.000    0.000    0.000    0.000    0.000    0.000 
#
# Total GULP energy -595493.878702 kJ/mol
# GULP energy per Si atom -12406.122473 kJ/mol
# Density = 1.994879 g / cm^3
# Si number density = 19.994298 Si / 1000 Ang^3
#
#
#
# Elastic Constant Matrix: (Units=GPa)
#
#
# Indices 1 2 3 4 5 6 
#
# 1 55.2240 31.7754 -18.3620 0.0000 0.0000 0.0000
# 2 31.7754 18.2779 60.6090 0.0000 0.0000 0.0000
# 3 -18.3620 60.6090 36.1709 0.0000 0.0000 0.0000
# 4 0.0000 0.0000 0.0000 26.8997 0.0000 0.0000
# 5 0.0000 0.0000 0.0000 0.0000 35.3897 0.0000
# 6 0.0000 0.0000 0.0000 0.0000 0.0000 35.1200
#
#
#
# Elastic Compliance Matrix: (Units=1/GPa)
#
#
# Indices 1 2 3 4 5 6 
#
# 1 0.010767 0.008086 -0.008084 0.000000 0.000000 0.000000
# 2 0.008086 -0.005935 0.014050 0.000000 0.000000 0.000000
# 3 -0.008084 0.014050 0.000001 0.000000 0.000000 0.000000
# 4 0.000000 0.000000 0.000000 0.037175 0.000000 0.000000
# 5 0.000000 0.000000 0.000000 0.000000 0.028257 0.000000
# 6 0.000000 0.000000 0.000000 0.000000 0.000000 0.028474
#
#
# Mechanical properties :
#
#
# Convention : Reuss Voigt Hill
#
# Bulk Modulus (GPa) = 30.35990 28.63529 29.49759
# Shear Modulus (GPa) = 61.26376 21.85857 41.56117
#
# Velocity S-wave (km/s) = 5.54140 3.31001 4.56417
# Velocity P-wave (km/s) = 7.49400 5.38154 6.52384
#
# Compressibility (1/GPa) = 0.03293819
#
# Stress axis : x y z
#
# Youngs Moduli (GPa) = 92.87248 -168.49669 944964.94406
#
# Poissons Ratio (x) = 1.36252 7638.76773
# Poissons Ratio (y) = -0.75100 -13276.35004
# Poissons Ratio (z) = 0.75075 2.36731
#
# Static dielectric constant tensor:
#      x y z
#    x 3.667410 0.000000 0.000000 
#    y 0.000000 3.762700 0.000000 
#    z 0.000000 0.000000 3.756120 
# 
# 
# High freq. dielectric constant tensor:
#      x y z
#    x 1.782080 0.000000 0.000000 
#    y 0.000000 1.787240 0.000000 
#    z 0.000000 0.000000 1.793510 
# 
# From -- ./inp_files/31910.got.cif
#   From: 2010.03.12/outbox.cif.g09.slc.cpg/sg62_16_cif.got.tgz:31910.got - 2010.04.10 19:12:36.
