data_PCOD8253846
_publ_section_title
;
Structure prediction by ZEFSAII (Michael W. Deem and Ramdas Pophale) SiO2 
 PCOD8253846
Probable space group: P N M A
;
_chemical_formula_sum "Si O2"
_cell_formula_units_Z 48
_cell_length_a 12.914681
_cell_length_b 13.993109
_cell_length_c 13.222877
_cell_angle_alpha 90.000000
_cell_angle_beta 90.000000
_cell_angle_gamma 90.000000
_cell_volume 2389.592566
_symmetry_space_group_name_H-M "P N M A"
_symmetry_group_IT_number 62
_symmetry_cell_setting 'orthorhombic'
loop_
_space_group_symop_operation_xyz
x,y,z
1/2-x,-y,1/2+z
1/2+x,1/2-y,1/2-z
-x,1/2+y,-z
-x,-y,-z
1/2+x,y,1/2-z
1/2-x,1/2+y,1/2+z
x,1/2-y,z
loop_
_atom_site_type_symbol
_atom_site_label
_atom_site_fract_x
_atom_site_fract_y
_atom_site_fract_z
Si Si1 0.584100 0.549341 0.263909
Si Si2 0.606652 0.250000 0.479990
Si Si3 0.965005 0.250000 0.203152
Si Si4 0.730509 0.452870 0.105362
Si Si5 0.090027 0.750000 0.127253
Si Si6 0.709314 0.063440 0.418078
Si Si7 0.606599 0.561931 0.762926
Si Si8 0.234699 0.750000 0.935819
O O1 0.658066 0.522248 0.170702
O O2 0.596625 0.658881 0.298202
O O3 0.610114 0.481584 0.360380
O O4 0.467499 0.530203 0.222422
O O5 0.564551 0.250000 0.366719
O O6 0.519097 0.250000 0.566611
O O7 0.677469 0.155441 0.484985
O O8 0.967860 0.345429 0.270837
O O9 0.860080 0.250000 0.140414
O O10 0.845619 0.452194 0.151755
O O11 0.693775 0.342357 0.089958
O O12 0.739357 0.488796 0.992356
O O13 0.187513 0.750000 0.050360
O O14 0.800094 0.081909 0.338738
#
# Coordination Sequence:
#
# PCOD8253846 Si02
#       8
#     8   4   4   8   4   8   8   4
#     4  11  23  39  61  90 128 167 215 266 329 379
#     4  11  21  34  65  94 118 161 216 260 325 375
#     4   9  17  32  57  88 115 146 198 264 302 364
#     4  10  22  38  61  91 125 170 213 266 317 389
#     4  11  22  38  65  94 127 170 211 274 322 384
#     4  11  22  38  60  91 125 168 212 269 321 387
#     4  10  21  37  58  89 125 160 205 267 321 375
#     4   9  18  36  61  90 122 161 215 254 315 375
#
# _framework density 20.087107
#
# number of rings (size 3 to 8) (size 9 to 14) (size 15 to 20)
#    0.000    1.667    3.333    1.500    0.000    5.333 
#    0.000    4.167    0.000    0.000    0.000    0.000 
#    0.000    0.000    0.000    0.000    0.000    0.000 
#
# Total GULP energy -594823.228012 kJ/mol
# GULP energy per Si atom -12392.150584 kJ/mol
# Density = 2.004139 g / cm^3
# Si number density = 20.087107 Si / 1000 Ang^3
#
#
#
# Elastic Constant Matrix: (Units=GPa)
#
#
# Indices 1 2 3 4 5 6 
#
# 1 66.6005 45.6597 20.1509 0.0000 0.0000 0.0000
# 2 45.6597 131.8653 34.8635 0.0000 0.0000 0.0000
# 3 20.1509 34.8635 61.5603 0.0000 0.0000 0.0000
# 4 0.0000 0.0000 0.0000 34.8984 0.0000 0.0000
# 5 0.0000 0.0000 0.0000 0.0000 23.8982 0.0000
# 6 0.0000 0.0000 0.0000 0.0000 0.0000 28.4461
#
#
#
# Elastic Compliance Matrix: (Units=1/GPa)
#
#
# Indices 1 2 3 4 5 6 
#
# 1 0.020184 -0.006165 -0.003115 0.000000 0.000000 0.000000
# 2 -0.006165 0.010802 -0.004099 0.000000 0.000000 0.000000
# 3 -0.003115 -0.004099 0.019586 0.000000 0.000000 0.000000
# 4 0.000000 0.000000 0.000000 0.028655 0.000000 0.000000
# 5 0.000000 0.000000 0.000000 0.000000 0.041844 0.000000
# 6 0.000000 0.000000 0.000000 0.000000 0.000000 0.035154
#
#
# Mechanical properties :
#
#
# Convention : Reuss Voigt Hill
#
# Bulk Modulus (GPa) = 41.99616 51.26380 46.62998
# Shear Modulus (GPa) = 26.18860 28.07201 27.13030
#
# Velocity S-wave (km/s) = 3.61467 3.74239 3.67908
# Velocity P-wave (km/s) = 6.19464 6.65208 6.42743
#
# Compressibility (1/GPa) = 0.02381170
#
# Stress axis : x y z
#
# Youngs Moduli (GPa) = 49.54341 92.57419 51.05772
#
# Poissons Ratio (x) = 0.57075 0.15907
# Poissons Ratio (y) = 0.30545 0.20931
# Poissons Ratio (z) = 0.15435 0.37950
#
# Static dielectric constant tensor:
#      x y z
#    x 3.403230 0.000000 0.000000 
#    y 0.000000 3.917830 0.000000 
#    z 0.000000 0.000000 3.457250 
# 
# 
# High freq. dielectric constant tensor:
#      x y z
#    x 1.765590 0.000000 0.000000 
#    y 0.000000 1.795720 0.000000 
#    z 0.000000 0.000000 1.767930 
# 
# From -- ./inp_files/18039.got.cif
#   From: 2010.03.12/outbox.cif.g09.slc.cpg/sg62_10_cif.got.tgz:18039.got - 2010.04.10 19:12:36.
