data_PCOD8253406
_publ_section_title
;
Structure prediction by ZEFSAII (Michael W. Deem and Ramdas Pophale) SiO2 
 PCOD8253406
Probable space group: P N M A
;
_chemical_formula_sum "Si O2"
_cell_formula_units_Z 48
_cell_length_a 9.701585
_cell_length_b 8.865102
_cell_length_c 27.566915
_cell_angle_alpha 90.000000
_cell_angle_beta 90.000000
_cell_angle_gamma 90.000000
_cell_volume 2370.907427
_symmetry_space_group_name_H-M "P N M A"
_symmetry_group_IT_number 62
_symmetry_cell_setting 'orthorhombic'
loop_
_space_group_symop_operation_xyz
x,y,z
1/2-x,-y,1/2+z
1/2+x,1/2-y,1/2-z
-x,1/2+y,-z
-x,-y,-z
1/2+x,y,1/2-z
1/2-x,1/2+y,1/2+z
x,1/2-y,z
loop_
_atom_site_type_symbol
_atom_site_label
_atom_site_fract_x
_atom_site_fract_y
_atom_site_fract_z
Si Si1 0.442784 0.924128 0.952602
Si Si2 0.968349 0.572783 0.948296
Si Si3 0.147295 0.071601 0.707164
Si Si4 0.794930 0.078907 0.389735
Si Si5 0.790961 0.571096 0.104212
Si Si6 0.664730 0.929568 0.205529
O O1 0.406473 0.750000 0.962498
O O2 0.551975 0.942231 0.909660
O O3 0.307116 0.015729 0.938820
O O4 0.500000 0.000000 0.000000
O O5 0.994231 0.750000 0.952822
O O6 0.812518 0.533958 0.932024
O O7 0.061639 0.503643 0.905515
O O8 0.000000 0.500000 0.000000
O O9 0.142549 0.250000 0.709762
O O10 0.240114 0.007243 0.751061
O O11 0.991172 0.006401 0.710758
O O12 0.221072 0.025329 0.657273
O O13 0.767598 0.250000 0.373329
O O14 0.804882 0.750000 0.102415
O O15 0.732565 0.513201 0.155561
O O16 0.660244 0.750000 0.206144
#
# Coordination Sequence:
#
# PCOD8253406 Si02
#       6
#     8   8   8   8   8   8
#     4  11  22  38  62  89 119 157 201 252 306 364
#     4  11  24  42  62  89 123 162 206 253 305 362
#     4  10  20  38  62  89 119 156 201 249 299 358
#     4  10  23  41  59  86 123 157 197 251 303 360
#     4  11  22  39  61  90 124 160 202 250 302 363
#     4   9  20  36  60  91 120 152 199 251 299 355
#
# _framework density 20.245412999999999
#
# number of rings (size 3 to 8) (size 9 to 14) (size 15 to 20)
#    0.000    1.667    1.667    2.500    2.333    3.333 
#    0.000    2.500    0.000    0.000    0.000    0.000 
#    0.000    0.000    0.000    0.000    0.000    0.000 
#
# Total GULP energy -595342.058922 kJ/mol
# GULP energy per Si atom -12402.959561 kJ/mol
# Density = 2.019933 g / cm^3
# Si number density = 20.245413 Si / 1000 Ang^3
#
#
#
# Elastic Constant Matrix: (Units=GPa)
#
#
# Indices 1 2 3 4 5 6 
#
# 1 91.6245 27.4700 24.6387 0.0000 0.0000 0.0000
# 2 27.4700 62.1863 28.0806 0.0000 0.0000 0.0000
# 3 24.6387 28.0806 110.8152 0.0000 0.0000 0.0000
# 4 0.0000 0.0000 0.0000 30.6967 0.0000 0.0000
# 5 0.0000 0.0000 0.0000 0.0000 38.0910 0.0000
# 6 0.0000 0.0000 0.0000 0.0000 0.0000 30.6448
#
#
#
# Elastic Compliance Matrix: (Units=1/GPa)
#
#
# Indices 1 2 3 4 5 6 
#
# 1 0.012826 -0.004944 -0.001599 0.000000 0.000000 0.000000
# 2 -0.004944 0.020064 -0.003985 0.000000 0.000000 0.000000
# 3 -0.001599 -0.003985 0.010389 0.000000 0.000000 0.000000
# 4 0.000000 0.000000 0.000000 0.032577 0.000000 0.000000
# 5 0.000000 0.000000 0.000000 0.000000 0.026253 0.000000
# 6 0.000000 0.000000 0.000000 0.000000 0.000000 0.032632
#
#
# Mechanical properties :
#
#
# Convention : Reuss Voigt Hill
#
# Bulk Modulus (GPa) = 44.99645 47.22274 46.10959
# Shear Modulus (GPa) = 30.63629 32.18227 31.40928
#
# Velocity S-wave (km/s) = 3.89427 3.99131 3.94309
# Velocity P-wave (km/s) = 6.51875 6.67956 6.59965
#
# Compressibility (1/GPa) = 0.02222398
#
# Stress axis : x y z
#
# Youngs Moduli (GPa) = 77.96477 49.84042 96.25217
#
# Poissons Ratio (x) = 0.24640 0.15391
# Poissons Ratio (y) = 0.38544 0.38357
# Poissons Ratio (z) = 0.12467 0.19862
#
# Static dielectric constant tensor:
#      x y z
#    x 4.382790 0.000000 0.000000 
#    y 0.000000 3.512660 0.000000 
#    z 0.000000 0.000000 3.709110 
# 
# 
# High freq. dielectric constant tensor:
#      x y z
#    x 1.803750 0.000000 0.000000 
#    y 0.000000 1.772470 0.000000 
#    z 0.000000 0.000000 1.798170 
# 
# From -- ./inp_files/32013.got.cif
#   From: 2010.03.12/outbox.cif.g09.slc.cpg/sg62_17_cif.got.tgz:32013.got - 2010.04.10 19:12:36.
