data_PCOD8253979
_publ_section_title
;
Structure prediction by ZEFSAII (Michael W. Deem and Ramdas Pophale) SiO2 
 PCOD8253979
Probable space group: P N M A
;
_chemical_formula_sum "Si O2"
_cell_formula_units_Z 64
_cell_length_a 11.872594
_cell_length_b 8.970448
_cell_length_c 30.389834
_cell_angle_alpha 90.000000
_cell_angle_beta 90.000000
_cell_angle_gamma 90.000000
_cell_volume 3236.592904
_symmetry_space_group_name_H-M "P N M A"
_symmetry_group_IT_number 62
_symmetry_cell_setting 'orthorhombic'
loop_
_space_group_symop_operation_xyz
x,y,z
1/2-x,-y,1/2+z
1/2+x,1/2-y,1/2-z
-x,1/2+y,-z
-x,-y,-z
1/2+x,y,1/2-z
1/2-x,1/2+y,1/2+z
x,1/2-y,z
loop_
_atom_site_type_symbol
_atom_site_label
_atom_site_fract_x
_atom_site_fract_y
_atom_site_fract_z
Si Si1 0.208186 0.577960 0.456726
Si Si2 0.509825 0.577796 0.169689
Si Si3 0.003274 0.426008 0.421288
Si Si4 0.211114 0.426291 0.292455
Si Si5 0.104132 0.925504 0.125570
Si Si6 0.762221 0.922067 0.296124
Si Si7 0.346776 0.925257 0.370824
Si Si8 0.753195 0.077842 0.445717
O O1 0.171010 0.750000 0.453346
O O2 0.094893 0.478903 0.456968
O O3 0.292421 0.532759 0.417635
O O4 0.271991 0.548966 0.502807
O O5 0.544590 0.750000 0.168658
O O6 0.540716 0.506235 0.123296
O O7 0.585662 0.495365 0.206125
O O8 0.379789 0.554389 0.179538
O O9 0.009570 0.250000 0.415102
O O10 0.879283 0.479118 0.435226
O O11 0.204865 0.250000 0.295206
O O12 0.265057 0.474808 0.246469
O O13 0.285846 0.486495 0.332278
O O14 0.113724 0.750000 0.120992
O O15 0.166358 0.977889 0.170180
O O16 0.975752 0.979357 0.127997
O O17 0.161448 0.990945 0.082278
O O18 0.744306 0.750000 0.282346
O O19 0.337972 0.750000 0.360852
O O20 0.742660 0.250000 0.433136
#
# Coordination Sequence:
#
# PCOD8253979 Si02
#       8
#     8   8   8   8   8   8   8   8
#     4  10  21  38  60  86 120 165 204 243 302 364
#     4  11  22  40  66  90 119 159 200 244 296 360
#     4  11  21  35  58  90 124 155 197 255 306 351
#     4  12  26  41  62  93 126 156 197 249 306 357
#     4  10  22  41  63  88 116 156 207 251 294 356
#     4  10  23  42  64  89 118 158 205 245 295 360
#     4  10  22  41  63  86 119 161 207 250 292 355
#     4  10  22  38  58  88 124 159 199 250 308 361
#
# _framework density 19.773880999999999
#
# number of rings (size 3 to 8) (size 9 to 14) (size 15 to 20)
#    0.000    1.500    2.500    2.250    1.750    3.500 
#    0.000    0.000    0.000    0.000    0.000    0.000 
#    0.000    0.000    0.000    0.000    0.000    0.000 
#
# Total GULP energy -793899.467296 kJ/mol
# GULP energy per Si atom -12404.679176 kJ/mol
# Density = 1.972887 g / cm^3
# Si number density = 19.773881 Si / 1000 Ang^3
#
#
#
# Elastic Constant Matrix: (Units=GPa)
#
#
# Indices 1 2 3 4 5 6 
#
# 1 120.2834 46.7782 42.9353 0.0000 0.0000 0.0000
# 2 46.7782 80.3834 45.9455 0.0000 0.0000 0.0000
# 3 42.9353 45.9455 117.9670 0.0000 0.0000 0.0000
# 4 0.0000 0.0000 0.0000 33.3135 0.0000 0.0000
# 5 0.0000 0.0000 0.0000 0.0000 23.7337 0.0000
# 6 0.0000 0.0000 0.0000 0.0000 0.0000 26.4965
#
#
#
# Elastic Compliance Matrix: (Units=1/GPa)
#
#
# Indices 1 2 3 4 5 6 
#
# 1 0.011086 -0.005332 -0.001958 0.000000 0.000000 0.000000
# 2 -0.005332 0.018568 -0.005291 0.000000 0.000000 0.000000
# 3 -0.001958 -0.005291 0.011250 0.000000 0.000000 0.000000
# 4 0.000000 0.000000 0.000000 0.030018 0.000000 0.000000
# 5 0.000000 0.000000 0.000000 0.000000 0.042134 0.000000
# 6 0.000000 0.000000 0.000000 0.000000 0.000000 0.037741
#
#
# Mechanical properties :
#
#
# Convention : Reuss Voigt Hill
#
# Bulk Modulus (GPa) = 63.52633 65.55020 64.53826
# Shear Modulus (GPa) = 27.59268 28.90705 28.24987
#
# Velocity S-wave (km/s) = 3.73957 3.82760 3.78384
# Velocity P-wave (km/s) = 7.13036 7.26333 7.19715
#
# Compressibility (1/GPa) = 0.01574151
#
# Stress axis : x y z
#
# Youngs Moduli (GPa) = 90.20037 53.85704 88.88607
#
# Poissons Ratio (x) = 0.28718 0.17406
# Poissons Ratio (y) = 0.48098 0.47029
# Poissons Ratio (z) = 0.17663 0.28495
#
# Static dielectric constant tensor:
#      x y z
#    x 3.719200 0.000000 0.000000 
#    y 0.000000 3.503740 0.000000 
#    z 0.000000 0.000000 3.680080 
# 
# 
# High freq. dielectric constant tensor:
#      x y z
#    x 1.777070 0.000000 0.000000 
#    y 0.000000 1.763300 0.000000 
#    z 0.000000 0.000000 1.779660 
# 
# From -- ./inp_files/32461.got.cif
#   From: 2010.03.12/outbox.cif.g09.slc.cpg/sg62_17_cif.got.tgz:32461.got - 2010.04.10 19:12:36.
