data_PCOD8253151
_publ_section_title
;
Structure prediction by ZEFSAII (Michael W. Deem and Ramdas Pophale) SiO2 
 PCOD8253151
Probable space group: P N M A
;
_chemical_formula_sum "Si O2"
_cell_formula_units_Z 56
_cell_length_a 14.192895
_cell_length_b 8.589304
_cell_length_c 25.098459
_cell_angle_alpha 90.000000
_cell_angle_beta 90.000000
_cell_angle_gamma 90.000000
_cell_volume 3059.680095
_symmetry_space_group_name_H-M "P N M A"
_symmetry_group_IT_number 62
_symmetry_cell_setting 'orthorhombic'
loop_
_space_group_symop_operation_xyz
x,y,z
1/2-x,-y,1/2+z
1/2+x,1/2-y,1/2-z
-x,1/2+y,-z
-x,-y,-z
1/2+x,y,1/2-z
1/2-x,1/2+y,1/2+z
x,1/2-y,z
loop_
_atom_site_type_symbol
_atom_site_label
_atom_site_fract_x
_atom_site_fract_y
_atom_site_fract_z
Si Si1 0.106214 0.933984 0.502407
Si Si2 0.472759 0.923593 0.830797
Si Si3 0.693661 0.435039 0.101279
Si Si4 0.167613 0.924555 0.615840
Si Si5 0.719818 0.931474 0.290933
Si Si6 0.328061 0.566959 0.316594
Si Si7 0.481976 0.566271 0.715216
O O1 0.095043 0.750000 0.501100
O O2 0.165179 0.985401 0.555119
O O3 0.175849 0.991285 0.456178
O O4 0.000000 0.000000 0.500000
O O5 0.438704 0.750000 0.816118
O O6 0.386779 0.007503 0.860256
O O7 0.558428 0.921444 0.870472
O O8 0.496762 0.003442 0.774788
O O9 0.688333 0.250000 0.095252
O O10 0.789972 0.487130 0.129375
O O11 0.210642 0.750000 0.621025
O O12 0.219579 0.040836 0.655829
O O13 0.698354 0.750000 0.285190
O O14 0.774521 0.992804 0.237630
O O15 0.623490 0.023736 0.302054
O O16 0.316690 0.750000 0.321327
O O17 0.437938 0.521243 0.318143
O O18 0.499316 0.750000 0.709714
#
# Coordination Sequence:
#
# PCOD8253151 Si02
#       7
#     8   8   8   8   8   8   8
#     4  11  22  36  56  84 116 152 191 236 285 336
#     4   9  17  30  52  81 112 146 187 228 266 326
#     4  11  21  37  57  82 114 153 194 232 280 341
#     4  10  20  37  56  79 113 153 193 227 273 338
#     4  11  23  36  54  84 117 148 185 235 288 332
#     4  11  23  37  54  83 118 150 186 235 288 336
#     4  11  21  36  58  81 111 153 193 231 277 336
#
# _framework density 18.302567
#
# number of rings (size 3 to 8) (size 9 to 14) (size 15 to 20)
#    0.000    1.429    4.286    2.143    0.000    2.286 
#    0.000    0.000    0.000    0.857    0.000    0.000 
#    0.000    0.000    0.000    0.000    0.000    0.000 
#
# Total GULP energy -694133.524791 kJ/mol
# GULP energy per Si atom -12395.241514 kJ/mol
# Density = 1.826091 g / cm^3
# Si number density = 18.302567 Si / 1000 Ang^3
#
#
#
# Elastic Constant Matrix: (Units=GPa)
#
#
# Indices 1 2 3 4 5 6 
#
# 1 67.7459 15.0178 21.0443 0.0000 0.0000 0.0000
# 2 15.0178 55.4933 31.3417 0.0000 0.0000 0.0000
# 3 21.0443 31.3417 100.6592 0.0000 0.0000 0.0000
# 4 0.0000 0.0000 0.0000 27.3520 0.0000 0.0000
# 5 0.0000 0.0000 0.0000 0.0000 28.4338 0.0000
# 6 0.0000 0.0000 0.0000 0.0000 0.0000 28.4392
#
#
#
# Elastic Compliance Matrix: (Units=1/GPa)
#
#
# Indices 1 2 3 4 5 6 
#
# 1 0.016187 -0.002996 -0.002451 0.000000 0.000000 0.000000
# 2 -0.002996 0.022420 -0.006354 0.000000 0.000000 0.000000
# 3 -0.002451 -0.006354 0.012425 0.000000 0.000000 0.000000
# 4 0.000000 0.000000 0.000000 0.036560 0.000000 0.000000
# 5 0.000000 0.000000 0.000000 0.000000 0.035169 0.000000
# 6 0.000000 0.000000 0.000000 0.000000 0.000000 0.035163
#
#
# Mechanical properties :
#
#
# Convention : Reuss Voigt Hill
#
# Bulk Modulus (GPa) = 36.45817 39.85621 38.15719
# Shear Modulus (GPa) = 26.22324 27.27800 26.75062
#
# Velocity S-wave (km/s) = 3.78929 3.86475 3.82721
# Velocity P-wave (km/s) = 6.25363 6.46054 6.35793
#
# Compressibility (1/GPa) = 0.02742870
#
# Stress axis : x y z
#
# Youngs Moduli (GPa) = 61.77933 44.60334 80.47974
#
# Poissons Ratio (x) = 0.13364 0.19727
# Poissons Ratio (y) = 0.18510 0.51140
# Poissons Ratio (z) = 0.15143 0.28343
#
# Static dielectric constant tensor:
#      x y z
#    x 3.220970 0.000000 0.000000 
#    y 0.000000 3.284210 0.000000 
#    z 0.000000 0.000000 3.489860 
# 
# 
# High freq. dielectric constant tensor:
#      x y z
#    x 1.696730 0.000000 0.000000 
#    y 0.000000 1.704670 0.000000 
#    z 0.000000 0.000000 1.704580 
# 
# From -- ./inp_files/27283.got.cif
#   From: 2010.03.12/outbox.cif.g09.slc.cpg/sg62_14_cif.got.tgz:27283.got - 2010.04.10 19:12:36.
