data_PCOD8253188
_publ_section_title
;
Structure prediction by ZEFSAII (Michael W. Deem and Ramdas Pophale) SiO2 
 PCOD8253188
Probable space group: P N M A
;
_chemical_formula_sum "Si O2"
_cell_formula_units_Z 48
_cell_length_a 8.617521
_cell_length_b 15.104885
_cell_length_c 18.659986
_cell_angle_alpha 90.000000
_cell_angle_beta 90.000000
_cell_angle_gamma 90.000000
_cell_volume 2428.908122
_symmetry_space_group_name_H-M "P N M A"
_symmetry_group_IT_number 62
_symmetry_cell_setting 'orthorhombic'
loop_
_space_group_symop_operation_xyz
x,y,z
1/2-x,-y,1/2+z
1/2+x,1/2-y,1/2-z
-x,1/2+y,-z
-x,-y,-z
1/2+x,y,1/2-z
1/2-x,1/2+y,1/2+z
x,1/2-y,z
loop_
_atom_site_type_symbol
_atom_site_label
_atom_site_fract_x
_atom_site_fract_y
_atom_site_fract_z
Si Si1 0.163850 0.250000 0.561353
Si Si2 0.842682 0.750000 0.944132
Si Si3 0.299676 0.396502 0.657977
Si Si4 0.195920 0.750000 0.403122
Si Si5 0.799769 0.597983 0.841025
Si Si6 0.347178 0.098649 0.306285
Si Si7 0.702748 0.750000 0.590195
Si Si8 0.342148 0.603364 0.308496
O O1 0.248325 0.336668 0.591917
O O2 0.179061 0.250000 0.475773
O O3 0.984170 0.250000 0.579688
O O4 0.768782 0.662874 0.907452
O O5 0.027957 0.750000 0.939289
O O6 0.799816 0.750000 0.026470
O O7 0.274322 0.497495 0.633093
O O8 0.193232 0.372877 0.726109
O O9 0.477944 0.377100 0.677430
O O10 0.235012 0.662095 0.359049
O O11 0.688714 0.623732 0.775552
O O12 0.970972 0.611876 0.811508
O O13 0.261780 0.163223 0.362112
O O14 0.295649 0.998349 0.323919
#
# Coordination Sequence:
#
# PCOD8253188 Si02
#       8
#     4   4   8   4   8   8   4   8
#     4  12  25  38  53  78 109 146 185 226 273 320
#     4  10  21  38  56  80 113 148 180 216 265 324
#     4  10  20  37  59  83 109 141 179 223 269 320
#     4  12  25  38  53  78 109 146 185 226 273 320
#     4   9  19  35  59  85 110 141 179 220 267 318
#     4   9  19  35  59  85 110 141 179 220 267 318
#     4  10  21  38  56  80 113 148 180 216 265 324
#     4  10  20  37  59  83 109 141 179 223 269 320
#
# _framework density 19.761965
#
# number of rings (size 3 to 8) (size 9 to 14) (size 15 to 20)
#    0.000    2.000    0.000    3.500    0.000    4.000 
#    0.000    6.667    0.000    0.000    0.000    0.000 
#    0.000    0.000    0.000    0.000    0.000    0.000 
#
# Total GULP energy -595384.806225 kJ/mol
# GULP energy per Si atom -12403.850130 kJ/mol
# Density = 1.971699 g / cm^3
# Si number density = 19.761965 Si / 1000 Ang^3
#
#
#
# Elastic Constant Matrix: (Units=GPa)
#
#
# Indices 1 2 3 4 5 6 
#
# 1 37.3033 13.7696 -10.2120 0.0000 0.0000 0.0000
# 2 13.7696 106.1797 36.2074 0.0000 0.0000 0.0000
# 3 -10.2120 36.2074 51.7846 0.0000 0.0000 0.0000
# 4 0.0000 0.0000 0.0000 -76.3957 0.0000 0.0000
# 5 0.0000 0.0000 0.0000 0.0000 32.6851 0.0000
# 6 0.0000 0.0000 0.0000 0.0000 0.0000 21.3592
#
#
#
# Elastic Compliance Matrix: (Units=1/GPa)
#
#
# Indices 1 2 3 4 5 6 
#
# 1 0.033464 -0.008653 0.012649 0.000000 0.000000 0.000000
# 2 -0.008653 0.014604 -0.011917 0.000000 0.000000 0.000000
# 3 0.012649 -0.011917 0.030138 0.000000 0.000000 0.000000
# 4 0.000000 0.000000 0.000000 -0.013090 0.000000 0.000000
# 5 0.000000 0.000000 0.000000 0.000000 0.030595 0.000000
# 6 0.000000 0.000000 0.000000 0.000000 0.000000 0.046818
#
#
# Mechanical properties :
#
#
# Convention : Reuss Voigt Hill
#
# Bulk Modulus (GPa) = 16.03496 30.53307 23.28401
# Shear Modulus (GPa) = 27.90803 5.89655 16.90229
#
# Velocity S-wave (km/s) = 3.76201 1.72924 2.92771
# Velocity P-wave (km/s) = 5.19634 4.41259 4.82042
#
# Compressibility (1/GPa) = 0.06236373
#
# Stress axis : x y z
#
# Youngs Moduli (GPa) = 29.88264 68.47425 33.18086
#
# Poissons Ratio (x) = 0.59252 -0.41972
# Poissons Ratio (y) = 0.25858 0.39543
# Poissons Ratio (z) = -0.37800 0.81604
#
# Static dielectric constant tensor:
#      x y z
#    x 3.520700 0.000000 0.000000 
#    y 0.000000 3.914290 0.000000 
#    z 0.000000 0.000000 3.538870 
# 
# 
# High freq. dielectric constant tensor:
#      x y z
#    x 1.767540 0.000000 0.000000 
#    y 0.000000 1.785470 0.000000 
#    z 0.000000 0.000000 1.763540 
# 
# From -- ./inp_files/22255.got.cif
#   From: 2010.03.12/outbox.cif.g09.slc.cpg/sg62_12_cif.got.tgz:22255.got - 2010.04.10 19:12:36.
