data_PCOD8253714
_publ_section_title
;
Structure prediction by ZEFSAII (Michael W. Deem and Ramdas Pophale) SiO2 
 PCOD8253714
Probable space group: P N M A
;
_chemical_formula_sum "Si O2"
_cell_formula_units_Z 48
_cell_length_a 11.680395
_cell_length_b 9.323529
_cell_length_c 22.391563
_cell_angle_alpha 90.000000
_cell_angle_beta 90.000000
_cell_angle_gamma 90.000000
_cell_volume 2438.497224
_symmetry_space_group_name_H-M "P N M A"
_symmetry_group_IT_number 62
_symmetry_cell_setting 'orthorhombic'
loop_
_space_group_symop_operation_xyz
x,y,z
1/2-x,-y,1/2+z
1/2+x,1/2-y,1/2-z
-x,1/2+y,-z
-x,-y,-z
1/2+x,y,1/2-z
1/2-x,1/2+y,1/2+z
x,1/2-y,z
loop_
_atom_site_type_symbol
_atom_site_label
_atom_site_fract_x
_atom_site_fract_y
_atom_site_fract_z
Si Si1 0.387115 0.583560 0.279560
Si Si2 0.743338 0.914838 0.105091
Si Si3 0.076759 0.908954 0.956378
Si Si4 0.796123 0.581522 0.349634
Si Si5 0.003816 0.083663 0.561733
Si Si6 0.428354 0.590672 0.660201
O O1 0.421122 0.750000 0.281136
O O2 0.290035 0.547376 0.328857
O O3 0.338217 0.537770 0.215928
O O4 0.504892 0.496280 0.288443
O O5 0.771108 0.750000 0.089755
O O6 0.608412 0.946473 0.101982
O O7 0.803029 0.011070 0.054154
O O8 0.100263 0.750000 0.983186
O O9 0.013950 0.895213 0.894168
O O10 0.000000 0.000000 0.000000
O O11 0.770142 0.750000 0.353564
O O12 0.681804 0.494181 0.363027
O O13 0.888734 0.533368 0.398753
O O14 0.013244 0.250000 0.545574
O O15 0.000000 0.000000 0.500000
O O16 0.394820 0.750000 0.683370
#
# Coordination Sequence:
#
# PCOD8253714 Si02
#       6
#     8   8   8   8   8   8
#     4   9  19  37  64  89 112 146 191 242 292 342
#     4   9  19  37  59  84 114 148 188 238 290 343
#     4  10  21  36  57  83 112 147 189 235 285 337
#     4  10  22  38  62  89 115 151 196 242 286 345
#     4  10  23  40  58  85 119 156 199 240 289 348
#     4  10  22  38  56  84 120 150 185 235 291 349
#
# _framework density 19.684253999999999
#
# number of rings (size 3 to 8) (size 9 to 14) (size 15 to 20)
#    0.000    2.333    0.000    1.000    4.667    4.000 
#    0.000    0.000    0.000    0.000    0.000    0.000 
#    0.000    0.000    0.000    0.000    0.000    0.000 
#
# Total GULP energy -595254.401219 kJ/mol
# GULP energy per Si atom -12401.133359 kJ/mol
# Density = 1.963945 g / cm^3
# Si number density = 19.684254 Si / 1000 Ang^3
#
#
#
# Elastic Constant Matrix: (Units=GPa)
#
#
# Indices 1 2 3 4 5 6 
#
# 1 119.4755 46.2335 22.4669 0.0000 0.0000 0.0000
# 2 46.2335 84.9700 26.1043 0.0000 0.0000 0.0000
# 3 22.4669 26.1043 71.6997 0.0000 0.0000 0.0000
# 4 0.0000 0.0000 0.0000 26.8353 0.0000 0.0000
# 5 0.0000 0.0000 0.0000 0.0000 17.3136 0.0000
# 6 0.0000 0.0000 0.0000 0.0000 0.0000 29.7755
#
#
#
# Elastic Compliance Matrix: (Units=1/GPa)
#
#
# Indices 1 2 3 4 5 6 
#
# 1 0.010724 -0.005408 -0.001392 0.000000 0.000000 0.000000
# 2 -0.005408 0.015978 -0.004123 0.000000 0.000000 0.000000
# 3 -0.001392 -0.004123 0.015884 0.000000 0.000000 0.000000
# 4 0.000000 0.000000 0.000000 0.037264 0.000000 0.000000
# 5 0.000000 0.000000 0.000000 0.000000 0.057758 0.000000
# 6 0.000000 0.000000 0.000000 0.000000 0.000000 0.033585
#
#
# Mechanical properties :
#
#
# Convention : Reuss Voigt Hill
#
# Bulk Modulus (GPa) = 48.21090 51.75053 49.98072
# Shear Modulus (GPa) = 25.00611 26.87425 25.94018
#
# Velocity S-wave (km/s) = 3.56808 3.69896 3.63411
# Velocity P-wave (km/s) = 6.44362 6.67761 6.56166
#
# Compressibility (1/GPa) = 0.02074220
#
# Stress axis : x y z
#
# Youngs Moduli (GPa) = 93.24693 62.58666 62.95601
#
# Poissons Ratio (x) = 0.33845 0.08761
# Poissons Ratio (y) = 0.50425 0.25955
# Poissons Ratio (z) = 0.12976 0.25803
#
# Static dielectric constant tensor:
#      x y z
#    x 3.642610 0.000000 0.000000 
#    y 0.000000 3.697210 0.000000 
#    z 0.000000 0.000000 3.599010 
# 
# 
# High freq. dielectric constant tensor:
#      x y z
#    x 1.771940 0.000000 0.000000 
#    y 0.000000 1.766540 0.000000 
#    z 0.000000 0.000000 1.760960 
# 
# From -- ./inp_files/29225.got.cif
#   From: 2010.03.12/outbox.cif.g09.slc.cpg/sg62_15_cif.got.tgz:29225.got - 2010.04.10 19:12:36.
