data_PCOD8253930
_publ_section_title
;
Structure prediction by ZEFSAII (Michael W. Deem and Ramdas Pophale) SiO2 
 PCOD8253930
Probable space group: P N M A
;
_chemical_formula_sum "Si O2"
_cell_formula_units_Z 56
_cell_length_a 14.701404
_cell_length_b 8.794254
_cell_length_c 21.246865
_cell_angle_alpha 90.000000
_cell_angle_beta 90.000000
_cell_angle_gamma 90.000000
_cell_volume 2746.962152
_symmetry_space_group_name_H-M "P N M A"
_symmetry_group_IT_number 62
_symmetry_cell_setting 'orthorhombic'
loop_
_space_group_symop_operation_xyz
x,y,z
1/2-x,-y,1/2+z
1/2+x,1/2-y,1/2-z
-x,1/2+y,-z
-x,-y,-z
1/2+x,y,1/2-z
1/2-x,1/2+y,1/2+z
x,1/2-y,z
loop_
_atom_site_type_symbol
_atom_site_label
_atom_site_fract_x
_atom_site_fract_y
_atom_site_fract_z
Si Si1 0.672739 0.071188 0.837398
Si Si2 0.556723 0.075228 0.648084
Si Si3 0.016409 0.928029 0.731352
Si Si4 0.251354 0.925943 0.399900
Si Si5 0.767747 0.077554 0.463272
Si Si6 0.180887 0.931408 0.267305
Si Si7 0.444610 0.920723 0.553957
O O1 0.660130 0.250000 0.829887
O O2 0.751029 0.011856 0.788634
O O3 0.574905 0.990891 0.826999
O O4 0.695452 0.032784 0.909591
O O5 0.546977 0.250000 0.669054
O O6 0.639641 0.051935 0.599523
O O7 0.578212 0.973078 0.708875
O O8 0.463238 0.017405 0.617091
O O9 0.000979 0.750000 0.724136
O O10 0.920251 0.008881 0.743105
O O11 0.226854 0.750000 0.398923
O O12 0.209473 0.988902 0.466159
O O13 0.210826 0.998560 0.335829
O O14 0.805276 0.250000 0.454179
O O15 0.660245 0.080805 0.459964
O O16 0.181765 0.750000 0.267482
O O17 0.481821 0.750000 0.562918
O O18 0.500000 0.000000 0.500000
#
# Coordination Sequence:
#
# PCOD8253930 Si02
#       7
#     8   8   8   8   8   8   8
#     4  11  23  41  65  92 122 162 208 254 307 367
#     4  11  20  37  60  85 118 158 203 250 303 364
#     4  12  25  40  61  92 125 158 201 256 314 370
#     4   9  18  37  62  86 115 157 201 247 300 353
#     4  10  21  38  58  85 124 162 199 251 311 364
#     4  10  21  41  67  90 117 160 212 257 303 364
#     4  11  21  33  53  85 123 161 199 244 303 369
#
# _framework density 20.386157000000001
#
# number of rings (size 3 to 8) (size 9 to 14) (size 15 to 20)
#    0.000    1.429    2.857    3.429    0.000    4.571 
#    0.000    1.429    0.000    0.000    0.000    0.000 
#    0.000    0.000    0.000    0.000    0.000    0.000 
#
# Total GULP energy -694057.445528 kJ/mol
# GULP energy per Si atom -12393.882956 kJ/mol
# Density = 2.033976 g / cm^3
# Si number density = 20.386157 Si / 1000 Ang^3
#
#
#
# Elastic Constant Matrix: (Units=GPa)
#
#
# Indices 1 2 3 4 5 6 
#
# 1 51.0636 17.8166 13.6590 0.0000 0.0000 0.0000
# 2 17.8166 56.8704 20.1831 0.0000 0.0000 0.0000
# 3 13.6590 20.1831 129.8604 0.0000 0.0000 0.0000
# 4 0.0000 0.0000 0.0000 33.5632 0.0000 0.0000
# 5 0.0000 0.0000 0.0000 0.0000 30.5924 0.0000
# 6 0.0000 0.0000 0.0000 0.0000 0.0000 22.9398
#
#
#
# Elastic Compliance Matrix: (Units=1/GPa)
#
#
# Indices 1 2 3 4 5 6 
#
# 1 0.022201 -0.006484 -0.001327 0.000000 0.000000 0.000000
# 2 -0.006484 0.020504 -0.002505 0.000000 0.000000 0.000000
# 3 -0.001327 -0.002505 0.008229 0.000000 0.000000 0.000000
# 4 0.000000 0.000000 0.000000 0.029795 0.000000 0.000000
# 5 0.000000 0.000000 0.000000 0.000000 0.032688 0.000000
# 6 0.000000 0.000000 0.000000 0.000000 0.000000 0.043592
#
#
# Mechanical properties :
#
#
# Convention : Reuss Voigt Hill
#
# Bulk Modulus (GPa) = 33.00114 37.90132 35.45123
# Shear Modulus (GPa) = 26.63224 29.82812 28.23018
#
# Velocity S-wave (km/s) = 3.61832 3.82927 3.72529
# Velocity P-wave (km/s) = 5.80340 6.17925 5.99427
#
# Compressibility (1/GPa) = 0.03030198
#
# Stress axis : x y z
#
# Youngs Moduli (GPa) = 45.04336 48.77059 121.51425
#
# Poissons Ratio (x) = 0.31623 0.16129
# Poissons Ratio (y) = 0.29207 0.30437
# Poissons Ratio (z) = 0.05979 0.12216
#
# Static dielectric constant tensor:
#      x y z
#    x 3.752330 0.000000 0.000000 
#    y 0.000000 3.771750 0.000000 
#    z 0.000000 0.000000 4.160660 
# 
# 
# High freq. dielectric constant tensor:
#      x y z
#    x 1.778120 0.000000 0.000000 
#    y 0.000000 1.776860 0.000000 
#    z 0.000000 0.000000 1.812580 
# 
# From -- ./inp_files/27061.got.cif
#   From: 2010.03.12/outbox.cif.g09.slc.cpg/sg62_14_cif.got.tgz:27061.got - 2010.04.10 19:12:36.
