data_PCOD8253516
_publ_section_title
;
Structure prediction by ZEFSAII (Michael W. Deem and Ramdas Pophale) SiO2 
 PCOD8253516
Probable space group: P N M A
;
_chemical_formula_sum "Si O2"
_cell_formula_units_Z 44
_cell_length_a 18.477556
_cell_length_b 14.333176
_cell_length_c 8.651926
_cell_angle_alpha 90.000000
_cell_angle_beta 90.000000
_cell_angle_gamma 90.000000
_cell_volume 2291.393924
_symmetry_space_group_name_H-M "P N M A"
_symmetry_group_IT_number 62
_symmetry_cell_setting 'orthorhombic'
loop_
_space_group_symop_operation_xyz
x,y,z
1/2-x,-y,1/2+z
1/2+x,1/2-y,1/2-z
-x,1/2+y,-z
-x,-y,-z
1/2+x,y,1/2-z
1/2-x,1/2+y,1/2+z
x,1/2-y,z
loop_
_atom_site_type_symbol
_atom_site_label
_atom_site_fract_x
_atom_site_fract_y
_atom_site_fract_z
Si Si1 0.324542 0.750000 0.150943
Si Si2 0.091407 0.750000 0.545080
Si Si3 0.989034 0.750000 0.270316
Si Si4 0.692470 0.071309 0.651491
Si Si5 0.701521 0.250000 0.197808
Si Si6 0.963396 0.750000 0.778308
Si Si7 0.707744 0.900728 0.873777
Si Si8 0.462536 0.597824 0.474044
O O1 0.412247 0.750000 0.137799
O O2 0.294858 0.661926 0.244726
O O3 0.284254 0.750000 0.985799
O O4 0.137223 0.657999 0.581087
O O5 0.061894 0.750000 0.370788
O O6 0.018693 0.750000 0.640652
O O7 0.993939 0.844903 0.171062
O O8 0.758968 0.059530 0.532918
O O9 0.622321 0.082323 0.545898
O O10 0.682939 0.984211 0.764401
O O11 0.616548 0.250000 0.214146
O O12 0.734498 0.159450 0.278857
O O13 0.977316 0.843031 0.874100
O O14 0.500000 0.500000 0.500000
#
# Coordination Sequence:
#
# PCOD8253516 Si02
#       8
#     4   4   4   8   4   4   8   8
#     4  10  20  39  64  83 118 158 207 245 307 369
#     4  11  23  41  59  95 124 158 206 271 304 361
#     4   9  21  38  60  86 120 155 203 255 305 357
#     4  11  22  41  59  91 121 164 203 255 306 377
#     4  11  20  40  63  89 116 171 198 254 312 372
#     4  11  20  40  66  85 126 166 208 255 314 369
#     4  11  24  39  63  91 130 158 209 255 316 371
#     4  10  21  39  63  90 121 164 208 252 308 374
#
# _framework density 19.202286000000001
#
# number of rings (size 3 to 8) (size 9 to 14) (size 15 to 20)
#    0.000    1.455    2.727    3.818    0.000    1.455 
#    3.273   11.818    0.000    0.000    0.000    0.000 
#    0.000    0.000    0.000    0.000    0.000    0.000 
#
# Total GULP energy -545662.866977 kJ/mol
# GULP energy per Si atom -12401.428795 kJ/mol
# Density = 1.915858 g / cm^3
# Si number density = 19.202286 Si / 1000 Ang^3
#
#
#
# Elastic Constant Matrix: (Units=GPa)
#
#
# Indices 1 2 3 4 5 6 
#
# 1 83.0172 24.6667 27.2015 0.0000 0.0000 0.0000
# 2 24.6667 125.9539 30.1749 0.0000 0.0000 0.0000
# 3 27.2015 30.1749 81.6042 0.0000 0.0000 0.0000
# 4 0.0000 0.0000 0.0000 25.5171 0.0000 0.0000
# 5 0.0000 0.0000 0.0000 0.0000 28.7802 0.0000
# 6 0.0000 0.0000 0.0000 0.0000 0.0000 22.6158
#
#
#
# Elastic Compliance Matrix: (Units=1/GPa)
#
#
# Indices 1 2 3 4 5 6 
#
# 1 0.013871 -0.001765 -0.003971 0.000000 0.000000 0.000000
# 2 -0.001765 0.008936 -0.002716 0.000000 0.000000 0.000000
# 3 -0.003971 -0.002716 0.014582 0.000000 0.000000 0.000000
# 4 0.000000 0.000000 0.000000 0.039189 0.000000 0.000000
# 5 0.000000 0.000000 0.000000 0.000000 0.034746 0.000000
# 6 0.000000 0.000000 0.000000 0.000000 0.000000 0.044217
#
#
# Mechanical properties :
#
#
# Convention : Reuss Voigt Hill
#
# Bulk Modulus (GPa) = 48.81582 50.51793 49.66687
# Shear Modulus (GPa) = 27.89024 29.28476 28.58750
#
# Velocity S-wave (km/s) = 3.81523 3.90945 3.86262
# Velocity P-wave (km/s) = 6.69963 6.83694 6.76863
#
# Compressibility (1/GPa) = 0.02048516
#
# Stress axis : x y z
#
# Youngs Moduli (GPa) = 72.09101 111.91030 68.57688
#
# Poissons Ratio (x) = 0.19754 0.27232
# Poissons Ratio (y) = 0.12725 0.18624
# Poissons Ratio (z) = 0.28628 0.30392
#
# Static dielectric constant tensor:
#      x y z
#    x 3.645800 0.000000 0.000000 
#    y 0.000000 3.583170 0.000000 
#    z 0.000000 0.000000 3.680130 
# 
# 
# High freq. dielectric constant tensor:
#      x y z
#    x 1.744720 0.000000 0.000000 
#    y 0.000000 1.755160 0.000000 
#    z 0.000000 0.000000 1.759070 
# 
# From -- ./inp_files/7587.got.cif
#   From: 2010.03.12/outbox.cif.g09.slc.cpg/sg62_4_cif.got.tgz:7587.got - 2010.04.10 19:12:36.
