data_PCOD8253296
_publ_section_title
;
Structure prediction by ZEFSAII (Michael W. Deem and Ramdas Pophale) SiO2 
 PCOD8253296
Probable space group: P N M A
;
_chemical_formula_sum "Si O2"
_cell_formula_units_Z 40
_cell_length_a 19.774136
_cell_length_b 8.696620
_cell_length_c 11.781731
_cell_angle_alpha 90.000000
_cell_angle_beta 90.000000
_cell_angle_gamma 90.000000
_cell_volume 2026.082444
_symmetry_space_group_name_H-M "P N M A"
_symmetry_group_IT_number 62
_symmetry_cell_setting 'orthorhombic'
loop_
_space_group_symop_operation_xyz
x,y,z
1/2-x,-y,1/2+z
1/2+x,1/2-y,1/2-z
-x,1/2+y,-z
-x,-y,-z
1/2+x,y,1/2-z
1/2-x,1/2+y,1/2+z
x,1/2-y,z
loop_
_atom_site_type_symbol
_atom_site_label
_atom_site_fract_x
_atom_site_fract_y
_atom_site_fract_z
Si Si1 0.864183 0.569423 0.486658
Si Si2 0.522863 0.067441 0.618325
Si Si3 0.577868 0.923805 0.189212
Si Si4 0.357535 0.068930 0.254083
Si Si5 0.725285 0.576229 0.158180
O O1 0.855704 0.750000 0.473744
O O2 0.925282 0.526824 0.574093
O O3 0.882008 0.498633 0.365440
O O4 0.793768 0.496711 0.534830
O O5 0.523655 0.250000 0.611380
O O6 0.470489 0.007617 0.714255
O O7 0.500000 0.000000 0.500000
O O8 0.596944 0.003978 0.646915
O O9 0.555525 0.750000 0.158194
O O10 0.656125 0.924712 0.233444
O O11 0.366167 0.250000 0.253184
O O12 0.280081 0.025778 0.277622
O O13 0.752343 0.750000 0.141456
#
# Coordination Sequence:
#
# PCOD8253296 Si02
#       5
#     8   8   8   8   8
#     4  10  20  37  62  91 120 156 202 252 310 366
#     4  11  24  43  63  90 125 164 207 257 314 373
#     4   8  19  40  63  86 119 159 202 250 306 365
#     4  12  24  39  61  93 127 164 210 255 305 370
#     4   9  19  39  61  88 121 158 202 255 309 363
#
# _framework density 19.742535
#
# number of rings (size 3 to 8) (size 9 to 14) (size 15 to 20)
#    1.200    0.800    0.000    4.200    0.000    4.000 
#    0.000    6.000    0.000    0.000    0.000    0.000 
#    0.000    0.000    0.000    0.000    0.000    0.000 
#
# Total GULP energy -495799.888495 kJ/mol
# GULP energy per Si atom -12394.997212 kJ/mol
# Density = 1.969760 g / cm^3
# Si number density = 19.742535 Si / 1000 Ang^3
#
#
#
# Elastic Constant Matrix: (Units=GPa)
#
#
# Indices 1 2 3 4 5 6 
#
# 1 55.5605 24.4955 15.5785 0.0000 0.0000 0.0000
# 2 24.4955 126.7457 43.6584 0.0000 0.0000 0.0000
# 3 15.5785 43.6584 92.5312 0.0000 0.0000 0.0000
# 4 0.0000 0.0000 0.0000 37.0853 0.0000 0.0000
# 5 0.0000 0.0000 0.0000 0.0000 37.1558 0.0000
# 6 0.0000 0.0000 0.0000 0.0000 0.0000 29.6189
#
#
#
# Elastic Compliance Matrix: (Units=1/GPa)
#
#
# Indices 1 2 3 4 5 6 
#
# 1 0.019933 -0.003220 -0.001837 0.000000 0.000000 0.000000
# 2 -0.003220 0.009941 -0.004148 0.000000 0.000000 0.000000
# 3 -0.001837 -0.004148 0.013074 0.000000 0.000000 0.000000
# 4 0.000000 0.000000 0.000000 0.026965 0.000000 0.000000
# 5 0.000000 0.000000 0.000000 0.000000 0.026914 0.000000
# 6 0.000000 0.000000 0.000000 0.000000 0.000000 0.033762
#
#
# Mechanical properties :
#
#
# Convention : Reuss Voigt Hill
#
# Bulk Modulus (GPa) = 40.75308 49.14472 44.94890
# Shear Modulus (GPa) = 31.81121 33.51231 32.66176
#
# Velocity S-wave (km/s) = 4.01846 4.12450 4.07183
# Velocity P-wave (km/s) = 6.49752 6.90137 6.70249
#
# Compressibility (1/GPa) = 0.02453802
#
# Stress axis : x y z
#
# Youngs Moduli (GPa) = 50.16836 100.59372 76.48947
#
# Poissons Ratio (x) = 0.32388 0.14050
# Poissons Ratio (y) = 0.16152 0.31730
# Poissons Ratio (z) = 0.09215 0.41730
#
# Static dielectric constant tensor:
#      x y z
#    x 3.490660 0.000000 0.000000 
#    y 0.000000 3.578060 0.000000 
#    z 0.000000 0.000000 3.379510 
# 
# 
# High freq. dielectric constant tensor:
#      x y z
#    x 1.761600 0.000000 0.000000 
#    y 0.000000 1.779650 0.000000 
#    z 0.000000 0.000000 1.756450 
# 
# From -- ./inp_files/14616.got.cif
#   From: 2010.03.12/outbox.cif.g09.slc.cpg/sg62_8_cif.got.tgz:14616.got - 2010.04.10 19:12:36.
