data_PCOD8253861
_publ_section_title
;
Structure prediction by ZEFSAII (Michael W. Deem and Ramdas Pophale) SiO2 
 PCOD8253861
Probable space group: P N M A
;
_chemical_formula_sum "Si O2"
_cell_formula_units_Z 56
_cell_length_a 19.734639
_cell_length_b 8.937135
_cell_length_c 16.501674
_cell_angle_alpha 90.000000
_cell_angle_beta 90.000000
_cell_angle_gamma 90.000000
_cell_volume 2910.418938
_symmetry_space_group_name_H-M "P N M A"
_symmetry_group_IT_number 62
_symmetry_cell_setting 'orthorhombic'
loop_
_space_group_symop_operation_xyz
x,y,z
1/2-x,-y,1/2+z
1/2+x,1/2-y,1/2-z
-x,1/2+y,-z
-x,-y,-z
1/2+x,y,1/2-z
1/2-x,1/2+y,1/2+z
x,1/2-y,z
loop_
_atom_site_type_symbol
_atom_site_label
_atom_site_fract_x
_atom_site_fract_y
_atom_site_fract_z
Si Si1 0.883352 0.423248 0.678373
Si Si2 0.950453 0.925555 0.063205
Si Si3 0.335029 0.926382 0.979696
Si Si4 0.027367 0.075033 0.754572
Si Si5 0.860985 0.426095 0.355390
Si Si6 0.756531 0.919887 0.250618
Si Si7 0.798347 0.578747 0.069740
O O1 0.877112 0.250000 0.652375
O O2 0.878009 0.521722 0.597818
O O3 0.952220 0.459808 0.723900
O O4 0.822073 0.463730 0.739310
O O5 0.961306 0.750000 0.058344
O O6 0.873151 0.968802 0.040686
O O7 0.968271 0.981788 0.153282
O O8 0.000000 0.000000 0.000000
O O9 0.338998 0.750000 0.987248
O O10 0.370254 0.998852 0.057425
O O11 0.256461 0.974755 0.973933
O O12 0.046058 0.250000 0.747460
O O13 0.078846 0.981056 0.701353
O O14 0.864490 0.250000 0.365510
O O15 0.788552 0.471280 0.317311
O O16 0.764132 0.750000 0.281901
O O17 0.796436 0.940655 0.166473
O O18 0.781658 0.750000 0.046555
#
# Coordination Sequence:
#
# PCOD8253861 Si02
#       7
#     8   8   8   8   8   8   8
#     4   9  20  39  63  87 118 155 196 245 299 355
#     4  10  21  37  59  88 122 158 196 241 294 353
#     4  11  23  38  59  86 117 154 199 246 297 353
#     4  10  21  41  63  85 117 160 200 239 297 361
#     4  12  24  37  58  88 120 155 201 248 296 352
#     4   9  17  35  60  84 113 152 195 240 296 353
#     4   9  18  37  60  82 115 151 190 240 293 346
#
# _framework density 19.241216000000001
#
# number of rings (size 3 to 8) (size 9 to 14) (size 15 to 20)
#    0.000    2.000    1.429    3.429    0.000    5.714 
#    0.000    1.429    0.000    0.000    0.000    0.000 
#    0.000    0.000    0.000    0.000    0.000    0.000 
#
# Total GULP energy -694585.999091 kJ/mol
# GULP energy per Si atom -12403.321412 kJ/mol
# Density = 1.919742 g / cm^3
# Si number density = 19.241216 Si / 1000 Ang^3
#
#
#
# Elastic Constant Matrix: (Units=GPa)
#
#
# Indices 1 2 3 4 5 6 
#
# 1 108.3276 50.4323 61.0913 0.0000 0.0000 0.0000
# 2 50.4323 104.6360 46.3918 0.0000 0.0000 0.0000
# 3 61.0913 46.3918 84.2943 0.0000 0.0000 0.0000
# 4 0.0000 0.0000 0.0000 33.9967 0.0000 0.0000
# 5 0.0000 0.0000 0.0000 0.0000 28.4168 0.0000
# 6 0.0000 0.0000 0.0000 0.0000 0.0000 29.8644
#
#
#
# Elastic Compliance Matrix: (Units=1/GPa)
#
#
# Indices 1 2 3 4 5 6 
#
# 1 0.016534 -0.003514 -0.010049 0.000000 0.000000 0.000000
# 2 -0.003514 0.013388 -0.004822 0.000000 0.000000 0.000000
# 3 -0.010049 -0.004822 0.021800 0.000000 0.000000 0.000000
# 4 0.000000 0.000000 0.000000 0.029415 0.000000 0.000000
# 5 0.000000 0.000000 0.000000 0.000000 0.035191 0.000000
# 6 0.000000 0.000000 0.000000 0.000000 0.000000 0.033485
#
#
# Mechanical properties :
#
#
# Convention : Reuss Voigt Hill
#
# Bulk Modulus (GPa) = 66.87596 68.12097 67.49847
# Shear Modulus (GPa) = 26.10060 27.74507 26.92284
#
# Velocity S-wave (km/s) = 3.68706 3.80143 3.74468
# Velocity P-wave (km/s) = 7.27722 7.39922 7.33847
#
# Compressibility (1/GPa) = 0.01495306
#
# Stress axis : x y z
#
# Youngs Moduli (GPa) = 60.48003 74.69216 45.87156
#
# Poissons Ratio (x) = 0.26245 0.46098
# Poissons Ratio (y) = 0.21251 0.22118
# Poissons Ratio (z) = 0.60778 0.36015
#
# Static dielectric constant tensor:
#      x y z
#    x 3.683870 0.000000 0.000000 
#    y 0.000000 3.382720 0.000000 
#    z 0.000000 0.000000 3.500130 
# 
# 
# High freq. dielectric constant tensor:
#      x y z
#    x 1.757570 0.000000 0.000000 
#    y 0.000000 1.738480 0.000000 
#    z 0.000000 0.000000 1.745820 
# 
# From -- ./inp_files/20243.got.cif
#   From: 2010.03.12/outbox.cif.g09.slc.cpg/sg62_11_cif.got.tgz:20243.got - 2010.04.10 19:12:36.
