data_PCOD8253748
_publ_section_title
;
Structure prediction by ZEFSAII (Michael W. Deem and Ramdas Pophale) SiO2 
 PCOD8253748
Probable space group: P N M A
;
_chemical_formula_sum "Si O2"
_cell_formula_units_Z 40
_cell_length_a 5.049107
_cell_length_b 21.916711
_cell_length_c 17.080738
_cell_angle_alpha 90.000000
_cell_angle_beta 90.000000
_cell_angle_gamma 90.000000
_cell_volume 1890.151374
_symmetry_space_group_name_H-M "P N M A"
_symmetry_group_IT_number 62
_symmetry_cell_setting 'orthorhombic'
loop_
_space_group_symop_operation_xyz
x,y,z
1/2-x,-y,1/2+z
1/2+x,1/2-y,1/2-z
-x,1/2+y,-z
-x,-y,-z
1/2+x,y,1/2-z
1/2-x,1/2+y,1/2+z
x,1/2-y,z
loop_
_atom_site_type_symbol
_atom_site_label
_atom_site_fract_x
_atom_site_fract_y
_atom_site_fract_z
Si Si1 0.436757 0.750000 0.047996
Si Si2 0.517023 0.115081 0.700808
Si Si3 0.931031 0.932309 0.025580
Si Si4 0.525082 0.680505 0.799910
Si Si5 0.932815 0.627917 0.538957
Si Si6 0.934070 0.750000 0.146999
O O1 0.129436 0.750000 0.072219
O O2 0.626193 0.750000 0.123512
O O3 0.512934 0.808146 0.997861
O O4 0.247533 0.093335 0.741171
O O5 0.546573 0.080484 0.618190
O O6 0.510505 0.188667 0.695381
O O7 0.631238 0.921736 0.997285
O O8 0.130457 0.887451 0.980690
O O9 0.000000 0.000000 0.000000
O O10 0.321924 0.668467 0.729243
O O11 0.489862 0.750000 0.830313
O O12 0.464686 0.632344 0.867988
#
# Coordination Sequence:
#
# PCOD8253748 Si02
#       6
#     4   8   8   8   8   4
#     4  12  20  37  66 103 128 164 210 270 328 397
#     4  12  24  42  66  99 137 172 211 274 337 391
#     4  12  27  47  68  92 127 182 228 268 314 385
#     4  10  21  36  59  96 133 162 200 262 335 384
#     4  12  22  43  68  94 131 167 222 271 326 398
#     4  12  22  39  64 103 146 162 210 262 344 417
#
# _framework density 21.162324999999999
#
# number of rings (size 3 to 8) (size 9 to 14) (size 15 to 20)
#    0.000    0.400    5.000    4.800    0.000    0.000 
#    0.000    6.000    0.000    0.000    0.000    0.000 
#    0.000    0.000    0.000    0.000    0.000    0.000 
#
# Total GULP energy -496184.191584 kJ/mol
# GULP energy per Si atom -12404.604790 kJ/mol
# Density = 2.111416 g / cm^3
# Si number density = 21.162325 Si / 1000 Ang^3
#
#
#
# Elastic Constant Matrix: (Units=GPa)
#
#
# Indices 1 2 3 4 5 6 
#
# 1 86.2217 3.7198 15.1123 0.0000 0.0000 0.0000
# 2 3.7198 72.1671 33.5691 0.0000 0.0000 0.0000
# 3 15.1123 33.5691 117.5460 0.0000 0.0000 0.0000
# 4 0.0000 0.0000 0.0000 13.9461 0.0000 0.0000
# 5 0.0000 0.0000 0.0000 0.0000 35.5439 0.0000
# 6 0.0000 0.0000 0.0000 0.0000 0.0000 10.0676
#
#
#
# Elastic Compliance Matrix: (Units=1/GPa)
#
#
# Indices 1 2 3 4 5 6 
#
# 1 0.011866 0.000113 -0.001558 0.000000 0.000000 0.000000
# 2 0.000113 0.015981 -0.004578 0.000000 0.000000 0.000000
# 3 -0.001558 -0.004578 0.010015 0.000000 0.000000 0.000000
# 4 0.000000 0.000000 0.000000 0.071704 0.000000 0.000000
# 5 0.000000 0.000000 0.000000 0.000000 0.028134 0.000000
# 6 0.000000 0.000000 0.000000 0.000000 0.000000 0.099328
#
#
# Mechanical properties :
#
#
# Convention : Reuss Voigt Hill
#
# Bulk Modulus (GPa) = 38.73638 42.30414 40.52026
# Shear Modulus (GPa) = 19.40390 26.81377 23.10884
#
# Velocity S-wave (km/s) = 3.03133 3.56343 3.30810
# Velocity P-wave (km/s) = 5.53138 6.07984 5.81208
#
# Compressibility (1/GPa) = 0.02581552
#
# Stress axis : x y z
#
# Youngs Moduli (GPa) = 84.27315 62.57607 99.84940
#
# Poissons Ratio (x) = -0.00707 0.15555
# Poissons Ratio (y) = -0.00952 0.45714
# Poissons Ratio (z) = 0.13128 0.28649
#
# Static dielectric constant tensor:
#      x y z
#    x 4.027970 0.000000 0.000000 
#    y 0.000000 3.418920 0.000000 
#    z 0.000000 0.000000 3.772760 
# 
# 
# High freq. dielectric constant tensor:
#      x y z
#    x 1.850020 0.000000 0.000000 
#    y 0.000000 1.805250 0.000000 
#    z 0.000000 0.000000 1.834130 
# 
# From -- ./inp_files/16177.got.cif
#   From: 2010.03.12/outbox.cif.g09.slc.cpg/sg62_9_cif.got.tgz:16177.got - 2010.04.10 19:12:36.
