data_PCOD8253777
_publ_section_title
;
Structure prediction by ZEFSAII (Michael W. Deem and Ramdas Pophale) SiO2 
 PCOD8253777
Probable space group: P N M A
;
_chemical_formula_sum "Si O2"
_cell_formula_units_Z 40
_cell_length_a 18.468620
_cell_length_b 9.563254
_cell_length_c 10.860923
_cell_angle_alpha 90.000000
_cell_angle_beta 90.000000
_cell_angle_gamma 90.000000
_cell_volume 1918.257351
_symmetry_space_group_name_H-M "P N M A"
_symmetry_group_IT_number 62
_symmetry_cell_setting 'orthorhombic'
loop_
_space_group_symop_operation_xyz
x,y,z
1/2-x,-y,1/2+z
1/2+x,1/2-y,1/2-z
-x,1/2+y,-z
-x,-y,-z
1/2+x,y,1/2-z
1/2-x,1/2+y,1/2+z
x,1/2-y,z
loop_
_atom_site_type_symbol
_atom_site_label
_atom_site_fract_x
_atom_site_fract_y
_atom_site_fract_z
Si Si1 0.737892 0.250000 0.559580
Si Si2 0.833263 0.750000 0.584301
Si Si3 0.671175 0.517358 0.435812
Si Si4 0.908896 0.250000 0.594901
Si Si5 0.928699 0.965286 0.720398
Si Si6 0.666730 0.750000 0.623652
Si Si7 0.769315 0.750000 0.330475
Si Si8 0.548295 0.750000 0.816426
O O1 0.717058 0.386548 0.483535
O O2 0.822684 0.250000 0.588272
O O3 0.697417 0.250000 0.693111
O O4 0.873883 0.888077 0.627896
O O5 0.753073 0.750000 0.642790
O O6 0.831390 0.750000 0.435250
O O7 0.602626 0.463401 0.358760
O O8 0.643231 0.611327 0.549196
O O9 0.721187 0.610583 0.346391
O O10 0.939838 0.380146 0.670385
O O11 0.944275 0.250000 0.461777
O O12 0.005564 0.888125 0.725842
O O13 0.627512 0.750000 0.754979
#
# Coordination Sequence:
#
# PCOD8253777 Si02
#       8
#     4   4   8   4   8   4   4   4
#     4  12  22  36  68 101 122 167 210 265 330 372
#     4   9  21  39  65  89 133 153 206 267 315 377
#     4  10  22  39  63  90 129 160 211 260 324 375
#     4  12  22  40  64  89 127 165 214 262 310 381
#     4  11  22  44  63  92 125 171 207 261 321 379
#     4  10  23  43  59  95 127 165 210 271 310 385
#     4  10  21  37  56 100 122 162 206 263 315 379
#     4  11  27  39  64  88 125 174 218 250 320 374
#
# _framework density 20.852260000000001
#
# number of rings (size 3 to 8) (size 9 to 14) (size 15 to 20)
#    0.000    1.600    2.000    4.800    2.800    2.400 
#    0.000    1.000    0.000    0.000    0.000    0.000 
#    0.000    0.000    0.000    0.000    0.000    0.000 
#
# Total GULP energy -496130.891822 kJ/mol
# GULP energy per Si atom -12403.272296 kJ/mol
# Density = 2.080480 g / cm^3
# Si number density = 20.852260 Si / 1000 Ang^3
#
#
#
# Elastic Constant Matrix: (Units=GPa)
#
#
# Indices 1 2 3 4 5 6 
#
# 1 50.8663 22.4734 12.3607 0.0000 0.0000 0.0000
# 2 22.4734 153.0775 29.9626 0.0000 0.0000 0.0000
# 3 12.3607 29.9626 60.1922 0.0000 0.0000 0.0000
# 4 0.0000 0.0000 0.0000 81.6801 0.0000 0.0000
# 5 0.0000 0.0000 0.0000 0.0000 32.2244 0.0000
# 6 0.0000 0.0000 0.0000 0.0000 0.0000 20.7312
#
#
#
# Elastic Compliance Matrix: (Units=1/GPa)
#
#
# Indices 1 2 3 4 5 6 
#
# 1 0.021552 -0.002546 -0.003158 0.000000 0.000000 0.000000
# 2 -0.002546 0.007539 -0.003230 0.000000 0.000000 0.000000
# 3 -0.003158 -0.003230 0.018870 0.000000 0.000000 0.000000
# 4 0.000000 0.000000 0.000000 0.012243 0.000000 0.000000
# 5 0.000000 0.000000 0.000000 0.000000 0.031032 0.000000
# 6 0.000000 0.000000 0.000000 0.000000 0.000000 0.048236
#
#
# Mechanical properties :
#
#
# Convention : Reuss Voigt Hill
#
# Bulk Modulus (GPa) = 33.23147 43.74770 38.48959
# Shear Modulus (GPa) = 29.87386 40.21643 35.04514
#
# Velocity S-wave (km/s) = 3.78913 4.39639 4.10401
# Velocity P-wave (km/s) = 5.92576 6.84079 6.39965
#
# Compressibility (1/GPa) = 0.03009196
#
# Stress axis : x y z
#
# Youngs Moduli (GPa) = 46.40013 132.65121 52.99485
#
# Poissons Ratio (x) = 0.33770 0.16738
# Poissons Ratio (y) = 0.11812 0.17116
# Poissons Ratio (z) = 0.14655 0.42843
#
# Static dielectric constant tensor:
#      x y z
#    x 3.491100 0.000000 0.000000 
#    y 0.000000 4.022530 0.000000 
#    z 0.000000 0.000000 3.867240 
# 
# 
# High freq. dielectric constant tensor:
#      x y z
#    x 1.788550 0.000000 0.000000 
#    y 0.000000 1.835640 0.000000 
#    z 0.000000 0.000000 1.823750 
# 
# From -- ./inp_files/13937.got.cif
#   From: 2010.03.12/outbox.cif.g09.slc.cpg/sg62_7_cif.got.tgz:13937.got - 2010.04.10 19:12:36.
