data_PCOD8253972
_publ_section_title
;
Structure prediction by ZEFSAII (Michael W. Deem and Ramdas Pophale) SiO2 
 PCOD8253972
Probable space group: P N M A
;
_chemical_formula_sum "Si O2"
_cell_formula_units_Z 56
_cell_length_a 19.401838
_cell_length_b 9.067753
_cell_length_c 16.280084
_cell_angle_alpha 90.000000
_cell_angle_beta 90.000000
_cell_angle_gamma 90.000000
_cell_volume 2864.172675
_symmetry_space_group_name_H-M "P N M A"
_symmetry_group_IT_number 62
_symmetry_cell_setting 'orthorhombic'
loop_
_space_group_symop_operation_xyz
x,y,z
1/2-x,-y,1/2+z
1/2+x,1/2-y,1/2-z
-x,1/2+y,-z
-x,-y,-z
1/2+x,y,1/2-z
1/2-x,1/2+y,1/2+z
x,1/2-y,z
loop_
_atom_site_type_symbol
_atom_site_label
_atom_site_fract_x
_atom_site_fract_y
_atom_site_fract_z
Si Si1 0.372373 0.580820 0.693740
Si Si2 0.844546 0.077160 0.972241
Si Si3 0.244093 0.080461 0.747385
Si Si4 0.308417 0.580647 0.069841
Si Si5 0.944812 0.423353 0.442691
Si Si6 0.977134 0.081326 0.257393
Si Si7 0.877935 0.922070 0.135245
O O1 0.357465 0.750000 0.671214
O O2 0.377314 0.489156 0.609958
O O3 0.311406 0.521359 0.752203
O O4 0.441671 0.562081 0.745101
O O5 0.859445 0.250000 0.971734
O O6 0.762868 0.043824 0.976616
O O7 0.882869 0.005348 0.049112
O O8 0.268393 0.250000 0.744792
O O9 0.200365 0.044123 0.665982
O O10 0.196548 0.045238 0.825170
O O11 0.329684 0.750000 0.056639
O O12 0.368421 0.478659 0.032934
O O13 0.949326 0.250000 0.456405
O O14 0.960105 0.469835 0.349281
O O15 0.000000 0.500000 0.500000
O O16 0.953864 0.250000 0.242765
O O17 0.938257 0.977765 0.193715
O O18 0.889129 0.750000 0.120139
#
# Coordination Sequence:
#
# PCOD8253972 Si02
#       7
#     8   8   8   8   8   8   8
#     4  10  21  38  60  85 117 156 201 246 293 355
#     4  10  22  39  59  86 120 155 194 245 299 348
#     4   9  19  36  58  84 114 149 192 243 296 351
#     4   9  18  37  59  80 111 148 188 236 293 347
#     4  11  23  38  59  86 118 155 197 243 296 356
#     4  10  23  41  59  85 119 157 199 243 299 356
#     4  11  22  37  61  90 118 154 203 245 292 358
#
# _framework density 19.551894999999998
#
# number of rings (size 3 to 8) (size 9 to 14) (size 15 to 20)
#    0.000    2.000    1.429    2.571    0.000    7.429 
#    0.000    4.286    0.000    0.000    0.000    0.000 
#    0.000    0.000    0.000    0.000    0.000    0.000 
#
# Total GULP energy -694649.768073 kJ/mol
# GULP energy per Si atom -12404.460144 kJ/mol
# Density = 1.950739 g / cm^3
# Si number density = 19.551895 Si / 1000 Ang^3
#
#
#
# Elastic Constant Matrix: (Units=GPa)
#
#
# Indices 1 2 3 4 5 6 
#
# 1 78.3999 42.4879 14.9742 0.0000 0.0000 0.0000
# 2 42.4879 90.2928 19.9712 0.0000 0.0000 0.0000
# 3 14.9742 19.9712 39.2241 0.0000 0.0000 0.0000
# 4 0.0000 0.0000 0.0000 31.4370 0.0000 0.0000
# 5 0.0000 0.0000 0.0000 0.0000 25.2020 0.0000
# 6 0.0000 0.0000 0.0000 0.0000 0.0000 38.3093
#
#
#
# Elastic Compliance Matrix: (Units=1/GPa)
#
#
# Indices 1 2 3 4 5 6 
#
# 1 0.017387 -0.007566 -0.002786 0.000000 0.000000 0.000000
# 2 -0.007566 0.015773 -0.005142 0.000000 0.000000 0.000000
# 3 -0.002786 -0.005142 0.029176 0.000000 0.000000 0.000000
# 4 0.000000 0.000000 0.000000 0.031810 0.000000 0.000000
# 5 0.000000 0.000000 0.000000 0.000000 0.039679 0.000000
# 6 0.000000 0.000000 0.000000 0.000000 0.000000 0.026103
#
#
# Mechanical properties :
#
#
# Convention : Reuss Voigt Hill
#
# Bulk Modulus (GPa) = 31.89926 40.30926 36.10426
# Shear Modulus (GPa) = 24.83047 27.68856 26.25952
#
# Velocity S-wave (km/s) = 3.56754 3.76727 3.66876
# Velocity P-wave (km/s) = 5.77238 6.29161 6.03758
#
# Compressibility (1/GPa) = 0.03134869
#
# Stress axis : x y z
#
# Youngs Moduli (GPa) = 57.51351 63.40142 34.27433
#
# Poissons Ratio (x) = 0.47967 0.09548
# Poissons Ratio (y) = 0.43512 0.17625
# Poissons Ratio (z) = 0.16022 0.32604
#
# Static dielectric constant tensor:
#      x y z
#    x 3.511500 0.000000 0.000000 
#    y 0.000000 3.629670 0.000000 
#    z 0.000000 0.000000 3.467940 
# 
# 
# High freq. dielectric constant tensor:
#      x y z
#    x 1.763490 0.000000 0.000000 
#    y 0.000000 1.769030 0.000000 
#    z 0.000000 0.000000 1.754300 
# 
# From -- ./inp_files/20418.got.cif
#   From: 2010.03.12/outbox.cif.g09.slc.cpg/sg62_11_cif.got.tgz:20418.got - 2010.04.10 19:12:36.
