data_PCOD8253157
_publ_section_title
;
Structure prediction by ZEFSAII (Michael W. Deem and Ramdas Pophale) SiO2 
 PCOD8253157
Probable space group: P N M A
;
_chemical_formula_sum "Si O2"
_cell_formula_units_Z 48
_cell_length_a 9.946339
_cell_length_b 8.573103
_cell_length_c 30.361566
_cell_angle_alpha 90.000000
_cell_angle_beta 90.000000
_cell_angle_gamma 90.000000
_cell_volume 2588.960752
_symmetry_space_group_name_H-M "P N M A"
_symmetry_group_IT_number 62
_symmetry_cell_setting 'orthorhombic'
loop_
_space_group_symop_operation_xyz
x,y,z
1/2-x,-y,1/2+z
1/2+x,1/2-y,1/2-z
-x,1/2+y,-z
-x,-y,-z
1/2+x,y,1/2-z
1/2-x,1/2+y,1/2+z
x,1/2-y,z
loop_
_atom_site_type_symbol
_atom_site_label
_atom_site_fract_x
_atom_site_fract_y
_atom_site_fract_z
Si Si1 0.658913 0.434892 0.544428
Si Si2 0.659507 0.066055 0.875468
Si Si3 0.145273 0.565717 0.047913
Si Si4 0.647215 0.568047 0.780834
Si Si5 0.642837 0.932716 0.117395
Si Si6 0.139352 0.566594 0.284270
O O1 0.666150 0.250000 0.544149
O O2 0.507559 0.492292 0.554992
O O3 0.705924 0.495210 0.496824
O O4 0.757686 0.509452 0.581334
O O5 0.672078 0.250000 0.866104
O O6 0.766677 0.005929 0.911117
O O7 0.511293 0.023691 0.893530
O O8 0.688061 0.975844 0.830398
O O9 0.153700 0.750000 0.044211
O O10 0.669975 0.750000 0.772926
O O11 0.494555 0.523324 0.769438
O O12 0.740506 0.471049 0.748172
O O13 0.665074 0.750000 0.114714
O O14 0.679894 0.990331 0.166565
O O15 0.106771 0.750000 0.284354
#
# Coordination Sequence:
#
# PCOD8253157 Si02
#       6
#     8   8   8   8   8   8
#     4   9  17  31  49  70  97 127 161 206 256 300
#     4   9  18  34  52  70  97 134 173 208 249 309
#     4   9  18  31  48  71  98 129 166 206 249 305
#     4  11  22  36  54  81 112 137 171 223 274 312
#     4   8  16  31  51  72  94 126 169 210 245 296
#     4  10  20  37  58  78 104 142 182 215 259 322
#
# _framework density 18.540258000000001
#
# number of rings (size 3 to 8) (size 9 to 14) (size 15 to 20)
#    0.000    2.667    0.000    3.000    0.000    2.667 
#    0.000    7.500    0.000    0.000    0.000    0.000 
#    0.000    0.000    0.000    0.000    0.000    0.000 
#
# Total GULP energy -595169.248145 kJ/mol
# GULP energy per Si atom -12399.359336 kJ/mol
# Density = 1.849806 g / cm^3
# Si number density = 18.540258 Si / 1000 Ang^3
#
#
#
# Elastic Constant Matrix: (Units=GPa)
#
#
# Indices 1 2 3 4 5 6 
#
# 1 79.2406 11.2701 62.6299 0.0000 0.0000 0.0000
# 2 11.2701 29.4084 13.9779 0.0000 0.0000 0.0000
# 3 62.6299 13.9779 95.3824 0.0000 0.0000 0.0000
# 4 0.0000 0.0000 0.0000 27.2738 0.0000 0.0000
# 5 0.0000 0.0000 0.0000 0.0000 46.1881 0.0000
# 6 0.0000 0.0000 0.0000 0.0000 0.0000 18.9274
#
#
#
# Elastic Compliance Matrix: (Units=1/GPa)
#
#
# Indices 1 2 3 4 5 6 
#
# 1 0.026346 -0.002014 -0.017004 0.000000 0.000000 0.000000
# 2 -0.002014 0.036704 -0.004056 0.000000 0.000000 0.000000
# 3 -0.017004 -0.004056 0.022244 0.000000 0.000000 0.000000
# 4 0.000000 0.000000 0.000000 0.036665 0.000000 0.000000
# 5 0.000000 0.000000 0.000000 0.000000 0.021651 0.000000
# 6 0.000000 0.000000 0.000000 0.000000 0.000000 0.052833
#
#
# Mechanical properties :
#
#
# Convention : Reuss Voigt Hill
#
# Bulk Modulus (GPa) = 25.54651 42.19857 33.87254
# Shear Modulus (GPa) = 19.55882 26.22146 22.89014
#
# Velocity S-wave (km/s) = 3.25150 3.76480 3.51753
# Velocity P-wave (km/s) = 5.28254 6.45819 5.89972
#
# Compressibility (1/GPa) = 0.03914428
#
# Stress axis : x y z
#
# Youngs Moduli (GPa) = 37.95675 27.24522 44.95669
#
# Poissons Ratio (x) = 0.05488 0.76444
# Poissons Ratio (y) = 0.07646 0.18235
# Poissons Ratio (z) = 0.64541 0.11051
#
# Static dielectric constant tensor:
#      x y z
#    x 3.573560 0.000000 0.000000 
#    y 0.000000 3.141740 0.000000 
#    z 0.000000 0.000000 3.583340 
# 
# 
# High freq. dielectric constant tensor:
#      x y z
#    x 1.720450 0.000000 0.000000 
#    y 0.000000 1.698520 0.000000 
#    z 0.000000 0.000000 1.725160 
# 
# From -- ./inp_files/32024.got.cif
#   From: 2010.03.12/outbox.cif.g09.slc.cpg/sg62_17_cif.got.tgz:32024.got - 2010.04.10 19:12:36.
