data_PCOD8253454
_publ_section_title
;
Structure prediction by ZEFSAII (Michael W. Deem and Ramdas Pophale) SiO2 
 PCOD8253454
Probable space group: P N M A
;
_chemical_formula_sum "Si O2"
_cell_formula_units_Z 64
_cell_length_a 11.677746
_cell_length_b 23.046523
_cell_length_c 11.159491
_cell_angle_alpha 90.000000
_cell_angle_beta 90.000000
_cell_angle_gamma 90.000000
_cell_volume 3003.369902
_symmetry_space_group_name_H-M "P N M A"
_symmetry_group_IT_number 62
_symmetry_cell_setting 'orthorhombic'
loop_
_space_group_symop_operation_xyz
x,y,z
1/2-x,-y,1/2+z
1/2+x,1/2-y,1/2-z
-x,1/2+y,-z
-x,-y,-z
1/2+x,y,1/2-z
1/2-x,1/2+y,1/2+z
x,1/2-y,z
loop_
_atom_site_type_symbol
_atom_site_label
_atom_site_fract_x
_atom_site_fract_y
_atom_site_fract_z
Si Si1 0.751276 0.384191 0.520764
Si Si2 0.514666 0.387129 0.624188
Si Si3 0.322644 0.509616 0.953155
Si Si4 0.594588 0.184172 0.048982
Si Si5 0.910990 0.119687 0.306416
Si Si6 0.818600 0.382314 0.061954
Si Si7 0.574326 0.684445 0.167266
Si Si8 0.541513 0.013680 0.815487
O O1 0.619169 0.366167 0.538931
O O2 0.749729 0.453612 0.512254
O O3 0.809528 0.360763 0.398058
O O4 0.822483 0.358579 0.632651
O O5 0.405499 0.400490 0.542307
O O6 0.478917 0.333423 0.706397
O O7 0.553892 0.443289 0.702359
O O8 0.387216 0.537175 0.069358
O O9 0.242228 0.558268 0.896951
O O10 0.409055 0.487993 0.851104
O O11 0.594870 0.250000 0.096644
O O12 0.533180 0.143784 0.148651
O O13 0.723684 0.164052 0.021305
O O14 0.528116 0.178553 0.925659
O O15 0.882840 0.145803 0.176329
O O16 0.916597 0.050765 0.287161
O O17 0.621530 0.750000 0.174497
#
# Coordination Sequence:
#
# PCOD8253454 Si02
#       8
#     8   8   8   8   8   8   8   8
#     4  10  23  42  64  96 131 173 217 264 323 384
#     4  12  26  38  65 105 137 164 212 277 324 386
#     4  10  20  38  64  94 129 177 209 253 324 396
#     4  10  23  46  71  90 121 173 227 270 324 386
#     4  10  23  43  68  90 128 176 219 264 321 392
#     4  12  26  39  66 100 132 168 213 269 328 384
#     4  10  23  44  69  94 126 173 216 267 335 392
#     4  10  20  38  65  94 132 169 215 258 321 391
#
# _framework density 21.309396
#
# number of rings (size 3 to 8) (size 9 to 14) (size 15 to 20)
#    0.000    1.500    2.500    1.500    5.250    5.500 
#    0.000    0.000    0.000    0.000    0.000    0.000 
#    0.000    0.000    0.000    0.000    0.000    0.000 
#
# Total GULP energy -793599.165257 kJ/mol
# GULP energy per Si atom -12399.986957 kJ/mol
# Density = 2.126089 g / cm^3
# Si number density = 21.309396 Si / 1000 Ang^3
#
#
#
# Elastic Constant Matrix: (Units=GPa)
#
#
# Indices 1 2 3 4 5 6 
#
# 1 114.2235 28.4179 42.7027 0.0000 0.0000 0.0000
# 2 28.4179 75.3316 25.9511 0.0000 0.0000 0.0000
# 3 42.7027 25.9511 91.4126 0.0000 0.0000 0.0000
# 4 0.0000 0.0000 0.0000 13.1990 0.0000 0.0000
# 5 0.0000 0.0000 0.0000 0.0000 24.7458 0.0000
# 6 0.0000 0.0000 0.0000 0.0000 0.0000 15.8365
#
#
#
# Elastic Compliance Matrix: (Units=1/GPa)
#
#
# Indices 1 2 3 4 5 6 
#
# 1 0.011066 -0.002653 -0.004416 0.000000 0.000000 0.000000
# 2 -0.002653 0.015350 -0.003118 0.000000 0.000000 0.000000
# 3 -0.004416 -0.003118 0.013888 0.000000 0.000000 0.000000
# 4 0.000000 0.000000 0.000000 0.075763 0.000000 0.000000
# 5 0.000000 0.000000 0.000000 0.000000 0.040411 0.000000
# 6 0.000000 0.000000 0.000000 0.000000 0.000000 0.063145
#
#
# Mechanical properties :
#
#
# Convention : Reuss Voigt Hill
#
# Bulk Modulus (GPa) = 50.18023 52.79013 51.48518
# Shear Modulus (GPa) = 20.27243 23.01599 21.64421
#
# Velocity S-wave (km/s) = 3.08772 3.29003 3.19048
# Velocity P-wave (km/s) = 6.02591 6.26573 6.14699
#
# Compressibility (1/GPa) = 0.01992817
#
# Stress axis : x y z
#
# Youngs Moduli (GPa) = 90.36843 65.14777 72.00675
#
# Poissons Ratio (x) = 0.17285 0.31799
# Poissons Ratio (y) = 0.23976 0.22453
# Poissons Ratio (z) = 0.39908 0.20315
#
# Static dielectric constant tensor:
#      x y z
#    x 3.837090 0.000000 0.000000 
#    y 0.000000 3.754960 0.000000 
#    z 0.000000 0.000000 3.748220 
# 
# 
# High freq. dielectric constant tensor:
#      x y z
#    x 1.837070 0.000000 0.000000 
#    y 0.000000 1.823990 0.000000 
#    z 0.000000 0.000000 1.827120 
# 
# From -- ./inp_files/12552.got.cif
#   From: 2010.03.12/outbox.cif.g09.slc.cpg/sg62_7_cif.got.tgz:12552.got - 2010.04.10 19:12:36.
