data_PCOD8253586
_publ_section_title
;
Structure prediction by ZEFSAII (Michael W. Deem and Ramdas Pophale) SiO2 
 PCOD8253586
Probable space group: P N M A
;
_chemical_formula_sum "Si O2"
_cell_formula_units_Z 40
_cell_length_a 18.822289
_cell_length_b 17.786590
_cell_length_c 5.672895
_cell_angle_alpha 90.000000
_cell_angle_beta 90.000000
_cell_angle_gamma 90.000000
_cell_volume 1899.196393
_symmetry_space_group_name_H-M "P N M A"
_symmetry_group_IT_number 62
_symmetry_cell_setting 'orthorhombic'
loop_
_space_group_symop_operation_xyz
x,y,z
1/2-x,-y,1/2+z
1/2+x,1/2-y,1/2-z
-x,1/2+y,-z
-x,-y,-z
1/2+x,y,1/2-z
1/2-x,1/2+y,1/2+z
x,1/2-y,z
loop_
_atom_site_type_symbol
_atom_site_label
_atom_site_fract_x
_atom_site_fract_y
_atom_site_fract_z
Si Si1 0.035186 0.250000 0.205430
Si Si2 0.959088 0.403065 0.223604
Si Si3 0.085663 0.488158 0.158407
Si Si4 0.878796 0.750000 0.293563
Si Si5 0.319474 0.045959 0.032898
Si Si6 0.182848 0.402107 0.844104
O O1 0.078136 0.250000 0.457336
O O2 0.980290 0.317681 0.201205
O O3 0.080481 0.250000 0.961099
O O4 0.887252 0.408662 0.370681
O O5 0.026522 0.450394 0.331916
O O6 0.948341 0.439222 0.965953
O O7 0.157286 0.514805 0.280540
O O8 0.110211 0.421156 0.982080
O O9 0.829180 0.824502 0.297185
O O10 0.298339 0.973242 0.181852
O O11 0.253053 0.103545 0.010909
#
# Coordination Sequence:
#
# PCOD8253586 Si02
#       6
#     4   8   8   4   8   8
#     4  12  26  47  69 100 146 183 230 294 361 417
#     4  10  23  38  67  99 130 181 228 291 346 417
#     4  10  20  41  65  97 130 175 236 283 345 420
#     4  12  28  45  71 102 142 187 230 290 359 429
#     4  11  22  39  69  98 134 184 233 295 342 423
#     4  11  23  41  68  99 140 184 240 286 360 423
#
# _framework density 21.061540000000001
#
# number of rings (size 3 to 8) (size 9 to 14) (size 15 to 20)
#    0.000    1.200    4.000    1.800    2.800    0.800 
#    0.000    1.000    0.000    0.000    0.000    0.000 
#    0.000    0.000    0.000    0.000    0.000    0.000 
#
# Total GULP energy -495525.104412 kJ/mol
# GULP energy per Si atom -12388.127610 kJ/mol
# Density = 2.101360 g / cm^3
# Si number density = 21.061540 Si / 1000 Ang^3
#
#
#
# Elastic Constant Matrix: (Units=GPa)
#
#
# Indices 1 2 3 4 5 6 
#
# 1 133.2655 49.2083 24.5978 0.0000 0.0000 0.0000
# 2 49.2083 75.1397 12.7401 0.0000 0.0000 0.0000
# 3 24.5978 12.7401 68.2957 0.0000 0.0000 0.0000
# 4 0.0000 0.0000 0.0000 1.3610 0.0000 0.0000
# 5 0.0000 0.0000 0.0000 0.0000 17.2795 0.0000
# 6 0.0000 0.0000 0.0000 0.0000 0.0000 32.7242
#
#
#
# Elastic Compliance Matrix: (Units=1/GPa)
#
#
# Indices 1 2 3 4 5 6 
#
# 1 0.010305 -0.006319 -0.002533 0.000000 0.000000 0.000000
# 2 -0.006319 0.017618 -0.001011 0.000000 0.000000 0.000000
# 3 -0.002533 -0.001011 0.015743 0.000000 0.000000 0.000000
# 4 0.000000 0.000000 0.000000 0.734764 0.000000 0.000000
# 5 0.000000 0.000000 0.000000 0.000000 0.057872 0.000000
# 6 0.000000 0.000000 0.000000 0.000000 0.000000 0.030558
#
#
# Mechanical properties :
#
#
# Convention : Reuss Voigt Hill
#
# Bulk Modulus (GPa) = 41.76907 49.97703 45.87305
# Shear Modulus (GPa) = 5.58931 22.94991 14.26961
#
# Velocity S-wave (km/s) = 1.63082 3.30458 2.60574
# Velocity P-wave (km/s) = 4.83953 6.19200 5.55707
#
# Compressibility (1/GPa) = 0.02394116
#
# Stress axis : x y z
#
# Youngs Moduli (GPa) = 97.04447 56.75977 63.52065
#
# Poissons Ratio (x) = 0.35866 0.16087
# Poissons Ratio (y) = 0.61322 0.06420
# Poissons Ratio (z) = 0.24578 0.05736
#
# Static dielectric constant tensor:
#      x y z
#    x 4.075870 0.000000 0.000000 
#    y 0.000000 3.693340 0.000000 
#    z 0.000000 0.000000 3.851050 
# 
# 
# High freq. dielectric constant tensor:
#      x y z
#    x 1.845030 0.000000 0.000000 
#    y 0.000000 1.813860 0.000000 
#    z 0.000000 0.000000 1.815990 
# 
# From -- ./inp_files/1572.got.cif
#   From: 2010.03.12/outbox.cif.g09.slc.cpg/sg62_1_cif.got.tgz:1572.got - 2010.04.10 19:12:36.
