data_PCOD8253483
_publ_section_title
;
Structure prediction by ZEFSAII (Michael W. Deem and Ramdas Pophale) SiO2 
 PCOD8253483
Probable space group: P N M A
;
_chemical_formula_sum "Si O2"
_cell_formula_units_Z 64
_cell_length_a 23.516273
_cell_length_b 12.622085
_cell_length_c 10.568496
_cell_angle_alpha 90.000000
_cell_angle_beta 90.000000
_cell_angle_gamma 90.000000
_cell_volume 3136.987449
_symmetry_space_group_name_H-M "P N M A"
_symmetry_group_IT_number 62
_symmetry_cell_setting 'orthorhombic'
loop_
_space_group_symop_operation_xyz
x,y,z
1/2-x,-y,1/2+z
1/2+x,1/2-y,1/2-z
-x,1/2+y,-z
-x,-y,-z
1/2+x,y,1/2-z
1/2-x,1/2+y,1/2+z
x,1/2-y,z
loop_
_atom_site_type_symbol
_atom_site_label
_atom_site_fract_x
_atom_site_fract_y
_atom_site_fract_z
Si Si1 0.348517 0.633094 0.942171
Si Si2 0.064592 0.871718 0.738628
Si Si3 0.294574 0.543919 0.694670
Si Si4 0.561809 0.544450 0.497022
Si Si5 0.849023 0.625750 0.046348
Si Si6 0.459664 0.967992 0.888136
Si Si7 0.384979 0.127642 0.739914
Si Si8 0.669351 0.012644 0.808523
O O1 0.333285 0.750000 0.983976
O O2 0.322947 0.614086 0.803437
O O3 0.416951 0.623056 0.934439
O O4 0.321368 0.564624 0.054520
O O5 0.064775 0.750000 0.693186
O O6 0.077614 0.880502 0.886393
O O7 0.002207 0.924204 0.719337
O O8 0.116043 0.933773 0.670314
O O9 0.299474 0.594529 0.553568
O O10 0.324276 0.427339 0.706277
O O11 0.227880 0.545308 0.724840
O O12 0.500000 0.500000 0.500000
O O13 0.597777 0.436915 0.490282
O O14 0.573159 0.620370 0.379066
O O15 0.861153 0.750000 0.041627
O O16 0.839581 0.594497 0.192866
O O17 0.419380 0.067118 0.850382
O O18 0.500000 0.000000 0.000000
O O19 0.374313 0.250000 0.778118
#
# Coordination Sequence:
#
# PCOD8253483 Si02
#       8
#     8   8   8   8   8   8   8   8
#     4  11  23  40  66  93 124 166 206 252 315 369
#     4  11  23  39  62  90 125 164 201 249 313 370
#     4  10  23  43  63  89 128 158 208 262 301 365
#     4  10  20  39  58  89 124 151 198 250 300 361
#     4  10  22  39  63  90 120 159 202 249 305 359
#     4  11  22  42  58  91 129 160 204 254 300 367
#     4  10  22  39  63  90 120 162 203 250 311 364
#     4  11  23  43  62  92 127 160 207 261 303 364
#
# _framework density 20.40174
#
# number of rings (size 3 to 8) (size 9 to 14) (size 15 to 20)
#    0.000    1.500    2.500    2.250    0.000    4.000 
#    0.000    0.000    0.000    0.000    0.000    0.000 
#    0.000    0.000    0.000    0.000    0.000    0.000 
#
# Total GULP energy -793257.040105 kJ/mol
# GULP energy per Si atom -12394.641252 kJ/mol
# Density = 2.035530 g / cm^3
# Si number density = 20.401740 Si / 1000 Ang^3
#
#
#
# Elastic Constant Matrix: (Units=GPa)
#
#
# Indices 1 2 3 4 5 6 
#
# 1 98.3053 17.8138 -1.1916 0.0000 0.0000 0.0000
# 2 17.8138 119.1432 16.0749 0.0000 0.0000 0.0000
# 3 -1.1916 16.0749 84.9279 0.0000 0.0000 0.0000
# 4 0.0000 0.0000 0.0000 22.1028 0.0000 0.0000
# 5 0.0000 0.0000 0.0000 0.0000 28.5121 0.0000
# 6 0.0000 0.0000 0.0000 0.0000 0.0000 11.9516
#
#
#
# Elastic Compliance Matrix: (Units=1/GPa)
#
#
# Indices 1 2 3 4 5 6 
#
# 1 0.010473 -0.001627 0.000455 0.000000 0.000000 0.000000
# 2 -0.001627 0.008866 -0.001701 0.000000 0.000000 0.000000
# 3 0.000455 -0.001701 0.012103 0.000000 0.000000 0.000000
# 4 0.000000 0.000000 0.000000 0.045243 0.000000 0.000000
# 5 0.000000 0.000000 0.000000 0.000000 0.035073 0.000000
# 6 0.000000 0.000000 0.000000 0.000000 0.000000 0.083671
#
#
# Mechanical properties :
#
#
# Convention : Reuss Voigt Hill
#
# Bulk Modulus (GPa) = 38.91757 40.86340 39.89048
# Shear Modulus (GPa) = 23.83899 30.49191 27.16545
#
# Velocity S-wave (km/s) = 3.42201 3.87017 3.65297
# Velocity P-wave (km/s) = 5.89326 6.32801 6.11450
#
# Compressibility (1/GPa) = 0.02569534
#
# Stress axis : x y z
#
# Youngs Moduli (GPa) = 95.48567 112.78981 82.62393
#
# Poissons Ratio (x) = 0.18353 -0.03759
# Poissons Ratio (y) = 0.15538 0.14054
# Poissons Ratio (z) = -0.04344 0.19185
#
# Static dielectric constant tensor:
#      x y z
#    x 3.864480 0.000000 0.000000 
#    y 0.000000 1.868340 0.000000 
#    z 0.000000 0.000000 4.127670 
# 
# 
# High freq. dielectric constant tensor:
#      x y z
#    x 1.799480 0.000000 0.000000 
#    y 0.000000 1.783570 0.000000 
#    z 0.000000 0.000000 1.812660 
# 
# From -- ./inp_files/15319.got.cif
#   From: 2010.03.12/outbox.cif.g09.slc.cpg/sg62_8_cif.got.tgz:15319.got - 2010.04.10 19:12:36.
