data_PCOD8253198
_publ_section_title
;
Structure prediction by ZEFSAII (Michael W. Deem and Ramdas Pophale) SiO2 
 PCOD8253198
Probable space group: P N M A
;
_chemical_formula_sum "Si O2"
_cell_formula_units_Z 56
_cell_length_a 14.751154
_cell_length_b 8.461794
_cell_length_c 21.809759
_cell_angle_alpha 90.000000
_cell_angle_beta 90.000000
_cell_angle_gamma 90.000000
_cell_volume 2722.320866
_symmetry_space_group_name_H-M "P N M A"
_symmetry_group_IT_number 62
_symmetry_cell_setting 'orthorhombic'
loop_
_space_group_symop_operation_xyz
x,y,z
1/2-x,-y,1/2+z
1/2+x,1/2-y,1/2-z
-x,1/2+y,-z
-x,-y,-z
1/2+x,y,1/2-z
1/2-x,1/2+y,1/2+z
x,1/2-y,z
loop_
_atom_site_type_symbol
_atom_site_label
_atom_site_fract_x
_atom_site_fract_y
_atom_site_fract_z
Si Si1 0.010812 0.565158 0.362681
Si Si2 0.666920 0.432996 0.215295
Si Si3 0.342634 0.433134 0.652645
Si Si4 0.490536 0.936918 0.431130
Si Si5 0.359118 0.063643 0.965075
Si Si6 0.833777 0.434420 0.398769
Si Si7 0.200577 0.437491 0.879618
O O1 0.989229 0.750000 0.364022
O O2 0.080378 0.530900 0.308110
O O3 0.055686 0.500615 0.425906
O O4 0.916616 0.471622 0.352530
O O5 0.652682 0.250000 0.200822
O O6 0.669735 0.460068 0.287605
O O7 0.761315 0.489885 0.184083
O O8 0.354999 0.250000 0.670473
O O9 0.426049 0.494033 0.611056
O O10 0.251883 0.457244 0.614241
O O11 0.487658 0.750000 0.436161
O O12 0.399529 0.999837 0.397289
O O13 0.500000 0.000000 0.500000
O O14 0.358958 0.250000 0.960674
O O15 0.265786 0.003586 0.934447
O O16 0.366475 0.006488 0.034466
O O17 0.807624 0.250000 0.396327
O O18 0.200645 0.250000 0.871399
#
# Coordination Sequence:
#
# PCOD8253198 Si02
#       7
#     8   8   8   8   8   8   8
#     4  10  20  37  59  84 116 155 189 227 282 347
#     4  11  23  40  60  85 113 148 196 249 294 342
#     4  11  24  41  58  82 116 156 196 240 294 355
#     4  10  22  39  63  91 120 155 198 244 297 354
#     4   8  16  31  55  84 115 147 182 224 277 336
#     4  11  21  35  56  85 116 149 189 236 282 331
#     4   9  18  37  61  85 115 154 193 236 291 353
#
# _framework density 20.570682999999999
#
# number of rings (size 3 to 8) (size 9 to 14) (size 15 to 20)
#    0.000    2.000    0.000    4.714    0.000    4.000 
#    0.000   12.143    0.000    0.000    0.000    0.000 
#    0.000    0.000    0.000    0.000    0.000    0.000 
#
# Total GULP energy -694364.890323 kJ/mol
# GULP energy per Si atom -12399.373041 kJ/mol
# Density = 2.052386 g / cm^3
# Si number density = 20.570683 Si / 1000 Ang^3
#
#
#
# Elastic Constant Matrix: (Units=GPa)
#
#
# Indices 1 2 3 4 5 6 
#
# 1 162.5501 24.3765 45.8847 0.0000 0.0000 0.0000
# 2 24.3765 47.7025 22.1127 0.0000 0.0000 0.0000
# 3 45.8847 22.1127 97.3435 0.0000 0.0000 0.0000
# 4 0.0000 0.0000 0.0000 29.3144 0.0000 0.0000
# 5 0.0000 0.0000 0.0000 0.0000 22.5850 0.0000
# 6 0.0000 0.0000 0.0000 0.0000 0.0000 25.7247
#
#
#
# Elastic Compliance Matrix: (Units=1/GPa)
#
#
# Indices 1 2 3 4 5 6 
#
# 1 0.007334 -0.002398 -0.002912 0.000000 0.000000 0.000000
# 2 -0.002398 0.024214 -0.004370 0.000000 0.000000 0.000000
# 3 -0.002912 -0.004370 0.012638 0.000000 0.000000 0.000000
# 4 0.000000 0.000000 0.000000 0.034113 0.000000 0.000000
# 5 0.000000 0.000000 0.000000 0.000000 0.044277 0.000000
# 6 0.000000 0.000000 0.000000 0.000000 0.000000 0.038873
#
#
# Mechanical properties :
#
#
# Convention : Reuss Voigt Hill
#
# Bulk Modulus (GPa) = 40.28041 54.70489 47.49265
# Shear Modulus (GPa) = 26.44309 29.87296 28.15803
#
# Velocity S-wave (km/s) = 3.58924 3.81492 3.70380
# Velocity P-wave (km/s) = 6.06637 6.78647 6.43650
#
# Compressibility (1/GPa) = 0.02482596
#
# Stress axis : x y z
#
# Youngs Moduli (GPa) = 136.35973 41.29778 79.12392
#
# Poissons Ratio (x) = 0.09901 0.23042
# Poissons Ratio (y) = 0.32693 0.34581
# Poissons Ratio (z) = 0.39710 0.18049
#
# Static dielectric constant tensor:
#      x y z
#    x 3.887040 0.000000 0.000000 
#    y 0.000000 3.425920 0.000000 
#    z 0.000000 0.000000 3.772890 
# 
# 
# High freq. dielectric constant tensor:
#      x y z
#    x 1.815160 0.000000 0.000000 
#    y 0.000000 1.788640 0.000000 
#    z 0.000000 0.000000 1.800610 
# 
# From -- ./inp_files/27110.got.cif
#   From: 2010.03.12/outbox.cif.g09.slc.cpg/sg62_14_cif.got.tgz:27110.got - 2010.04.10 19:12:36.
