data_PCOD8253493
_publ_section_title
;
Structure prediction by ZEFSAII (Michael W. Deem and Ramdas Pophale) SiO2 
 PCOD8253493
Probable space group: P N M A
;
_chemical_formula_sum "Si O2"
_cell_formula_units_Z 48
_cell_length_a 13.431754
_cell_length_b 18.927959
_cell_length_c 9.655626
_cell_angle_alpha 90.000000
_cell_angle_beta 90.000000
_cell_angle_gamma 90.000000
_cell_volume 2454.804729
_symmetry_space_group_name_H-M "P N M A"
_symmetry_group_IT_number 62
_symmetry_cell_setting 'orthorhombic'
loop_
_space_group_symop_operation_xyz
x,y,z
1/2-x,-y,1/2+z
1/2+x,1/2-y,1/2-z
-x,1/2+y,-z
-x,-y,-z
1/2+x,y,1/2-z
1/2-x,1/2+y,1/2+z
x,1/2-y,z
loop_
_atom_site_type_symbol
_atom_site_label
_atom_site_fract_x
_atom_site_fract_y
_atom_site_fract_z
Si Si1 0.564352 0.668197 0.906299
Si Si2 0.631658 0.442728 0.515364
Si Si3 0.878963 0.919627 0.692875
Si Si4 0.081789 0.903967 0.059936
Si Si5 0.154951 0.923008 0.358287
Si Si6 0.301173 0.171773 0.349499
O O1 0.535087 0.750000 0.933326
O O2 0.475609 0.626318 0.834319
O O3 0.658548 0.662589 0.805708
O O4 0.591655 0.630476 0.049258
O O5 0.642119 0.420866 0.356055
O O6 0.612932 0.526224 0.526044
O O7 0.537238 0.403336 0.585899
O O8 0.728850 0.421268 0.601897
O O9 0.785926 0.883289 0.618158
O O10 0.890303 0.997998 0.629197
O O11 0.143029 0.896696 0.201558
O O12 0.110994 0.838958 0.961388
O O13 0.257611 0.250000 0.367785
#
# Coordination Sequence:
#
# PCOD8253493 Si02
#       6
#     8   8   8   8   8   8
#     4  11  24  41  61  92 128 163 209 257 309 375
#     4  10  20  39  61  91 125 159 209 255 311 371
#     4  11  21  39  66  90 125 165 212 256 309 370
#     4  10  22  39  61  89 126 164 201 262 310 371
#     4  11  23  38  67  94 124 163 206 269 311 362
#     4  11  22  38  62  89 125 167 210 253 307 376
#
# _framework density 19.553488999999999
#
# number of rings (size 3 to 8) (size 9 to 14) (size 15 to 20)
#    0.000    1.333    5.000    1.000    0.000    2.000 
#    0.000    0.833    0.000    0.000    0.000    0.000 
#    0.000    0.000    0.000    0.000    0.000    0.000 
#
# Total GULP energy -595300.086359 kJ/mol
# GULP energy per Si atom -12402.085132 kJ/mol
# Density = 1.950898 g / cm^3
# Si number density = 19.553489 Si / 1000 Ang^3
#
#
#
# Elastic Constant Matrix: (Units=GPa)
#
#
# Indices 1 2 3 4 5 6 
#
# 1 77.0306 23.8781 16.9268 0.0000 0.0000 0.0000
# 2 23.8781 98.5131 34.3292 0.0000 0.0000 0.0000
# 3 16.9268 34.3292 79.6614 0.0000 0.0000 0.0000
# 4 0.0000 0.0000 0.0000 25.6296 0.0000 0.0000
# 5 0.0000 0.0000 0.0000 0.0000 34.7392 0.0000
# 6 0.0000 0.0000 0.0000 0.0000 0.0000 20.1689
#
#
#
# Elastic Compliance Matrix: (Units=1/GPa)
#
#
# Indices 1 2 3 4 5 6 
#
# 1 0.014255 -0.002824 -0.001812 0.000000 0.000000 0.000000
# 2 -0.002824 0.012504 -0.004788 0.000000 0.000000 0.000000
# 3 -0.001812 -0.004788 0.015002 0.000000 0.000000 0.000000
# 4 0.000000 0.000000 0.000000 0.039017 0.000000 0.000000
# 5 0.000000 0.000000 0.000000 0.000000 0.028786 0.000000
# 6 0.000000 0.000000 0.000000 0.000000 0.000000 0.049581
#
#
# Mechanical properties :
#
#
# Convention : Reuss Voigt Hill
#
# Bulk Modulus (GPa) = 43.64467 45.05257 44.34862
# Shear Modulus (GPa) = 26.93501 28.11228 27.52365
#
# Velocity S-wave (km/s) = 3.71550 3.79583 3.75588
# Velocity P-wave (km/s) = 6.38559 6.50398 6.44506
#
# Compressibility (1/GPa) = 0.02291230
#
# Stress axis : x y z
#
# Youngs Moduli (GPa) = 70.14898 79.97426 66.65904
#
# Poissons Ratio (x) = 0.22583 0.12080
# Poissons Ratio (y) = 0.19809 0.31919
# Poissons Ratio (z) = 0.12712 0.38295
#
# Static dielectric constant tensor:
#      x y z
#    x 3.562580 0.000000 0.000000 
#    y 0.000000 3.570270 0.000000 
#    z 0.000000 0.000000 3.440550 
# 
# 
# High freq. dielectric constant tensor:
#      x y z
#    x 1.766760 0.000000 0.000000 
#    y 0.000000 1.755640 0.000000 
#    z 0.000000 0.000000 1.755110 
# 
# From -- ./inp_files/6433.got.cif
#   From: 2010.03.12/outbox.cif.g09.slc.cpg/sg62_4_cif.got.tgz:6433.got - 2010.04.10 19:12:36.
