data_PCOD8253451
_publ_section_title
;
Structure prediction by ZEFSAII (Michael W. Deem and Ramdas Pophale) SiO2 
 PCOD8253451
Probable space group: P N M A
;
_chemical_formula_sum "Si O2"
_cell_formula_units_Z 40
_cell_length_a 10.216056
_cell_length_b 14.662492
_cell_length_c 12.678900
_cell_angle_alpha 90.000000
_cell_angle_beta 90.000000
_cell_angle_gamma 90.000000
_cell_volume 1899.208431
_symmetry_space_group_name_H-M "P N M A"
_symmetry_group_IT_number 62
_symmetry_cell_setting 'orthorhombic'
loop_
_space_group_symop_operation_xyz
x,y,z
1/2-x,-y,1/2+z
1/2+x,1/2-y,1/2-z
-x,1/2+y,-z
-x,-y,-z
1/2+x,y,1/2-z
1/2-x,1/2+y,1/2+z
x,1/2-y,z
loop_
_atom_site_type_symbol
_atom_site_label
_atom_site_fract_x
_atom_site_fract_y
_atom_site_fract_z
Si Si1 0.463233 0.250000 0.350782
Si Si2 0.323084 0.935527 0.940343
Si Si3 0.341038 0.750000 0.839967
Si Si4 0.567021 0.564183 0.215529
Si Si5 0.302704 0.855231 0.161703
Si Si6 0.537500 0.553336 0.602849
O O1 0.313122 0.250000 0.308469
O O2 0.568290 0.250000 0.259996
O O3 0.490646 0.160190 0.420367
O O4 0.381420 0.838088 0.907628
O O5 0.191293 0.957868 0.875053
O O6 0.416782 0.018844 0.901990
O O7 0.292318 0.927734 0.064968
O O8 0.692712 0.621544 0.252062
O O9 0.444982 0.633034 0.214360
O O10 0.542253 0.481036 0.296166
O O11 0.284880 0.750000 0.124815
O O12 0.500000 0.500000 0.500000
#
# Coordination Sequence:
#
# PCOD8253451 Si02
#       6
#     4   8   4   8   8   8
#     4  10  22  38  66  93 129 169 215 274 322 382
#     4  11  22  42  68  96 126 173 215 267 326 389
#     4  10  20  38  64  93 125 163 215 260 328 370
#     4  12  24  42  69  97 131 168 223 273 322 392
#     4  12  26  45  67  94 133 177 219 269 335 398
#     4  11  22  40  66  97 129 171 219 264 327 390
#
# _framework density 21.061406000000002
#
# number of rings (size 3 to 8) (size 9 to 14) (size 15 to 20)
#    0.000    0.800    7.000    1.200    0.000    0.000 
#    1.800    0.000    0.000    0.000    0.000    0.000 
#    0.000    0.000    0.000    0.000    0.000    0.000 
#
# Total GULP energy -495902.706793 kJ/mol
# GULP energy per Si atom -12397.567670 kJ/mol
# Density = 2.101347 g / cm^3
# Si number density = 21.061406 Si / 1000 Ang^3
#
#
#
# Elastic Constant Matrix: (Units=GPa)
#
#
# Indices 1 2 3 4 5 6 
#
# 1 90.2838 26.9152 17.0791 0.0000 0.0000 0.0000
# 2 26.9152 83.4424 14.6382 0.0000 0.0000 0.0000
# 3 17.0791 14.6382 78.2580 0.0000 0.0000 0.0000
# 4 0.0000 0.0000 0.0000 39.3752 0.0000 0.0000
# 5 0.0000 0.0000 0.0000 0.0000 26.9934 0.0000
# 6 0.0000 0.0000 0.0000 0.0000 0.0000 25.0532
#
#
#
# Elastic Compliance Matrix: (Units=1/GPa)
#
#
# Indices 1 2 3 4 5 6 
#
# 1 0.012565 -0.003693 -0.002051 0.000000 0.000000 0.000000
# 2 -0.003693 0.013476 -0.001715 0.000000 0.000000 0.000000
# 3 -0.002051 -0.001715 0.013547 0.000000 0.000000 0.000000
# 4 0.000000 0.000000 0.000000 0.025397 0.000000 0.000000
# 5 0.000000 0.000000 0.000000 0.000000 0.037046 0.000000
# 6 0.000000 0.000000 0.000000 0.000000 0.000000 0.039915
#
#
# Mechanical properties :
#
#
# Convention : Reuss Voigt Hill
#
# Bulk Modulus (GPa) = 40.53572 41.02769 40.78170
# Shear Modulus (GPa) = 30.28684 31.17447 30.73066
#
# Velocity S-wave (km/s) = 3.79624 3.85147 3.82396
# Velocity P-wave (km/s) = 6.20512 6.26903 6.23716
#
# Compressibility (1/GPa) = 0.02466960
#
# Stress axis : x y z
#
# Youngs Moduli (GPa) = 79.58459 74.20379 73.81873
#
# Poissons Ratio (x) = 0.27405 0.15143
# Poissons Ratio (y) = 0.29392 0.12658
# Poissons Ratio (z) = 0.16326 0.12724
#
# Static dielectric constant tensor:
#      x y z
#    x 3.959330 0.000000 0.000000 
#    y 0.000000 4.244130 0.000000 
#    z 0.000000 0.000000 3.631080 
# 
# 
# High freq. dielectric constant tensor:
#      x y z
#    x 1.831400 0.000000 0.000000 
#    y 0.000000 1.830990 0.000000 
#    z 0.000000 0.000000 1.809250 
# 
# From -- ./inp_files/11090.got.cif
#   From: 2010.03.12/outbox.cif.g09.slc.cpg/sg62_6_cif.got.tgz:11090.got - 2010.04.10 19:12:36.
