data_PCOD8253610
_publ_section_title
;
Structure prediction by ZEFSAII (Michael W. Deem and Ramdas Pophale) SiO2 
 PCOD8253610
Probable space group: P N M A
;
_chemical_formula_sum "Si O2"
_cell_formula_units_Z 40
_cell_length_a 5.186678
_cell_length_b 14.111657
_cell_length_c 28.077553
_cell_angle_alpha 90.000000
_cell_angle_beta 90.000000
_cell_angle_gamma 90.000000
_cell_volume 2055.069693
_symmetry_space_group_name_H-M "P N M A"
_symmetry_group_IT_number 62
_symmetry_cell_setting 'orthorhombic'
loop_
_space_group_symop_operation_xyz
x,y,z
1/2-x,-y,1/2+z
1/2+x,1/2-y,1/2-z
-x,1/2+y,-z
-x,-y,-z
1/2+x,y,1/2-z
1/2-x,1/2+y,1/2+z
x,1/2-y,z
loop_
_atom_site_type_symbol
_atom_site_label
_atom_site_fract_x
_atom_site_fract_y
_atom_site_fract_z
Si Si1 0.512472 0.142583 0.082905
Si Si2 0.767219 0.139917 0.719616
Si Si3 0.999043 0.057261 0.048231
Si Si4 0.308665 0.012727 0.356686
Si Si5 0.464580 0.859779 0.719940
O O1 0.482771 0.250000 0.100684
O O2 0.556205 0.076561 0.129898
O O3 0.761765 0.132057 0.048172
O O4 0.265232 0.112952 0.052683
O O5 0.510351 0.112395 0.748144
O O6 0.772105 0.250000 0.705590
O O7 0.777888 0.081681 0.670600
O O8 0.957051 0.986612 0.093882
O O9 0.000000 0.000000 0.000000
O O10 0.506880 0.077369 0.326955
O O11 0.695877 0.886605 0.755662
O O12 0.476221 0.750000 0.705100
#
# Coordination Sequence:
#
# PCOD8253610 Si02
#       5
#     8   8   8   8   8
#     4  10  22  38  63  91 120 157 194 244 305 370
#     4  10  22  39  60  86 119 159 208 255 302 356
#     4  10  23  40  62  86 124 159 207 251 297 365
#     4  10  23  35  65  84 122 155 201 244 302 364
#     4  10  21  33  49  81 120 153 189 228 277 352
#
# _framework density 19.46406
#
# number of rings (size 3 to 8) (size 9 to 14) (size 15 to 20)
#    1.200    0.800    0.000    3.000    5.600    0.000 
#    0.000    2.000    0.000    0.000    0.000    0.000 
#    0.000    0.000    0.000    0.000    0.000    0.000 
#
# Total GULP energy -495827.048803 kJ/mol
# GULP energy per Si atom -12395.676220 kJ/mol
# Density = 1.941976 g / cm^3
# Si number density = 19.464060 Si / 1000 Ang^3
#
#
#
# Elastic Constant Matrix: (Units=GPa)
#
#
# Indices 1 2 3 4 5 6 
#
# 1 114.6178 40.0704 30.7624 0.0000 0.0000 0.0000
# 2 40.0704 98.5832 71.3801 0.0000 0.0000 0.0000
# 3 30.7624 71.3801 133.6560 0.0000 0.0000 0.0000
# 4 0.0000 0.0000 0.0000 29.5935 0.0000 0.0000
# 5 0.0000 0.0000 0.0000 0.0000 18.6825 0.0000
# 6 0.0000 0.0000 0.0000 0.0000 0.0000 22.2926
#
#
#
# Elastic Compliance Matrix: (Units=1/GPa)
#
#
# Indices 1 2 3 4 5 6 
#
# 1 0.010174 -0.003978 -0.000217 0.000000 0.000000 0.000000
# 2 -0.003978 0.018095 -0.008748 0.000000 0.000000 0.000000
# 3 -0.000217 -0.008748 0.012204 0.000000 0.000000 0.000000
# 4 0.000000 0.000000 0.000000 0.033791 0.000000 0.000000
# 5 0.000000 0.000000 0.000000 0.000000 0.053526 0.000000
# 6 0.000000 0.000000 0.000000 0.000000 0.000000 0.044858
#
#
# Mechanical properties :
#
#
# Convention : Reuss Voigt Hill
#
# Bulk Modulus (GPa) = 68.55945 70.14253 69.35099
# Shear Modulus (GPa) = 24.58264 27.75666 26.16965
#
# Velocity S-wave (km/s) = 3.55769 3.78040 3.67074
# Velocity P-wave (km/s) = 7.22332 7.42768 7.32621
#
# Compressibility (1/GPa) = 0.01458588
#
# Stress axis : x y z
#
# Youngs Moduli (GPa) = 98.29335 55.26462 81.94144
#
# Poissons Ratio (x) = 0.21984 0.01779
# Poissons Ratio (y) = 0.39101 0.71683
# Poissons Ratio (z) = 0.02134 0.48346
#
# Static dielectric constant tensor:
#      x y z
#    x 3.748170 0.000000 0.000000 
#    y 0.000000 3.465990 0.000000 
#    z 0.000000 0.000000 3.339970 
# 
# 
# High freq. dielectric constant tensor:
#      x y z
#    x 1.775060 0.000000 0.000000 
#    y 0.000000 1.742310 0.000000 
#    z 0.000000 0.000000 1.741210 
# 
# From -- ./inp_files/28242.got.cif
#   From: 2010.03.12/outbox.cif.g09.slc.cpg/sg62_15_cif.got.tgz:28242.got - 2010.04.10 19:12:36.
