data_PCOD8253073
_publ_section_title
;
Structure prediction by ZEFSAII (Michael W. Deem and Ramdas Pophale) SiO2 
 PCOD8253073
Probable space group: P N M A
;
_chemical_formula_sum "Si O2"
_cell_formula_units_Z 64
_cell_length_a 18.648097
_cell_length_b 18.467222
_cell_length_c 9.798142
_cell_angle_alpha 90.000000
_cell_angle_beta 90.000000
_cell_angle_gamma 90.000000
_cell_volume 3374.269907
_symmetry_space_group_name_H-M "P N M A"
_symmetry_group_IT_number 62
_symmetry_cell_setting 'orthorhombic'
loop_
_space_group_symop_operation_xyz
x,y,z
1/2-x,-y,1/2+z
1/2+x,1/2-y,1/2-z
-x,1/2+y,-z
-x,-y,-z
1/2+x,y,1/2-z
1/2-x,1/2+y,1/2+z
x,1/2-y,z
loop_
_atom_site_type_symbol
_atom_site_label
_atom_site_fract_x
_atom_site_fract_y
_atom_site_fract_z
Si Si1 0.370189 0.834809 0.420254
Si Si2 0.981073 0.167651 0.790873
Si Si3 0.803698 0.575181 0.847037
Si Si4 0.374171 0.903632 0.933618
Si Si5 0.518383 0.835188 0.972582
Si Si6 0.347999 0.065538 0.010467
Si Si7 0.290134 0.666830 0.158426
Si Si8 0.157476 0.582192 0.196503
O O1 0.358734 0.750000 0.435448
O O2 0.451919 0.852966 0.384261
O O3 0.348233 0.870287 0.561115
O O4 0.320697 0.865816 0.299369
O O5 0.956124 0.250000 0.815216
O O6 0.999577 0.156480 0.632308
O O7 0.919461 0.113969 0.839624
O O8 0.817502 0.598296 0.690857
O O9 0.839898 0.497339 0.865882
O O10 0.719428 0.572871 0.886272
O O11 0.453746 0.875657 0.891075
O O12 0.377489 0.983106 0.004423
O O13 0.347598 0.844115 0.040231
O O14 0.525936 0.750000 0.931148
O O15 0.591378 0.878536 0.935954
O O16 0.325361 0.087665 0.857768
O O17 0.273022 0.750000 0.177340
O O18 0.217300 0.627313 0.117241
#
# Coordination Sequence:
#
# PCOD8253073 Si02
#       8
#     8   8   8   8   8   8   8   8
#     4  10  21  37  59  84 115 154 195 236 289 355
#     4   9  18  35  59  87 115 149 198 251 293 341
#     4  11  23  38  58  89 122 160 190 240 303 354
#     4  11  22  38  60  89 123 155 195 249 297 354
#     4  10  20  37  61  88 115 153 206 251 291 348
#     4  10  21  38  60  86 121 159 198 242 298 357
#     4  11  20  35  60  86 113 154 198 242 289 345
#     4  10  20  36  59  87 117 150 199 250 288 346
#
# _framework density 18.967065999999999
#
# number of rings (size 3 to 8) (size 9 to 14) (size 15 to 20)
#    0.000    1.750    3.750    1.125    0.000    2.500 
#    0.000    1.250    0.000    0.000    0.000    0.000 
#    0.000    0.000    0.000    0.000    0.000    0.000 
#
# Total GULP energy -793515.666714 kJ/mol
# GULP energy per Si atom -12398.682292 kJ/mol
# Density = 1.892390 g / cm^3
# Si number density = 18.967066 Si / 1000 Ang^3
#
#
#
# Elastic Constant Matrix: (Units=GPa)
#
#
# Indices 1 2 3 4 5 6 
#
# 1 132.7089 64.7155 35.8402 0.0000 0.0000 0.0000
# 2 64.7155 64.1028 17.5673 0.0000 0.0000 0.0000
# 3 35.8402 17.5673 41.1904 0.0000 0.0000 0.0000
# 4 0.0000 0.0000 0.0000 28.8913 0.0000 0.0000
# 5 0.0000 0.0000 0.0000 0.0000 30.2818 0.0000
# 6 0.0000 0.0000 0.0000 0.0000 0.0000 35.5914
#
#
#
# Elastic Compliance Matrix: (Units=1/GPa)
#
#
# Indices 1 2 3 4 5 6 
#
# 1 0.017134 -0.014961 -0.008528 0.000000 0.000000 0.000000
# 2 -0.014961 0.030728 -0.000088 0.000000 0.000000 0.000000
# 3 -0.008528 -0.000088 0.031735 0.000000 0.000000 0.000000
# 4 0.000000 0.000000 0.000000 0.034612 0.000000 0.000000
# 5 0.000000 0.000000 0.000000 0.000000 0.033023 0.000000
# 6 0.000000 0.000000 0.000000 0.000000 0.000000 0.028097
#
#
# Mechanical properties :
#
#
# Convention : Reuss Voigt Hill
#
# Bulk Modulus (GPa) = 30.82195 52.69421 41.75808
# Shear Modulus (GPa) = 21.43201 26.94485 24.18843
#
# Velocity S-wave (km/s) = 3.36513 3.77319 3.57499
# Velocity P-wave (km/s) = 5.60217 6.84287 6.25337
#
# Compressibility (1/GPa) = 0.03244442
#
# Stress axis : x y z
#
# Youngs Moduli (GPa) = 58.36369 32.54403 31.51091
#
# Poissons Ratio (x) = 0.48688 0.26872
# Poissons Ratio (y) = 0.87316 0.00276
# Poissons Ratio (z) = 0.49772 0.00285
#
# Static dielectric constant tensor:
#      x y z
#    x 3.541490 0.000000 0.000000 
#    y 0.000000 3.508950 0.000000 
#    z 0.000000 0.000000 3.238860 
# 
# 
# High freq. dielectric constant tensor:
#      x y z
#    x 1.746590 0.000000 0.000000 
#    y 0.000000 1.745610 0.000000 
#    z 0.000000 0.000000 1.706180 
# 
# From -- ./inp_files/8915.got.cif
#   From: 2010.03.12/outbox.cif.g09.slc.cpg/sg62_5_cif.got.tgz:8915.got - 2010.04.10 19:12:36.
