data_PCOD8253427
_publ_section_title
;
Structure prediction by ZEFSAII (Michael W. Deem and Ramdas Pophale) SiO2 
 PCOD8253427
Probable space group: P N M A
;
_chemical_formula_sum "Si O2"
_cell_formula_units_Z 64
_cell_length_a 23.627569
_cell_length_b 8.606380
_cell_length_c 15.467173
_cell_angle_alpha 90.000000
_cell_angle_beta 90.000000
_cell_angle_gamma 90.000000
_cell_volume 3145.216179
_symmetry_space_group_name_H-M "P N M A"
_symmetry_group_IT_number 62
_symmetry_cell_setting 'orthorhombic'
loop_
_space_group_symop_operation_xyz
x,y,z
1/2-x,-y,1/2+z
1/2+x,1/2-y,1/2-z
-x,1/2+y,-z
-x,-y,-z
1/2+x,y,1/2-z
1/2-x,1/2+y,1/2+z
x,1/2-y,z
loop_
_atom_site_type_symbol
_atom_site_label
_atom_site_fract_x
_atom_site_fract_y
_atom_site_fract_z
Si Si1 0.993184 0.430018 0.681203
Si Si2 0.988567 0.070589 0.138574
Si Si3 0.788585 0.930504 0.000100
Si Si4 0.263564 0.932845 0.833723
Si Si5 0.404453 0.431651 0.083773
Si Si6 0.582362 0.071445 0.496030
Si Si7 0.714201 0.566016 0.843878
Si Si8 0.114958 0.067770 0.398237
O O1 0.978024 0.250000 0.672052
O O2 0.016163 0.467008 0.776255
O O3 0.041057 0.470823 0.611365
O O4 0.937300 0.531280 0.664381
O O5 0.986508 0.250000 0.165916
O O6 0.935250 0.033528 0.077429
O O7 0.046197 0.026708 0.088463
O O8 0.775512 0.750000 0.014298
O O9 0.852990 0.960314 0.972210
O O10 0.776981 0.016701 0.089148
O O11 0.749558 0.002415 0.924645
O O12 0.261094 0.750000 0.825578
O O13 0.238946 0.006335 0.744819
O O14 0.327999 0.987190 0.849595
O O15 0.418250 0.250000 0.092401
O O16 0.351583 0.479140 0.144707
O O17 0.389763 0.469205 0.985285
O O18 0.571031 0.250000 0.521335
O O19 0.721922 0.750000 0.844058
O O20 0.116617 0.250000 0.420313
#
# Coordination Sequence:
#
# PCOD8253427 Si02
#       8
#     8   8   8   8   8   8   8   8
#     4  12  26  41  61  88 120 153 201 253 303 359
#     4  10  21  39  61  87 120 159 203 247 299 357
#     4  10  20  38  63  90 121 159 200 246 302 358
#     4  10  22  39  62  91 123 160 203 248 296 358
#     4  11  22  41  65  88 119 157 200 244 302 362
#     4   9  20  37  61  88 121 160 199 246 300 356
#     4   9  20  38  62  89 121 160 199 241 296 360
#     4  11  23  41  64  89 120 156 200 249 304 359
#
# _framework density 20.348364
#
# number of rings (size 3 to 8) (size 9 to 14) (size 15 to 20)
#    0.000    1.750    1.250    2.625    3.500    1.500 
#    0.000    1.250    0.000    0.000    0.000    0.000 
#    0.000    0.000    0.000    0.000    0.000    0.000 
#
# Total GULP energy -793902.445878 kJ/mol
# GULP energy per Si atom -12404.725717 kJ/mol
# Density = 2.030205 g / cm^3
# Si number density = 20.348364 Si / 1000 Ang^3
#
#
#
# Elastic Constant Matrix: (Units=GPa)
#
#
# Indices 1 2 3 4 5 6 
#
# 1 78.3776 20.5973 9.9271 0.0000 0.0000 0.0000
# 2 20.5973 34.0031 11.7941 0.0000 0.0000 0.0000
# 3 9.9271 11.7941 97.9248 0.0000 0.0000 0.0000
# 4 0.0000 0.0000 0.0000 31.6442 0.0000 0.0000
# 5 0.0000 0.0000 0.0000 0.0000 29.5146 0.0000
# 6 0.0000 0.0000 0.0000 0.0000 0.0000 25.0955
#
#
#
# Elastic Compliance Matrix: (Units=1/GPa)
#
#
# Indices 1 2 3 4 5 6 
#
# 1 0.015193 -0.009047 -0.000451 0.000000 0.000000 0.000000
# 2 -0.009047 0.036078 -0.003428 0.000000 0.000000 0.000000
# 3 -0.000451 -0.003428 0.010670 0.000000 0.000000 0.000000
# 4 0.000000 0.000000 0.000000 0.031601 0.000000 0.000000
# 5 0.000000 0.000000 0.000000 0.000000 0.033881 0.000000
# 6 0.000000 0.000000 0.000000 0.000000 0.000000 0.039848
#
#
# Mechanical properties :
#
#
# Convention : Reuss Voigt Hill
#
# Bulk Modulus (GPa) = 27.70804 32.77141 30.23972
# Shear Modulus (GPa) = 24.37187 28.45000 26.41094
#
# Velocity S-wave (km/s) = 3.46458 3.74324 3.60660
# Velocity P-wave (km/s) = 5.44526 5.90107 5.67774
#
# Compressibility (1/GPa) = 0.03609060
#
# Stress axis : x y z
#
# Youngs Moduli (GPa) = 65.81829 27.71748 93.71654
#
# Poissons Ratio (x) = 0.25076 0.04223
# Poissons Ratio (y) = 0.59546 0.32127
# Poissons Ratio (z) = 0.02966 0.09502
#
# Static dielectric constant tensor:
#      x y z
#    x 3.828400 0.000000 0.000000 
#    y 0.000000 3.488900 0.000000 
#    z 0.000000 0.000000 3.762490 
# 
# 
# High freq. dielectric constant tensor:
#      x y z
#    x 1.806300 0.000000 0.000000 
#    y 0.000000 1.778080 0.000000 
#    z 0.000000 0.000000 1.800880 
# 
# From -- ./inp_files/20837.got.cif
#   From: 2010.03.12/outbox.cif.g09.slc.cpg/sg62_11_cif.got.tgz:20837.got - 2010.04.10 19:12:36.
