data_PCOD8253792
_publ_section_title
;
Structure prediction by ZEFSAII (Michael W. Deem and Ramdas Pophale) SiO2 
 PCOD8253792
Probable space group: P N M A
;
_chemical_formula_sum "Si O2"
_cell_formula_units_Z 48
_cell_length_a 29.083127
_cell_length_b 8.831758
_cell_length_c 10.042360
_cell_angle_alpha 90.000000
_cell_angle_beta 90.000000
_cell_angle_gamma 90.000000
_cell_volume 2579.431779
_symmetry_space_group_name_H-M "P N M A"
_symmetry_group_IT_number 62
_symmetry_cell_setting 'orthorhombic'
loop_
_space_group_symop_operation_xyz
x,y,z
1/2-x,-y,1/2+z
1/2+x,1/2-y,1/2-z
-x,1/2+y,-z
-x,-y,-z
1/2+x,y,1/2-z
1/2-x,1/2+y,1/2+z
x,1/2-y,z
loop_
_atom_site_type_symbol
_atom_site_label
_atom_site_fract_x
_atom_site_fract_y
_atom_site_fract_z
Si Si1 0.445968 0.924659 0.137915
Si Si2 0.117267 0.571149 0.854315
Si Si3 0.886996 0.574879 0.863915
Si Si4 0.553918 0.924721 0.137172
Si Si5 0.218619 0.077058 0.150927
Si Si6 0.786929 0.573198 0.151713
O O1 0.431192 0.750000 0.137422
O O2 0.499979 0.944837 0.160287
O O3 0.421319 0.011913 0.255598
O O4 0.430220 0.997858 0.999336
O O5 0.116966 0.750000 0.854488
O O6 0.167153 0.514730 0.806743
O O7 0.104411 0.512454 0.999719
O O8 0.898357 0.750000 0.888485
O O9 0.920874 0.508188 0.755894
O O10 0.834798 0.553859 0.814943
O O11 0.568540 0.750000 0.132995
O O12 0.233770 0.250000 0.176468
O O13 0.246651 0.967000 0.246749
O O14 0.228382 0.029715 0.998088
O O15 0.798395 0.750000 0.158282
#
# Coordination Sequence:
#
# PCOD8253792 Si02
#       6
#     8   8   8   8   8   8
#     4  10  21  38  58  81 112 147 183 226 275 326
#     4  11  22  37  58  82 110 144 185 231 275 325
#     4  10  21  38  58  81 113 148 183 226 275 327
#     4  10  21  37  58  84 112 144 184 227 272 325
#     4   9  20  37  55  79 109 142 181 222 267 322
#     4  10  21  37  57  81 110 143 180 224 274 327
#
# _framework density 18.608749
#
# number of rings (size 3 to 8) (size 9 to 14) (size 15 to 20)
#    0.000    2.000    0.000    4.500    0.000    8.000 
#    0.000    3.333    0.000    0.000    0.000    0.000 
#    0.000    0.000    0.000    0.000    0.000    0.000 
#
# Total GULP energy -595429.006876 kJ/mol
# GULP energy per Si atom -12404.770977 kJ/mol
# Density = 1.856639 g / cm^3
# Si number density = 18.608749 Si / 1000 Ang^3
#
#
#
# Elastic Constant Matrix: (Units=GPa)
#
#
# Indices 1 2 3 4 5 6 
#
# 1 60.5080 54.8522 59.9999 0.0000 0.0000 0.0000
# 2 54.8522 153.0816 69.6412 0.0000 0.0000 0.0000
# 3 59.9999 69.6412 112.9697 0.0000 0.0000 0.0000
# 4 0.0000 0.0000 0.0000 39.6308 0.0000 0.0000
# 5 0.0000 0.0000 0.0000 0.0000 41.0577 0.0000
# 6 0.0000 0.0000 0.0000 0.0000 0.0000 39.0935
#
#
#
# Elastic Compliance Matrix: (Units=1/GPa)
#
#
# Indices 1 2 3 4 5 6 
#
# 1 0.038844 -0.006300 -0.016747 0.000000 0.000000 0.000000
# 2 -0.006300 0.010100 -0.002880 0.000000 0.000000 0.000000
# 3 -0.016747 -0.002880 0.019522 0.000000 0.000000 0.000000
# 4 0.000000 0.000000 0.000000 0.025233 0.000000 0.000000
# 5 0.000000 0.000000 0.000000 0.000000 0.024356 0.000000
# 6 0.000000 0.000000 0.000000 0.000000 0.000000 0.025580
#
#
# Mechanical properties :
#
#
# Convention : Reuss Voigt Hill
#
# Bulk Modulus (GPa) = 60.19804 77.28287 68.74045
# Shear Modulus (GPa) = 24.87222 33.42747 29.14985
#
# Velocity S-wave (km/s) = 3.65990 4.24291 3.96215
# Velocity P-wave (km/s) = 7.09080 8.10084 7.61259
#
# Compressibility (1/GPa) = 0.01661184
#
# Stress axis : x y z
#
# Youngs Moduli (GPa) = 25.74380 99.00759 51.22366
#
# Poissons Ratio (x) = 0.62374 0.85785
# Poissons Ratio (y) = 0.16218 0.14754
# Poissons Ratio (z) = 0.43113 0.28518
#
# Static dielectric constant tensor:
#      x y z
#    x 3.340390 0.000000 0.000000 
#    y 0.000000 3.586700 0.000000 
#    z 0.000000 0.000000 3.446900 
# 
# 
# High freq. dielectric constant tensor:
#      x y z
#    x 1.719470 0.000000 0.000000 
#    y 0.000000 1.739110 0.000000 
#    z 0.000000 0.000000 1.729250 
# 
# From -- ./inp_files/10178.got.cif
#   From: 2010.03.12/outbox.cif.g09.slc.cpg/sg62_6_cif.got.tgz:10178.got - 2010.04.10 19:12:36.
