data_PCOD8253031
_publ_section_title
;
Structure prediction by ZEFSAII (Michael W. Deem and Ramdas Pophale) SiO2 
 PCOD8253031
Probable space group: P N M A
;
_chemical_formula_sum "Si O2"
_cell_formula_units_Z 64
_cell_length_a 12.101582
_cell_length_b 16.301272
_cell_length_c 16.496348
_cell_angle_alpha 90.000000
_cell_angle_beta 90.000000
_cell_angle_gamma 90.000000
_cell_volume 3254.254033
_symmetry_space_group_name_H-M "P N M A"
_symmetry_group_IT_number 62
_symmetry_cell_setting 'orthorhombic'
loop_
_space_group_symop_operation_xyz
x,y,z
1/2-x,-y,1/2+z
1/2+x,1/2-y,1/2-z
-x,1/2+y,-z
-x,-y,-z
1/2+x,y,1/2-z
1/2-x,1/2+y,1/2+z
x,1/2-y,z
loop_
_atom_site_type_symbol
_atom_site_label
_atom_site_fract_x
_atom_site_fract_y
_atom_site_fract_z
Si Si1 0.605431 0.653691 0.173755
Si Si2 0.711448 0.505110 0.458421
Si Si3 0.553550 0.562083 0.328700
Si Si4 0.768450 0.343620 0.374460
Si Si5 0.021807 0.341260 0.393338
Si Si6 0.303739 0.952804 0.362771
Si Si7 0.165393 0.427251 0.266511
Si Si8 0.446196 0.925389 0.049084
O O1 0.589172 0.750000 0.158562
O O2 0.599834 0.634138 0.269933
O O3 0.722065 0.625869 0.134319
O O4 0.510001 0.599267 0.130897
O O5 0.615207 0.558616 0.415797
O O6 0.708581 0.409065 0.432691
O O7 0.697609 0.506178 0.554823
O O8 0.822384 0.549928 0.428073
O O9 0.425466 0.579473 0.344349
O O10 0.574036 0.474157 0.286956
O O11 0.749577 0.250000 0.404959
O O12 0.718227 0.352560 0.284164
O O13 0.897120 0.366756 0.372935
O O14 0.043871 0.250000 0.363247
O O15 0.106624 0.399407 0.347822
O O16 0.047034 0.347562 0.488976
O O17 0.264326 0.011497 0.290086
O O18 0.500000 0.000000 0.000000
#
# Coordination Sequence:
#
# PCOD8253031 Si02
#       8
#     8   8   8   8   8   8   8   8
#     4  11  25  41  63  94 126 164 209 264 318 367
#     4  11  22  39  63  89 120 159 208 258 301 369
#     4  10  24  39  62  90 120 162 208 246 307 371
#     4  10  21  34  55  85 118 153 193 248 304 354
#     4  11  20  33  54  84 117 149 191 249 305 353
#     4  11  21  40  64  87 120 162 209 252 302 374
#     4  10  20  36  58  86 117 155 199 248 302 360
#     4  12  20  38  63  88 118 153 209 257 303 361
#
# _framework density 19.666566
#
# number of rings (size 3 to 8) (size 9 to 14) (size 15 to 20)
#    0.000    1.250    3.750    2.625    5.250    2.000 
#    0.000    0.625    0.000    0.750    0.000    0.000 
#    0.000    0.000    0.000    0.000    0.000    0.000 
#
# Total GULP energy -793572.262681 kJ/mol
# GULP energy per Si atom -12399.566604 kJ/mol
# Density = 1.962180 g / cm^3
# Si number density = 19.666566 Si / 1000 Ang^3
#
#
#
# Elastic Constant Matrix: (Units=GPa)
#
#
# Indices 1 2 3 4 5 6 
#
# 1 108.0487 26.2515 26.8186 0.0000 0.0000 0.0000
# 2 26.2515 71.7421 17.6353 0.0000 0.0000 0.0000
# 3 26.8186 17.6353 80.1946 0.0000 0.0000 0.0000
# 4 0.0000 0.0000 0.0000 25.1662 0.0000 0.0000
# 5 0.0000 0.0000 0.0000 0.0000 33.9969 0.0000
# 6 0.0000 0.0000 0.0000 0.0000 0.0000 19.7219
#
#
#
# Elastic Compliance Matrix: (Units=1/GPa)
#
#
# Indices 1 2 3 4 5 6 
#
# 1 0.010756 -0.003226 -0.002887 0.000000 0.000000 0.000000
# 2 -0.003226 0.015703 -0.002374 0.000000 0.000000 0.000000
# 3 -0.002887 -0.002374 0.013957 0.000000 0.000000 0.000000
# 4 0.000000 0.000000 0.000000 0.039736 0.000000 0.000000
# 5 0.000000 0.000000 0.000000 0.000000 0.029414 0.000000
# 6 0.000000 0.000000 0.000000 0.000000 0.000000 0.050705
#
#
# Mechanical properties :
#
#
# Convention : Reuss Voigt Hill
#
# Bulk Modulus (GPa) = 42.66127 44.59957 43.63042
# Shear Modulus (GPa) = 27.01826 28.39566 27.70696
#
# Velocity S-wave (km/s) = 3.71052 3.80393 3.75752
# Velocity P-wave (km/s) = 6.33220 6.48231 6.40769
#
# Compressibility (1/GPa) = 0.02344046
#
# Stress axis : x y z
#
# Youngs Moduli (GPa) = 92.97542 63.68277 71.64638
#
# Poissons Ratio (x) = 0.20543 0.20688
# Poissons Ratio (y) = 0.29992 0.17012
# Poissons Ratio (z) = 0.26846 0.15121
#
# Static dielectric constant tensor:
#      x y z
#    x 3.537570 0.000000 0.000000 
#    y 0.000000 3.438510 0.000000 
#    z 0.000000 0.000000 3.656180 
# 
# 
# High freq. dielectric constant tensor:
#      x y z
#    x 1.763050 0.000000 0.000000 
#    y 0.000000 1.751230 0.000000 
#    z 0.000000 0.000000 1.771920 
# 
# From -- ./inp_files/23223.got.cif
#   From: 2010.03.12/outbox.cif.g09.slc.cpg/sg62_12_cif.got.tgz:23223.got - 2010.04.10 19:12:36.
