data_PCOD8253248
_publ_section_title
;
Structure prediction by ZEFSAII (Michael W. Deem and Ramdas Pophale) SiO2 
 PCOD8253248
Probable space group: P N M A
;
_chemical_formula_sum "Si O2"
_cell_formula_units_Z 40
_cell_length_a 24.507844
_cell_length_b 10.766299
_cell_length_c 7.568479
_cell_angle_alpha 90.000000
_cell_angle_beta 90.000000
_cell_angle_gamma 90.000000
_cell_volume 1997.009608
_symmetry_space_group_name_H-M "P N M A"
_symmetry_group_IT_number 62
_symmetry_cell_setting 'orthorhombic'
loop_
_space_group_symop_operation_xyz
x,y,z
1/2-x,-y,1/2+z
1/2+x,1/2-y,1/2-z
-x,1/2+y,-z
-x,-y,-z
1/2+x,y,1/2-z
1/2-x,1/2+y,1/2+z
x,1/2-y,z
loop_
_atom_site_type_symbol
_atom_site_label
_atom_site_fract_x
_atom_site_fract_y
_atom_site_fract_z
Si Si1 0.311155 0.612475 0.004052
Si Si2 0.208848 0.890097 0.774777
Si Si3 0.579266 0.465096 0.144190
Si Si4 0.961939 0.111523 0.309951
Si Si5 0.606906 0.891465 0.491773
O O1 0.299434 0.750000 0.089487
O O2 0.305674 0.497604 0.136810
O O3 0.270112 0.589386 0.842088
O O4 0.372409 0.620459 0.928661
O O5 0.202625 0.750000 0.692274
O O6 0.168911 0.903502 0.941824
O O7 0.527370 0.385933 0.208693
O O8 0.602896 0.540412 0.307307
O O9 0.558043 0.553571 0.990821
O O10 0.938775 0.250000 0.313787
O O11 0.933899 0.047238 0.138501
O O12 0.589765 0.750000 0.456563
#
# Coordination Sequence:
#
# PCOD8253248 Si02
#       5
#     8   8   8   8   8
#     4  11  23  40  61  91 126 158 203 256 307 361
#     4  10  22  40  62  88 123 162 204 251 301 368
#     4  11  21  36  61  85 123 162 199 251 313 353
#     4  10  21  37  57  86 121 160 208 252 297 364
#     4  10  20  37  60  88 117 157 211 252 297 367
#
# _framework density 20.029948000000001
#
# number of rings (size 3 to 8) (size 9 to 14) (size 15 to 20)
#    0.000    1.600    2.000    3.000    0.000    1.600 
#    0.000    2.000    0.000    0.000    0.000    0.000 
#    0.000    0.000    0.000    0.000    0.000    0.000 
#
# Total GULP energy -495820.390974 kJ/mol
# GULP energy per Si atom -12395.509774 kJ/mol
# Density = 1.998436 g / cm^3
# Si number density = 20.029948 Si / 1000 Ang^3
#
#
#
# Elastic Constant Matrix: (Units=GPa)
#
#
# Indices 1 2 3 4 5 6 
#
# 1 127.0478 21.4051 18.9709 0.0000 0.0000 0.0000
# 2 21.4051 107.7416 50.5699 0.0000 0.0000 0.0000
# 3 18.9709 50.5699 78.7981 0.0000 0.0000 0.0000
# 4 0.0000 0.0000 0.0000 31.7628 0.0000 0.0000
# 5 0.0000 0.0000 0.0000 0.0000 33.0352 0.0000
# 6 0.0000 0.0000 0.0000 0.0000 0.0000 24.9591
#
#
#
# Elastic Compliance Matrix: (Units=1/GPa)
#
#
# Indices 1 2 3 4 5 6 
#
# 1 0.008241 -0.001010 -0.001336 0.000000 0.000000 0.000000
# 2 -0.001010 0.013406 -0.008360 0.000000 0.000000 0.000000
# 3 -0.001336 -0.008360 0.018378 0.000000 0.000000 0.000000
# 4 0.000000 0.000000 0.000000 0.031483 0.000000 0.000000
# 5 0.000000 0.000000 0.000000 0.000000 0.030271 0.000000
# 6 0.000000 0.000000 0.000000 0.000000 0.000000 0.040066
#
#
# Mechanical properties :
#
#
# Convention : Reuss Voigt Hill
#
# Bulk Modulus (GPa) = 53.72898 55.05326 54.39112
# Shear Modulus (GPa) = 29.50531 32.79419 31.14975
#
# Velocity S-wave (km/s) = 3.84221 4.05069 3.94783
# Velocity P-wave (km/s) = 6.82393 7.03012 6.92779
#
# Compressibility (1/GPa) = 0.01861193
#
# Stress axis : x y z
#
# Youngs Moduli (GPa) = 121.34892 74.59188 54.41386
#
# Poissons Ratio (x) = 0.07536 0.07267
# Poissons Ratio (y) = 0.12260 0.45493
# Poissons Ratio (z) = 0.16207 0.62362
#
# Static dielectric constant tensor:
#      x y z
#    x 4.090220 0.000000 0.000000 
#    y 0.000000 3.573720 0.000000 
#    z 0.000000 0.000000 3.452510 
# 
# 
# High freq. dielectric constant tensor:
#      x y z
#    x 1.805370 0.000000 0.000000 
#    y 0.000000 1.774810 0.000000 
#    z 0.000000 0.000000 1.769410 
# 
# From -- ./inp_files/3044.got.cif
#   From: 2010.03.12/outbox.cif.g09.slc.cpg/sg62_2_cif.got.tgz:3044.got - 2010.04.10 19:12:36.
