data_PCOD8253384
_publ_section_title
;
Structure prediction by ZEFSAII (Michael W. Deem and Ramdas Pophale) SiO2 
 PCOD8253384
Probable space group: P N M A
;
_chemical_formula_sum "Si O2"
_cell_formula_units_Z 64
_cell_length_a 23.916933
_cell_length_b 8.857442
_cell_length_c 15.467438
_cell_angle_alpha 90.000000
_cell_angle_beta 90.000000
_cell_angle_gamma 90.000000
_cell_volume 3276.666100
_symmetry_space_group_name_H-M "P N M A"
_symmetry_group_IT_number 62
_symmetry_cell_setting 'orthorhombic'
loop_
_space_group_symop_operation_xyz
x,y,z
1/2-x,-y,1/2+z
1/2+x,1/2-y,1/2-z
-x,1/2+y,-z
-x,-y,-z
1/2+x,y,1/2-z
1/2-x,1/2+y,1/2+z
x,1/2-y,z
loop_
_atom_site_type_symbol
_atom_site_label
_atom_site_fract_x
_atom_site_fract_y
_atom_site_fract_z
Si Si1 0.888280 0.425580 0.654452
Si Si2 0.501237 0.071298 0.093652
Si Si3 0.689560 0.929465 0.999102
Si Si4 0.684364 0.071997 0.500518
Si Si5 0.621384 0.577938 0.348715
Si Si6 0.117200 0.927504 0.657495
Si Si7 0.502185 0.425754 0.592942
Si Si8 0.387807 0.072228 0.349107
O O1 0.902184 0.250000 0.639430
O O2 0.945433 0.517264 0.647266
O O3 0.843724 0.484683 0.584016
O O4 0.862023 0.452803 0.749247
O O5 0.502775 0.250000 0.084790
O O6 0.445728 0.013291 0.142729
O O7 0.500000 0.000000 0.000000
O O8 0.690989 0.750000 0.995450
O O9 0.752580 0.991729 0.002666
O O10 0.659551 0.997737 0.913453
O O11 0.682114 0.250000 0.513584
O O12 0.657130 0.032230 0.408667
O O13 0.651359 0.996224 0.578271
O O14 0.634629 0.750000 0.375757
O O15 0.555727 0.545216 0.358280
O O16 0.116987 0.750000 0.643524
O O17 0.137215 0.968287 0.754519
O O18 0.500000 0.500000 0.500000
O O19 0.515885 0.250000 0.582367
O O20 0.550336 0.504051 0.648306
O O21 0.392323 0.250000 0.364157
#
# Coordination Sequence:
#
# PCOD8253384 Si02
#       8
#     8   8   8   8   8   8   8   8
#     4  10  20  38  62  85 116 152 187 234 288 344
#     4  11  20  34  59  89 119 151 188 231 283 344
#     4   9  19  38  60  82 111 151 194 231 281 340
#     4  11  23  38  59  82 110 152 196 238 282 337
#     4  10  22  38  59  86 115 150 187 234 291 339
#     4   9  19  36  59  84 113 152 189 227 281 341
#     4  11  21  35  57  85 117 150 186 229 284 347
#     4  11  22  37  59  85 115 149 188 237 286 336
#
# _framework density 19.532048
#
# number of rings (size 3 to 8) (size 9 to 14) (size 15 to 20)
#    0.000    1.750    2.500    2.250    0.000    2.000 
#    0.000    3.125    0.000    0.000    0.000    0.000 
#    0.000    0.000    0.000    0.000    0.000    0.000 
#
# Total GULP energy -793687.872293 kJ/mol
# GULP energy per Si atom -12401.373005 kJ/mol
# Density = 1.948759 g / cm^3
# Si number density = 19.532048 Si / 1000 Ang^3
#
#
#
# Elastic Constant Matrix: (Units=GPa)
#
#
# Indices 1 2 3 4 5 6 
#
# 1 135.6913 36.8305 61.2412 0.0000 0.0000 0.0000
# 2 36.8305 67.1715 37.4533 0.0000 0.0000 0.0000
# 3 61.2412 37.4533 146.0319 0.0000 0.0000 0.0000
# 4 0.0000 0.0000 0.0000 17.7702 0.0000 0.0000
# 5 0.0000 0.0000 0.0000 0.0000 8.5178 0.0000
# 6 0.0000 0.0000 0.0000 0.0000 0.0000 23.9445
#
#
#
# Elastic Compliance Matrix: (Units=1/GPa)
#
#
# Indices 1 2 3 4 5 6 
#
# 1 0.009779 -0.003588 -0.003181 0.000000 0.000000 0.000000
# 2 -0.003588 0.018688 -0.003288 0.000000 0.000000 0.000000
# 3 -0.003181 -0.003288 0.009025 0.000000 0.000000 0.000000
# 4 0.000000 0.000000 0.000000 0.056274 0.000000 0.000000
# 5 0.000000 0.000000 0.000000 0.000000 0.117402 0.000000
# 6 0.000000 0.000000 0.000000 0.000000 0.000000 0.041763
#
#
# Mechanical properties :
#
#
# Convention : Reuss Voigt Hill
#
# Bulk Modulus (GPa) = 57.54477 68.88274 63.21375
# Shear Modulus (GPa) = 17.93150 24.27113 21.10131
#
# Velocity S-wave (km/s) = 3.03323 3.52892 3.29042
# Velocity P-wave (km/s) = 6.46475 7.20746 6.84618
#
# Compressibility (1/GPa) = 0.01737777
#
# Stress axis : x y z
#
# Youngs Moduli (GPa) = 102.25733 53.50954 110.80270
#
# Poissons Ratio (x) = 0.19202 0.35244
# Poissons Ratio (y) = 0.36695 0.36433
# Poissons Ratio (z) = 0.32526 0.17595
#
# Static dielectric constant tensor:
#      x y z
#    x 3.933270 0.000000 0.000000 
#    y 0.000000 3.464600 0.000000 
#    z 0.000000 0.000000 3.682770 
# 
# 
# High freq. dielectric constant tensor:
#      x y z
#    x 1.759080 0.000000 0.000000 
#    y 0.000000 1.740790 0.000000 
#    z 0.000000 0.000000 1.777610 
# 
# From -- ./inp_files/20926.got.cif
#   From: 2010.03.12/outbox.cif.g09.slc.cpg/sg62_11_cif.got.tgz:20926.got - 2010.04.10 19:12:36.
