data_PCOD8253842
_publ_section_title
;
Structure prediction by ZEFSAII (Michael W. Deem and Ramdas Pophale) SiO2 
 PCOD8253842
Probable space group: P N M A
;
_chemical_formula_sum "Si O2"
_cell_formula_units_Z 40
_cell_length_a 4.902669
_cell_length_b 28.334915
_cell_length_c 11.239891
_cell_angle_alpha 90.000000
_cell_angle_beta 90.000000
_cell_angle_gamma 90.000000
_cell_volume 1561.408672
_symmetry_space_group_name_H-M "P N M A"
_symmetry_group_IT_number 62
_symmetry_cell_setting 'orthorhombic'
loop_
_space_group_symop_operation_xyz
x,y,z
1/2-x,-y,1/2+z
1/2+x,1/2-y,1/2-z
-x,1/2+y,-z
-x,-y,-z
1/2+x,y,1/2-z
1/2-x,1/2+y,1/2+z
x,1/2-y,z
loop_
_atom_site_type_symbol
_atom_site_label
_atom_site_fract_x
_atom_site_fract_y
_atom_site_fract_z
Si Si1 0.279961 0.897932 0.167916
Si Si2 0.990674 0.828825 0.002134
Si Si3 0.105740 0.750000 0.830244
Si Si4 0.225389 0.599876 0.667019
Si Si5 0.166490 0.998695 0.173666
Si Si6 0.228314 0.250000 0.830791
O O1 0.586106 0.892073 0.216053
O O2 0.238866 0.949770 0.105799
O O3 0.221204 0.858629 0.069769
O O4 0.155460 0.796572 0.908589
O O5 0.774354 0.862242 0.935757
O O6 0.819145 0.796829 0.092690
O O7 0.795384 0.750000 0.784740
O O8 0.423344 0.606430 0.781006
O O9 0.261974 0.547671 0.606289
O O10 0.346350 0.998562 0.295272
O O11 0.539702 0.250000 0.786912
#
# Coordination Sequence:
#
# PCOD8253842 Si02
#       6
#     8   8   4   8   8   4
#     4  10  21  37  58  87 120 153 193 236 280 338
#     4  11  24  39  66  88 112 155 194 237 294 342
#     4  11  26  45  62  86 118 149 190 243 296 350
#     4  10  21  37  58  87 120 153 193 236 280 338
#     4   8  16  33  54  79 118 156 184 229 282 327
#     4  11  26  45  62  86 118 149 190 243 296 350
#
# _framework density 25.617889000000002
#
# number of rings (size 3 to 8) (size 9 to 14) (size 15 to 20)
#    0.000    2.000    0.000    2.400    0.000    8.800 
#    0.000    0.000    0.000   14.400    0.000    0.000 
#    0.000    0.000    0.000    0.000    0.000    0.000 
#
# Total GULP energy -495998.685712 kJ/mol
# GULP energy per Si atom -12399.967143 kJ/mol
# Density = 2.555958 g / cm^3
# Si number density = 25.617889 Si / 1000 Ang^3
#
#
#
# Elastic Constant Matrix: (Units=GPa)
#
#
# Indices 1 2 3 4 5 6 
#
# 1 66.4402 -2.0676 2.2083 0.0000 0.0000 0.0000
# 2 -2.0676 189.0938 50.3603 0.0000 0.0000 0.0000
# 3 2.2083 50.3603 79.5448 0.0000 0.0000 0.0000
# 4 0.0000 0.0000 0.0000 94.6361 0.0000 0.0000
# 5 0.0000 0.0000 0.0000 0.0000 9.8739 0.0000
# 6 0.0000 0.0000 0.0000 0.0000 0.0000 -11.3662
#
#
#
# Elastic Compliance Matrix: (Units=1/GPa)
#
#
# Indices 1 2 3 4 5 6 
#
# 1 0.015082 0.000332 -0.000629 0.000000 0.000000 0.000000
# 2 0.000332 0.006368 -0.004041 0.000000 0.000000 0.000000
# 3 -0.000629 -0.004041 0.015147 0.000000 0.000000 0.000000
# 4 0.000000 0.000000 0.000000 0.010567 0.000000 0.000000
# 5 0.000000 0.000000 0.000000 0.000000 0.101277 0.000000
# 6 0.000000 0.000000 0.000000 0.000000 0.000000 -0.087981
#
#
# Mechanical properties :
#
#
# Convention : Reuss Voigt Hill
#
# Bulk Modulus (GPa) = 35.81332 48.45342 42.13337
# Shear Modulus (GPa) = 63.73932 37.60062 50.66997
#
# Velocity S-wave (km/s) = 4.99348 3.83528 4.45220
# Velocity P-wave (km/s) = 6.87434 6.21027 6.55072
#
# Compressibility (1/GPa) = 0.02792257
#
# Stress axis : x y z
#
# Youngs Moduli (GPa) = 66.30247 157.02938 66.01801
#
# Poissons Ratio (x) = -0.05221 0.04154
# Poissons Ratio (y) = -0.02204 0.26678
# Poissons Ratio (z) = 0.04172 0.63456
#
# Static dielectric constant tensor:
#      x y z
#    x 4.322400 0.000000 0.000000 
#    y 0.000000 5.268420 0.000000 
#    z 0.000000 0.000000 4.102230 
# 
# 
# High freq. dielectric constant tensor:
#      x y z
#    x 2.022800 0.000000 0.000000 
#    y 0.000000 2.055720 0.000000 
#    z 0.000000 0.000000 1.985130 
# 
# From -- ./inp_files/690.got.cif
#   From: 2010.03.12/outbox.cif.g09.slc.cpg/sg62_1_cif.got.tgz:690.got - 2010.04.10 19:12:36.
