data_PCOD8253722
_publ_section_title
;
Structure prediction by ZEFSAII (Michael W. Deem and Ramdas Pophale) SiO2 
 PCOD8253722
Probable space group: P N M A
;
_chemical_formula_sum "Si O2"
_cell_formula_units_Z 64
_cell_length_a 14.056053
_cell_length_b 17.732837
_cell_length_c 13.821979
_cell_angle_alpha 90.000000
_cell_angle_beta 90.000000
_cell_angle_gamma 90.000000
_cell_volume 3445.179362
_symmetry_space_group_name_H-M "P N M A"
_symmetry_group_IT_number 62
_symmetry_cell_setting 'orthorhombic'
loop_
_space_group_symop_operation_xyz
x,y,z
1/2-x,-y,1/2+z
1/2+x,1/2-y,1/2-z
-x,1/2+y,-z
-x,-y,-z
1/2+x,y,1/2-z
1/2-x,1/2+y,1/2+z
x,1/2-y,z
loop_
_atom_site_type_symbol
_atom_site_label
_atom_site_fract_x
_atom_site_fract_y
_atom_site_fract_z
Si Si1 0.132671 0.834059 0.887494
Si Si2 0.812953 0.079198 0.621987
Si Si3 0.156853 0.886365 0.093514
Si Si4 0.184006 0.338003 0.733205
Si Si5 0.079109 0.161877 0.156715
Si Si6 0.212371 0.052041 0.070889
Si Si7 0.465050 0.161163 0.769770
Si Si8 0.789761 0.574725 0.718777
O O1 0.158197 0.750000 0.852508
O O2 0.212106 0.890767 0.851329
O O3 0.031849 0.858164 0.842907
O O4 0.128319 0.834216 0.003715
O O5 0.721687 0.115774 0.674626
O O6 0.792114 0.071452 0.508215
O O7 0.906225 0.130929 0.637377
O O8 0.834764 0.997708 0.667467
O O9 0.257654 0.859297 0.136966
O O10 0.074977 0.880071 0.174316
O O11 0.163693 0.971299 0.052963
O O12 0.195801 0.250000 0.756147
O O13 0.074655 0.359706 0.715182
O O14 0.097658 0.250000 0.140915
O O15 0.130174 0.116523 0.068762
O O16 0.124517 0.133831 0.258895
O O17 0.259594 0.051375 0.178601
O O18 0.448043 0.250000 0.759422
#
# Coordination Sequence:
#
# PCOD8253722 Si02
#       8
#     8   8   8   8   8   8   8   8
#     4  11  22  37  63  86 110 154 194 240 289 332
#     4  11  20  38  59  80 117 150 190 233 286 344
#     4  11  20  39  58  87 120 145 196 237 279 346
#     4  10  21  37  59  85 117 151 186 237 289 337
#     4   9  21  38  56  86 116 143 192 236 283 342
#     4  10  22  38  56  85 112 150 187 232 286 338
#     4  10  21  36  57  86 116 150 190 232 286 345
#     4  10  21  39  56  81 118 149 188 239 290 332
#
# _framework density 18.576681000000001
#
# number of rings (size 3 to 8) (size 9 to 14) (size 15 to 20)
#    0.750    1.000    3.750    2.625    1.750    3.500 
#    0.000    1.875    0.000    3.000    0.000    0.000 
#    0.000    0.000    0.000    0.000    0.000    0.000 
#
# Total GULP energy -793433.360513 kJ/mol
# GULP energy per Si atom -12397.396258 kJ/mol
# Density = 1.853440 g / cm^3
# Si number density = 18.576681 Si / 1000 Ang^3
#
#
#
# Elastic Constant Matrix: (Units=GPa)
#
#
# Indices 1 2 3 4 5 6 
#
# 1 109.0548 38.4303 16.2463 0.0000 0.0000 0.0000
# 2 38.4303 81.8891 9.2011 0.0000 0.0000 0.0000
# 3 16.2463 9.2011 54.7000 0.0000 0.0000 0.0000
# 4 0.0000 0.0000 0.0000 23.3748 0.0000 0.0000
# 5 0.0000 0.0000 0.0000 0.0000 21.6052 0.0000
# 6 0.0000 0.0000 0.0000 0.0000 0.0000 15.7853
#
#
#
# Elastic Compliance Matrix: (Units=1/GPa)
#
#
# Indices 1 2 3 4 5 6 
#
# 1 0.011316 -0.005028 -0.002515 0.000000 0.000000 0.000000
# 2 -0.005028 0.014681 -0.000976 0.000000 0.000000 0.000000
# 3 -0.002515 -0.000976 0.019193 0.000000 0.000000 0.000000
# 4 0.000000 0.000000 0.000000 0.042781 0.000000 0.000000
# 5 0.000000 0.000000 0.000000 0.000000 0.046285 0.000000
# 6 0.000000 0.000000 0.000000 0.000000 0.000000 0.063350
#
#
# Mechanical properties :
#
#
# Convention : Reuss Voigt Hill
#
# Bulk Modulus (GPa) = 35.52252 41.48882 38.50567
# Shear Modulus (GPa) = 22.31855 24.27082 23.29469
#
# Velocity S-wave (km/s) = 3.46992 3.61850 3.54499
# Velocity P-wave (km/s) = 5.93443 6.31193 6.12609
#
# Compressibility (1/GPa) = 0.02815115
#
# Stress axis : x y z
#
# Youngs Moduli (GPa) = 88.36833 68.11540 52.10296
#
# Poissons Ratio (x) = 0.34249 0.13105
# Poissons Ratio (y) = 0.44432 0.05086
# Poissons Ratio (z) = 0.22227 0.06649
#
# Static dielectric constant tensor:
#      x y z
#    x 3.297920 0.000000 0.000000 
#    y 0.000000 3.523460 0.000000 
#    z 0.000000 0.000000 3.216060 
# 
# 
# High freq. dielectric constant tensor:
#      x y z
#    x 1.706780 0.000000 0.000000 
#    y 0.000000 1.739290 0.000000 
#    z 0.000000 0.000000 1.705220 
# 
# From -- ./inp_files/19237.got.cif
#   From: 2010.03.12/outbox.cif.g09.slc.cpg/sg62_10_cif.got.tgz:19237.got - 2010.04.10 19:12:36.
