data_PCOD8253192
_publ_section_title
;
Structure prediction by ZEFSAII (Michael W. Deem and Ramdas Pophale) SiO2 
 PCOD8253192
Probable space group: P N M A
;
_chemical_formula_sum "Si O2"
_cell_formula_units_Z 56
_cell_length_a 14.528851
_cell_length_b 8.938763
_cell_length_c 21.892063
_cell_angle_alpha 90.000000
_cell_angle_beta 90.000000
_cell_angle_gamma 90.000000
_cell_volume 2843.121253
_symmetry_space_group_name_H-M "P N M A"
_symmetry_group_IT_number 62
_symmetry_cell_setting 'orthorhombic'
loop_
_space_group_symop_operation_xyz
x,y,z
1/2-x,-y,1/2+z
1/2+x,1/2-y,1/2-z
-x,1/2+y,-z
-x,-y,-z
1/2+x,y,1/2-z
1/2-x,1/2+y,1/2+z
x,1/2-y,z
loop_
_atom_site_type_symbol
_atom_site_label
_atom_site_fract_x
_atom_site_fract_y
_atom_site_fract_z
Si Si1 0.606376 0.922278 0.346588
Si Si2 0.695343 0.074190 0.807894
Si Si3 0.078381 0.426515 0.580084
Si Si4 0.908664 0.926679 0.974177
Si Si5 0.305715 0.076359 0.423438
Si Si6 0.404337 0.923822 0.312008
Si Si7 0.398123 0.577567 0.942795
O O1 0.613239 0.750000 0.368967
O O2 0.696036 0.965103 0.306348
O O3 0.514593 0.946548 0.306204
O O4 0.605645 0.030072 0.404337
O O5 0.679088 0.250000 0.807121
O O6 0.648188 0.006896 0.869103
O O7 0.644915 0.008087 0.747977
O O8 0.076807 0.250000 0.585047
O O9 0.110649 0.479677 0.512968
O O10 0.975541 0.485893 0.593472
O O11 0.915600 0.750000 0.980766
O O12 0.824174 0.988685 0.013815
O O13 0.000000 0.000000 0.000000
O O14 0.329132 0.250000 0.433476
O O15 0.198227 0.052581 0.408043
O O16 0.368894 0.014300 0.369924
O O17 0.379751 0.750000 0.321832
O O18 0.427569 0.750000 0.942858
#
# Coordination Sequence:
#
# PCOD8253192 Si02
#       7
#     8   8   8   8   8   8   8
#     4  10  20  37  59  83 117 155 193 241 292 342
#     4   9  19  36  58  83 112 152 198 238 281 336
#     4   9  17  33  56  80 107 142 186 231 273 329
#     4  12  23  36  58  87 117 149 188 236 293 351
#     4  11  22  37  57  82 116 152 186 232 291 346
#     4  10  21  36  56  82 111 148 195 236 275 333
#     4   9  19  34  54  81 112 144 178 226 288 338
#
# _framework density 19.696662
#
# number of rings (size 3 to 8) (size 9 to 14) (size 15 to 20)
#    0.000    2.000    1.429    2.571    0.000    4.571 
#    0.000    7.857    0.000    0.000    0.000    0.000 
#    0.000    0.000    0.000    0.000    0.000    0.000 
#
# Total GULP energy -694419.608123 kJ/mol
# GULP energy per Si atom -12400.350145 kJ/mol
# Density = 1.965183 g / cm^3
# Si number density = 19.696662 Si / 1000 Ang^3
#
#
#
# Elastic Constant Matrix: (Units=GPa)
#
#
# Indices 1 2 3 4 5 6 
#
# 1 143.7547 38.0779 52.2015 0.0000 0.0000 0.0000
# 2 38.0779 69.3537 25.1038 0.0000 0.0000 0.0000
# 3 52.2015 25.1038 85.7104 0.0000 0.0000 0.0000
# 4 0.0000 0.0000 0.0000 21.9104 0.0000 0.0000
# 5 0.0000 0.0000 0.0000 0.0000 33.9439 0.0000
# 6 0.0000 0.0000 0.0000 0.0000 0.0000 26.3064
#
#
#
# Elastic Compliance Matrix: (Units=1/GPa)
#
#
# Indices 1 2 3 4 5 6 
#
# 1 0.009654 -0.003548 -0.004840 0.000000 0.000000 0.000000
# 2 -0.003548 0.017433 -0.002945 0.000000 0.000000 0.000000
# 3 -0.004840 -0.002945 0.015478 0.000000 0.000000 0.000000
# 4 0.000000 0.000000 0.000000 0.045640 0.000000 0.000000
# 5 0.000000 0.000000 0.000000 0.000000 0.029460 0.000000
# 6 0.000000 0.000000 0.000000 0.000000 0.000000 0.038014
#
#
# Mechanical properties :
#
#
# Convention : Reuss Voigt Hill
#
# Bulk Modulus (GPa) = 50.25772 58.84281 54.55027
# Shear Modulus (GPa) = 27.03020 28.66120 27.84570
#
# Velocity S-wave (km/s) = 3.70851 3.81875 3.76403
# Velocity P-wave (km/s) = 6.62636 7.02732 6.82978
#
# Compressibility (1/GPa) = 0.01989744
#
# Stress axis : x y z
#
# Youngs Moduli (GPa) = 103.58564 57.36270 64.60900
#
# Poissons Ratio (x) = 0.20354 0.31273
# Poissons Ratio (y) = 0.36755 0.19027
# Poissons Ratio (z) = 0.50139 0.16893
#
# Static dielectric constant tensor:
#      x y z
#    x 5.327740 0.000000 0.000000 
#    y 0.000000 3.389120 0.000000 
#    z 0.000000 0.000000 3.731270 
# 
# 
# High freq. dielectric constant tensor:
#      x y z
#    x 1.783490 0.000000 0.000000 
#    y 0.000000 1.744960 0.000000 
#    z 0.000000 0.000000 1.753060 
# 
# From -- ./inp_files/27277.got.cif
#   From: 2010.03.12/outbox.cif.g09.slc.cpg/sg62_14_cif.got.tgz:27277.got - 2010.04.10 19:12:36.
