data_PCOD8253193
_publ_section_title
;
Structure prediction by ZEFSAII (Michael W. Deem and Ramdas Pophale) SiO2 
 PCOD8253193
Probable space group: P N M A
;
_chemical_formula_sum "Si O2"
_cell_formula_units_Z 40
_cell_length_a 11.929878
_cell_length_b 14.868977
_cell_length_c 8.984138
_cell_angle_alpha 90.000000
_cell_angle_beta 90.000000
_cell_angle_gamma 90.000000
_cell_volume 1593.652052
_symmetry_space_group_name_H-M "P N M A"
_symmetry_group_IT_number 62
_symmetry_cell_setting 'orthorhombic'
loop_
_space_group_symop_operation_xyz
x,y,z
1/2-x,-y,1/2+z
1/2+x,1/2-y,1/2-z
-x,1/2+y,-z
-x,-y,-z
1/2+x,y,1/2-z
1/2-x,1/2+y,1/2+z
x,1/2-y,z
loop_
_atom_site_type_symbol
_atom_site_label
_atom_site_fract_x
_atom_site_fract_y
_atom_site_fract_z
Si Si1 0.565345 0.033743 0.167119
Si Si2 0.934852 0.347342 0.811691
Si Si3 0.639806 0.650077 0.884210
Si Si4 0.704641 0.908066 0.567951
Si Si5 0.872460 0.906738 0.990360
O O1 0.452705 0.071528 0.088205
O O2 0.666731 0.060790 0.058308
O O3 0.581342 0.084316 0.323405
O O4 0.561973 0.925323 0.187855
O O5 0.928455 0.250000 0.730409
O O6 0.824547 0.355664 0.916246
O O7 0.044893 0.344489 0.916199
O O8 0.591142 0.750000 0.915851
O O9 0.680319 0.649786 0.713384
O O10 0.746723 0.633072 0.990307
O O11 0.625328 0.996452 0.571330
#
# Coordination Sequence:
#
# PCOD8253193 Si02
#       5
#     8   8   8   8   8
#     4  10  21  37  60  87 122 158 195 246 301 352
#     4  11  20  38  64  90 118 158 205 243 294 360
#     4  11  21  34  59  92 118 151 203 250 295 351
#     4  10  20  37  59  83 120 158 197 241 301 349
#     4  10  20  37  60  87 116 154 196 249 299 349
#
# _framework density 25.099584
#
# number of rings (size 3 to 8) (size 9 to 14) (size 15 to 20)
#    0.000    1.600    4.000    2.400    0.000    4.800 
#    0.000    2.000    0.000    2.400    0.000    0.000 
#    0.000    0.000    0.000    0.000    0.000    0.000 
#
# Total GULP energy -496064.701513 kJ/mol
# GULP energy per Si atom -12401.617538 kJ/mol
# Density = 2.504246 g / cm^3
# Si number density = 25.099584 Si / 1000 Ang^3
#
#
#
# Elastic Constant Matrix: (Units=GPa)
#
#
# Indices 1 2 3 4 5 6 
#
# 1 170.0310 58.0922 40.6728 0.0000 0.0000 0.0000
# 2 58.0922 179.7567 16.5206 0.0000 0.0000 0.0000
# 3 40.6728 16.5206 71.0043 0.0000 0.0000 0.0000
# 4 0.0000 0.0000 0.0000 -0.6280 0.0000 0.0000
# 5 0.0000 0.0000 0.0000 0.0000 26.1912 0.0000
# 6 0.0000 0.0000 0.0000 0.0000 0.0000 23.6244
#
#
#
# Elastic Compliance Matrix: (Units=1/GPa)
#
#
# Indices 1 2 3 4 5 6 
#
# 1 0.007502 -0.002074 -0.003815 0.000000 0.000000 0.000000
# 2 -0.002074 0.006258 -0.000268 0.000000 0.000000 0.000000
# 3 -0.003815 -0.000268 0.016331 0.000000 0.000000 0.000000
# 4 0.000000 0.000000 0.000000 -1.592315 0.000000 0.000000
# 5 0.000000 0.000000 0.000000 0.000000 0.038181 0.000000
# 6 0.000000 0.000000 0.000000 0.000000 0.000000 0.042329
#
#
# Mechanical properties :
#
#
# Convention : Reuss Voigt Hill
#
# Bulk Modulus (GPa) = 56.25013 72.37368 64.31190
# Shear Modulus (GPa) = -3.41653 30.20462 13.39404
#
# Velocity S-wave (km/s) = -1.16797 3.47276 2.31256
# Velocity P-wave (km/s) = 4.54319 6.70651 5.72791
#
# Compressibility (1/GPa) = 0.01777774
#
# Stress axis : x y z
#
# Youngs Moduli (GPa) = 133.28995 159.79674 61.23193
#
# Poissons Ratio (x) = 0.33141 0.23360
# Poissons Ratio (y) = 0.27644 0.01641
# Poissons Ratio (z) = 0.50850 0.04283
#
# Static dielectric constant tensor:
#      x y z
#    x 4.623710 0.000000 0.000000 
#    y 0.000000 4.288460 0.000000 
#    z 0.000000 0.000000 4.199230 
# 
# 
# High freq. dielectric constant tensor:
#      x y z
#    x 2.004940 0.000000 0.000000 
#    y 0.000000 1.990740 0.000000 
#    z 0.000000 0.000000 1.996770 
# 
# From -- ./inp_files/12047.got.cif
#   From: 2010.03.12/outbox.cif.g09.slc.cpg/sg62_7_cif.got.tgz:12047.got - 2010.04.10 19:12:36.
