data_PCOD8253278
_publ_section_title
;
Structure prediction by ZEFSAII (Michael W. Deem and Ramdas Pophale) SiO2 
 PCOD8253278
Probable space group: P N M A
;
_chemical_formula_sum "Si O2"
_cell_formula_units_Z 48
_cell_length_a 18.848431
_cell_length_b 8.849876
_cell_length_c 14.937862
_cell_angle_alpha 90.000000
_cell_angle_beta 90.000000
_cell_angle_gamma 90.000000
_cell_volume 2491.729149
_symmetry_space_group_name_H-M "P N M A"
_symmetry_group_IT_number 62
_symmetry_cell_setting 'orthorhombic'
loop_
_space_group_symop_operation_xyz
x,y,z
1/2-x,-y,1/2+z
1/2+x,1/2-y,1/2-z
-x,1/2+y,-z
-x,-y,-z
1/2+x,y,1/2-z
1/2-x,1/2+y,1/2+z
x,1/2-y,z
loop_
_atom_site_type_symbol
_atom_site_label
_atom_site_fract_x
_atom_site_fract_y
_atom_site_fract_z
Si Si1 0.817466 0.424709 0.624763
Si Si2 0.668129 0.926483 0.617077
Si Si3 0.926145 0.075662 0.478132
Si Si4 0.075982 0.576555 0.215375
Si Si5 0.064553 0.923897 0.723882
Si Si6 0.426238 0.571979 0.529292
O O1 0.796106 0.250000 0.610312
O O2 0.748728 0.527609 0.632197
O O3 0.863698 0.487565 0.541350
O O4 0.860383 0.446982 0.715926
O O5 0.662618 0.750000 0.595648
O O6 0.625374 0.969413 0.706538
O O7 0.637003 0.017998 0.533882
O O8 0.936523 0.250000 0.501230
O O9 0.904396 0.047918 0.375196
O O10 0.000000 0.000000 0.500000
O O11 0.069105 0.750000 0.185197
O O12 0.092718 0.474318 0.129895
O O13 0.003085 0.528988 0.262237
O O14 0.041079 0.750000 0.736649
O O15 0.500000 0.500000 0.500000
O O16 0.434234 0.750000 0.523179
#
# Coordination Sequence:
#
# PCOD8253278 Si02
#       6
#     8   8   8   8   8   8
#     4  10  23  41  60  90 130 165 200 253 311 365
#     4  11  24  41  61  91 126 164 207 255 309 368
#     4  10  20  37  61  90 121 158 204 251 304 366
#     4  11  22  38  63  93 124 161 207 253 303 367
#     4  10  21  37  61  89 120 157 204 254 304 366
#     4  12  24  40  64  92 123 162 207 258 311 368
#
# _framework density 19.263731
#
# number of rings (size 3 to 8) (size 9 to 14) (size 15 to 20)
#    0.000    1.333    3.333    2.500    0.000    4.000 
#    0.000    1.667    0.000    0.000    0.000    0.000 
#    0.000    0.000    0.000    0.000    0.000    0.000 
#
# Total GULP energy -595460.769826 kJ/mol
# GULP energy per Si atom -12405.432705 kJ/mol
# Density = 1.921989 g / cm^3
# Si number density = 19.263731 Si / 1000 Ang^3
#
#
#
# Elastic Constant Matrix: (Units=GPa)
#
#
# Indices 1 2 3 4 5 6 
#
# 1 110.2615 43.9708 32.3487 0.0000 0.0000 0.0000
# 2 43.9708 96.9293 37.4888 0.0000 0.0000 0.0000
# 3 32.3487 37.4888 107.3035 0.0000 0.0000 0.0000
# 4 0.0000 0.0000 0.0000 30.4102 0.0000 0.0000
# 5 0.0000 0.0000 0.0000 0.0000 31.4763 0.0000
# 6 0.0000 0.0000 0.0000 0.0000 0.0000 36.5128
#
#
#
# Elastic Compliance Matrix: (Units=1/GPa)
#
#
# Indices 1 2 3 4 5 6 
#
# 1 0.011392 -0.004440 -0.001883 0.000000 0.000000 0.000000
# 2 -0.004440 0.013659 -0.003434 0.000000 0.000000 0.000000
# 3 -0.001883 -0.003434 0.011087 0.000000 0.000000 0.000000
# 4 0.000000 0.000000 0.000000 0.032884 0.000000 0.000000
# 5 0.000000 0.000000 0.000000 0.000000 0.031770 0.000000
# 6 0.000000 0.000000 0.000000 0.000000 0.000000 0.027388
#
#
# Mechanical properties :
#
#
# Convention : Reuss Voigt Hill
#
# Bulk Modulus (GPa) = 60.15128 60.23455 60.19291
# Shear Modulus (GPa) = 32.62989 33.05893 32.84441
#
# Velocity S-wave (km/s) = 4.12011 4.14711 4.13363
# Velocity P-wave (km/s) = 7.34348 7.36665 7.35507
#
# Compressibility (1/GPa) = 0.01662475
#
# Stress axis : x y z
#
# Youngs Moduli (GPa) = 87.77822 73.21313 90.19779
#
# Poissons Ratio (x) = 0.32504 0.16988
# Poissons Ratio (y) = 0.38970 0.30970
# Poissons Ratio (z) = 0.16532 0.25138
#
# Static dielectric constant tensor:
#      x y z
#    x 3.438050 0.000000 0.000000 
#    y 0.000000 3.572290 0.000000 
#    z 0.000000 0.000000 4.177560 
# 
# 
# High freq. dielectric constant tensor:
#      x y z
#    x 1.743910 0.000000 0.000000 
#    y 0.000000 1.753110 0.000000 
#    z 0.000000 0.000000 1.768620 
# 
# From -- ./inp_files/19578.got.cif
#   From: 2010.03.12/outbox.cif.g09.slc.cpg/sg62_10_cif.got.tgz:19578.got - 2010.04.10 19:12:36.
