data_PCOD8253682
_publ_section_title
;
Structure prediction by ZEFSAII (Michael W. Deem and Ramdas Pophale) SiO2 
 PCOD8253682
Probable space group: P N M A
;
_chemical_formula_sum "Si O2"
_cell_formula_units_Z 32
_cell_length_a 34.655124
_cell_length_b 5.194024
_cell_length_c 8.261415
_cell_angle_alpha 90.000000
_cell_angle_beta 90.000000
_cell_angle_gamma 90.000000
_cell_volume 1487.050947
_symmetry_space_group_name_H-M "P N M A"
_symmetry_group_IT_number 62
_symmetry_cell_setting 'orthorhombic'
loop_
_space_group_symop_operation_xyz
x,y,z
1/2-x,-y,1/2+z
1/2+x,1/2-y,1/2-z
-x,1/2+y,-z
-x,-y,-z
1/2+x,y,1/2-z
1/2-x,1/2+y,1/2+z
x,1/2-y,z
loop_
_atom_site_type_symbol
_atom_site_label
_atom_site_fract_x
_atom_site_fract_y
_atom_site_fract_z
Si Si1 0.864261 0.250000 0.709097
Si Si2 0.243134 0.750000 0.800050
Si Si3 0.491042 0.750000 0.710803
Si Si4 0.616055 0.250000 0.787911
Si Si5 0.160271 0.750000 0.660901
Si Si6 0.782520 0.250000 0.831039
Si Si7 0.591353 0.250000 0.156364
Si Si8 0.965798 0.750000 0.158097
O O1 0.846672 0.250000 0.529854
O O2 0.829036 0.250000 0.835393
O O3 0.890622 0.499005 0.741203
O O4 0.205786 0.750000 0.686866
O O5 0.268418 0.500058 0.764587
O O6 0.232373 0.750000 0.987260
O O7 0.454645 0.750000 0.829134
O O8 0.517042 0.500501 0.747082
O O9 0.476117 0.750000 0.528802
O O10 0.642052 0.499609 0.754792
O O11 0.580388 0.250000 0.665227
O O12 0.599585 0.250000 0.967560
#
# Coordination Sequence:
#
# PCOD8253682 Si02
#       8
#     4   4   4   4   4   4   4   4
#     4  10  21  38  58  84 117 151 191 240 293 349
#     4  12  25  42  65  93 124 162 205 250 303 361
#     4  10  21  36  54  78 109 145 185 232 285 341
#     4  10  21  36  57  83 112 148 189 236 289 345
#     4  10  21  38  58  84 117 151 191 240 293 349
#     4  12  25  42  65  93 124 162 205 250 303 361
#     4  10  21  36  57  83 112 148 189 236 289 345
#     4  10  21  36  54  78 109 145 185 232 285 341
#
# _framework density 21.519102
#
# number of rings (size 3 to 8) (size 9 to 14) (size 15 to 20)
#    0.000    1.500    0.000    5.250    0.000    5.000 
#    0.000    0.000    0.000    0.000    0.000    0.000 
#    0.000    0.000    0.000    0.000    0.000    0.000 
#
# Total GULP energy -397034.738618 kJ/mol
# GULP energy per Si atom -12407.335582 kJ/mol
# Density = 2.147012 g / cm^3
# Si number density = 21.519102 Si / 1000 Ang^3
#
#
#
# Elastic Constant Matrix: (Units=GPa)
#
#
# Indices 1 2 3 4 5 6 
#
# 1 84.1175 34.5070 -14.0030 0.0000 0.0000 0.0000
# 2 34.5070 187.0621 7.1500 0.0000 0.0000 0.0000
# 3 -14.0030 7.1500 30.0484 0.0000 0.0000 0.0000
# 4 0.0000 0.0000 0.0000 5.8592 0.0000 0.0000
# 5 0.0000 0.0000 0.0000 0.0000 35.0323 0.0000
# 6 0.0000 0.0000 0.0000 0.0000 0.0000 43.8526
#
#
#
# Elastic Compliance Matrix: (Units=1/GPa)
#
#
# Indices 1 2 3 4 5 6 
#
# 1 0.014313 -0.002922 0.007365 0.000000 0.000000 0.000000
# 2 -0.002922 0.005991 -0.002787 0.000000 0.000000 0.000000
# 3 0.007365 -0.002787 0.037375 0.000000 0.000000 0.000000
# 4 0.000000 0.000000 0.000000 0.170673 0.000000 0.000000
# 5 0.000000 0.000000 0.000000 0.000000 0.028545 0.000000
# 6 0.000000 0.000000 0.000000 0.000000 0.000000 0.022804
#
#
# Mechanical properties :
#
#
# Convention : Reuss Voigt Hill
#
# Bulk Modulus (GPa) = 16.39569 39.61510 28.00539
# Shear Modulus (GPa) = 16.85096 35.18708 26.01902
#
# Velocity S-wave (km/s) = 2.80137 4.04809 3.48100
# Velocity P-wave (km/s) = 4.25432 6.34812 5.40361
#
# Compressibility (1/GPa) = 0.06099165
#
# Stress axis : x y z
#
# Youngs Moduli (GPa) = 69.86757 166.90797 26.75578
#
# Poissons Ratio (x) = 0.48767 -0.19706
# Poissons Ratio (y) = 0.20414 0.07457
# Poissons Ratio (z) = -0.51459 0.46521
#
# Static dielectric constant tensor:
#      x y z
#    x 3.942520 0.000000 0.000000 
#    y 0.000000 4.342560 0.000000 
#    z 0.000000 0.000000 3.547710 
# 
# 
# High freq. dielectric constant tensor:
#      x y z
#    x 1.856210 0.000000 0.000000 
#    y 0.000000 1.866040 0.000000 
#    z 0.000000 0.000000 1.827210 
# 
# From -- ./inp_files/9639.got.cif
#   From: 2010.03.12/outbox.cif.g09.slc.cpg/sg62_5_cif.got.tgz:9639.got - 2010.04.10 19:12:36.
