data_PCOD8253999
_publ_section_title
;
Structure prediction by ZEFSAII (Michael W. Deem and Ramdas Pophale) SiO2 
 PCOD8253999
Probable space group: P N M A
;
_chemical_formula_sum "Si O2"
_cell_formula_units_Z 48
_cell_length_a 17.619792
_cell_length_b 9.012811
_cell_length_c 16.398157
_cell_angle_alpha 90.000000
_cell_angle_beta 90.000000
_cell_angle_gamma 90.000000
_cell_volume 2604.090549
_symmetry_space_group_name_H-M "P N M A"
_symmetry_group_IT_number 62
_symmetry_cell_setting 'orthorhombic'
loop_
_space_group_symop_operation_xyz
x,y,z
1/2-x,-y,1/2+z
1/2+x,1/2-y,1/2-z
-x,1/2+y,-z
-x,-y,-z
1/2+x,y,1/2-z
1/2-x,1/2+y,1/2+z
x,1/2-y,z
loop_
_atom_site_type_symbol
_atom_site_label
_atom_site_fract_x
_atom_site_fract_y
_atom_site_fract_z
Si Si1 0.400064 0.917442 0.186690
Si Si2 0.080180 0.078353 0.502423
Si Si3 0.823559 0.424930 0.634740
Si Si4 0.169837 0.578000 0.828785
Si Si5 0.012003 0.922744 0.914291
Si Si6 0.557457 0.579705 0.267103
O O1 0.379188 0.750000 0.213895
O O2 0.488589 0.948708 0.204415
O O3 0.347647 0.031587 0.235937
O O4 0.383647 0.940615 0.091789
O O5 0.068682 0.250000 0.479952
O O6 0.137885 0.004387 0.440854
O O7 0.000000 0.000000 0.500000
O O8 0.826905 0.250000 0.619841
O O9 0.737745 0.479828 0.637193
O O10 0.866229 0.466721 0.719180
O O11 0.192287 0.750000 0.831074
O O12 0.096939 0.542626 0.884249
O O13 0.997276 0.750000 0.924896
O O14 0.951292 0.982559 0.848516
O O15 0.000000 0.000000 0.000000
O O16 0.560825 0.750000 0.295131
#
# Coordination Sequence:
#
# PCOD8253999 Si02
#       6
#     8   8   8   8   8   8
#     4   9  18  36  58  81 110 149 187 225 277 335
#     4  11  21  35  58  88 120 153 192 236 282 339
#     4  11  22  38  58  85 118 154 190 234 290 342
#     4  10  22  39  58  84 114 148 189 238 289 339
#     4  10  21  38  61  86 111 145 192 239 284 336
#     4   9  18  35  58  82 110 145 186 228 277 336
#
# _framework density 18.432538999999998
#
# number of rings (size 3 to 8) (size 9 to 14) (size 15 to 20)
#    0.000    2.000    1.667    2.000    0.000    4.667 
#    3.000    0.000    0.000    0.000    0.000    0.000 
#    0.000    0.000    0.000    0.000    0.000    0.000 
#
# Total GULP energy -595350.740350 kJ/mol
# GULP energy per Si atom -12403.140424 kJ/mol
# Density = 1.839059 g / cm^3
# Si number density = 18.432539 Si / 1000 Ang^3
#
#
#
# Elastic Constant Matrix: (Units=GPa)
#
#
# Indices 1 2 3 4 5 6 
#
# 1 82.3980 51.5331 47.5516 0.0000 0.0000 0.0000
# 2 51.5331 113.0306 74.6298 0.0000 0.0000 0.0000
# 3 47.5516 74.6298 130.8935 0.0000 0.0000 0.0000
# 4 0.0000 0.0000 0.0000 38.4033 0.0000 0.0000
# 5 0.0000 0.0000 0.0000 0.0000 21.7162 0.0000
# 6 0.0000 0.0000 0.0000 0.0000 0.0000 33.8209
#
#
#
# Elastic Compliance Matrix: (Units=1/GPa)
#
#
# Indices 1 2 3 4 5 6 
#
# 1 0.017649 -0.006115 -0.002925 0.000000 0.000000 0.000000
# 2 -0.006115 0.016307 -0.007076 0.000000 0.000000 0.000000
# 3 -0.002925 -0.007076 0.012737 0.000000 0.000000 0.000000
# 4 0.000000 0.000000 0.000000 0.026039 0.000000 0.000000
# 5 0.000000 0.000000 0.000000 0.000000 0.046048 0.000000
# 6 0.000000 0.000000 0.000000 0.000000 0.000000 0.029568
#
#
# Mechanical properties :
#
#
# Convention : Reuss Voigt Hill
#
# Bulk Modulus (GPa) = 69.15440 74.86123 72.00781
# Shear Modulus (GPa) = 26.96856 28.96193 27.96524
#
# Velocity S-wave (km/s) = 3.82919 3.96819 3.89931
# Velocity P-wave (km/s) = 7.55972 7.85475 7.70865
#
# Compressibility (1/GPa) = 0.01446040
#
# Stress axis : x y z
#
# Youngs Moduli (GPa) = 56.66128 61.32200 78.51211
#
# Poissons Ratio (x) = 0.37500 0.22964
# Poissons Ratio (y) = 0.34650 0.55557
# Poissons Ratio (z) = 0.16573 0.43393
#
# Static dielectric constant tensor:
#      x y z
#    x 3.070790 0.000000 0.000000 
#    y 0.000000 3.432400 0.000000 
#    z 0.000000 0.000000 3.329180 
# 
# 
# High freq. dielectric constant tensor:
#      x y z
#    x 1.702350 0.000000 0.000000 
#    y 0.000000 1.726170 0.000000 
#    z 0.000000 0.000000 1.718280 
# 
# From -- ./inp_files/19656.got.cif
#   From: 2010.03.12/outbox.cif.g09.slc.cpg/sg62_10_cif.got.tgz:19656.got - 2010.04.10 19:12:36.
