data_PCOD8253303
_publ_section_title
;
Structure prediction by ZEFSAII (Michael W. Deem and Ramdas Pophale) SiO2 
 PCOD8253303
Probable space group: P N M A
;
_chemical_formula_sum "Si O2"
_cell_formula_units_Z 64
_cell_length_a 9.047987
_cell_length_b 29.408087
_cell_length_c 11.536721
_cell_angle_alpha 90.000000
_cell_angle_beta 90.000000
_cell_angle_gamma 90.000000
_cell_volume 3069.736742
_symmetry_space_group_name_H-M "P N M A"
_symmetry_group_IT_number 62
_symmetry_cell_setting 'orthorhombic'
loop_
_space_group_symop_operation_xyz
x,y,z
1/2-x,-y,1/2+z
1/2+x,1/2-y,1/2-z
-x,1/2+y,-z
-x,-y,-z
1/2+x,y,1/2-z
1/2-x,1/2+y,1/2+z
x,1/2-y,z
loop_
_atom_site_type_symbol
_atom_site_label
_atom_site_fract_x
_atom_site_fract_y
_atom_site_fract_z
Si Si1 0.507686 0.509933 0.365252
Si Si2 0.776684 0.386289 0.348032
Si Si3 0.461203 0.053543 0.989771
Si Si4 0.450273 0.412018 0.363707
Si Si5 0.268503 0.439127 0.768627
Si Si6 0.258220 0.699317 0.907580
Si Si7 0.072021 0.699361 0.690704
Si Si8 0.757210 0.611182 0.449535
O O1 0.500000 0.500000 0.500000
O O2 0.474907 0.461411 0.306871
O O3 0.385433 0.546277 0.325100
O O4 0.671957 0.524140 0.325377
O O5 0.841971 0.429827 0.416118
O O6 0.601656 0.384107 0.359348
O O7 0.822762 0.388528 0.212622
O O8 0.843541 0.337821 0.390597
O O9 0.394436 0.065717 0.864533
O O10 0.607542 0.083196 0.005077
O O11 0.500000 0.000000 0.000000
O O12 0.391545 0.412062 0.496528
O O13 0.246327 0.393273 0.691152
O O14 0.263672 0.750000 0.962365
O O15 0.113136 0.693789 0.827147
O O16 0.397106 0.691405 0.821767
O O17 0.261066 0.664086 0.014806
O O18 0.117236 0.750000 0.647861
#
# Coordination Sequence:
#
# PCOD8253303 Si02
#       8
#     8   8   8   8   8   8   8   8
#     4  12  24  43  62  92 127 176 218 273 327 385
#     4  12  23  39  63  96 132 175 218 275 332 394
#     4  12  26  44  64  91 132 179 225 274 333 392
#     4  12  24  37  62  91 134 172 218 267 328 400
#     4  12  26  44  65  91 128 171 228 276 322 398
#     4  10  21  40  66  97 135 174 217 276 340 404
#     4  10  20  37  62  96 133 170 213 270 337 395
#     4  12  24  43  63  94 131 174 221 270 338 401
#
# _framework density 20.848693000000001
#
# number of rings (size 3 to 8) (size 9 to 14) (size 15 to 20)
#    0.000    0.500    5.000    4.500    1.750    0.000 
#    0.000    0.000    0.000    1.500    0.000    0.000 
#    0.000    0.000    0.000    0.000    0.000    0.000 
#
# Total GULP energy -793421.944454 kJ/mol
# GULP energy per Si atom -12397.217882 kJ/mol
# Density = 2.080124 g / cm^3
# Si number density = 20.848693 Si / 1000 Ang^3
#
#
#
# Elastic Constant Matrix: (Units=GPa)
#
#
# Indices 1 2 3 4 5 6 
#
# 1 96.6253 20.9422 37.3797 0.0000 0.0000 0.0000
# 2 20.9422 130.3871 37.5028 0.0000 0.0000 0.0000
# 3 37.3797 37.5028 107.1022 0.0000 0.0000 0.0000
# 4 0.0000 0.0000 0.0000 34.2718 0.0000 0.0000
# 5 0.0000 0.0000 0.0000 0.0000 39.0218 0.0000
# 6 0.0000 0.0000 0.0000 0.0000 0.0000 29.3560
#
#
#
# Elastic Compliance Matrix: (Units=1/GPa)
#
#
# Indices 1 2 3 4 5 6 
#
# 1 0.012040 -0.000806 -0.003920 0.000000 0.000000 0.000000
# 2 -0.000806 0.008582 -0.002724 0.000000 0.000000 0.000000
# 3 -0.003920 -0.002724 0.011659 0.000000 0.000000 0.000000
# 4 0.000000 0.000000 0.000000 0.029178 0.000000 0.000000
# 5 0.000000 0.000000 0.000000 0.000000 0.025627 0.000000
# 6 0.000000 0.000000 0.000000 0.000000 0.000000 0.034065
#
#
# Mechanical properties :
#
#
# Convention : Reuss Voigt Hill
#
# Bulk Modulus (GPa) = 57.53251 58.41820 57.97536
# Shear Modulus (GPa) = 35.24968 36.41591 35.83279
#
# Velocity S-wave (km/s) = 4.11632 4.18386 4.15023
# Velocity P-wave (km/s) = 7.08853 7.17081 7.12979
#
# Compressibility (1/GPa) = 0.01738148
#
# Stress axis : x y z
#
# Youngs Moduli (GPa) = 83.05339 116.51723 85.77291
#
# Poissons Ratio (x) = 0.09396 0.33622
# Poissons Ratio (y) = 0.06698 0.23362
# Poissons Ratio (z) = 0.32556 0.31736
#
# Static dielectric constant tensor:
#      x y z
#    x 3.873990 0.000000 0.000000 
#    y 0.000000 4.260390 0.000000 
#    z 0.000000 0.000000 3.665350 
# 
# 
# High freq. dielectric constant tensor:
#      x y z
#    x 1.831760 0.000000 0.000000 
#    y 0.000000 1.818350 0.000000 
#    z 0.000000 0.000000 1.789770 
# 
# From -- ./inp_files/11566.got.cif
#   From: 2010.03.12/outbox.cif.g09.slc.cpg/sg62_6_cif.got.tgz:11566.got - 2010.04.10 19:12:36.
