data_PCOD8253049
_publ_section_title
;
Structure prediction by ZEFSAII (Michael W. Deem and Ramdas Pophale) SiO2 
 PCOD8253049
Probable space group: P N M A
;
_chemical_formula_sum "Si O2"
_cell_formula_units_Z 52
_cell_length_a 5.041639
_cell_length_b 24.079387
_cell_length_c 21.674139
_cell_angle_alpha 90.000000
_cell_angle_beta 90.000000
_cell_angle_gamma 90.000000
_cell_volume 2631.231298
_symmetry_space_group_name_H-M "P N M A"
_symmetry_group_IT_number 62
_symmetry_cell_setting 'orthorhombic'
loop_
_space_group_symop_operation_xyz
x,y,z
1/2-x,-y,1/2+z
1/2+x,1/2-y,1/2-z
-x,1/2+y,-z
-x,-y,-z
1/2+x,y,1/2-z
1/2-x,1/2+y,1/2+z
x,1/2-y,z
loop_
_atom_site_type_symbol
_atom_site_label
_atom_site_fract_x
_atom_site_fract_y
_atom_site_fract_z
Si Si1 0.016454 0.750000 0.711212
Si Si2 0.747357 0.623872 0.026133
Si Si3 0.702158 0.816017 0.286549
Si Si4 0.658984 0.556918 0.905171
Si Si5 0.624531 0.868147 0.791509
Si Si6 0.868239 0.508350 0.065931
Si Si7 0.764770 0.184737 0.927949
O O1 0.204649 0.750000 0.772466
O O2 0.087575 0.692725 0.675817
O O3 0.811074 0.573810 0.074398
O O4 0.464276 0.649888 0.040051
O O5 0.965984 0.671643 0.035284
O O6 0.750876 0.602066 0.955850
O O7 0.447512 0.840581 0.251775
O O8 0.699671 0.750000 0.283855
O O9 0.709276 0.835310 0.357243
O O10 0.569620 0.586013 0.842572
O O11 0.409755 0.523370 0.931077
O O12 0.907729 0.516214 0.887885
O O13 0.418903 0.874787 0.735365
O O14 0.000000 0.500000 0.000000
O O15 0.703127 0.250000 0.932198
#
# Coordination Sequence:
#
# PCOD8253049 Si02
#       7
#     4   8   8   8   8   8   8
#     4   8  16  32  52  76 108 148 192 226 270 336
#     4  11  21  37  58  82 116 150 188 231 289 338
#     4   9  17  31  52  74  97 137 188 221 246 306
#     4  11  21  37  62  87 110 144 203 239 290 341
#     4  10  20  36  59  84 116 154 196 243 287 344
#     4  10  20  37  61  84 106 141 192 244 270 337
#     4  11  22  36  55  83 119 148 178 226 287 346
#
# _framework density 19.762611
#
# number of rings (size 3 to 8) (size 9 to 14) (size 15 to 20)
#    0.000    1.846    0.000    6.923    0.000    2.462 
#    2.769    0.000    3.385   18.462    0.000    0.000 
#    0.000    0.000    0.000    0.000    0.000    0.000 
#
# Total GULP energy -644592.889380 kJ/mol
# GULP energy per Si atom -12396.017103 kJ/mol
# Density = 1.971763 g / cm^3
# Si number density = 19.762611 Si / 1000 Ang^3
#
#
#
# Elastic Constant Matrix: (Units=GPa)
#
#
# Indices 1 2 3 4 5 6 
#
# 1 106.4138 9.4940 17.3434 0.0000 0.0000 0.0000
# 2 9.4940 76.2575 26.6610 0.0000 0.0000 0.0000
# 3 17.3434 26.6610 52.4012 0.0000 0.0000 0.0000
# 4 0.0000 0.0000 0.0000 25.4312 0.0000 0.0000
# 5 0.0000 0.0000 0.0000 0.0000 22.2347 0.0000
# 6 0.0000 0.0000 0.0000 0.0000 0.0000 37.4292
#
#
#
# Elastic Compliance Matrix: (Units=1/GPa)
#
#
# Indices 1 2 3 4 5 6 
#
# 1 0.009934 -0.000106 -0.003234 0.000000 0.000000 0.000000
# 2 -0.000106 0.015952 -0.008081 0.000000 0.000000 0.000000
# 3 -0.003234 -0.008081 0.024265 0.000000 0.000000 0.000000
# 4 0.000000 0.000000 0.000000 0.039322 0.000000 0.000000
# 5 0.000000 0.000000 0.000000 0.000000 0.044975 0.000000
# 6 0.000000 0.000000 0.000000 0.000000 0.000000 0.026717
#
#
# Mechanical properties :
#
#
# Convention : Reuss Voigt Hill
#
# Bulk Modulus (GPa) = 36.61776 38.00770 37.31273
# Shear Modulus (GPa) = 25.89204 29.12398 27.50801
#
# Velocity S-wave (km/s) = 3.62353 3.84303 3.73489
# Velocity P-wave (km/s) = 6.00630 6.24225 6.12541
#
# Compressibility (1/GPa) = 0.02730915
#
# Stress axis : x y z
#
# Youngs Moduli (GPa) = 100.66645 62.68823 41.21107
#
# Poissons Ratio (x) = 0.00665 0.13327
# Poissons Ratio (y) = 0.01069 0.33303
# Poissons Ratio (z) = 0.32554 0.50658
#
# Static dielectric constant tensor:
#      x y z
#    x 3.943660 0.000000 0.000000 
#    y 0.000000 3.884990 0.000000 
#    z 0.000000 0.000000 3.271830 
# 
# 
# High freq. dielectric constant tensor:
#      x y z
#    x 1.796620 0.000000 0.000000 
#    y 0.000000 1.764490 0.000000 
#    z 0.000000 0.000000 1.733100 
# 
# From -- ./inp_files/25342.got.cif
#   From: 2010.03.12/outbox.cif.g09.slc.cpg/sg62_13_cif.got.tgz:25342.got - 2010.04.10 19:12:36.
