data_PCOD8253873
_publ_section_title
;
Structure prediction by ZEFSAII (Michael W. Deem and Ramdas Pophale) SiO2 
 PCOD8253873
Probable space group: P N M A
;
_chemical_formula_sum "Si O2"
_cell_formula_units_Z 48
_cell_length_a 12.811629
_cell_length_b 21.243719
_cell_length_c 8.478446
_cell_angle_alpha 90.000000
_cell_angle_beta 90.000000
_cell_angle_gamma 90.000000
_cell_volume 2307.550215
_symmetry_space_group_name_H-M "P N M A"
_symmetry_group_IT_number 62
_symmetry_cell_setting 'orthorhombic'
loop_
_space_group_symop_operation_xyz
x,y,z
1/2-x,-y,1/2+z
1/2+x,1/2-y,1/2-z
-x,1/2+y,-z
-x,-y,-z
1/2+x,y,1/2-z
1/2-x,1/2+y,1/2+z
x,1/2-y,z
loop_
_atom_site_type_symbol
_atom_site_label
_atom_site_fract_x
_atom_site_fract_y
_atom_site_fract_z
Si Si1 0.085914 0.679244 0.183767
Si Si2 0.147703 0.491445 0.335638
Si Si3 0.158920 0.875303 0.489259
Si Si4 0.979845 0.403948 0.236547
Si Si5 0.830807 0.062523 0.979575
Si Si6 0.612043 0.322974 0.481789
O O1 0.119609 0.750000 0.137859
O O2 0.093704 0.669643 0.371619
O O3 0.167755 0.631711 0.100801
O O4 0.966607 0.666785 0.129465
O O5 0.142628 0.553006 0.440046
O O6 0.232797 0.443718 0.405015
O O7 0.038363 0.454830 0.345209
O O8 0.171979 0.507952 0.152510
O O9 0.110070 0.868217 0.663577
O O10 0.280753 0.858855 0.483269
O O11 0.932969 0.442711 0.088972
O O12 0.059943 0.351010 0.175411
O O13 0.636607 0.250000 0.452999
#
# Coordination Sequence:
#
# PCOD8253873 Si02
#       6
#     8   8   8   8   8   8
#     4   9  21  41  63  86 115 158 205 248 300 359
#     4  11  22  37  58  88 121 156 199 247 302 362
#     4  11  23  38  63  91 121 158 201 250 301 360
#     4  11  22  38  57  87 120 158 200 245 301 361
#     4  10  21  37  60  86 120 161 199 249 306 361
#     4  10  22  41  61  84 119 157 197 247 300 355
#
# _framework density 20.801280999999999
#
# number of rings (size 3 to 8) (size 9 to 14) (size 15 to 20)
#    0.000    1.667    0.000    4.500    0.000    6.667 
#    0.000    4.167    0.000    0.000    0.000    0.000 
#    0.000    0.000    0.000    0.000    0.000    0.000 
#
# Total GULP energy -595215.815892 kJ/mol
# GULP energy per Si atom -12400.329498 kJ/mol
# Density = 2.075394 g / cm^3
# Si number density = 20.801281 Si / 1000 Ang^3
#
#
#
# Elastic Constant Matrix: (Units=GPa)
#
#
# Indices 1 2 3 4 5 6 
#
# 1 103.8565 43.0815 62.7074 0.0000 0.0000 0.0000
# 2 43.0815 79.8294 42.2049 0.0000 0.0000 0.0000
# 3 62.7074 42.2049 114.3280 0.0000 0.0000 0.0000
# 4 0.0000 0.0000 0.0000 27.2916 0.0000 0.0000
# 5 0.0000 0.0000 0.0000 0.0000 41.6132 0.0000
# 6 0.0000 0.0000 0.0000 0.0000 0.0000 30.8888
#
#
#
# Elastic Compliance Matrix: (Units=1/GPa)
#
#
# Indices 1 2 3 4 5 6 
#
# 1 0.015803 -0.004903 -0.006858 0.000000 0.000000 0.000000
# 2 -0.004903 0.017085 -0.003618 0.000000 0.000000 0.000000
# 3 -0.006858 -0.003618 0.013844 0.000000 0.000000 0.000000
# 4 0.000000 0.000000 0.000000 0.036641 0.000000 0.000000
# 5 0.000000 0.000000 0.000000 0.000000 0.024031 0.000000
# 6 0.000000 0.000000 0.000000 0.000000 0.000000 0.032374
#
#
# Mechanical properties :
#
#
# Convention : Reuss Voigt Hill
#
# Bulk Modulus (GPa) = 62.59822 66.00017 64.29919
# Shear Modulus (GPa) = 28.43146 29.96005 29.19575
#
# Velocity S-wave (km/s) = 3.70105 3.79924 3.75047
# Velocity P-wave (km/s) = 6.95863 7.14447 7.05216
#
# Compressibility (1/GPa) = 0.01597490
#
# Stress axis : x y z
#
# Youngs Moduli (GPa) = 63.27840 58.52936 72.23405
#
# Poissons Ratio (x) = 0.28696 0.49538
# Poissons Ratio (y) = 0.31024 0.26135
# Poissons Ratio (z) = 0.43396 0.21176
#
# Static dielectric constant tensor:
#      x y z
#    x 3.685160 0.000000 0.000000 
#    y 0.000000 3.760530 0.000000 
#    z 0.000000 0.000000 3.884940 
# 
# 
# High freq. dielectric constant tensor:
#      x y z
#    x 1.810690 0.000000 0.000000 
#    y 0.000000 1.813040 0.000000 
#    z 0.000000 0.000000 1.818460 
# 
# From -- ./inp_files/5311.got.cif
#   From: 2010.03.12/outbox.cif.g09.slc.cpg/sg62_3_cif.got.tgz:5311.got - 2010.04.10 19:12:36.
