data_PCOD8253335
_publ_section_title
;
Structure prediction by ZEFSAII (Michael W. Deem and Ramdas Pophale) SiO2 
 PCOD8253335
Probable space group: P N M A
;
_chemical_formula_sum "Si O2"
_cell_formula_units_Z 64
_cell_length_a 23.448650
_cell_length_b 9.306457
_cell_length_c 15.415476
_cell_angle_alpha 90.000000
_cell_angle_beta 90.000000
_cell_angle_gamma 90.000000
_cell_volume 3364.024568
_symmetry_space_group_name_H-M "P N M A"
_symmetry_group_IT_number 62
_symmetry_cell_setting 'orthorhombic'
loop_
_space_group_symop_operation_xyz
x,y,z
1/2-x,-y,1/2+z
1/2+x,1/2-y,1/2-z
-x,1/2+y,-z
-x,-y,-z
1/2+x,y,1/2-z
1/2-x,1/2+y,1/2+z
x,1/2-y,z
loop_
_atom_site_type_symbol
_atom_site_label
_atom_site_fract_x
_atom_site_fract_y
_atom_site_fract_z
Si Si1 0.000234 0.918964 0.179803
Si Si2 0.119549 0.580188 0.106007
Si Si3 0.479840 0.915473 0.124261
Si Si4 0.241890 0.919054 0.157060
Si Si5 0.588740 0.583267 0.008927
Si Si6 0.902749 0.081558 0.086400
Si Si7 0.701640 0.417631 0.025672
Si Si8 0.287158 0.416786 0.321284
O O1 0.993504 0.750000 0.164238
O O2 0.984083 0.963789 0.276738
O O3 0.065207 0.967804 0.162435
O O4 0.959618 0.000203 0.113740
O O5 0.125676 0.750000 0.100754
O O6 0.177087 0.520771 0.150836
O O7 0.114296 0.521754 0.008142
O O8 0.461476 0.750000 0.114474
O O9 0.541009 0.942744 0.081346
O O10 0.430922 0.011774 0.081175
O O11 0.243112 0.750000 0.174468
O O12 0.273639 0.958239 0.068060
O O13 0.273587 0.994212 0.235920
O O14 0.600370 0.750000 0.991754
O O15 0.645432 0.509379 0.044386
O O16 0.916381 0.250000 0.082874
O O17 0.851965 0.047413 0.152929
O O18 0.686462 0.250000 0.030779
O O19 0.746953 0.461574 0.098852
O O20 0.279444 0.250000 0.299731
#
# Coordination Sequence:
#
# PCOD8253335 Si02
#       8
#     8   8   8   8   8   8   8   8
#     4  10  21  35  57  84 109 140 184 233 277 326
#     4   9  18  37  61  81 107 146 186 226 276 335
#     4   9  20  38  55  79 113 147 183 229 282 335
#     4  10  21  38  62  85 110 151 195 230 276 339
#     4  10  21  36  58  83 110 147 189 232 276 326
#     4  10  20  38  59  80 111 147 183 224 277 338
#     4  10  21  39  60  84 116 155 189 227 286 347
#     4  10  22  39  58  84 118 152 186 232 286 335
#
# _framework density 19.024832
#
# number of rings (size 3 to 8) (size 9 to 14) (size 15 to 20)
#    0.000    2.250    1.250    0.750    3.500    2.500 
#    0.000    1.250    0.000    0.000    0.000    0.000 
#    0.000    0.000    0.000    0.000    0.000    0.000 
#
# Total GULP energy -793777.926961 kJ/mol
# GULP energy per Si atom -12402.780109 kJ/mol
# Density = 1.898153 g / cm^3
# Si number density = 19.024832 Si / 1000 Ang^3
#
#
#
# Elastic Constant Matrix: (Units=GPa)
#
#
# Indices 1 2 3 4 5 6 
#
# 1 60.5228 20.7695 -10.7135 0.0000 0.0000 0.0000
# 2 20.7695 39.1156 15.9143 0.0000 0.0000 0.0000
# 3 -10.7135 15.9143 69.0987 0.0000 0.0000 0.0000
# 4 0.0000 0.0000 0.0000 23.1834 0.0000 0.0000
# 5 0.0000 0.0000 0.0000 0.0000 23.1120 0.0000
# 6 0.0000 0.0000 0.0000 0.0000 0.0000 30.7038
#
#
#
# Elastic Compliance Matrix: (Units=1/GPa)
#
#
# Indices 1 2 3 4 5 6 
#
# 1 0.022920 -0.015023 0.007014 0.000000 0.000000 0.000000
# 2 -0.015023 0.038056 -0.011094 0.000000 0.000000 0.000000
# 3 0.007014 -0.011094 0.018115 0.000000 0.000000 0.000000
# 4 0.000000 0.000000 0.000000 0.043134 0.000000 0.000000
# 5 0.000000 0.000000 0.000000 0.000000 0.043268 0.000000
# 6 0.000000 0.000000 0.000000 0.000000 0.000000 0.032569
#
#
# Mechanical properties :
#
#
# Convention : Reuss Voigt Hill
#
# Bulk Modulus (GPa) = 24.46018 24.51974 24.48996
# Shear Modulus (GPa) = 20.00828 24.91763 22.46295
#
# Velocity S-wave (km/s) = 3.24650 3.62296 3.43988
# Velocity P-wave (km/s) = 5.19017 5.51520 5.35515
#
# Compressibility (1/GPa) = 0.04088278
#
# Stress axis : x y z
#
# Youngs Moduli (GPa) = 43.63044 26.27710 55.20409
#
# Poissons Ratio (x) = 0.39477 -0.38718
# Poissons Ratio (y) = 0.65548 0.61244
# Poissons Ratio (z) = -0.30601 0.29152
#
# Static dielectric constant tensor:
#      x y z
#    x 3.601240 0.000000 0.000000 
#    y 0.000000 3.258560 0.000000 
#    z 0.000000 0.000000 3.510430 
# 
# 
# High freq. dielectric constant tensor:
#      x y z
#    x 1.752330 0.000000 0.000000 
#    y 0.000000 1.717610 0.000000 
#    z 0.000000 0.000000 1.747200 
# 
# From -- ./inp_files/20780.got.cif
#   From: 2010.03.12/outbox.cif.g09.slc.cpg/sg62_11_cif.got.tgz:20780.got - 2010.04.10 19:12:36.
