data_PCOD8253003
_publ_section_title
;
Structure prediction by ZEFSAII (Michael W. Deem and Ramdas Pophale) SiO2 
 PCOD8253003
Probable space group: P N M A
;
_chemical_formula_sum "Si O2"
_cell_formula_units_Z 48
_cell_length_a 20.374744
_cell_length_b 8.452302
_cell_length_c 14.559382
_cell_angle_alpha 90.000000
_cell_angle_beta 90.000000
_cell_angle_gamma 90.000000
_cell_volume 2507.321979
_symmetry_space_group_name_H-M "P N M A"
_symmetry_group_IT_number 62
_symmetry_cell_setting 'orthorhombic'
loop_
_space_group_symop_operation_xyz
x,y,z
1/2-x,-y,1/2+z
1/2+x,1/2-y,1/2-z
-x,1/2+y,-z
-x,-y,-z
1/2+x,y,1/2-z
1/2-x,1/2+y,1/2+z
x,1/2-y,z
loop_
_atom_site_type_symbol
_atom_site_label
_atom_site_fract_x
_atom_site_fract_y
_atom_site_fract_z
Si Si1 0.808299 0.435780 0.801476
Si Si2 0.061764 0.566341 0.694140
Si Si3 0.120396 0.435379 0.510782
Si Si4 0.186990 0.563888 0.807795
Si Si5 0.730605 0.937465 0.496141
Si Si6 0.924988 0.064899 0.676463
O O1 0.816894 0.250000 0.808396
O O2 0.741247 0.473052 0.749988
O O3 0.804561 0.507403 0.904938
O O4 0.870929 0.505304 0.747277
O O5 0.044571 0.750000 0.701754
O O6 0.087513 0.530878 0.592746
O O7 0.115909 0.516816 0.769439
O O8 0.996893 0.466271 0.717795
O O9 0.117229 0.250000 0.533463
O O10 0.194562 0.498434 0.498201
O O11 0.080287 0.470742 0.418655
O O12 0.200790 0.750000 0.798338
O O13 0.191126 0.506823 0.913640
O O14 0.732199 0.750000 0.490661
O O15 0.913978 0.250000 0.658517
#
# Coordination Sequence:
#
# PCOD8253003 Si02
#       6
#     8   8   8   8   8   8
#     4  10  20  36  58  82 109 143 183 226 272 326
#     4  11  23  37  55  81 115 149 185 227 274 330
#     4  11  20  34  59  84 113 146 180 226 280 334
#     4  10  20  36  58  82 109 143 183 226 272 326
#     4   9  18  34  57  84 110 140 176 223 278 325
#     4  11  23  37  55  81 115 149 185 227 274 330
#
# _framework density 19.143930999999998
#
# number of rings (size 3 to 8) (size 9 to 14) (size 15 to 20)
#    0.000    1.667    3.333    2.000    0.000    1.333 
#    0.000    1.667    0.000    0.000    0.000    0.000 
#    0.000    0.000    0.000    0.000    0.000    0.000 
#
# Total GULP energy -595294.417052 kJ/mol
# GULP energy per Si atom -12401.967022 kJ/mol
# Density = 1.910036 g / cm^3
# Si number density = 19.143931 Si / 1000 Ang^3
#
#
#
# Elastic Constant Matrix: (Units=GPa)
#
#
# Indices 1 2 3 4 5 6 
#
# 1 91.3865 11.6751 36.7782 0.0000 0.0000 0.0000
# 2 11.6751 19.8438 6.7094 0.0000 0.0000 0.0000
# 3 36.7782 6.7094 127.1746 0.0000 0.0000 0.0000
# 4 0.0000 0.0000 0.0000 10.9718 0.0000 0.0000
# 5 0.0000 0.0000 0.0000 0.0000 32.3035 0.0000
# 6 0.0000 0.0000 0.0000 0.0000 0.0000 25.9906
#
#
#
# Elastic Compliance Matrix: (Units=1/GPa)
#
#
# Indices 1 2 3 4 5 6 
#
# 1 0.013177 -0.006582 -0.003464 0.000000 0.000000 0.000000
# 2 -0.006582 0.054596 -0.000977 0.000000 0.000000 0.000000
# 3 -0.003464 -0.000977 0.008916 0.000000 0.000000 0.000000
# 4 0.000000 0.000000 0.000000 0.091143 0.000000 0.000000
# 5 0.000000 0.000000 0.000000 0.000000 0.030956 0.000000
# 6 0.000000 0.000000 0.000000 0.000000 0.000000 0.038475
#
#
# Mechanical properties :
#
#
# Convention : Reuss Voigt Hill
#
# Bulk Modulus (GPa) = 18.29982 38.74780 28.52381
# Shear Modulus (GPa) = 18.01646 26.06933 22.04290
#
# Velocity S-wave (km/s) = 3.07107 3.69420 3.39695
# Velocity P-wave (km/s) = 4.70692 6.20325 5.50615
#
# Compressibility (1/GPa) = 0.05464534
#
# Stress axis : x y z
#
# Youngs Moduli (GPa) = 75.88808 18.31628 112.15299
#
# Poissons Ratio (x) = 0.12055 0.38845
# Poissons Ratio (y) = 0.49948 0.10956
# Poissons Ratio (z) = 0.26284 0.01789
#
# Static dielectric constant tensor:
#      x y z
#    x 3.612100 0.000000 0.000000 
#    y 0.000000 3.265900 0.000000 
#    z 0.000000 0.000000 3.896810 
# 
# 
# High freq. dielectric constant tensor:
#      x y z
#    x 1.744530 0.000000 0.000000 
#    y 0.000000 1.727500 0.000000 
#    z 0.000000 0.000000 1.747830 
# 
# From -- ./inp_files/19534.got.cif
#   From: 2010.03.12/outbox.cif.g09.slc.cpg/sg62_10_cif.got.tgz:19534.got - 2010.04.10 19:12:36.
