data_PCOD8253392
_publ_section_title
;
Structure prediction by ZEFSAII (Michael W. Deem and Ramdas Pophale) SiO2 
 PCOD8253392
Probable space group: P N M A
;
_chemical_formula_sum "Si O2"
_cell_formula_units_Z 48
_cell_length_a 30.462114
_cell_length_b 8.709539
_cell_length_c 9.255663
_cell_angle_alpha 90.000000
_cell_angle_beta 90.000000
_cell_angle_gamma 90.000000
_cell_volume 2455.628928
_symmetry_space_group_name_H-M "P N M A"
_symmetry_group_IT_number 62
_symmetry_cell_setting 'orthorhombic'
loop_
_space_group_symop_operation_xyz
x,y,z
1/2-x,-y,1/2+z
1/2+x,1/2-y,1/2-z
-x,1/2+y,-z
-x,-y,-z
1/2+x,y,1/2-z
1/2-x,1/2+y,1/2+z
x,1/2-y,z
loop_
_atom_site_type_symbol
_atom_site_label
_atom_site_fract_x
_atom_site_fract_y
_atom_site_fract_z
Si Si1 0.039400 0.930579 0.909190
Si Si2 0.961057 0.931016 0.407465
Si Si3 0.117459 0.071991 0.079012
Si Si4 0.876288 0.571546 0.589184
Si Si5 0.714289 0.574564 0.088665
Si Si6 0.207725 0.925381 0.076234
O O1 0.032889 0.750000 0.898981
O O2 0.038635 0.998889 0.750273
O O3 0.085128 0.969083 0.985150
O O4 0.000000 0.000000 0.000000
O O5 0.967230 0.750000 0.397554
O O6 0.915587 0.975434 0.484241
O O7 0.000000 0.000000 0.500000
O O8 0.108015 0.250000 0.047287
O O9 0.110033 0.030436 0.246961
O O10 0.166991 0.032534 0.031334
O O11 0.864166 0.750000 0.578007
O O12 0.834215 0.475078 0.538501
O O13 0.721927 0.750000 0.042416
O O14 0.719839 0.548622 0.258041
O O15 0.749950 0.467450 0.015223
O O16 0.194446 0.750000 0.046273
#
# Coordination Sequence:
#
# PCOD8253392 Si02
#       6
#     8   8   8   8   8   8
#     4  12  25  41  61  87 118 154 195 239 290 345
#     4  11  23  40  62  89 120 154 193 239 291 347
#     4  10  20  38  62  87 115 149 191 238 289 344
#     4   9  20  38  60  84 113 149 188 234 288 344
#     4  10  21  36  57  84 113 149 192 237 285 338
#     4  10  21  37  57  83 115 151 191 235 286 342
#
# _framework density 19.546928000000001
#
# number of rings (size 3 to 8) (size 9 to 14) (size 15 to 20)
#    0.000    1.667    0.000    4.500    0.000    6.667 
#    0.000    1.667    0.000    0.000    0.000    0.000 
#    0.000    0.000    0.000    0.000    0.000    0.000 
#
# Total GULP energy -595481.711812 kJ/mol
# GULP energy per Si atom -12405.868996 kJ/mol
# Density = 1.950244 g / cm^3
# Si number density = 19.546928 Si / 1000 Ang^3
#
#
#
# Elastic Constant Matrix: (Units=GPa)
#
#
# Indices 1 2 3 4 5 6 
#
# 1 124.0399 52.0289 75.2947 0.0000 0.0000 0.0000
# 2 52.0289 82.5030 44.7927 0.0000 0.0000 0.0000
# 3 75.2947 44.7927 109.6625 0.0000 0.0000 0.0000
# 4 0.0000 0.0000 0.0000 32.4115 0.0000 0.0000
# 5 0.0000 0.0000 0.0000 0.0000 33.1548 0.0000
# 6 0.0000 0.0000 0.0000 0.0000 0.0000 40.8638
#
#
#
# Elastic Compliance Matrix: (Units=1/GPa)
#
#
# Indices 1 2 3 4 5 6 
#
# 1 0.015315 -0.005075 -0.008443 0.000000 0.000000 0.000000
# 2 -0.005075 0.017256 -0.003564 0.000000 0.000000 0.000000
# 3 -0.008443 -0.003564 0.016372 0.000000 0.000000 0.000000
# 4 0.000000 0.000000 0.000000 0.030853 0.000000 0.000000
# 5 0.000000 0.000000 0.000000 0.000000 0.030162 0.000000
# 6 0.000000 0.000000 0.000000 0.000000 0.000000 0.024472
#
#
# Mechanical properties :
#
#
# Convention : Reuss Voigt Hill
#
# Bulk Modulus (GPa) = 67.65970 73.38200 70.52085
# Shear Modulus (GPa) = 28.81523 30.89196 29.85359
#
# Velocity S-wave (km/s) = 3.84364 3.97974 3.91228
# Velocity P-wave (km/s) = 7.37477 7.66425 7.52090
#
# Compressibility (1/GPa) = 0.01477985
#
# Stress axis : x y z
#
# Youngs Moduli (GPa) = 65.29340 57.95083 61.08127
#
# Poissons Ratio (x) = 0.29408 0.51570
# Poissons Ratio (y) = 0.33134 0.21770
# Poissons Ratio (z) = 0.55127 0.20655
#
# Static dielectric constant tensor:
#      x y z
#    x 3.666710 0.000000 0.000000 
#    y 0.000000 3.705850 0.000000 
#    z 0.000000 0.000000 3.571800 
# 
# 
# High freq. dielectric constant tensor:
#      x y z
#    x 1.774310 0.000000 0.000000 
#    y 0.000000 1.774040 0.000000 
#    z 0.000000 0.000000 1.761650 
# 
# From -- ./inp_files/10180.got.cif
#   From: 2010.03.12/outbox.cif.g09.slc.cpg/sg62_6_cif.got.tgz:10180.got - 2010.04.10 19:12:36.
