data_PCOD8253111
_publ_section_title
;
Structure prediction by ZEFSAII (Michael W. Deem and Ramdas Pophale) SiO2 
 PCOD8253111
Probable space group: P N M A
;
_chemical_formula_sum "Si O2"
_cell_formula_units_Z 56
_cell_length_a 12.062328
_cell_length_b 20.452910
_cell_length_c 10.599209
_cell_angle_alpha 90.000000
_cell_angle_beta 90.000000
_cell_angle_gamma 90.000000
_cell_volume 2614.927768
_symmetry_space_group_name_H-M "P N M A"
_symmetry_group_IT_number 62
_symmetry_cell_setting 'orthorhombic'
loop_
_space_group_symop_operation_xyz
x,y,z
1/2-x,-y,1/2+z
1/2+x,1/2-y,1/2-z
-x,1/2+y,-z
-x,-y,-z
1/2+x,y,1/2-z
1/2-x,1/2+y,1/2+z
x,1/2-y,z
loop_
_atom_site_type_symbol
_atom_site_label
_atom_site_fract_x
_atom_site_fract_y
_atom_site_fract_z
Si Si1 0.641850 0.126990 0.376440
Si Si2 0.924625 0.176935 0.186843
Si Si3 0.660343 0.452129 0.994757
Si Si4 0.602959 0.516698 0.408310
Si Si5 0.314252 0.821175 0.889084
Si Si6 0.360493 0.172482 0.029261
Si Si7 0.450314 0.437100 0.853777
O O1 0.510586 0.136783 0.401723
O O2 0.659500 0.173436 0.257379
O O3 0.729514 0.152463 0.480815
O O4 0.656471 0.049973 0.352162
O O5 0.967715 0.250000 0.203973
O O6 0.817403 0.173646 0.099200
O O7 0.905071 0.150015 0.331174
O O8 0.791863 0.449398 0.973743
O O9 0.577661 0.461160 0.875975
O O10 0.624462 0.379664 0.040429
O O11 0.634837 0.508470 0.095027
O O12 0.500000 0.500000 0.500000
O O13 0.562911 0.565074 0.297146
O O14 0.356436 0.750000 0.938893
O O15 0.374885 0.250000 0.006174
O O16 0.423332 0.132695 0.918769
#
# Coordination Sequence:
#
# PCOD8253111 Si02
#       7
#     8   8   8   8   8   8   8
#     4  11  19  34  61  93 131 162 212 271 325 380
#     4   9  18  31  55  93 131 166 210 270 336 387
#     4  11  24  43  65  95 134 169 216 268 329 394
#     4  12  27  42  68  96 134 175 223 275 323 390
#     4  10  20  36  60  91 126 166 214 273 328 381
#     4  10  21  38  62  94 129 173 222 264 327 402
#     4  11  25  42  65  96 130 176 212 268 327 390
#
# _framework density 21.415506000000001
#
# number of rings (size 3 to 8) (size 9 to 14) (size 15 to 20)
#    0.000    1.429    2.857    3.857    4.000    1.714 
#    0.000    0.714    0.000    4.286    0.000    0.000 
#    0.000    0.000    0.000    0.000    0.000    0.000 
#
# Total GULP energy -693747.885222 kJ/mol
# GULP energy per Si atom -12388.355093 kJ/mol
# Density = 2.136676 g / cm^3
# Si number density = 21.415506 Si / 1000 Ang^3
#
#
#
# Elastic Constant Matrix: (Units=GPa)
#
#
# Indices 1 2 3 4 5 6 
#
# 1 110.7484 14.3259 29.8528 0.0000 0.0000 0.0000
# 2 14.3259 123.5299 22.8767 0.0000 0.0000 0.0000
# 3 29.8528 22.8767 72.3323 0.0000 0.0000 0.0000
# 4 0.0000 0.0000 0.0000 29.8709 0.0000 0.0000
# 5 0.0000 0.0000 0.0000 0.0000 21.3887 0.0000
# 6 0.0000 0.0000 0.0000 0.0000 0.0000 20.5828
#
#
#
# Elastic Compliance Matrix: (Units=1/GPa)
#
#
# Indices 1 2 3 4 5 6 
#
# 1 0.010181 -0.000428 -0.004067 0.000000 0.000000 0.000000
# 2 -0.000428 0.008617 -0.002549 0.000000 0.000000 0.000000
# 3 -0.004067 -0.002549 0.016310 0.000000 0.000000 0.000000
# 4 0.000000 0.000000 0.000000 0.033477 0.000000 0.000000
# 5 0.000000 0.000000 0.000000 0.000000 0.046754 0.000000
# 6 0.000000 0.000000 0.000000 0.000000 0.000000 0.048584
#
#
# Mechanical properties :
#
#
# Convention : Reuss Voigt Hill
#
# Bulk Modulus (GPa) = 47.57071 48.96903 48.26987
# Shear Modulus (GPa) = 27.02473 30.33883 28.68178
#
# Velocity S-wave (km/s) = 3.55621 3.76796 3.66361
# Velocity P-wave (km/s) = 6.25489 6.46883 6.36276
#
# Compressibility (1/GPa) = 0.02102134
#
# Stress axis : x y z
#
# Youngs Moduli (GPa) = 98.22249 116.05229 61.31371
#
# Poissons Ratio (x) = 0.04962 0.24934
# Poissons Ratio (y) = 0.04200 0.15628
# Poissons Ratio (z) = 0.39943 0.29579
#
# Static dielectric constant tensor:
#      x y z
#    x 4.551050 0.000000 0.000000 
#    y 0.000000 3.951620 0.000000 
#    z 0.000000 0.000000 3.384620 
# 
# 
# High freq. dielectric constant tensor:
#      x y z
#    x 1.867800 0.000000 0.000000 
#    y 0.000000 1.848760 0.000000 
#    z 0.000000 0.000000 1.780920 
# 
# From -- ./inp_files/12397.got.cif
#   From: 2010.03.12/outbox.cif.g09.slc.cpg/sg62_7_cif.got.tgz:12397.got - 2010.04.10 19:12:36.
