data_PCOD8253467
_publ_section_title
;
Structure prediction by ZEFSAII (Michael W. Deem and Ramdas Pophale) SiO2 
 PCOD8253467
Probable space group: P N M A
;
_chemical_formula_sum "Si O2"
_cell_formula_units_Z 56
_cell_length_a 12.406912
_cell_length_b 14.380906
_cell_length_c 14.360006
_cell_angle_alpha 90.000000
_cell_angle_beta 90.000000
_cell_angle_gamma 90.000000
_cell_volume 2562.150112
_symmetry_space_group_name_H-M "P N M A"
_symmetry_group_IT_number 62
_symmetry_cell_setting 'orthorhombic'
loop_
_space_group_symop_operation_xyz
x,y,z
1/2-x,-y,1/2+z
1/2+x,1/2-y,1/2-z
-x,1/2+y,-z
-x,-y,-z
1/2+x,y,1/2-z
1/2-x,1/2+y,1/2+z
x,1/2-y,z
loop_
_atom_site_type_symbol
_atom_site_label
_atom_site_fract_x
_atom_site_fract_y
_atom_site_fract_z
Si Si1 0.110283 0.949952 0.114752
Si Si2 0.787280 0.648194 0.073094
Si Si3 0.416432 0.354102 0.798992
Si Si4 0.722713 0.597011 0.874352
Si Si5 0.291167 0.644948 0.821911
Si Si6 0.904573 0.458019 0.091319
Si Si7 0.994130 0.526340 0.608424
O O1 0.103943 0.867253 0.189026
O O2 0.229974 0.992823 0.117244
O O3 0.088435 0.911306 0.010971
O O4 0.023905 0.034305 0.136754
O O5 0.838035 0.750000 0.095717
O O6 0.692640 0.626560 0.145324
O O7 0.873474 0.567180 0.083678
O O8 0.740862 0.653576 0.968769
O O9 0.460292 0.250000 0.816437
O O10 0.502305 0.429589 0.834841
O O11 0.785392 0.647421 0.789978
O O12 0.594172 0.589427 0.859486
O O13 0.305704 0.750000 0.859389
O O14 0.175133 0.603404 0.848683
O O15 0.384565 0.581160 0.865629
O O16 0.000000 0.500000 0.500000
#
# Coordination Sequence:
#
# PCOD8253467 Si02
#       7
#     8   8   8   8   8   8   8
#     4  10  21  41  67  92 131 177 220 271 344 402
#     4  10  20  38  65  95 128 173 221 267 334 408
#     4  11  22  39  65  98 131 168 221 273 337 414
#     4  11  22  42  68  94 134 176 220 279 339 404
#     4  12  26  42  66 101 134 176 231 283 340 404
#     4  10  21  42  65  92 134 177 220 280 334 407
#     4  12  23  45  70  96 138 180 226 289 347 408
#
# _framework density 21.856642999999998
#
# number of rings (size 3 to 8) (size 9 to 14) (size 15 to 20)
#    0.000    1.143    4.286    2.143    0.000    2.857 
#    0.000    7.857    0.000    0.000    0.000    0.000 
#    0.000    0.000    0.000    0.000    0.000    0.000 
#
# Total GULP energy -694211.029280 kJ/mol
# GULP energy per Si atom -12396.625523 kJ/mol
# Density = 2.180690 g / cm^3
# Si number density = 21.856643 Si / 1000 Ang^3
#
#
#
# Elastic Constant Matrix: (Units=GPa)
#
#
# Indices 1 2 3 4 5 6 
#
# 1 78.2484 9.6110 20.6300 0.0000 0.0000 0.0000
# 2 9.6110 103.5364 27.0287 0.0000 0.0000 0.0000
# 3 20.6300 27.0287 120.1465 0.0000 0.0000 0.0000
# 4 0.0000 0.0000 0.0000 19.9855 0.0000 0.0000
# 5 0.0000 0.0000 0.0000 0.0000 35.4863 0.0000
# 6 0.0000 0.0000 0.0000 0.0000 0.0000 11.4678
#
#
#
# Elastic Compliance Matrix: (Units=1/GPa)
#
#
# Indices 1 2 3 4 5 6 
#
# 1 0.013431 -0.000685 -0.002152 0.000000 0.000000 0.000000
# 2 -0.000685 0.010296 -0.002199 0.000000 0.000000 0.000000
# 3 -0.002152 -0.002199 0.009187 0.000000 0.000000 0.000000
# 4 0.000000 0.000000 0.000000 0.050036 0.000000 0.000000
# 5 0.000000 0.000000 0.000000 0.000000 0.028180 0.000000
# 6 0.000000 0.000000 0.000000 0.000000 0.000000 0.087200
#
#
# Mechanical properties :
#
#
# Convention : Reuss Voigt Hill
#
# Bulk Modulus (GPa) = 43.77674 46.27451 45.02562
# Shear Modulus (GPa) = 23.14630 29.69869 26.42249
#
# Velocity S-wave (km/s) = 3.25777 3.69018 3.48070
# Velocity P-wave (km/s) = 5.85006 6.27490 6.06620
#
# Compressibility (1/GPa) = 0.02284318
#
# Stress axis : x y z
#
# Youngs Moduli (GPa) = 74.45260 97.12526 108.84558
#
# Poissons Ratio (x) = 0.06653 0.23425
# Poissons Ratio (y) = 0.05100 0.23931
# Poissons Ratio (z) = 0.16023 0.21354
#
# Static dielectric constant tensor:
#      x y z
#    x 3.912290 0.000000 0.000000 
#    y 0.000000 3.742390 0.000000 
#    z 0.000000 0.000000 4.134330 
# 
# 
# High freq. dielectric constant tensor:
#      x y z
#    x 1.856350 0.000000 0.000000 
#    y 0.000000 1.838200 0.000000 
#    z 0.000000 0.000000 1.875930 
# 
# From -- ./inp_files/18110.got.cif
#   From: 2010.03.12/outbox.cif.g09.slc.cpg/sg62_10_cif.got.tgz:18110.got - 2010.04.10 19:12:36.
