data_PCOD8253711
_publ_section_title
;
Structure prediction by ZEFSAII (Michael W. Deem and Ramdas Pophale) SiO2 
 PCOD8253711
Probable space group: P N M A
;
_chemical_formula_sum "Si O2"
_cell_formula_units_Z 56
_cell_length_a 24.258595
_cell_length_b 9.031791
_cell_length_c 13.733107
_cell_angle_alpha 90.000000
_cell_angle_beta 90.000000
_cell_angle_gamma 90.000000
_cell_volume 3008.903968
_symmetry_space_group_name_H-M "P N M A"
_symmetry_group_IT_number 62
_symmetry_cell_setting 'orthorhombic'
loop_
_space_group_symop_operation_xyz
x,y,z
1/2-x,-y,1/2+z
1/2+x,1/2-y,1/2-z
-x,1/2+y,-z
-x,-y,-z
1/2+x,y,1/2-z
1/2-x,1/2+y,1/2+z
x,1/2-y,z
loop_
_atom_site_type_symbol
_atom_site_label
_atom_site_fract_x
_atom_site_fract_y
_atom_site_fract_z
Si Si1 0.825817 0.424267 0.199894
Si Si2 0.954032 0.421309 0.883053
Si Si3 0.157316 0.924005 0.581455
Si Si4 0.941812 0.574249 0.518474
Si Si5 0.063773 0.924661 0.899009
Si Si6 0.110506 0.919907 0.304728
Si Si7 0.775543 0.080939 0.606428
O O1 0.825220 0.250000 0.188647
O O2 0.820053 0.471417 0.312770
O O3 0.882991 0.488089 0.156948
O O4 0.775827 0.482632 0.135775
O O5 0.969864 0.250000 0.885910
O O6 0.905685 0.454593 0.806227
O O7 0.009046 0.507363 0.850921
O O8 0.932239 0.474555 0.988101
O O9 0.142918 0.750000 0.576533
O O10 0.203688 0.964360 0.501532
O O11 0.101577 0.013907 0.560754
O O12 0.946483 0.750000 0.509293
O O13 0.922856 0.530350 0.626472
O O14 0.000000 0.500000 0.500000
O O15 0.059993 0.750000 0.887566
O O16 0.096354 0.750000 0.333954
O O17 0.175640 0.947191 0.315980
O O18 0.756148 0.250000 0.607850
#
# Coordination Sequence:
#
# PCOD8253711 Si02
#       7
#     8   8   8   8   8   8   8
#     4  10  21  36  57  81 109 144 184 229 276 324
#     4   9  18  34  55  77 107 142 178 222 271 328
#     4   9  20  39  56  77 111 146 180 228 276 322
#     4  11  22  35  54  81 110 142 178 223 274 334
#     4   9  19  34  51  78 110 140 177 226 278 325
#     4   9  19  36  55  77 107 145 183 225 275 328
#     4   9  19  36  55  76 108 143 180 224 272 323
#
# _framework density 18.611429000000001
#
# number of rings (size 3 to 8) (size 9 to 14) (size 15 to 20)
#    0.000    2.571    0.000    2.143    2.000    5.143 
#    0.000    1.429    0.000    0.000    0.000    0.000 
#    0.000    0.000    0.000    0.000    0.000    0.000 
#
# Total GULP energy -694429.023296 kJ/mol
# GULP energy per Si atom -12400.518273 kJ/mol
# Density = 1.856907 g / cm^3
# Si number density = 18.611429 Si / 1000 Ang^3
#
#
#
# Elastic Constant Matrix: (Units=GPa)
#
#
# Indices 1 2 3 4 5 6 
#
# 1 122.2417 39.0363 70.7738 0.0000 0.0000 0.0000
# 2 39.0363 57.1567 31.6289 0.0000 0.0000 0.0000
# 3 70.7738 31.6289 111.1380 0.0000 0.0000 0.0000
# 4 0.0000 0.0000 0.0000 24.8899 0.0000 0.0000
# 5 0.0000 0.0000 0.0000 0.0000 28.6935 0.0000
# 6 0.0000 0.0000 0.0000 0.0000 0.0000 35.3293
#
#
#
# Elastic Compliance Matrix: (Units=1/GPa)
#
#
# Indices 1 2 3 4 5 6 
#
# 1 0.014335 -0.005625 -0.007528 0.000000 0.000000 0.000000
# 2 -0.005625 0.022973 -0.002956 0.000000 0.000000 0.000000
# 3 -0.007528 -0.002956 0.014633 0.000000 0.000000 0.000000
# 4 0.000000 0.000000 0.000000 0.040177 0.000000 0.000000
# 5 0.000000 0.000000 0.000000 0.000000 0.034851 0.000000
# 6 0.000000 0.000000 0.000000 0.000000 0.000000 0.028305
#
#
# Mechanical properties :
#
#
# Convention : Reuss Voigt Hill
#
# Bulk Modulus (GPa) = 50.70058 63.71273 57.20665
# Shear Modulus (GPa) = 25.76436 27.72238 26.74337
#
# Velocity S-wave (km/s) = 3.72470 3.86364 3.79480
# Velocity P-wave (km/s) = 6.76746 7.36281 7.07141
#
# Compressibility (1/GPa) = 0.01972364
#
# Stress axis : x y z
#
# Youngs Moduli (GPa) = 69.75848 43.52923 68.33848
#
# Poissons Ratio (x) = 0.24484 0.51446
# Poissons Ratio (y) = 0.39237 0.20201
# Poissons Ratio (z) = 0.52515 0.12868
#
# Static dielectric constant tensor:
#      x y z
#    x 3.392290 0.000000 0.000000 
#    y 0.000000 3.441050 0.000000 
#    z 0.000000 0.000000 3.625560 
# 
# 
# High freq. dielectric constant tensor:
#      x y z
#    x 1.719800 0.000000 0.000000 
#    y 0.000000 1.712140 0.000000 
#    z 0.000000 0.000000 1.726740 
# 
# From -- ./inp_files/20280.got.cif
#   From: 2010.03.12/outbox.cif.g09.slc.cpg/sg62_11_cif.got.tgz:20280.got - 2010.04.10 19:12:36.
