data_PCOD8253896
_publ_section_title
;
Structure prediction by ZEFSAII (Michael W. Deem and Ramdas Pophale) SiO2 
 PCOD8253896
Probable space group: P N M A
;
_chemical_formula_sum "Si O2"
_cell_formula_units_Z 48
_cell_length_a 20.776351
_cell_length_b 18.323156
_cell_length_c 5.455632
_cell_angle_alpha 90.000000
_cell_angle_beta 90.000000
_cell_angle_gamma 90.000000
_cell_volume 2076.895383
_symmetry_space_group_name_H-M "P N M A"
_symmetry_group_IT_number 62
_symmetry_cell_setting 'orthorhombic'
loop_
_space_group_symop_operation_xyz
x,y,z
1/2-x,-y,1/2+z
1/2+x,1/2-y,1/2-z
-x,1/2+y,-z
-x,-y,-z
1/2+x,y,1/2-z
1/2-x,1/2+y,1/2+z
x,1/2-y,z
loop_
_atom_site_type_symbol
_atom_site_label
_atom_site_fract_x
_atom_site_fract_y
_atom_site_fract_z
Si Si1 0.677046 0.067451 0.269548
Si Si2 0.027492 0.665137 0.256172
Si Si3 0.736126 0.330720 0.649340
Si Si4 0.302371 0.426076 0.489085
Si Si5 0.094601 0.837302 0.756782
Si Si6 0.606351 0.331016 0.954556
O O1 0.716415 0.130652 0.402568
O O2 0.731022 0.042022 0.072026
O O3 0.612939 0.105197 0.158513
O O4 0.656357 0.997922 0.432759
O O5 0.040024 0.750000 0.250583
O O6 0.951315 0.646822 0.271420
O O7 0.060703 0.635205 0.506458
O O8 0.055134 0.634604 0.998918
O O9 0.761049 0.250000 0.584220
O O10 0.795485 0.370676 0.782732
O O11 0.673646 0.327391 0.819208
O O12 0.337926 0.381575 0.271322
O O13 0.105149 0.750000 0.758793
O O14 0.591230 0.250000 0.069937
#
# Coordination Sequence:
#
# PCOD8253896 Si02
#       6
#     8   8   8   8   8   8
#     4  11  22  38  60  87 121 164 200 256 319 369
#     4   9  20  39  63  91 122 161 209 263 313 361
#     4  10  21  37  62  89 116 155 207 259 307 367
#     4  11  23  39  58  87 125 163 205 250 319 379
#     4  10  22  39  63  91 123 165 209 256 311 375
#     4   9  20  38  62  90 117 153 209 261 308 368
#
# _framework density 23.111418
#
# number of rings (size 3 to 8) (size 9 to 14) (size 15 to 20)
#    0.000    2.000    1.667    1.000    4.667    2.000 
#    0.000    1.667    0.000    0.000    0.000    0.000 
#    0.000    0.000    0.000    0.000    0.000    0.000 
#
# Total GULP energy -594883.527539 kJ/mol
# GULP energy per Si atom -12393.406824 kJ/mol
# Density = 2.305882 g / cm^3
# Si number density = 23.111418 Si / 1000 Ang^3
#
#
#
# Elastic Constant Matrix: (Units=GPa)
#
#
# Indices 1 2 3 4 5 6 
#
# 1 31.4787 4.9193 0.2712 0.0000 0.0000 0.0000
# 2 4.9193 90.2996 1.3382 0.0000 0.0000 0.0000
# 3 0.2712 1.3382 76.0664 0.0000 0.0000 0.0000
# 4 0.0000 0.0000 0.0000 20.5600 0.0000 0.0000
# 5 0.0000 0.0000 0.0000 0.0000 21.5532 0.0000
# 6 0.0000 0.0000 0.0000 0.0000 0.0000 18.7932
#
#
#
# Elastic Compliance Matrix: (Units=1/GPa)
#
#
# Indices 1 2 3 4 5 6 
#
# 1 0.032041 -0.001744 -0.000084 0.000000 0.000000 0.000000
# 2 -0.001744 0.011172 -0.000190 0.000000 0.000000 0.000000
# 3 -0.000084 -0.000190 0.013150 0.000000 0.000000 0.000000
# 4 0.000000 0.000000 0.000000 0.048638 0.000000 0.000000
# 5 0.000000 0.000000 0.000000 0.000000 0.046397 0.000000
# 6 0.000000 0.000000 0.000000 0.000000 0.000000 0.053211
#
#
# Mechanical properties :
#
#
# Convention : Reuss Voigt Hill
#
# Bulk Modulus (GPa) = 19.11071 23.43357 21.27214
# Shear Modulus (GPa) = 22.11534 24.93566 23.52550
#
# Velocity S-wave (km/s) = 3.09674 3.28827 3.19394
# Velocity P-wave (km/s) = 4.59056 4.95766 4.77764
#
# Compressibility (1/GPa) = 0.05232669
#
# Stress axis : x y z
#
# Youngs Moduli (GPa) = 31.21016 89.50878 76.04528
#
# Poissons Ratio (x) = 0.15613 0.00635
# Poissons Ratio (y) = 0.05444 0.01447
# Poissons Ratio (z) = 0.00261 0.01704
#
# Static dielectric constant tensor:
#      x y z
#    x 4.031190 0.000000 0.000000 
#    y 0.000000 4.128650 0.000000 
#    z 0.000000 0.000000 4.360010 
# 
# 
# High freq. dielectric constant tensor:
#      x y z
#    x 1.898540 0.000000 0.000000 
#    y 0.000000 1.896720 0.000000 
#    z 0.000000 0.000000 1.911350 
# 
# From -- ./inp_files/2206.got.cif
#   From: 2010.03.12/outbox.cif.g09.slc.cpg/sg62_2_cif.got.tgz:2206.got - 2010.04.10 19:12:36.
