data_PCOD8253592
_publ_section_title
;
Structure prediction by ZEFSAII (Michael W. Deem and Ramdas Pophale) SiO2 
 PCOD8253592
Probable space group: P N M A
;
_chemical_formula_sum "Si O2"
_cell_formula_units_Z 32
_cell_length_a 20.186282
_cell_length_b 14.272563
_cell_length_c 5.130824
_cell_angle_alpha 90.000000
_cell_angle_beta 90.000000
_cell_angle_gamma 90.000000
_cell_volume 1478.241608
_symmetry_space_group_name_H-M "P N M A"
_symmetry_group_IT_number 62
_symmetry_cell_setting 'orthorhombic'
loop_
_space_group_symop_operation_xyz
x,y,z
1/2-x,-y,1/2+z
1/2+x,1/2-y,1/2-z
-x,1/2+y,-z
-x,-y,-z
1/2+x,y,1/2-z
1/2-x,1/2+y,1/2+z
x,1/2-y,z
loop_
_atom_site_type_symbol
_atom_site_label
_atom_site_fract_x
_atom_site_fract_y
_atom_site_fract_z
Si Si1 0.702886 0.903537 0.560281
Si Si2 0.073529 0.250000 0.134086
Si Si3 0.013096 0.750000 0.366044
Si Si4 0.373559 0.392751 0.926335
Si Si5 0.837443 0.577572 0.790431
O O1 0.676282 0.852914 0.298224
O O2 0.779169 0.877226 0.613967
O O3 0.697271 0.017546 0.524890
O O4 0.656736 0.868536 0.794688
O O5 0.117530 0.157927 0.088486
O O6 0.046202 0.250000 0.427127
O O7 0.015020 0.250000 0.925522
O O8 0.055585 0.656142 0.405047
O O9 0.381970 0.505167 0.882549
#
# Coordination Sequence:
#
# PCOD8253592 Si02
#       5
#     8   4   4   8   8
#     4  10  20  41  69  98 121 161 212 267 347 376
#     4  12  30  40  66  94 136 172 224 264 314 380
#     4  12  28  46  56 100 132 184 230 248 306 390
#     4  10  22  41  69  89 133 168 216 266 313 391
#     4  10  23  43  68 101 129 162 213 275 336 383
#
# _framework density 21.647342999999999
#
# number of rings (size 3 to 8) (size 9 to 14) (size 15 to 20)
#    1.500    0.000    2.500    1.500    3.500    4.000 
#    0.000    0.000    0.000    0.000    0.000    0.000 
#    0.000    0.000    0.000    0.000    0.000    0.000 
#
# Total GULP energy -396653.934643 kJ/mol
# GULP energy per Si atom -12395.435458 kJ/mol
# Density = 2.159807 g / cm^3
# Si number density = 21.647343 Si / 1000 Ang^3
#
#
#
# Elastic Constant Matrix: (Units=GPa)
#
#
# Indices 1 2 3 4 5 6 
#
# 1 94.8012 32.3936 16.5093 0.0000 0.0000 0.0000
# 2 32.3936 71.4959 -1.4335 0.0000 0.0000 0.0000
# 3 16.5093 -1.4335 110.2768 0.0000 0.0000 0.0000
# 4 0.0000 0.0000 0.0000 15.7564 0.0000 0.0000
# 5 0.0000 0.0000 0.0000 0.0000 38.1630 0.0000
# 6 0.0000 0.0000 0.0000 0.0000 0.0000 86.7347
#
#
#
# Elastic Compliance Matrix: (Units=1/GPa)
#
#
# Indices 1 2 3 4 5 6 
#
# 1 0.012911 -0.005890 -0.002009 0.000000 0.000000 0.000000
# 2 -0.005890 0.016678 0.001099 0.000000 0.000000 0.000000
# 3 -0.002009 0.001099 0.009383 0.000000 0.000000 0.000000
# 4 0.000000 0.000000 0.000000 0.063466 0.000000 0.000000
# 5 0.000000 0.000000 0.000000 0.000000 0.026203 0.000000
# 6 0.000000 0.000000 0.000000 0.000000 0.000000 0.011529
#
#
# Mechanical properties :
#
#
# Convention : Reuss Voigt Hill
#
# Bulk Modulus (GPa) = 39.41679 41.27919 40.34799
# Shear Modulus (GPa) = 30.82058 43.40443 37.11250
#
# Velocity S-wave (km/s) = 3.77737 4.48266 4.14504
# Velocity P-wave (km/s) = 6.10514 6.77515 6.44885
#
# Compressibility (1/GPa) = 0.02536990
#
# Stress axis : x y z
#
# Youngs Moduli (GPa) = 77.45366 59.96099 106.57341
#
# Poissons Ratio (x) = 0.35317 0.21415
# Poissons Ratio (y) = 0.45620 -0.11708
# Poissons Ratio (z) = 0.15564 -0.06587
#
# Static dielectric constant tensor:
#      x y z
#    x 3.582010 0.000000 0.000000 
#    y 0.000000 3.663410 0.000000 
#    z 0.000000 0.000000 3.819040 
# 
# 
# High freq. dielectric constant tensor:
#      x y z
#    x 1.838580 0.000000 0.000000 
#    y 0.000000 1.833870 0.000000 
#    z 0.000000 0.000000 1.855990 
# 
# From -- ./inp_files/1540.got.cif
#   From: 2010.03.12/outbox.cif.g09.slc.cpg/sg62_1_cif.got.tgz:1540.got - 2010.04.10 19:12:36.
