data_PCOD8253244
_publ_section_title
;
Structure prediction by ZEFSAII (Michael W. Deem and Ramdas Pophale) SiO2 
 PCOD8253244
Probable space group: P N M A
;
_chemical_formula_sum "Si O2"
_cell_formula_units_Z 48
_cell_length_a 28.717302
_cell_length_b 8.943965
_cell_length_c 9.296403
_cell_angle_alpha 90.000000
_cell_angle_beta 90.000000
_cell_angle_gamma 90.000000
_cell_volume 2387.748982
_symmetry_space_group_name_H-M "P N M A"
_symmetry_group_IT_number 62
_symmetry_cell_setting 'orthorhombic'
loop_
_space_group_symop_operation_xyz
x,y,z
1/2-x,-y,1/2+z
1/2+x,1/2-y,1/2-z
-x,1/2+y,-z
-x,-y,-z
1/2+x,y,1/2-z
1/2-x,1/2+y,1/2+z
x,1/2-y,z
loop_
_atom_site_type_symbol
_atom_site_label
_atom_site_fract_x
_atom_site_fract_y
_atom_site_fract_z
Si Si1 0.803509 0.074832 0.979499
Si Si2 0.118317 0.072909 0.194883
Si Si3 0.282672 0.574531 0.219783
Si Si4 0.537024 0.417262 0.906065
Si Si5 0.636444 0.426748 0.984686
Si Si6 0.522129 0.580544 0.366822
O O1 0.811952 0.250000 0.999177
O O2 0.784921 0.010538 0.129503
O O3 0.766660 0.041130 0.853823
O O4 0.851777 0.996817 0.934643
O O5 0.115930 0.250000 0.173818
O O6 0.141311 0.027339 0.347855
O O7 0.066282 0.008793 0.192879
O O8 0.289926 0.750000 0.248153
O O9 0.321655 0.507650 0.110985
O O10 0.540416 0.250000 0.967945
O O11 0.588019 0.491826 0.920742
O O12 0.520621 0.419950 0.743180
O O13 0.500000 0.500000 0.000000
O O14 0.638137 0.250000 0.970139
O O15 0.500000 0.500000 0.500000
O O16 0.537400 0.750000 0.403220
#
# Coordination Sequence:
#
# PCOD8253244 Si02
#       6
#     8   8   8   8   8   8
#     4  11  24  41  62  93 127 156 200 255 302 361
#     4  11  22  40  65  88 119 165 206 250 308 366
#     4  10  22  41  65  90 121 160 201 248 304 367
#     4  10  20  37  60  87 120 158 203 248 294 353
#     4   9  19  37  62  89 116 156 205 247 297 363
#     4  11  24  39  59  90 126 163 206 257 307 362
#
# _framework density 20.102615
#
# number of rings (size 3 to 8) (size 9 to 14) (size 15 to 20)
#    0.000    1.667    1.667    2.500    2.333    3.333 
#    0.000    2.500    0.000    0.000    0.000    0.000 
#    0.000    0.000    0.000    0.000    0.000    0.000 
#
# Total GULP energy -595243.013361 kJ/mol
# GULP energy per Si atom -12400.896112 kJ/mol
# Density = 2.005686 g / cm^3
# Si number density = 20.102615 Si / 1000 Ang^3
#
#
#
# Elastic Constant Matrix: (Units=GPa)
#
#
# Indices 1 2 3 4 5 6 
#
# 1 82.3518 32.0326 21.9064 0.0000 0.0000 0.0000
# 2 32.0326 90.9592 49.9985 0.0000 0.0000 0.0000
# 3 21.9064 49.9985 109.3391 0.0000 0.0000 0.0000
# 4 0.0000 0.0000 0.0000 31.9965 0.0000 0.0000
# 5 0.0000 0.0000 0.0000 0.0000 42.0330 0.0000
# 6 0.0000 0.0000 0.0000 0.0000 0.0000 29.0428
#
#
#
# Elastic Compliance Matrix: (Units=1/GPa)
#
#
# Indices 1 2 3 4 5 6 
#
# 1 0.014115 -0.004563 -0.000741 0.000000 0.000000 0.000000
# 2 -0.004563 0.016161 -0.006476 0.000000 0.000000 0.000000
# 3 -0.000741 -0.006476 0.012256 0.000000 0.000000 0.000000
# 4 0.000000 0.000000 0.000000 0.031253 0.000000 0.000000
# 5 0.000000 0.000000 0.000000 0.000000 0.023791 0.000000
# 6 0.000000 0.000000 0.000000 0.000000 0.000000 0.034432
#
#
# Mechanical properties :
#
#
# Convention : Reuss Voigt Hill
#
# Bulk Modulus (GPa) = 52.71272 54.50278 53.60775
# Shear Modulus (GPa) = 30.88486 32.52863 31.70675
#
# Velocity S-wave (km/s) = 3.92390 4.02696 3.97576
# Velocity P-wave (km/s) = 6.84164 6.98520 6.91379
#
# Compressibility (1/GPa) = 0.01897075
#
# Stress axis : x y z
#
# Youngs Moduli (GPa) = 70.84528 61.87927 81.59592
#
# Poissons Ratio (x) = 0.28238 0.06049
# Poissons Ratio (y) = 0.32330 0.52838
# Poissons Ratio (z) = 0.05252 0.40070
#
# Static dielectric constant tensor:
#      x y z
#    x 3.539350 0.000000 0.000000 
#    y 0.000000 3.545240 0.000000 
#    z 0.000000 0.000000 3.850880 
# 
# 
# High freq. dielectric constant tensor:
#      x y z
#    x 1.798170 0.000000 0.000000 
#    y 0.000000 1.770760 0.000000 
#    z 0.000000 0.000000 1.793490 
# 
# From -- ./inp_files/10220.got.cif
#   From: 2010.03.12/outbox.cif.g09.slc.cpg/sg62_6_cif.got.tgz:10220.got - 2010.04.10 19:12:36.
