data_PCOD8253970
_publ_section_title
;
Structure prediction by ZEFSAII (Michael W. Deem and Ramdas Pophale) SiO2 
 PCOD8253970
Probable space group: P N M A
;
_chemical_formula_sum "Si O2"
_cell_formula_units_Z 40
_cell_length_a 13.122473
_cell_length_b 13.579800
_cell_length_c 11.525959
_cell_angle_alpha 90.000000
_cell_angle_beta 90.000000
_cell_angle_gamma 90.000000
_cell_volume 2053.932335
_symmetry_space_group_name_H-M "P N M A"
_symmetry_group_IT_number 62
_symmetry_cell_setting 'orthorhombic'
loop_
_space_group_symop_operation_xyz
x,y,z
1/2-x,-y,1/2+z
1/2+x,1/2-y,1/2-z
-x,1/2+y,-z
-x,-y,-z
1/2+x,y,1/2-z
1/2-x,1/2+y,1/2+z
x,1/2-y,z
loop_
_atom_site_type_symbol
_atom_site_label
_atom_site_fract_x
_atom_site_fract_y
_atom_site_fract_z
Si Si1 0.387928 0.484845 0.768696
Si Si2 0.765712 0.141482 0.160003
Si Si3 0.255137 0.360313 0.594731
Si Si4 0.035246 0.636864 0.703408
Si Si5 0.521558 0.133892 0.944082
O O1 0.315550 0.555163 0.843385
O O2 0.321671 0.432462 0.671888
O O3 0.470209 0.562393 0.714602
O O4 0.443489 0.405075 0.848288
O O5 0.714442 0.250000 0.179591
O O6 0.848006 0.124029 0.260365
O O7 0.811424 0.140747 0.030165
O O8 0.256007 0.250000 0.648249
O O9 0.137851 0.397903 0.584317
O O10 0.000695 0.750000 0.719824
O O11 0.015957 0.597226 0.571551
O O12 0.512570 0.250000 0.943164
#
# Coordination Sequence:
#
# PCOD8253970 Si02
#       5
#     8   8   8   8   8
#     4  12  21  33  62  88 115 150 199 237 282 351
#     4  10  22  38  58  85 120 154 190 239 297 342
#     4  10  22  40  58  83 120 156 186 238 299 345
#     4  10  21  38  60  85 114 151 195 243 290 344
#     4  10  21  39  61  85 116 154 195 240 292 345
#
# _framework density 19.474837999999998
#
# number of rings (size 3 to 8) (size 9 to 14) (size 15 to 20)
#    0.000    1.600    2.000    3.000    2.800    0.800 
#    0.000    0.000    0.000    0.000    0.000    0.000 
#    0.000    0.000    0.000    0.000    0.000    0.000 
#
# Total GULP energy -495639.785517 kJ/mol
# GULP energy per Si atom -12390.994638 kJ/mol
# Density = 1.943051 g / cm^3
# Si number density = 19.474838 Si / 1000 Ang^3
#
#
#
# Elastic Constant Matrix: (Units=GPa)
#
#
# Indices 1 2 3 4 5 6 
#
# 1 89.9080 23.4797 44.0473 0.0000 0.0000 0.0000
# 2 23.4797 23.6151 18.0112 0.0000 0.0000 0.0000
# 3 44.0473 18.0112 70.0140 0.0000 0.0000 0.0000
# 4 0.0000 0.0000 0.0000 30.3621 0.0000 0.0000
# 5 0.0000 0.0000 0.0000 0.0000 37.3626 0.0000
# 6 0.0000 0.0000 0.0000 0.0000 0.0000 78.9688
#
#
#
# Elastic Compliance Matrix: (Units=1/GPa)
#
#
# Indices 1 2 3 4 5 6 
#
# 1 0.018375 -0.011760 -0.008535 0.000000 0.000000 0.000000
# 2 -0.011760 0.060209 -0.008090 0.000000 0.000000 0.000000
# 3 -0.008535 -0.008090 0.021734 0.000000 0.000000 0.000000
# 4 0.000000 0.000000 0.000000 0.032936 0.000000 0.000000
# 5 0.000000 0.000000 0.000000 0.000000 0.026765 0.000000
# 6 0.000000 0.000000 0.000000 0.000000 0.000000 0.012663
#
#
# Mechanical properties :
#
#
# Convention : Reuss Voigt Hill
#
# Bulk Modulus (GPa) = 22.96372 39.40151 31.18261
# Shear Modulus (GPa) = 20.49454 35.87195 28.18325
#
# Velocity S-wave (km/s) = 3.24753 4.29647 3.80829
# Velocity P-wave (km/s) = 5.08714 6.69991 5.94844
#
# Compressibility (1/GPa) = 0.04354696
#
# Stress axis : x y z
#
# Youngs Moduli (GPa) = 54.42166 16.60884 46.01185
#
# Poissons Ratio (x) = 0.19532 0.39270
# Poissons Ratio (y) = 0.64001 0.37225
# Poissons Ratio (z) = 0.46448 0.13437
#
# Static dielectric constant tensor:
#      x y z
#    x 3.583850 0.000000 0.000000 
#    y 0.000000 3.581720 0.000000 
#    z 0.000000 0.000000 3.364590 
# 
# 
# High freq. dielectric constant tensor:
#      x y z
#    x 1.757030 0.000000 0.000000 
#    y 0.000000 1.784800 0.000000 
#    z 0.000000 0.000000 1.731980 
# 
# From -- ./inp_files/12032.got.cif
#   From: 2010.03.12/outbox.cif.g09.slc.cpg/sg62_7_cif.got.tgz:12032.got - 2010.04.10 19:12:36.
