data_PCOD8253194
_publ_section_title
;
Structure prediction by ZEFSAII (Michael W. Deem and Ramdas Pophale) SiO2 
 PCOD8253194
Probable space group: P N M A
;
_chemical_formula_sum "Si O2"
_cell_formula_units_Z 48
_cell_length_a 9.309486
_cell_length_b 16.774562
_cell_length_c 15.283981
_cell_angle_alpha 90.000000
_cell_angle_beta 90.000000
_cell_angle_gamma 90.000000
_cell_volume 2386.785449
_symmetry_space_group_name_H-M "P N M A"
_symmetry_group_IT_number 62
_symmetry_cell_setting 'orthorhombic'
loop_
_space_group_symop_operation_xyz
x,y,z
1/2-x,-y,1/2+z
1/2+x,1/2-y,1/2-z
-x,1/2+y,-z
-x,-y,-z
1/2+x,y,1/2-z
1/2-x,1/2+y,1/2+z
x,1/2-y,z
loop_
_atom_site_type_symbol
_atom_site_label
_atom_site_fract_x
_atom_site_fract_y
_atom_site_fract_z
Si Si1 0.668341 0.843134 0.520241
Si Si2 0.372561 0.340783 0.677285
Si Si3 0.853850 0.406237 0.331505
Si Si4 0.926366 0.591512 0.314974
Si Si5 0.023751 0.407460 0.495132
Si Si6 0.461429 0.842824 0.674719
O O1 0.704057 0.750000 0.529392
O O2 0.606588 0.863403 0.424382
O O3 0.815226 0.890240 0.539059
O O4 0.549216 0.870956 0.589391
O O5 0.417824 0.250000 0.696099
O O6 0.466585 0.400891 0.734354
O O7 0.208857 0.353032 0.705679
O O8 0.880649 0.500093 0.324139
O O9 0.685152 0.392148 0.320617
O O10 0.908731 0.372408 0.425776
O O11 0.941314 0.358776 0.258665
O O12 0.997054 0.625181 0.405710
O O13 0.000000 0.500000 0.500000
O O14 0.422693 0.750000 0.669721
#
# Coordination Sequence:
#
# PCOD8253194 Si02
#       6
#     8   8   8   8   8   8
#     4   9  20  38  59  82 114 151 189 234 285 334
#     4  10  20  37  59  84 113 147 185 229 279 335
#     4  11  22  38  58  84 115 150 190 235 284 341
#     4  10  21  38  57  83 114 149 186 229 282 335
#     4   9  20  38  58  82 114 150 188 228 281 340
#     4  11  23  39  59  85 114 151 193 237 286 339
#
# _framework density 20.11073
#
# number of rings (size 3 to 8) (size 9 to 14) (size 15 to 20)
#    0.000    2.000    0.000    3.000    0.000    6.000 
#    0.000   15.000    0.000    0.000    0.000    0.000 
#    0.000    0.000    0.000    0.000    0.000    0.000 
#
# Total GULP energy -595196.738112 kJ/mol
# GULP energy per Si atom -12399.932044 kJ/mol
# Density = 2.006496 g / cm^3
# Si number density = 20.110730 Si / 1000 Ang^3
#
#
#
# Elastic Constant Matrix: (Units=GPa)
#
#
# Indices 1 2 3 4 5 6 
#
# 1 126.6439 36.9256 73.8012 0.0000 0.0000 0.0000
# 2 36.9256 57.9487 29.5491 0.0000 0.0000 0.0000
# 3 73.8012 29.5491 121.3229 0.0000 0.0000 0.0000
# 4 0.0000 0.0000 0.0000 25.5917 0.0000 0.0000
# 5 0.0000 0.0000 0.0000 0.0000 41.9255 0.0000
# 6 0.0000 0.0000 0.0000 0.0000 0.0000 38.5434
#
#
#
# Elastic Compliance Matrix: (Units=1/GPa)
#
#
# Indices 1 2 3 4 5 6 
#
# 1 0.013392 -0.005000 -0.006928 0.000000 0.000000 0.000000
# 2 -0.005000 0.021571 -0.002212 0.000000 0.000000 0.000000
# 3 -0.006928 -0.002212 0.012996 0.000000 0.000000 0.000000
# 4 0.000000 0.000000 0.000000 0.039075 0.000000 0.000000
# 5 0.000000 0.000000 0.000000 0.000000 0.023852 0.000000
# 6 0.000000 0.000000 0.000000 0.000000 0.000000 0.025945
#
#
# Mechanical properties :
#
#
# Convention : Reuss Voigt Hill
#
# Bulk Modulus (GPa) = 50.82113 65.16302 57.99208
# Shear Modulus (GPa) = 29.12565 32.25477 30.69021
#
# Velocity S-wave (km/s) = 3.80973 4.00917 3.91072
# Velocity P-wave (km/s) = 6.68413 7.34191 7.02073
#
# Compressibility (1/GPa) = 0.01967686
#
# Stress axis : x y z
#
# Youngs Moduli (GPa) = 74.67410 46.35877 76.94858
#
# Poissons Ratio (x) = 0.23181 0.53312
# Poissons Ratio (y) = 0.37340 0.17021
# Poissons Ratio (z) = 0.51736 0.10255
#
# Static dielectric constant tensor:
#      x y z
#    x 3.651590 0.000000 0.000000 
#    y 0.000000 3.586570 0.000000 
#    z 0.000000 0.000000 4.375840 
# 
# 
# High freq. dielectric constant tensor:
#      x y z
#    x 1.780680 0.000000 0.000000 
#    y 0.000000 1.779440 0.000000 
#    z 0.000000 0.000000 1.801460 
# 
# From -- ./inp_files/16919.got.cif
#   From: 2010.03.12/outbox.cif.g09.slc.cpg/sg62_9_cif.got.tgz:16919.got - 2010.04.10 19:12:36.
