data_PCOD8253072
_publ_section_title
;
Structure prediction by ZEFSAII (Michael W. Deem and Ramdas Pophale) SiO2 
 PCOD8253072
Probable space group: P N M A
;
_chemical_formula_sum "Si O2"
_cell_formula_units_Z 64
_cell_length_a 24.024149
_cell_length_b 8.878427
_cell_length_c 14.662750
_cell_angle_alpha 90.000000
_cell_angle_beta 90.000000
_cell_angle_gamma 90.000000
_cell_volume 3127.515501
_symmetry_space_group_name_H-M "P N M A"
_symmetry_group_IT_number 62
_symmetry_cell_setting 'orthorhombic'
loop_
_space_group_symop_operation_xyz
x,y,z
1/2-x,-y,1/2+z
1/2+x,1/2-y,1/2-z
-x,1/2+y,-z
-x,-y,-z
1/2+x,y,1/2-z
1/2-x,1/2+y,1/2+z
x,1/2-y,z
loop_
_atom_site_type_symbol
_atom_site_label
_atom_site_fract_x
_atom_site_fract_y
_atom_site_fract_z
Si Si1 0.437151 0.075898 0.258509
Si Si2 0.383541 0.429232 0.905467
Si Si3 0.122651 0.071977 0.600860
Si Si4 0.152632 0.928904 0.109090
Si Si5 0.847803 0.426552 0.097673
Si Si6 0.761013 0.083619 0.604139
Si Si7 0.735505 0.580455 0.887242
Si Si8 0.064606 0.424129 0.238588
O O1 0.423613 0.250000 0.235299
O O2 0.398715 0.014801 0.341084
O O3 0.500556 0.056870 0.289917
O O4 0.426238 0.974159 0.169911
O O5 0.391093 0.250000 0.912373
O O6 0.322298 0.470066 0.864177
O O7 0.428156 0.502349 0.838056
O O8 0.392624 0.499212 0.004412
O O9 0.126636 0.250000 0.589381
O O10 0.180350 0.009015 0.643012
O O11 0.155757 0.750000 0.116072
O O12 0.209776 0.996160 0.151058
O O13 0.100157 0.987526 0.164404
O O14 0.144733 0.987263 0.005267
O O15 0.846836 0.250000 0.095314
O O16 0.788582 0.478411 0.140621
O O17 0.748545 0.250000 0.641486
O O18 0.762517 0.082433 0.495517
O O19 0.733088 0.750000 0.847694
O O20 0.082541 0.250000 0.241359
#
# Coordination Sequence:
#
# PCOD8253072 Si02
#       8
#     8   8   8   8   8   8   8   8
#     4  10  23  42  58  78 112 153 198 240 282 339
#     4  10  21  39  61  84 115 151 186 232 288 343
#     4  11  22  37  60  89 117 147 187 234 288 346
#     4  10  20  36  59  87 117 148 187 237 290 342
#     4   9  19  36  59  84 112 148 186 229 279 333
#     4   8  16  31  54  84 113 141 176 222 277 337
#     4   9  17  33  57  85 117 151 186 226 280 343
#     4  11  24  40  58  81 111 151 198 242 284 339
#
# _framework density 20.463528
#
# number of rings (size 3 to 8) (size 9 to 14) (size 15 to 20)
#    0.000    2.250    0.000    3.375    0.000    7.500 
#    0.000    2.500    0.000    0.000    0.000    0.000 
#    0.000    0.000    0.000    0.000    0.000    0.000 
#
# Total GULP energy -793665.847678 kJ/mol
# GULP energy per Si atom -12401.028870 kJ/mol
# Density = 2.041695 g / cm^3
# Si number density = 20.463528 Si / 1000 Ang^3
#
#
#
# Elastic Constant Matrix: (Units=GPa)
#
#
# Indices 1 2 3 4 5 6 
#
# 1 75.2474 16.7184 11.6154 0.0000 0.0000 0.0000
# 2 16.7184 79.6327 18.3610 0.0000 0.0000 0.0000
# 3 11.6154 18.3610 44.6909 0.0000 0.0000 0.0000
# 4 0.0000 0.0000 0.0000 26.3174 0.0000 0.0000
# 5 0.0000 0.0000 0.0000 0.0000 33.6033 0.0000
# 6 0.0000 0.0000 0.0000 0.0000 0.0000 34.5721
#
#
#
# Elastic Compliance Matrix: (Units=1/GPa)
#
#
# Indices 1 2 3 4 5 6 
#
# 1 0.014235 -0.002359 -0.002731 0.000000 0.000000 0.000000
# 2 -0.002359 0.014263 -0.005247 0.000000 0.000000 0.000000
# 3 -0.002731 -0.005247 0.025241 0.000000 0.000000 0.000000
# 4 0.000000 0.000000 0.000000 0.037998 0.000000 0.000000
# 5 0.000000 0.000000 0.000000 0.000000 0.029759 0.000000
# 6 0.000000 0.000000 0.000000 0.000000 0.000000 0.028925
#
#
# Mechanical properties :
#
#
# Convention : Reuss Voigt Hill
#
# Bulk Modulus (GPa) = 30.24210 32.55121 31.39665
# Shear Modulus (GPa) = 27.45514 29.09030 28.27272
#
# Velocity S-wave (km/s) = 3.66684 3.77446 3.72104
# Velocity P-wave (km/s) = 5.72174 5.91074 5.81701
#
# Compressibility (1/GPa) = 0.03306649
#
# Stress axis : x y z
#
# Youngs Moduli (GPa) = 70.24880 70.11329 39.61778
#
# Poissons Ratio (x) = 0.16540 0.10818
# Poissons Ratio (y) = 0.16572 0.20786
# Poissons Ratio (z) = 0.19182 0.36786
#
# Static dielectric constant tensor:
#      x y z
#    x 3.835850 0.000000 0.000000 
#    y 0.000000 3.745560 0.000000 
#    z 0.000000 0.000000 3.669940 
# 
# 
# High freq. dielectric constant tensor:
#      x y z
#    x 1.800390 0.000000 0.000000 
#    y 0.000000 1.800700 0.000000 
#    z 0.000000 0.000000 1.792050 
# 
# From -- ./inp_files/21006.got.cif
#   From: 2010.03.12/outbox.cif.g09.slc.cpg/sg62_11_cif.got.tgz:21006.got - 2010.04.10 19:12:36.
