data_PCOD8253692
_publ_section_title
;
Structure prediction by ZEFSAII (Michael W. Deem and Ramdas Pophale) SiO2 
 PCOD8253692
Probable space group: P N M A
;
_chemical_formula_sum "Si O2"
_cell_formula_units_Z 40
_cell_length_a 28.891558
_cell_length_b 8.917773
_cell_length_c 7.352452
_cell_angle_alpha 90.000000
_cell_angle_beta 90.000000
_cell_angle_gamma 90.000000
_cell_volume 1894.347169
_symmetry_space_group_name_H-M "P N M A"
_symmetry_group_IT_number 62
_symmetry_cell_setting 'orthorhombic'
loop_
_space_group_symop_operation_xyz
x,y,z
1/2-x,-y,1/2+z
1/2+x,1/2-y,1/2-z
-x,1/2+y,-z
-x,-y,-z
1/2+x,y,1/2-z
1/2-x,1/2+y,1/2+z
x,1/2-y,z
loop_
_atom_site_type_symbol
_atom_site_label
_atom_site_fract_x
_atom_site_fract_y
_atom_site_fract_z
Si Si1 0.103308 0.427188 0.138537
Si Si2 0.281893 0.087482 0.303549
Si Si3 0.192895 0.914018 0.217325
Si Si4 0.118340 0.925793 0.754978
Si Si5 0.547446 0.927150 0.060377
O O1 0.098111 0.250000 0.144201
O O2 0.150141 0.474322 0.246038
O O3 0.060776 0.503083 0.244822
O O4 0.102246 0.481071 0.930608
O O5 0.264783 0.250000 0.229489
O O6 0.299664 0.104995 0.505796
O O7 0.328235 0.033818 0.195348
O O8 0.240270 0.970871 0.306615
O O9 0.181330 0.750000 0.302642
O O10 0.114882 0.750000 0.803453
O O11 0.086128 0.970710 0.587709
O O12 0.541646 0.750000 0.080784
O O13 0.500000 0.000000 0.000000
#
# Coordination Sequence:
#
# PCOD8253692 Si02
#       5
#     8   8   8   8   8
#     4  11  23  40  63  91 124 162 204 254 309 369
#     4   9  19  35  54  83 116 153 201 248 298 358
#     4  10  21  36  55  83 119 160 201 245 298 359
#     4   9  21  42  64  88 122 162 205 254 308 363
#     4  11  24  43  67  95 124 161 207 259 313 370
#
# _framework density 21.115454
#
# number of rings (size 3 to 8) (size 9 to 14) (size 15 to 20)
#    0.000    2.000    0.000    4.200    2.800    6.400 
#    0.000    0.000    0.000    0.000    0.000    0.000 
#    0.000    0.000    0.000    0.000    0.000    0.000 
#
# Total GULP energy -495932.077580 kJ/mol
# GULP energy per Si atom -12398.301939 kJ/mol
# Density = 2.106739 g / cm^3
# Si number density = 21.115454 Si / 1000 Ang^3
#
#
#
# Elastic Constant Matrix: (Units=GPa)
#
#
# Indices 1 2 3 4 5 6 
#
# 1 68.1598 28.6621 5.6029 0.0000 0.0000 0.0000
# 2 28.6621 125.3889 28.4137 0.0000 0.0000 0.0000
# 3 5.6029 28.4137 31.9935 0.0000 0.0000 0.0000
# 4 0.0000 0.0000 0.0000 29.2226 0.0000 0.0000
# 5 0.0000 0.0000 0.0000 0.0000 36.6398 0.0000
# 6 0.0000 0.0000 0.0000 0.0000 0.0000 40.1289
#
#
#
# Elastic Compliance Matrix: (Units=1/GPa)
#
#
# Indices 1 2 3 4 5 6 
#
# 1 0.016240 -0.003841 0.000567 0.000000 0.000000 0.000000
# 2 -0.003841 0.010893 -0.009001 0.000000 0.000000 0.000000
# 3 0.000567 -0.009001 0.039151 0.000000 0.000000 0.000000
# 4 0.000000 0.000000 0.000000 0.034220 0.000000 0.000000
# 5 0.000000 0.000000 0.000000 0.000000 0.027293 0.000000
# 6 0.000000 0.000000 0.000000 0.000000 0.000000 0.024920
#
#
# Mechanical properties :
#
#
# Convention : Reuss Voigt Hill
#
# Bulk Modulus (GPa) = 23.96148 38.98887 31.47517
# Shear Modulus (GPa) = 26.15357 32.05581 29.10469
#
# Velocity S-wave (km/s) = 3.52319 3.90053 3.71665
# Velocity P-wave (km/s) = 5.28422 6.22818 5.77552
#
# Compressibility (1/GPa) = 0.04173365
#
# Stress axis : x y z
#
# Youngs Moduli (GPa) = 61.57691 91.80300 25.54185
#
# Poissons Ratio (x) = 0.35258 -0.01448
# Poissons Ratio (y) = 0.23650 0.22991
# Poissons Ratio (z) = -0.03491 0.82636
#
# Static dielectric constant tensor:
#      x y z
#    x 4.325580 0.000000 0.000000 
#    y 0.000000 3.678200 0.000000 
#    z 0.000000 0.000000 3.804280 
# 
# 
# High freq. dielectric constant tensor:
#      x y z
#    x 1.829110 0.000000 0.000000 
#    y 0.000000 1.826970 0.000000 
#    z 0.000000 0.000000 1.826640 
# 
# From -- ./inp_files/9099.got.cif
#   From: 2010.03.12/outbox.cif.g09.slc.cpg/sg62_5_cif.got.tgz:9099.got - 2010.04.10 19:12:36.
