data_PCOD8253446
_publ_section_title
;
Structure prediction by ZEFSAII (Michael W. Deem and Ramdas Pophale) SiO2 
 PCOD8253446
Probable space group: P N M A
;
_chemical_formula_sum "Si O2"
_cell_formula_units_Z 32
_cell_length_a 4.936388
_cell_length_b 7.866344
_cell_length_c 34.218590
_cell_angle_alpha 90.000000
_cell_angle_beta 90.000000
_cell_angle_gamma 90.000000
_cell_volume 1328.753228
_symmetry_space_group_name_H-M "P N M A"
_symmetry_group_IT_number 62
_symmetry_cell_setting 'orthorhombic'
loop_
_space_group_symop_operation_xyz
x,y,z
1/2-x,-y,1/2+z
1/2+x,1/2-y,1/2-z
-x,1/2+y,-z
-x,-y,-z
1/2+x,y,1/2-z
1/2-x,1/2+y,1/2+z
x,1/2-y,z
loop_
_atom_site_type_symbol
_atom_site_label
_atom_site_fract_x
_atom_site_fract_y
_atom_site_fract_z
Si Si1 0.228041 0.750000 0.722416
Si Si2 0.067549 0.440827 0.674059
Si Si3 0.802012 0.750000 0.223493
Si Si4 0.435064 0.441994 0.911975
Si Si5 0.066255 0.059298 0.043175
O O1 0.940324 0.750000 0.743203
O O2 0.253802 0.579656 0.695805
O O3 0.208895 0.250000 0.671090
O O4 0.783404 0.417123 0.698294
O O5 0.003632 0.512740 0.631084
O O6 0.614218 0.750000 0.263299
O O7 0.326755 0.250000 0.909006
O O8 0.700399 0.442581 0.938946
O O9 0.200812 0.555766 0.930319
O O10 0.178424 0.250000 0.041937
O O11 0.000000 0.000000 0.000000
#
# Coordination Sequence:
#
# PCOD8253446 Si02
#       5
#     4   8   4   8   8
#     4  12  26  42  66  98 131 174 227 280 332 396
#     4   9  24  44  67  97 133 179 219 277 335 400
#     4  10  20  38  64  90 125 170 219 266 324 386
#     4  11  24  46  70 101 136 180 226 277 340 408
#     4  12  26  44  71 101 138 178 223 279 335 405
#
# _framework density 24.082725
#
# number of rings (size 3 to 8) (size 9 to 14) (size 15 to 20)
#    0.750    0.500    0.000    5.250    3.500    4.000 
#    0.000    0.000    0.000    0.000    0.000    0.000 
#    0.000    0.000    0.000    0.000    0.000    0.000 
#
# Total GULP energy -396729.864051 kJ/mol
# GULP energy per Si atom -12397.808252 kJ/mol
# Density = 2.402791 g / cm^3
# Si number density = 24.082725 Si / 1000 Ang^3
#
#
#
# Elastic Constant Matrix: (Units=GPa)
#
#
# Indices 1 2 3 4 5 6 
#
# 1 52.7966 6.1032 -18.7465 0.0000 0.0000 0.0000
# 2 6.1032 103.9611 19.0260 0.0000 0.0000 0.0000
# 3 -18.7465 19.0260 61.2620 0.0000 0.0000 0.0000
# 4 0.0000 0.0000 0.0000 1271.3328 0.0000 0.0000
# 5 0.0000 0.0000 0.0000 0.0000 21.5137 0.0000
# 6 0.0000 0.0000 0.0000 0.0000 0.0000 25.2743
#
#
#
# Elastic Compliance Matrix: (Units=1/GPa)
#
#
# Indices 1 2 3 4 5 6 
#
# 1 0.021925 -0.002667 0.007537 0.000000 0.000000 0.000000
# 2 -0.002667 0.010523 -0.004084 0.000000 0.000000 0.000000
# 3 0.007537 -0.004084 0.019898 0.000000 0.000000 0.000000
# 4 0.000000 0.000000 0.000000 0.000787 0.000000 0.000000
# 5 0.000000 0.000000 0.000000 0.000000 0.046482 0.000000
# 6 0.000000 0.000000 0.000000 0.000000 0.000000 0.039566
#
#
# Mechanical properties :
#
#
# Convention : Reuss Voigt Hill
#
# Bulk Modulus (GPa) = 18.54609 25.64280 22.09444
# Shear Modulus (GPa) = 32.13769 277.73331 154.93550
#
# Velocity S-wave (km/s) = 3.65700 10.75058 8.02959
# Velocity P-wave (km/s) = 5.05463 12.83632 9.75501
#
# Compressibility (1/GPa) = 0.05391973
#
# Stress axis : x y z
#
# Youngs Moduli (GPa) = 45.60969 95.03031 50.25585
#
# Poissons Ratio (x) = 0.25341 -0.37880
# Poissons Ratio (y) = 0.12162 0.20525
# Poissons Ratio (z) = -0.34378 0.38811
#
# Static dielectric constant tensor:
#      x y z
#    x 3.911330 0.000000 0.000000 
#    y 0.000000 4.288680 0.000000 
#    z 0.000000 0.000000 4.511070 
# 
# 
# High freq. dielectric constant tensor:
#      x y z
#    x 1.936470 0.000000 0.000000 
#    y 0.000000 1.953220 0.000000 
#    z 0.000000 0.000000 1.975850 
# 
# From -- ./inp_files/31431.got.cif
#   From: 2010.03.12/outbox.cif.g09.slc.cpg/sg62_16_cif.got.tgz:31431.got - 2010.04.10 19:12:36.
