data_PCOD8253448
_publ_section_title
;
Structure prediction by ZEFSAII (Michael W. Deem and Ramdas Pophale) SiO2 
 PCOD8253448
Probable space group: P N M A
;
_chemical_formula_sum "Si O2"
_cell_formula_units_Z 56
_cell_length_a 14.180187
_cell_length_b 14.140167
_cell_length_c 13.021089
_cell_angle_alpha 90.000000
_cell_angle_beta 90.000000
_cell_angle_gamma 90.000000
_cell_volume 2610.861319
_symmetry_space_group_name_H-M "P N M A"
_symmetry_group_IT_number 62
_symmetry_cell_setting 'orthorhombic'
loop_
_space_group_symop_operation_xyz
x,y,z
1/2-x,-y,1/2+z
1/2+x,1/2-y,1/2-z
-x,1/2+y,-z
-x,-y,-z
1/2+x,y,1/2-z
1/2-x,1/2+y,1/2+z
x,1/2-y,z
loop_
_atom_site_type_symbol
_atom_site_label
_atom_site_fract_x
_atom_site_fract_y
_atom_site_fract_z
Si Si1 0.868188 0.359217 0.001789
Si Si2 0.350998 0.010664 0.686617
Si Si3 0.926963 0.645923 0.934307
Si Si4 0.992290 0.978515 0.331960
Si Si5 0.817909 0.014038 0.195389
Si Si6 0.260352 0.143611 0.935701
Si Si7 0.465226 0.360268 0.017263
O O1 0.834405 0.250000 0.001665
O O2 0.832950 0.407226 0.107893
O O3 0.981533 0.366756 0.993626
O O4 0.827148 0.412845 0.902392
O O5 0.428980 0.932900 0.652779
O O6 0.255058 0.952640 0.715558
O O7 0.407662 0.054543 0.783349
O O8 0.928389 0.750000 0.884256
O O9 0.832052 0.626968 0.996174
O O10 0.973776 0.901608 0.421963
O O11 0.913080 0.974993 0.244456
O O12 0.996003 0.084271 0.380032
O O13 0.755043 0.925160 0.159095
O O14 0.265562 0.250000 0.893084
O O15 0.353883 0.120362 0.000676
O O16 0.488582 0.250000 0.031962
#
# Coordination Sequence:
#
# PCOD8253448 Si02
#       7
#     8   8   8   8   8   8   8
#     4  11  25  43  65  96 134 171 214 275 330 384
#     4  12  23  40  67  95 130 168 216 270 321 385
#     4  10  20  38  64  91 123 165 213 266 322 374
#     4  11  24  40  67  98 127 174 217 265 327 388
#     4  12  24  40  68  95 133 169 220 270 324 388
#     4  10  20  38  64  91 123 168 217 262 318 381
#     4  10  23  44  65  93 136 174 215 269 324 393
#
# _framework density 21.44886
#
# number of rings (size 3 to 8) (size 9 to 14) (size 15 to 20)
#    0.000    1.143    4.286    2.143    0.000    3.429 
#    0.000    1.429    0.000    0.000    0.000    0.000 
#    0.000    0.000    0.000    0.000    0.000    0.000 
#
# Total GULP energy -694153.257667 kJ/mol
# GULP energy per Si atom -12395.593887 kJ/mol
# Density = 2.140004 g / cm^3
# Si number density = 21.448860 Si / 1000 Ang^3
#
#
#
# Elastic Constant Matrix: (Units=GPa)
#
#
# Indices 1 2 3 4 5 6 
#
# 1 96.2921 31.9570 43.5836 0.0000 0.0000 0.0000
# 2 31.9570 124.9217 47.1664 0.0000 0.0000 0.0000
# 3 43.5836 47.1664 95.3438 0.0000 0.0000 0.0000
# 4 0.0000 0.0000 0.0000 18.3016 0.0000 0.0000
# 5 0.0000 0.0000 0.0000 0.0000 34.7588 0.0000
# 6 0.0000 0.0000 0.0000 0.0000 0.0000 27.6448
#
#
#
# Elastic Compliance Matrix: (Units=1/GPa)
#
#
# Indices 1 2 3 4 5 6 
#
# 1 0.013279 -0.001359 -0.005398 0.000000 0.000000 0.000000
# 2 -0.001359 0.009983 -0.004317 0.000000 0.000000 0.000000
# 3 -0.005398 -0.004317 0.015092 0.000000 0.000000 0.000000
# 4 0.000000 0.000000 0.000000 0.054640 0.000000 0.000000
# 5 0.000000 0.000000 0.000000 0.000000 0.028770 0.000000
# 6 0.000000 0.000000 0.000000 0.000000 0.000000 0.036173
#
#
# Mechanical properties :
#
#
# Convention : Reuss Voigt Hill
#
# Bulk Modulus (GPa) = 61.70815 62.44129 62.07472
# Shear Modulus (GPa) = 26.95615 29.06442 28.01029
#
# Velocity S-wave (km/s) = 3.54893 3.68510 3.61766
# Velocity P-wave (km/s) = 6.75467 6.87616 6.81569
#
# Compressibility (1/GPa) = 0.01620531
#
# Stress axis : x y z
#
# Youngs Moduli (GPa) = 75.30529 100.17325 66.26207
#
# Poissons Ratio (x) = 0.13613 0.35768
# Poissons Ratio (y) = 0.10234 0.28607
# Poissons Ratio (z) = 0.40649 0.43247
#
# Static dielectric constant tensor:
#      x y z
#    x 3.894420 0.000000 0.000000 
#    y 0.000000 3.914900 0.000000 
#    z 0.000000 0.000000 3.898320 
# 
# 
# High freq. dielectric constant tensor:
#      x y z
#    x 1.850830 0.000000 0.000000 
#    y 0.000000 1.836030 0.000000 
#    z 0.000000 0.000000 1.840670 
# 
# From -- ./inp_files/13378.got.cif
#   From: 2010.03.12/outbox.cif.g09.slc.cpg/sg62_7_cif.got.tgz:13378.got - 2010.04.10 19:12:36.
