data_PCOD8253913
_publ_section_title
;
Structure prediction by ZEFSAII (Michael W. Deem and Ramdas Pophale) SiO2 
 PCOD8253913
Probable space group: P N M A
;
_chemical_formula_sum "Si O2"
_cell_formula_units_Z 56
_cell_length_a 22.076278
_cell_length_b 9.148611
_cell_length_c 14.585235
_cell_angle_alpha 90.000000
_cell_angle_beta 90.000000
_cell_angle_gamma 90.000000
_cell_volume 2945.740237
_symmetry_space_group_name_H-M "P N M A"
_symmetry_group_IT_number 62
_symmetry_cell_setting 'orthorhombic'
loop_
_space_group_symop_operation_xyz
x,y,z
1/2-x,-y,1/2+z
1/2+x,1/2-y,1/2-z
-x,1/2+y,-z
-x,-y,-z
1/2+x,y,1/2-z
1/2-x,1/2+y,1/2+z
x,1/2-y,z
loop_
_atom_site_type_symbol
_atom_site_label
_atom_site_fract_x
_atom_site_fract_y
_atom_site_fract_z
Si Si1 0.549665 0.920293 0.612039
Si Si2 0.698671 0.577678 0.913890
Si Si3 0.806871 0.420768 0.811422
Si Si4 0.586390 0.920083 0.802880
Si Si5 0.345665 0.420311 0.888669
Si Si6 0.572492 0.921010 0.410153
Si Si7 0.971746 0.922857 0.587229
O O1 0.533899 0.750000 0.615631
O O2 0.594207 0.964029 0.695902
O O3 0.582379 0.963009 0.517260
O O4 0.486810 0.001915 0.627407
O O5 0.704733 0.750000 0.899404
O O6 0.755610 0.505171 0.865856
O O7 0.638891 0.508081 0.865067
O O8 0.694644 0.539178 0.022166
O O9 0.797730 0.250000 0.830215
O O10 0.806383 0.455586 0.702454
O O11 0.870407 0.476496 0.852634
O O12 0.595338 0.750000 0.818482
O O13 0.518425 0.963184 0.831764
O O14 0.364438 0.250000 0.891099
O O15 0.406662 0.513843 0.886773
O O16 0.562700 0.750000 0.397410
O O17 0.966118 0.750000 0.570147
O O18 0.000000 0.000000 0.500000
#
# Coordination Sequence:
#
# PCOD8253913 Si02
#       7
#     8   8   8   8   8   8   8
#     4   9  17  31  54  78 102 134 173 215 260 318
#     4  10  21  38  56  75 106 145 183 223 270 326
#     4  10  22  38  56  79 110 145 184 230 277 325
#     4   9  18  33  52  77 107 139 176 220 269 321
#     4  10  21  39  58  80 113 147 181 231 288 334
#     4   9  18  33  51  76 107 136 168 216 271 314
#     4  11  20  33  56  84 113 145 182 226 282 340
#
# _framework density 19.010503
#
# number of rings (size 3 to 8) (size 9 to 14) (size 15 to 20)
#    0.000    2.286    1.429    1.286    0.000    2.857 
#    0.000    2.857    0.000    0.000    0.000    0.000 
#    0.000    0.000    0.000    0.000    0.000    0.000 
#
# Total GULP energy -694186.045988 kJ/mol
# GULP energy per Si atom -12396.179393 kJ/mol
# Density = 1.896723 g / cm^3
# Si number density = 19.010503 Si / 1000 Ang^3
#
#
#
# Elastic Constant Matrix: (Units=GPa)
#
#
# Indices 1 2 3 4 5 6 
#
# 1 100.9745 37.3784 72.4465 0.0000 0.0000 0.0000
# 2 37.3784 45.2061 35.7533 0.0000 0.0000 0.0000
# 3 72.4465 35.7533 152.5408 0.0000 0.0000 0.0000
# 4 0.0000 0.0000 0.0000 22.5731 0.0000 0.0000
# 5 0.0000 0.0000 0.0000 0.0000 30.5909 0.0000
# 6 0.0000 0.0000 0.0000 0.0000 0.0000 34.0678
#
#
#
# Elastic Compliance Matrix: (Units=1/GPa)
#
#
# Indices 1 2 3 4 5 6 
#
# 1 0.018093 -0.010022 -0.006244 0.000000 0.000000 0.000000
# 2 -0.010022 0.032706 -0.002906 0.000000 0.000000 0.000000
# 3 -0.006244 -0.002906 0.010202 0.000000 0.000000 0.000000
# 4 0.000000 0.000000 0.000000 0.044300 0.000000 0.000000
# 5 0.000000 0.000000 0.000000 0.000000 0.032689 0.000000
# 6 0.000000 0.000000 0.000000 0.000000 0.000000 0.029353
#
#
# Mechanical properties :
#
#
# Convention : Reuss Voigt Hill
#
# Bulk Modulus (GPa) = 44.13587 65.54198 54.83893
# Shear Modulus (GPa) = 23.44762 27.65592 25.55177
#
# Velocity S-wave (km/s) = 3.51579 3.81828 3.67016
# Velocity P-wave (km/s) = 6.30461 7.34783 6.84612
#
# Compressibility (1/GPa) = 0.02265731
#
# Stress axis : x y z
#
# Youngs Moduli (GPa) = 55.26888 30.57559 98.01732
#
# Poissons Ratio (x) = 0.30643 0.61203
# Poissons Ratio (y) = 0.55390 0.28484
# Poissons Ratio (z) = 0.34511 0.08885
#
# Static dielectric constant tensor:
#      x y z
#    x 3.704390 0.000000 0.000000 
#    y 0.000000 3.338630 0.000000 
#    z 0.000000 0.000000 3.944440 
# 
# 
# High freq. dielectric constant tensor:
#      x y z
#    x 1.725970 0.000000 0.000000 
#    y 0.000000 1.719010 0.000000 
#    z 0.000000 0.000000 1.761140 
# 
# From -- ./inp_files/20442.got.cif
#   From: 2010.03.12/outbox.cif.g09.slc.cpg/sg62_11_cif.got.tgz:20442.got - 2010.04.10 19:12:36.
