data_PCOD8253233
_publ_section_title
;
Structure prediction by ZEFSAII (Michael W. Deem and Ramdas Pophale) SiO2 
 PCOD8253233
Probable space group: P N M A
;
_chemical_formula_sum "Si O2"
_cell_formula_units_Z 56
_cell_length_a 14.051434
_cell_length_b 14.224984
_cell_length_c 13.441917
_cell_angle_alpha 90.000000
_cell_angle_beta 90.000000
_cell_angle_gamma 90.000000
_cell_volume 2686.789509
_symmetry_space_group_name_H-M "P N M A"
_symmetry_group_IT_number 62
_symmetry_cell_setting 'orthorhombic'
loop_
_space_group_symop_operation_xyz
x,y,z
1/2-x,-y,1/2+z
1/2+x,1/2-y,1/2-z
-x,1/2+y,-z
-x,-y,-z
1/2+x,y,1/2-z
1/2-x,1/2+y,1/2+z
x,1/2-y,z
loop_
_atom_site_type_symbol
_atom_site_label
_atom_site_fract_x
_atom_site_fract_y
_atom_site_fract_z
Si Si1 0.134899 0.359070 0.114471
Si Si2 0.481492 0.641750 0.805856
Si Si3 0.590364 0.142104 0.601458
Si Si4 0.787420 0.644762 0.283782
Si Si5 0.672070 0.956341 0.878263
Si Si6 0.929212 0.142574 0.756793
Si Si7 0.913228 0.013942 0.572735
O O1 0.164011 0.250000 0.103196
O O2 0.227693 0.413133 0.156740
O O3 0.046696 0.371114 0.190090
O O4 0.104238 0.403421 0.007625
O O5 0.477911 0.750000 0.838397
O O6 0.586986 0.601665 0.826090
O O7 0.401010 0.585169 0.869084
O O8 0.563987 0.250000 0.582644
O O9 0.686364 0.130850 0.667191
O O10 0.501979 0.096409 0.663098
O O11 0.819144 0.750000 0.318075
O O12 0.840354 0.565466 0.347331
O O13 0.675783 0.631379 0.300022
O O14 0.672471 0.954792 0.999726
O O15 0.957852 0.250000 0.737995
O O16 0.938181 0.094327 0.650629
O O17 0.000000 0.000000 0.500000
#
# Coordination Sequence:
#
# PCOD8253233 Si02
#       7
#     8   8   8   8   8   8   8
#     4  10  21  38  61  89 119 155 199 240 286 353
#     4  10  22  40  59  83 120 160 198 243 295 352
#     4   9  18  35  59  84 111 147 192 241 289 340
#     4  10  21  37  58  84 114 149 193 246 299 349
#     4  11  22  38  61  88 120 157 199 244 294 350
#     4  10  20  37  60  85 117 151 188 243 302 351
#     4  10  21  35  54  83 113 149 193 237 286 345
#
# _framework density 20.84272
#
# number of rings (size 3 to 8) (size 9 to 14) (size 15 to 20)
#    0.000    2.000    0.000    3.857    0.000    4.571 
#    0.000    9.286    0.000    3.429    0.000    0.000 
#    0.000    0.000    0.000    0.000    0.000    0.000 
#
# Total GULP energy -694038.415378 kJ/mol
# GULP energy per Si atom -12393.543132 kJ/mol
# Density = 2.079528 g / cm^3
# Si number density = 20.842720 Si / 1000 Ang^3
#
#
#
# Elastic Constant Matrix: (Units=GPa)
#
#
# Indices 1 2 3 4 5 6 
#
# 1 98.6794 31.4422 41.9288 0.0000 0.0000 0.0000
# 2 31.4422 110.1879 52.9026 0.0000 0.0000 0.0000
# 3 41.9288 52.9026 126.2643 0.0000 0.0000 0.0000
# 4 0.0000 0.0000 0.0000 36.3575 0.0000 0.0000
# 5 0.0000 0.0000 0.0000 0.0000 30.6064 0.0000
# 6 0.0000 0.0000 0.0000 0.0000 0.0000 23.6182
#
#
#
# Elastic Compliance Matrix: (Units=1/GPa)
#
#
# Indices 1 2 3 4 5 6 
#
# 1 0.012111 -0.001909 -0.003222 0.000000 0.000000 0.000000
# 2 -0.001909 0.011662 -0.004252 0.000000 0.000000 0.000000
# 3 -0.003222 -0.004252 0.010771 0.000000 0.000000 0.000000
# 4 0.000000 0.000000 0.000000 0.027505 0.000000 0.000000
# 5 0.000000 0.000000 0.000000 0.000000 0.032673 0.000000
# 6 0.000000 0.000000 0.000000 0.000000 0.000000 0.042340
#
#
# Mechanical properties :
#
#
# Convention : Reuss Voigt Hill
#
# Bulk Modulus (GPa) = 63.37928 65.29765 64.33846
# Shear Modulus (GPa) = 31.03907 32.04028 31.53967
#
# Velocity S-wave (km/s) = 3.86321 3.92502 3.89424
# Velocity P-wave (km/s) = 7.09743 7.20679 7.15232
#
# Compressibility (1/GPa) = 0.01577803
#
# Stress axis : x y z
#
# Youngs Moduli (GPa) = 82.56903 85.75127 92.83879
#
# Poissons Ratio (x) = 0.16370 0.29912
# Poissons Ratio (y) = 0.15763 0.39476
# Poissons Ratio (z) = 0.26603 0.36462
#
# Static dielectric constant tensor:
#      x y z
#    x 3.864080 0.000000 0.000000 
#    y 0.000000 3.962500 0.000000 
#    z 0.000000 0.000000 4.407710 
# 
# 
# High freq. dielectric constant tensor:
#      x y z
#    x 1.810620 0.000000 0.000000 
#    y 0.000000 1.814330 0.000000 
#    z 0.000000 0.000000 1.815020 
# 
# From -- ./inp_files/13396.got.cif
#   From: 2010.03.12/outbox.cif.g09.slc.cpg/sg62_7_cif.got.tgz:13396.got - 2010.04.10 19:12:36.
