data_PCOD8253104
_publ_section_title
;
Structure prediction by ZEFSAII (Michael W. Deem and Ramdas Pophale) SiO2 
 PCOD8253104
Probable space group: P N M A
;
_chemical_formula_sum "Si O2"
_cell_formula_units_Z 64
_cell_length_a 15.232985
_cell_length_b 8.959787
_cell_length_c 23.759297
_cell_angle_alpha 90.000000
_cell_angle_beta 90.000000
_cell_angle_gamma 90.000000
_cell_volume 3242.771043
_symmetry_space_group_name_H-M "P N M A"
_symmetry_group_IT_number 62
_symmetry_cell_setting 'orthorhombic'
loop_
_space_group_symop_operation_xyz
x,y,z
1/2-x,-y,1/2+z
1/2+x,1/2-y,1/2-z
-x,1/2+y,-z
-x,-y,-z
1/2+x,y,1/2-z
1/2-x,1/2+y,1/2+z
x,1/2-y,z
loop_
_atom_site_type_symbol
_atom_site_label
_atom_site_fract_x
_atom_site_fract_y
_atom_site_fract_z
Si Si1 0.398653 0.578221 0.122915
Si Si2 0.844450 0.573859 0.499964
Si Si3 0.086925 0.421774 0.878344
Si Si4 0.407820 0.924789 0.618488
Si Si5 0.744950 0.925259 0.807369
Si Si6 0.402645 0.077023 0.891956
Si Si7 0.750825 0.573665 0.678620
Si Si8 0.336811 0.920326 0.497693
O O1 0.371557 0.750000 0.126080
O O2 0.373401 0.515960 0.061324
O O3 0.346056 0.492701 0.170932
O O4 0.501515 0.555104 0.134894
O O5 0.857469 0.750000 0.506774
O O6 0.904755 0.490489 0.545424
O O7 0.743711 0.531877 0.511045
O O8 0.091935 0.250000 0.860074
O O9 0.160702 0.510745 0.845140
O O10 0.098395 0.441082 0.945255
O O11 0.993074 0.487129 0.860789
O O12 0.424303 0.750000 0.627810
O O13 0.326333 0.983695 0.655493
O O14 0.389559 0.963640 0.553569
O O15 0.736024 0.750000 0.813542
O O16 0.760046 0.974260 0.743383
O O17 0.376019 0.250000 0.895647
O O18 0.333384 0.992585 0.853662
O O19 0.751244 0.750000 0.670548
O O20 0.301652 0.750000 0.501546
#
# Coordination Sequence:
#
# PCOD8253104 Si02
#       8
#     8   8   8   8   8   8   8   8
#     4  10  23  40  61  92 125 156 196 245 298 358
#     4  11  21  35  60  92 123 158 196 241 296 356
#     4  11  23  38  60  91 122 158 197 240 299 359
#     4  10  21  39  62  89 121 158 196 243 296 352
#     4  10  23  42  64  87 116 157 204 252 298 347
#     4  11  23  40  61  88 123 160 198 244 299 357
#     4  11  24  42  62  87 117 155 205 254 298 349
#     4  10  20  36  60  88 122 157 192 239 298 356
#
# _framework density 19.736205999999999
#
# number of rings (size 3 to 8) (size 9 to 14) (size 15 to 20)
#    0.000    1.500    2.500    2.250    0.000    5.000 
#    0.000    3.750    0.000    0.000    0.000    0.000 
#    0.000    0.000    0.000    0.000    0.000    0.000 
#
# Total GULP energy -793965.996399 kJ/mol
# GULP energy per Si atom -12405.718694 kJ/mol
# Density = 1.969129 g / cm^3
# Si number density = 19.736206 Si / 1000 Ang^3
#
#
#
# Elastic Constant Matrix: (Units=GPa)
#
#
# Indices 1 2 3 4 5 6 
#
# 1 111.0038 39.5664 41.8162 0.0000 0.0000 0.0000
# 2 39.5664 70.4708 49.4856 0.0000 0.0000 0.0000
# 3 41.8162 49.4856 101.2040 0.0000 0.0000 0.0000
# 4 0.0000 0.0000 0.0000 27.9456 0.0000 0.0000
# 5 0.0000 0.0000 0.0000 0.0000 9.1722 0.0000
# 6 0.0000 0.0000 0.0000 0.0000 0.0000 33.6861
#
#
#
# Elastic Compliance Matrix: (Units=1/GPa)
#
#
# Indices 1 2 3 4 5 6 
#
# 1 0.011651 -0.004814 -0.002460 0.000000 0.000000 0.000000
# 2 -0.004814 0.023600 -0.009550 0.000000 0.000000 0.000000
# 3 -0.002460 -0.009550 0.015567 0.000000 0.000000 0.000000
# 4 0.000000 0.000000 0.000000 0.035784 0.000000 0.000000
# 5 0.000000 0.000000 0.000000 0.000000 0.109025 0.000000
# 6 0.000000 0.000000 0.000000 0.000000 0.000000 0.029686
#
#
# Mechanical properties :
#
#
# Convention : Reuss Voigt Hill
#
# Bulk Modulus (GPa) = 58.24467 60.49057 59.36762
# Shear Modulus (GPa) = 18.89032 24.28148 21.58590
#
# Velocity S-wave (km/s) = 3.09713 3.51137 3.31073
# Velocity P-wave (km/s) = 6.50886 6.86700 6.69033
#
# Compressibility (1/GPa) = 0.01716895
#
# Stress axis : x y z
#
# Youngs Moduli (GPa) = 85.82606 42.37361 64.23684
#
# Poissons Ratio (x) = 0.20399 0.15804
# Poissons Ratio (y) = 0.41318 0.61348
# Poissons Ratio (z) = 0.21115 0.40468
#
# Static dielectric constant tensor:
#      x y z
#    x 3.546310 0.000000 0.000000 
#    y 0.000000 3.572060 0.000000 
#    z 0.000000 0.000000 3.737040 
# 
# 
# High freq. dielectric constant tensor:
#      x y z
#    x 1.776470 0.000000 0.000000 
#    y 0.000000 1.770380 0.000000 
#    z 0.000000 0.000000 1.770680 
# 
# From -- ./inp_files/29724.got.cif
#   From: 2010.03.12/outbox.cif.g09.slc.cpg/sg62_15_cif.got.tgz:29724.got - 2010.04.10 19:12:36.
