data_PCOD8253162
_publ_section_title
;
Structure prediction by ZEFSAII (Michael W. Deem and Ramdas Pophale) SiO2 
 PCOD8253162
Probable space group: P N M A
;
_chemical_formula_sum "Si O2"
_cell_formula_units_Z 48
_cell_length_a 27.094503
_cell_length_b 9.513701
_cell_length_c 9.846969
_cell_angle_alpha 90.000000
_cell_angle_beta 90.000000
_cell_angle_gamma 90.000000
_cell_volume 2538.243355
_symmetry_space_group_name_H-M "P N M A"
_symmetry_group_IT_number 62
_symmetry_cell_setting 'orthorhombic'
loop_
_space_group_symop_operation_xyz
x,y,z
1/2-x,-y,1/2+z
1/2+x,1/2-y,1/2-z
-x,1/2+y,-z
-x,-y,-z
1/2+x,y,1/2-z
1/2-x,1/2+y,1/2+z
x,1/2-y,z
loop_
_atom_site_type_symbol
_atom_site_label
_atom_site_fract_x
_atom_site_fract_y
_atom_site_fract_z
Si Si1 0.113832 0.414286 0.506397
Si Si2 0.403250 0.414016 0.459793
Si Si3 0.959500 0.586416 0.256264
Si Si4 0.926915 0.412835 0.733742
Si Si5 0.718882 0.413638 0.872795
Si Si6 0.707631 0.913763 0.611725
O O1 0.111426 0.250000 0.473290
O O2 0.072208 0.459673 0.613808
O O3 0.106084 0.497224 0.367733
O O4 0.166537 0.458858 0.565366
O O5 0.413336 0.250000 0.436080
O O6 0.443166 0.499723 0.374743
O O7 0.410097 0.454648 0.616027
O O8 0.348706 0.457937 0.413473
O O9 0.952015 0.750000 0.222184
O O10 0.015890 0.550140 0.288408
O O11 0.916547 0.250000 0.704251
O O12 0.719208 0.250000 0.834877
O O13 0.729710 0.499914 0.736831
O O14 0.761645 0.452439 0.978126
O O15 0.712740 0.750000 0.646124
#
# Coordination Sequence:
#
# PCOD8253162 Si02
#       6
#     8   8   8   8   8   8
#     4  10  21  37  56  81 113 148 187 230 278 332
#     4  10  21  37  56  82 114 146 185 231 279 333
#     4  10  20  37  58  82 113 149 190 232 279 331
#     4  10  22  36  55  85 116 148 189 233 276 330
#     4  10  22  40  60  84 114 145 184 234 280 332
#     4  10  22  39  59  84 112 144 184 230 280 334
#
# _framework density 18.910717000000002
#
# number of rings (size 3 to 8) (size 9 to 14) (size 15 to 20)
#    0.000    2.000    1.667    1.000    2.333    3.333 
#    0.000    0.000    0.000    0.000    0.000    0.000 
#    0.000    0.000    0.000    0.000    0.000    0.000 
#
# Total GULP energy -595499.867998 kJ/mol
# GULP energy per Si atom -12406.247250 kJ/mol
# Density = 1.886768 g / cm^3
# Si number density = 18.910717 Si / 1000 Ang^3
#
#
#
# Elastic Constant Matrix: (Units=GPa)
#
#
# Indices 1 2 3 4 5 6 
#
# 1 22.8267 7.8165 -0.0632 0.0000 0.0000 0.0000
# 2 7.8165 41.6691 38.2049 0.0000 0.0000 0.0000
# 3 -0.0632 38.2049 86.0508 0.0000 0.0000 0.0000
# 4 0.0000 0.0000 0.0000 40.3526 0.0000 0.0000
# 5 0.0000 0.0000 0.0000 0.0000 31.1326 0.0000
# 6 0.0000 0.0000 0.0000 0.0000 0.0000 20.7476
#
#
#
# Elastic Compliance Matrix: (Units=1/GPa)
#
#
# Indices 1 2 3 4 5 6 
#
# 1 0.049174 -0.015613 0.006968 0.000000 0.000000 0.000000
# 2 -0.015613 0.045432 -0.020182 0.000000 0.000000 0.000000
# 3 0.006968 -0.020182 0.020587 0.000000 0.000000 0.000000
# 4 0.000000 0.000000 0.000000 0.024782 0.000000 0.000000
# 5 0.000000 0.000000 0.000000 0.000000 0.032121 0.000000
# 6 0.000000 0.000000 0.000000 0.000000 0.000000 0.048198
#
#
# Mechanical properties :
#
#
# Convention : Reuss Voigt Hill
#
# Bulk Modulus (GPa) = 17.37985 26.94032 22.16008
# Shear Modulus (GPa) = 16.82784 25.41914 21.12349
#
# Velocity S-wave (km/s) = 2.98628 3.67026 3.34580
# Velocity P-wave (km/s) = 4.59358 5.67786 5.16425
#
# Compressibility (1/GPa) = 0.05753791
#
# Stress axis : x y z
#
# Youngs Moduli (GPa) = 20.33596 22.01104 48.57508
#
# Poissons Ratio (x) = 0.34366 -0.33847
# Poissons Ratio (y) = 0.31750 0.98036
# Poissons Ratio (z) = -0.14170 0.44423
#
# Static dielectric constant tensor:
#      x y z
#    x 3.586740 0.000000 0.000000 
#    y 0.000000 3.339450 0.000000 
#    z 0.000000 0.000000 3.399290 
# 
# 
# High freq. dielectric constant tensor:
#      x y z
#    x 1.745780 0.000000 0.000000 
#    y 0.000000 1.726950 0.000000 
#    z 0.000000 0.000000 1.742280 
# 
# From -- ./inp_files/9777.got.cif
#   From: 2010.03.12/outbox.cif.g09.slc.cpg/sg62_5_cif.got.tgz:9777.got - 2010.04.10 19:12:36.
