data_PCOD8253351
_publ_section_title
;
Structure prediction by ZEFSAII (Michael W. Deem and Ramdas Pophale) SiO2 
 PCOD8253351
Probable space group: P N M A
;
_chemical_formula_sum "Si O2"
_cell_formula_units_Z 48
_cell_length_a 27.598088
_cell_length_b 10.040874
_cell_length_c 9.094132
_cell_angle_alpha 90.000000
_cell_angle_beta 90.000000
_cell_angle_gamma 90.000000
_cell_volume 2520.065135
_symmetry_space_group_name_H-M "P N M A"
_symmetry_group_IT_number 62
_symmetry_cell_setting 'orthorhombic'
loop_
_space_group_symop_operation_xyz
x,y,z
1/2-x,-y,1/2+z
1/2+x,1/2-y,1/2-z
-x,1/2+y,-z
-x,-y,-z
1/2+x,y,1/2-z
1/2-x,1/2+y,1/2+z
x,1/2-y,z
loop_
_atom_site_type_symbol
_atom_site_label
_atom_site_fract_x
_atom_site_fract_y
_atom_site_fract_z
Si Si1 0.102958 0.504507 0.965498
Si Si2 0.041513 0.750000 0.944100
Si Si3 0.292239 0.097598 0.418102
Si Si4 0.896737 0.971472 0.378167
Si Si5 0.436193 0.250000 0.102370
Si Si6 0.933120 0.750000 0.881293
Si Si7 0.290569 0.901033 0.152614
Si Si8 0.044809 0.250000 0.462172
O O1 0.064201 0.616700 0.015030
O O2 0.156469 0.562344 0.991168
O O3 0.095517 0.459688 0.796920
O O4 0.096908 0.379536 0.072475
O O5 0.054700 0.750000 0.774457
O O6 0.984061 0.750000 0.968559
O O7 0.293501 0.250000 0.362571
O O8 0.250202 0.073036 0.533483
O O9 0.280943 0.003218 0.282318
O O10 0.842824 0.926077 0.421691
O O11 0.935800 0.880582 0.458086
O O12 0.904676 0.120778 0.438154
O O13 0.487012 0.250000 0.016967
O O14 0.939810 0.750000 0.707262
O O15 0.288256 0.750000 0.213267
#
# Coordination Sequence:
#
# PCOD8253351 Si02
#       8
#     8   4   8   8   4   4   8   4
#     4  10  20  38  60  84 110 155 194 230 280 343
#     4   9  18  37  58  83 114 148 193 241 276 333
#     4  10  22  40  62  87 115 149 189 236 284 339
#     4  10  20  38  61  82 112 153 192 233 279 343
#     4   9  20  35  60  85 110 150 197 233 284 339
#     4  11  23  33  56  87 118 150 191 233 288 331
#     4  10  22  39  61  89 115 147 191 234 284 340
#     4  11  21  37  54  85 122 148 187 243 284 329
#
# _framework density 19.047125999999999
#
# number of rings (size 3 to 8) (size 9 to 14) (size 15 to 20)
#    0.000    2.000    1.667    1.500    7.000    2.000 
#    0.000    2.500    0.000    0.000    0.000    0.000 
#    0.000    0.000    0.000    0.000    0.000    0.000 
#
# Total GULP energy -595335.977322 kJ/mol
# GULP energy per Si atom -12402.832861 kJ/mol
# Density = 1.900377 g / cm^3
# Si number density = 19.047126 Si / 1000 Ang^3
#
#
#
# Elastic Constant Matrix: (Units=GPa)
#
#
# Indices 1 2 3 4 5 6 
#
# 1 100.7399 46.2144 35.3639 0.0000 0.0000 0.0000
# 2 46.2144 139.4218 35.1039 0.0000 0.0000 0.0000
# 3 35.3639 35.1039 47.2743 0.0000 0.0000 0.0000
# 4 0.0000 0.0000 0.0000 24.9684 0.0000 0.0000
# 5 0.0000 0.0000 0.0000 0.0000 25.8802 0.0000
# 6 0.0000 0.0000 0.0000 0.0000 0.0000 44.9099
#
#
#
# Elastic Compliance Matrix: (Units=1/GPa)
#
#
# Indices 1 2 3 4 5 6 
#
# 1 0.014130 -0.002487 -0.008723 0.000000 0.000000 0.000000
# 2 -0.002487 0.009260 -0.005015 0.000000 0.000000 0.000000
# 3 -0.008723 -0.005015 0.031402 0.000000 0.000000 0.000000
# 4 0.000000 0.000000 0.000000 0.040051 0.000000 0.000000
# 5 0.000000 0.000000 0.000000 0.000000 0.038640 0.000000
# 6 0.000000 0.000000 0.000000 0.000000 0.000000 0.022267
#
#
# Mechanical properties :
#
#
# Convention : Reuss Voigt Hill
#
# Bulk Modulus (GPa) = 44.76062 57.86670 51.31366
# Shear Modulus (GPa) = 25.55627 30.53527 28.04577
#
# Velocity S-wave (km/s) = 3.66695 4.00827 3.84140
# Velocity P-wave (km/s) = 6.44047 7.20197 6.83184
#
# Compressibility (1/GPa) = 0.02234107
#
# Stress axis : x y z
#
# Youngs Moduli (GPa) = 70.77282 107.99490 31.84470
#
# Poissons Ratio (x) = 0.26862 0.27778
# Poissons Ratio (y) = 0.17604 0.15971
# Poissons Ratio (z) = 0.61734 0.54161
#
# Static dielectric constant tensor:
#      x y z
#    x 3.672680 0.000000 0.000000 
#    y 0.000000 3.768970 0.000000 
#    z 0.000000 0.000000 3.146150 
# 
# 
# High freq. dielectric constant tensor:
#      x y z
#    x 1.753390 0.000000 0.000000 
#    y 0.000000 1.762620 0.000000 
#    z 0.000000 0.000000 1.709160 
# 
# From -- ./inp_files/10341.got.cif
#   From: 2010.03.12/outbox.cif.g09.slc.cpg/sg62_6_cif.got.tgz:10341.got - 2010.04.10 19:12:36.
