data_PCOD8253823
_publ_section_title
;
Structure prediction by ZEFSAII (Michael W. Deem and Ramdas Pophale) SiO2 
 PCOD8253823
Probable space group: P N M A
;
_chemical_formula_sum "Si O2"
_cell_formula_units_Z 36
_cell_length_a 5.091563
_cell_length_b 10.469391
_cell_length_c 29.592525
_cell_angle_alpha 90.000000
_cell_angle_beta 90.000000
_cell_angle_gamma 90.000000
_cell_volume 1577.446231
_symmetry_space_group_name_H-M "P N M A"
_symmetry_group_IT_number 62
_symmetry_cell_setting 'orthorhombic'
loop_
_space_group_symop_operation_xyz
x,y,z
1/2-x,-y,1/2+z
1/2+x,1/2-y,1/2-z
-x,1/2+y,-z
-x,-y,-z
1/2+x,y,1/2-z
1/2-x,1/2+y,1/2+z
x,1/2-y,z
loop_
_atom_site_type_symbol
_atom_site_label
_atom_site_fract_x
_atom_site_fract_y
_atom_site_fract_z
Si Si1 0.230181 0.017241 0.912783
Si Si2 0.119978 0.104129 0.227176
Si Si3 0.245693 0.750000 0.478240
Si Si4 0.754026 0.250000 0.037624
Si Si5 0.260795 0.969250 0.146348
Si Si6 0.696127 0.250000 0.780601
O O1 0.307960 0.121671 0.950059
O O2 0.453453 0.015335 0.874884
O O3 0.198489 0.876481 0.933107
O O4 0.952952 0.062288 0.892001
O O5 0.350797 0.036424 0.256766
O O6 0.094242 0.250000 0.241913
O O7 0.172047 0.097102 0.173139
O O8 0.542279 0.750000 0.496306
O O9 0.043391 0.750000 0.519793
O O10 0.260818 0.868712 0.186530
O O11 0.406944 0.250000 0.759566
#
# Coordination Sequence:
#
# PCOD8253823 Si02
#       6
#     8   8   4   4   8   4
#     4  12  26  42  70  99 134 170 216 274 339 384
#     4  10  21  37  58  84 121 169 209 251 309 370
#     4  12  24  49  68  96 132 170 218 270 326 411
#     4  12  26  45  72  98 128 174 218 262 336 415
#     4  12  24  41  64  96 135 165 218 274 326 374
#     4  12  24  42  68  96 132 184 230 266 318 384
#
# _framework density 22.821695999999999
#
# number of rings (size 3 to 8) (size 9 to 14) (size 15 to 20)
#    0.000    0.444    0.000    9.333    3.111    0.000 
#    0.000    0.000    0.000    0.000    0.000    0.000 
#    0.000    0.000    0.000    0.000    0.000    0.000 
#
# Total GULP energy -446470.474970 kJ/mol
# GULP energy per Si atom -12401.957638 kJ/mol
# Density = 2.276975 g / cm^3
# Si number density = 22.821696 Si / 1000 Ang^3
#
#
#
# Elastic Constant Matrix: (Units=GPa)
#
#
# Indices 1 2 3 4 5 6 
#
# 1 108.7133 16.4833 24.7545 0.0000 0.0000 0.0000
# 2 16.4833 107.4650 45.0107 0.0000 0.0000 0.0000
# 3 24.7545 45.0107 101.8856 0.0000 0.0000 0.0000
# 4 0.0000 0.0000 0.0000 14.2251 0.0000 0.0000
# 5 0.0000 0.0000 0.0000 0.0000 61.9694 0.0000
# 6 0.0000 0.0000 0.0000 0.0000 0.0000 12.7482
#
#
#
# Elastic Compliance Matrix: (Units=1/GPa)
#
#
# Indices 1 2 3 4 5 6 
#
# 1 0.009771 -0.000619 -0.002101 0.000000 0.000000 0.000000
# 2 -0.000619 0.011457 -0.004911 0.000000 0.000000 0.000000
# 3 -0.002101 -0.004911 0.012495 0.000000 0.000000 0.000000
# 4 0.000000 0.000000 0.000000 0.070298 0.000000 0.000000
# 5 0.000000 0.000000 0.000000 0.000000 0.016137 0.000000
# 6 0.000000 0.000000 0.000000 0.000000 0.000000 0.078443
#
#
# Mechanical properties :
#
#
# Convention : Reuss Voigt Hill
#
# Bulk Modulus (GPa) = 54.16620 54.50676 54.33648
# Shear Modulus (GPa) = 22.72565 33.24290 27.98428
#
# Velocity S-wave (km/s) = 3.15904 3.82073 3.50553
# Velocity P-wave (km/s) = 6.09033 6.58784 6.34396
#
# Compressibility (1/GPa) = 0.01846170
#
# Stress axis : x y z
#
# Youngs Moduli (GPa) = 102.34748 87.28069 80.03246
#
# Poissons Ratio (x) = 0.05402 0.16811
# Poissons Ratio (y) = 0.06334 0.39306
# Poissons Ratio (z) = 0.21498 0.42865
#
# Static dielectric constant tensor:
#      x y z
#    x 4.424720 0.000000 0.000000 
#    y 0.000000 5.162990 0.000000 
#    z 0.000000 0.000000 4.090140 
# 
# 
# High freq. dielectric constant tensor:
#      x y z
#    x 1.922050 0.000000 0.000000 
#    y 0.000000 1.909750 0.000000 
#    z 0.000000 0.000000 1.907910 
# 
# From -- ./inp_files/28185.got.cif
#   From: 2010.03.12/outbox.cif.g09.slc.cpg/sg62_15_cif.got.tgz:28185.got - 2010.04.10 19:12:36.
