data_PCOD8253438
_publ_section_title
;
Structure prediction by ZEFSAII (Michael W. Deem and Ramdas Pophale) SiO2 
 PCOD8253438
Probable space group: P N M A
;
_chemical_formula_sum "Si O2"
_cell_formula_units_Z 48
_cell_length_a 20.154777
_cell_length_b 8.804741
_cell_length_c 13.863836
_cell_angle_alpha 90.000000
_cell_angle_beta 90.000000
_cell_angle_gamma 90.000000
_cell_volume 2460.242944
_symmetry_space_group_name_H-M "P N M A"
_symmetry_group_IT_number 62
_symmetry_cell_setting 'orthorhombic'
loop_
_space_group_symop_operation_xyz
x,y,z
1/2-x,-y,1/2+z
1/2+x,1/2-y,1/2-z
-x,1/2+y,-z
-x,-y,-z
1/2+x,y,1/2-z
1/2-x,1/2+y,1/2+z
x,1/2-y,z
loop_
_atom_site_type_symbol
_atom_site_label
_atom_site_fract_x
_atom_site_fract_y
_atom_site_fract_z
Si Si1 0.762865 0.577291 0.263901
Si Si2 0.435406 0.072539 0.545442
Si Si3 0.685240 0.573435 0.947308
Si Si4 0.317137 0.578794 0.443090
Si Si5 0.889370 0.070597 0.744789
Si Si6 0.563570 0.428969 0.049924
O O1 0.760558 0.750000 0.304016
O O2 0.798154 0.464342 0.337440
O O3 0.809288 0.567476 0.170980
O O4 0.687923 0.522197 0.242657
O O5 0.446406 0.250000 0.546668
O O6 0.421951 0.015291 0.654564
O O7 0.500000 0.000000 0.500000
O O8 0.373361 0.034993 0.477894
O O9 0.666388 0.750000 0.958693
O O10 0.748258 0.528686 0.010591
O O11 0.625647 0.470819 0.983800
O O12 0.336128 0.750000 0.474546
O O13 0.896000 0.250000 0.730070
O O14 0.928317 0.990030 0.658525
O O15 0.554915 0.250000 0.054508
O O16 0.500000 0.500000 0.000000
#
# Coordination Sequence:
#
# PCOD8253438 Si02
#       6
#     8   8   8   8   8   8
#     4  10  20  38  63  93 128 166 208 256 310 368
#     4  11  24  41  64  91 127 166 207 256 309 370
#     4  11  22  39  63  94 127 161 206 259 308 368
#     4  10  21  38  62  90 124 161 203 255 307 362
#     4  10  21  41  65  91 125 166 207 256 316 375
#     4  12  26  43  66  93 126 167 210 260 317 379
#
# _framework density 19.510269000000001
#
# number of rings (size 3 to 8) (size 9 to 14) (size 15 to 20)
#    0.000    1.333    3.333    2.500    0.000    4.667 
#    0.000    1.667    0.000    0.000    0.000    0.000 
#    0.000    0.000    0.000    0.000    0.000    0.000 
#
# Total GULP energy -595405.210226 kJ/mol
# GULP energy per Si atom -12404.275213 kJ/mol
# Density = 1.946586 g / cm^3
# Si number density = 19.510269 Si / 1000 Ang^3
#
#
#
# Elastic Constant Matrix: (Units=GPa)
#
#
# Indices 1 2 3 4 5 6 
#
# 1 106.4913 49.2709 59.8396 0.0000 0.0000 0.0000
# 2 49.2709 74.0836 45.5348 0.0000 0.0000 0.0000
# 3 59.8396 45.5348 122.4409 0.0000 0.0000 0.0000
# 4 0.0000 0.0000 0.0000 35.6372 0.0000 0.0000
# 5 0.0000 0.0000 0.0000 0.0000 34.6646 0.0000
# 6 0.0000 0.0000 0.0000 0.0000 0.0000 35.0886
#
#
#
# Elastic Compliance Matrix: (Units=1/GPa)
#
#
# Indices 1 2 3 4 5 6 
#
# 1 0.015510 -0.007332 -0.004853 0.000000 0.000000 0.000000
# 2 -0.007332 0.020964 -0.004213 0.000000 0.000000 0.000000
# 3 -0.004853 -0.004213 0.012106 0.000000 0.000000 0.000000
# 4 0.000000 0.000000 0.000000 0.028061 0.000000 0.000000
# 5 0.000000 0.000000 0.000000 0.000000 0.028848 0.000000
# 6 0.000000 0.000000 0.000000 0.000000 0.000000 0.028499
#
#
# Mechanical properties :
#
#
# Convention : Reuss Voigt Hill
#
# Bulk Modulus (GPa) = 63.35900 68.03404 65.69652
# Shear Modulus (GPa) = 29.06198 30.96943 30.01571
#
# Velocity S-wave (km/s) = 3.86369 3.98847 3.92657
# Velocity P-wave (km/s) = 7.24219 7.49380 7.36907
#
# Compressibility (1/GPa) = 0.01578308
#
# Stress axis : x y z
#
# Youngs Moduli (GPa) = 64.47423 47.70032 82.60427
#
# Poissons Ratio (x) = 0.34975 0.40090
# Poissons Ratio (y) = 0.47274 0.34801
# Poissons Ratio (z) = 0.31291 0.20096
#
# Static dielectric constant tensor:
#      x y z
#    x 3.433880 0.000000 0.000000 
#    y 0.000000 3.554760 0.000000 
#    z 0.000000 0.000000 3.683660 
# 
# 
# High freq. dielectric constant tensor:
#      x y z
#    x 1.760880 0.000000 0.000000 
#    y 0.000000 1.758710 0.000000 
#    z 0.000000 0.000000 1.773560 
# 
# From -- ./inp_files/19570.got.cif
#   From: 2010.03.12/outbox.cif.g09.slc.cpg/sg62_10_cif.got.tgz:19570.got - 2010.04.10 19:12:36.
