data_PCOD8253440
_publ_section_title
;
Structure prediction by ZEFSAII (Michael W. Deem and Ramdas Pophale) SiO2 
 PCOD8253440
Probable space group: P N M A
;
_chemical_formula_sum "Si O2"
_cell_formula_units_Z 56
_cell_length_a 19.570210
_cell_length_b 14.641384
_cell_length_c 9.548333
_cell_angle_alpha 90.000000
_cell_angle_beta 90.000000
_cell_angle_gamma 90.000000
_cell_volume 2735.931210
_symmetry_space_group_name_H-M "P N M A"
_symmetry_group_IT_number 62
_symmetry_cell_setting 'orthorhombic'
loop_
_space_group_symop_operation_xyz
x,y,z
1/2-x,-y,1/2+z
1/2+x,1/2-y,1/2-z
-x,1/2+y,-z
-x,-y,-z
1/2+x,y,1/2-z
1/2-x,1/2+y,1/2+z
x,1/2-y,z
loop_
_atom_site_type_symbol
_atom_site_label
_atom_site_fract_x
_atom_site_fract_y
_atom_site_fract_z
Si Si1 0.658249 0.470625 0.693533
Si Si2 0.614573 0.353508 0.189257
Si Si3 0.229610 0.856318 0.889677
Si Si4 0.077181 0.650337 0.240470
Si Si5 0.274544 0.149494 0.717046
Si Si6 0.572552 0.016451 0.433946
Si Si7 0.439130 0.855508 0.114297
O O1 0.676034 0.579531 0.697673
O O2 0.730061 0.419952 0.694748
O O3 0.623802 0.443653 0.547667
O O4 0.609869 0.431509 0.815853
O O5 0.610444 0.250000 0.243971
O O6 0.693330 0.379885 0.160435
O O7 0.576857 0.417097 0.301361
O O8 0.569539 0.365835 0.050407
O O9 0.211748 0.750000 0.860938
O O10 0.221964 0.880669 0.053858
O O11 0.057549 0.750000 0.181013
O O12 0.153766 0.652409 0.303467
O O13 0.089720 0.585799 0.109419
O O14 0.018003 0.619231 0.348233
O O15 0.240662 0.250000 0.719076
O O16 0.500000 0.000000 0.500000
O O17 0.421429 0.750000 0.159031
#
# Coordination Sequence:
#
# PCOD8253440 Si02
#       7
#     8   8   8   8   8   8   8
#     4  12  22  37  67  96 128 167 218 273 325 396
#     4  10  23  43  66  91 127 171 219 273 326 388
#     4  10  21  38  63  93 129 174 218 265 327 390
#     4  10  21  40  64  91 130 170 214 266 321 389
#     4  10  20  38  63  94 128 169 214 266 329 390
#     4  12  25  40  60 100 131 167 217 264 333 391
#     4  10  21  41  69  97 126 174 224 267 326 395
#
# _framework density 20.468350000000001
#
# number of rings (size 3 to 8) (size 9 to 14) (size 15 to 20)
#    0.000    1.429    4.286    1.286    0.000    2.286 
#    0.000    0.000    0.000    0.857    0.000    0.000 
#    0.000    0.000    0.000    0.000    0.000    0.000 
#
# Total GULP energy -693762.228676 kJ/mol
# GULP energy per Si atom -12388.611226 kJ/mol
# Density = 2.042176 g / cm^3
# Si number density = 20.468350 Si / 1000 Ang^3
#
#
#
# Elastic Constant Matrix: (Units=GPa)
#
#
# Indices 1 2 3 4 5 6 
#
# 1 133.4418 65.5500 56.2291 0.0000 0.0000 0.0000
# 2 65.5500 117.2004 58.9368 0.0000 0.0000 0.0000
# 3 56.2291 58.9368 87.0983 0.0000 0.0000 0.0000
# 4 0.0000 0.0000 0.0000 14.7207 0.0000 0.0000
# 5 0.0000 0.0000 0.0000 0.0000 33.9823 0.0000
# 6 0.0000 0.0000 0.0000 0.0000 0.0000 31.4370
#
#
#
# Elastic Compliance Matrix: (Units=1/GPa)
#
#
# Indices 1 2 3 4 5 6 
#
# 1 0.011447 -0.004072 -0.004635 0.000000 0.000000 0.000000
# 2 -0.004072 0.014382 -0.007103 0.000000 0.000000 0.000000
# 3 -0.004635 -0.007103 0.019280 0.000000 0.000000 0.000000
# 4 0.000000 0.000000 0.000000 0.067931 0.000000 0.000000
# 5 0.000000 0.000000 0.000000 0.000000 0.029427 0.000000
# 6 0.000000 0.000000 0.000000 0.000000 0.000000 0.031810
#
#
# Mechanical properties :
#
#
# Convention : Reuss Voigt Hill
#
# Bulk Modulus (GPa) = 74.13181 77.68584 75.90883
# Shear Modulus (GPa) = 23.76518 26.49631 25.13075
#
# Velocity S-wave (km/s) = 3.41114 3.60182 3.50778
# Velocity P-wave (km/s) = 7.19798 7.43868 7.31932
#
# Compressibility (1/GPa) = 0.01348949
#
# Stress axis : x y z
#
# Youngs Moduli (GPa) = 87.35939 69.53377 51.86752
#
# Poissons Ratio (x) = 0.28311 0.24040
# Poissons Ratio (y) = 0.35569 0.36842
# Poissons Ratio (z) = 0.40490 0.49390
#
# Static dielectric constant tensor:
#      x y z
#    x 3.192000 0.000000 0.000000 
#    y 0.000000 5.290010 0.000000 
#    z 0.000000 0.000000 3.416050 
# 
# 
# High freq. dielectric constant tensor:
#      x y z
#    x 1.814180 0.000000 0.000000 
#    y 0.000000 1.811480 0.000000 
#    z 0.000000 0.000000 1.769190 
# 
# From -- ./inp_files/8735.got.cif
#   From: 2010.03.12/outbox.cif.g09.slc.cpg/sg62_5_cif.got.tgz:8735.got - 2010.04.10 19:12:36.
