data_PCOD8253579
_publ_section_title
;
Structure prediction by ZEFSAII (Michael W. Deem and Ramdas Pophale) SiO2 
 PCOD8253579
Probable space group: P N M A
;
_chemical_formula_sum "Si O2"
_cell_formula_units_Z 48
_cell_length_a 13.761541
_cell_length_b 27.019564
_cell_length_c 5.279491
_cell_angle_alpha 90.000000
_cell_angle_beta 90.000000
_cell_angle_gamma 90.000000
_cell_volume 1963.077562
_symmetry_space_group_name_H-M "P N M A"
_symmetry_group_IT_number 62
_symmetry_cell_setting 'orthorhombic'
loop_
_space_group_symop_operation_xyz
x,y,z
1/2-x,-y,1/2+z
1/2+x,1/2-y,1/2-z
-x,1/2+y,-z
-x,-y,-z
1/2+x,y,1/2-z
1/2-x,1/2+y,1/2+z
x,1/2-y,z
loop_
_atom_site_type_symbol
_atom_site_label
_atom_site_fract_x
_atom_site_fract_y
_atom_site_fract_z
Si Si1 0.698996 0.613600 0.770057
Si Si2 0.192073 0.988718 0.511774
Si Si3 0.010751 0.660858 0.778655
Si Si4 0.385338 0.586089 0.026475
Si Si5 0.659792 0.334564 0.618114
Si Si6 0.253053 0.250000 0.596036
Si Si7 0.381845 0.250000 0.086180
O O1 0.659717 0.568101 0.944436
O O2 0.610772 0.637689 0.606184
O O3 0.776851 0.592466 0.580171
O O4 0.745721 0.658047 0.940858
O O5 0.232049 0.993426 0.226856
O O6 0.099073 0.026680 0.539371
O O7 0.046273 0.703209 0.588551
O O8 0.964306 0.614279 0.636710
O O9 0.934323 0.686685 0.969160
O O10 0.379043 0.611103 0.302104
O O11 0.685745 0.299052 0.857358
O O12 0.302504 0.250000 0.320027
O O13 0.332200 0.250000 0.815422
#
# Coordination Sequence:
#
# PCOD8253579 Si02
#       7
#     8   8   8   8   8   4   4
#     4  10  21  42  66  95 137 181 227 281 342 415
#     4  10  20  40  68  97 135 187 228 276 340 410
#     4  11  25  42  68 101 139 173 234 288 348 404
#     4  10  23  40  68  96 140 179 230 280 348 403
#     4  11  23  43  66  99 134 184 222 292 338 414
#     4  12  27  45  76  95 134 180 230 270 349 406
#     4  12  27  47  70 101 132 182 222 278 345 414
#
# _framework density 24.451404
#
# number of rings (size 3 to 8) (size 9 to 14) (size 15 to 20)
#    0.000    1.333    3.333    1.500    4.667    2.667 
#    0.000    0.833    0.000    0.000    0.000    0.000 
#    0.000    0.000    0.000    0.000    0.000    0.000 
#
# Total GULP energy -594675.560064 kJ/mol
# GULP energy per Si atom -12389.074168 kJ/mol
# Density = 2.439575 g / cm^3
# Si number density = 24.451404 Si / 1000 Ang^3
#
#
#
# Elastic Constant Matrix: (Units=GPa)
#
#
# Indices 1 2 3 4 5 6 
#
# 1 97.6713 16.2895 3.6140 0.0000 0.0000 0.0000
# 2 16.2895 77.4089 -17.9521 0.0000 0.0000 0.0000
# 3 3.6140 -17.9521 53.6806 0.0000 0.0000 0.0000
# 4 0.0000 0.0000 0.0000 36.5891 0.0000 0.0000
# 5 0.0000 0.0000 0.0000 0.0000 15.5614 0.0000
# 6 0.0000 0.0000 0.0000 0.0000 0.0000 36.7721
#
#
#
# Elastic Compliance Matrix: (Units=1/GPa)
#
#
# Indices 1 2 3 4 5 6 
#
# 1 0.010737 -0.002631 -0.001603 0.000000 0.000000 0.000000
# 2 -0.002631 0.014649 0.005076 0.000000 0.000000 0.000000
# 3 -0.001603 0.005076 0.020434 0.000000 0.000000 0.000000
# 4 0.000000 0.000000 0.000000 0.027331 0.000000 0.000000
# 5 0.000000 0.000000 0.000000 0.000000 0.064262 0.000000
# 6 0.000000 0.000000 0.000000 0.000000 0.000000 0.027195
#
#
# Mechanical properties :
#
#
# Convention : Reuss Voigt Hill
#
# Bulk Modulus (GPa) = 21.05041 25.85153 23.45097
# Shear Modulus (GPa) = 27.97098 32.90515 30.43806
#
# Velocity S-wave (km/s) = 3.38589 3.67241 3.53206
# Velocity P-wave (km/s) = 4.89014 5.34581 5.12304
#
# Compressibility (1/GPa) = 0.04750501
#
# Stress axis : x y z
#
# Youngs Moduli (GPa) = 93.14002 68.26255 48.93755
#
# Poissons Ratio (x) = 0.17960 0.07843
# Poissons Ratio (y) = 0.24505 -0.24842
# Poissons Ratio (z) = 0.14928 -0.34652
#
# Static dielectric constant tensor:
#      x y z
#    x 4.307100 0.000000 0.000000 
#    y 0.000000 5.214860 0.000000 
#    z 0.000000 0.000000 4.072240 
# 
# 
# High freq. dielectric constant tensor:
#      x y z
#    x 1.958010 0.000000 0.000000 
#    y 0.000000 1.996580 0.000000 
#    z 0.000000 0.000000 1.949480 
# 
# From -- ./inp_files/1173.got.cif
#   From: 2010.03.12/outbox.cif.g09.slc.cpg/sg62_1_cif.got.tgz:1173.got - 2010.04.10 19:12:36.
