data_PCOD8253337
_publ_section_title
;
Structure prediction by ZEFSAII (Michael W. Deem and Ramdas Pophale) SiO2 
 PCOD8253337
Probable space group: P N M A
;
_chemical_formula_sum "Si O2"
_cell_formula_units_Z 40
_cell_length_a 18.040814
_cell_length_b 8.388317
_cell_length_c 13.465644
_cell_angle_alpha 90.000000
_cell_angle_beta 90.000000
_cell_angle_gamma 90.000000
_cell_volume 2037.783737
_symmetry_space_group_name_H-M "P N M A"
_symmetry_group_IT_number 62
_symmetry_cell_setting 'orthorhombic'
loop_
_space_group_symop_operation_xyz
x,y,z
1/2-x,-y,1/2+z
1/2+x,1/2-y,1/2-z
-x,1/2+y,-z
-x,-y,-z
1/2+x,y,1/2-z
1/2-x,1/2+y,1/2+z
x,1/2-y,z
loop_
_atom_site_type_symbol
_atom_site_label
_atom_site_fract_x
_atom_site_fract_y
_atom_site_fract_z
Si Si1 0.461905 0.439345 0.098755
Si Si2 0.865127 0.434878 0.127847
Si Si3 0.976409 0.563364 0.804818
Si Si4 0.165168 0.435937 0.081743
Si Si5 0.189460 0.434248 0.672263
O O1 0.454781 0.250000 0.098952
O O2 0.510349 0.500931 0.192799
O O3 0.380115 0.512586 0.105834
O O4 0.500000 0.500000 0.000000
O O5 0.854485 0.250000 0.155023
O O6 0.823829 0.537210 0.211363
O O7 0.952382 0.479778 0.127567
O O8 0.829599 0.472829 0.022337
O O9 0.964063 0.750000 0.797848
O O10 0.902953 0.488693 0.854446
O O11 0.152344 0.250000 0.060769
O O12 0.240353 0.461602 0.141002
O O13 0.206379 0.250000 0.652632
#
# Coordination Sequence:
#
# PCOD8253337 Si02
#       5
#     8   8   8   8   8
#     4  10  20  38  60  84 113 150 191 235 284 339
#     4  10  20  38  59  82 112 146 182 231 287 342
#     4   8  18  35  57  82 111 144 184 228 276 332
#     4  11  21  36  58  85 113 147 187 232 283 339
#     4  11  23  39  56  81 114 151 191 234 280 332
#
# _framework density 19.629166999999999
#
# number of rings (size 3 to 8) (size 9 to 14) (size 15 to 20)
#    0.000    2.000    0.000    5.400    0.000    1.600 
#    0.000   17.000    0.000    0.000    0.000    0.000 
#    0.000    0.000    0.000    0.000    0.000    0.000 
#
# Total GULP energy -496082.592613 kJ/mol
# GULP energy per Si atom -12402.064815 kJ/mol
# Density = 1.958449 g / cm^3
# Si number density = 19.629167 Si / 1000 Ang^3
#
#
#
# Elastic Constant Matrix: (Units=GPa)
#
#
# Indices 1 2 3 4 5 6 
#
# 1 116.1346 6.6524 57.2235 0.0000 0.0000 0.0000
# 2 6.6524 57.6154 13.3917 0.0000 0.0000 0.0000
# 3 57.2235 13.3917 98.1264 0.0000 0.0000 0.0000
# 4 0.0000 0.0000 0.0000 29.5647 0.0000 0.0000
# 5 0.0000 0.0000 0.0000 0.0000 27.0405 0.0000
# 6 0.0000 0.0000 0.0000 0.0000 0.0000 25.7732
#
#
#
# Elastic Compliance Matrix: (Units=1/GPa)
#
#
# Indices 1 2 3 4 5 6 
#
# 1 0.012086 0.000251 -0.007082 0.000000 0.000000 0.000000
# 2 0.000251 0.017930 -0.002593 0.000000 0.000000 0.000000
# 3 -0.007082 -0.002593 0.014675 0.000000 0.000000 0.000000
# 4 0.000000 0.000000 0.000000 0.033824 0.000000 0.000000
# 5 0.000000 0.000000 0.000000 0.000000 0.036982 0.000000
# 6 0.000000 0.000000 0.000000 0.000000 0.000000 0.038800
#
#
# Mechanical properties :
#
#
# Convention : Reuss Voigt Hill
#
# Bulk Modulus (GPa) = 38.69731 47.37909 43.03820
# Shear Modulus (GPa) = 27.50871 29.44958 28.47915
#
# Velocity S-wave (km/s) = 3.74762 3.87757 3.81315
# Velocity P-wave (km/s) = 6.20348 6.65108 6.43118
#
# Compressibility (1/GPa) = 0.02584159
#
# Stress axis : x y z
#
# Youngs Moduli (GPa) = 82.74001 55.77163 68.14315
#
# Poissons Ratio (x) = -0.01398 0.48261
# Poissons Ratio (y) = -0.02074 0.17671
# Poissons Ratio (z) = 0.58599 0.14463
#
# Static dielectric constant tensor:
#      x y z
#    x 3.638310 0.000000 0.000000 
#    y 0.000000 3.409010 0.000000 
#    z 0.000000 0.000000 3.479910 
# 
# 
# High freq. dielectric constant tensor:
#      x y z
#    x 1.765710 0.000000 0.000000 
#    y 0.000000 1.757720 0.000000 
#    z 0.000000 0.000000 1.770170 
# 
# From -- ./inp_files/13852.got.cif
#   From: 2010.03.12/outbox.cif.g09.slc.cpg/sg62_7_cif.got.tgz:13852.got - 2010.04.10 19:12:36.
