data_PCOD8253774
_publ_section_title
;
Structure prediction by ZEFSAII (Michael W. Deem and Ramdas Pophale) SiO2 
 PCOD8253774
Probable space group: P N M A
;
_chemical_formula_sum "Si O2"
_cell_formula_units_Z 52
_cell_length_a 9.239813
_cell_length_b 19.269005
_cell_length_c 15.678183
_cell_angle_alpha 90.000000
_cell_angle_beta 90.000000
_cell_angle_gamma 90.000000
_cell_volume 2791.375103
_symmetry_space_group_name_H-M "P N M A"
_symmetry_group_IT_number 62
_symmetry_cell_setting 'orthorhombic'
loop_
_space_group_symop_operation_xyz
x,y,z
1/2-x,-y,1/2+z
1/2+x,1/2-y,1/2-z
-x,1/2+y,-z
-x,-y,-z
1/2+x,y,1/2-z
1/2-x,1/2+y,1/2+z
x,1/2-y,z
loop_
_atom_site_type_symbol
_atom_site_label
_atom_site_fract_x
_atom_site_fract_y
_atom_site_fract_z
Si Si1 0.908975 0.903345 0.494971
Si Si2 0.982993 0.500262 0.642857
Si Si3 0.429354 0.859364 0.392861
Si Si4 0.858387 0.250000 0.827608
Si Si5 0.842556 0.498295 0.191480
Si Si6 0.795401 0.250000 0.637711
Si Si7 0.585105 0.932614 0.528203
Si Si8 0.092009 0.250000 0.550363
O O1 0.989441 0.935858 0.576663
O O2 0.745515 0.931716 0.488135
O O3 0.916779 0.819972 0.506130
O O4 0.988070 0.928366 0.408042
O O5 0.830465 0.495984 0.691212
O O6 0.107357 0.514272 0.712249
O O7 0.542464 0.817783 0.334723
O O8 0.279296 0.818169 0.402469
O O9 0.493698 0.868424 0.489230
O O10 0.409458 0.931401 0.345086
O O11 0.773044 0.250000 0.739077
O O12 0.743065 0.250000 0.902269
O O13 0.897508 0.434147 0.131322
O O14 0.963779 0.250000 0.618451
O O15 0.500000 0.000000 0.500000
#
# Coordination Sequence:
#
# PCOD8253774 Si02
#       8
#     8   8   8   4   8   4   8   4
#     4  10  22  40  61  85 122 159 204 238 307 365
#     4  10  23  39  60  91 118 154 196 255 295 360
#     4  10  21  37  55  79 119 153 193 234 291 362
#     4  11  23  35  53  80 118 158 188 233 285 369
#     4  10  22  36  60  87 114 148 197 249 301 341
#     4  11  25  35  49  90 118 151 196 234 291 365
#     4   9  19  37  58  85 113 154 195 245 293 352
#     4  12  22  38  62  80 118 165 194 241 298 366
#
# _framework density 18.628810999999999
#
# number of rings (size 3 to 8) (size 9 to 14) (size 15 to 20)
#    0.000    1.846    1.538    1.846   10.769    1.231 
#    0.000    0.000    0.000    5.538    0.000    0.000 
#    0.000    0.000    0.000    0.000    0.000    0.000 
#
# Total GULP energy -644670.767152 kJ/mol
# GULP energy per Si atom -12397.514753 kJ/mol
# Density = 1.858641 g / cm^3
# Si number density = 18.628811 Si / 1000 Ang^3
#
#
#
# Elastic Constant Matrix: (Units=GPa)
#
#
# Indices 1 2 3 4 5 6 
#
# 1 90.1789 31.8831 46.4505 0.0000 0.0000 0.0000
# 2 31.8831 96.0537 42.3870 0.0000 0.0000 0.0000
# 3 46.4505 42.3870 107.9328 0.0000 0.0000 0.0000
# 4 0.0000 0.0000 0.0000 20.3861 0.0000 0.0000
# 5 0.0000 0.0000 0.0000 0.0000 33.6927 0.0000
# 6 0.0000 0.0000 0.0000 0.0000 0.0000 25.5510
#
#
#
# Elastic Compliance Matrix: (Units=1/GPa)
#
#
# Indices 1 2 3 4 5 6 
#
# 1 0.014740 -0.002532 -0.005349 0.000000 0.000000 0.000000
# 2 -0.002532 0.013028 -0.004027 0.000000 0.000000 0.000000
# 3 -0.005349 -0.004027 0.013148 0.000000 0.000000 0.000000
# 4 0.000000 0.000000 0.000000 0.049053 0.000000 0.000000
# 5 0.000000 0.000000 0.000000 0.000000 0.029680 0.000000
# 6 0.000000 0.000000 0.000000 0.000000 0.000000 0.039137
#
#
# Mechanical properties :
#
#
# Convention : Reuss Voigt Hill
#
# Bulk Modulus (GPa) = 58.47731 59.51184 58.99458
# Shear Modulus (GPa) = 26.55304 27.48893 27.02098
#
# Velocity S-wave (km/s) = 3.77951 3.84554 3.81267
# Velocity P-wave (km/s) = 7.10670 7.19257 7.14976
#
# Compressibility (1/GPa) = 0.01710065
#
# Stress axis : x y z
#
# Youngs Moduli (GPa) = 67.84481 76.75644 76.05490
#
# Poissons Ratio (x) = 0.19435 0.40682
# Poissons Ratio (y) = 0.17179 0.30625
# Poissons Ratio (z) = 0.36290 0.30907
#
# Static dielectric constant tensor:
#      x y z
#    x 3.581580 0.000000 0.000000 
#    y 0.000000 4.022860 0.000000 
#    z 0.000000 0.000000 3.461970 
# 
# 
# High freq. dielectric constant tensor:
#      x y z
#    x 1.742630 0.000000 0.000000 
#    y 0.000000 1.708540 0.000000 
#    z 0.000000 0.000000 1.704710 
# 
# From -- ./inp_files/22423.got.cif
#   From: 2010.03.12/outbox.cif.g09.slc.cpg/sg62_12_cif.got.tgz:22423.got - 2010.04.10 19:12:36.
