data_PCOD8253885
_publ_section_title
;
Structure prediction by ZEFSAII (Michael W. Deem and Ramdas Pophale) SiO2 
 PCOD8253885
Probable space group: P N M A
;
_chemical_formula_sum "Si O2"
_cell_formula_units_Z 32
_cell_length_a 5.243461
_cell_length_b 37.936686
_cell_length_c 6.917545
_cell_angle_alpha 90.000000
_cell_angle_beta 90.000000
_cell_angle_gamma 90.000000
_cell_volume 1376.034824
_symmetry_space_group_name_H-M "P N M A"
_symmetry_group_IT_number 62
_symmetry_cell_setting 'orthorhombic'
loop_
_space_group_symop_operation_xyz
x,y,z
1/2-x,-y,1/2+z
1/2+x,1/2-y,1/2-z
-x,1/2+y,-z
-x,-y,-z
1/2+x,y,1/2-z
1/2-x,1/2+y,1/2+z
x,1/2-y,z
loop_
_atom_site_type_symbol
_atom_site_label
_atom_site_fract_x
_atom_site_fract_y
_atom_site_fract_z
Si Si1 0.040884 0.210843 0.874401
Si Si2 0.957134 0.139459 0.039930
Si Si3 0.543233 0.609414 0.969203
Si Si4 0.024242 0.465103 0.623496
O O1 0.321460 0.205689 0.785605
O O2 0.017786 0.250000 0.966709
O O3 0.001151 0.181663 0.041869
O O4 0.693834 0.129596 0.929044
O O5 0.189973 0.120043 0.927460
O O6 0.913931 0.123671 0.252367
O O7 0.503678 0.567543 0.976175
O O8 0.804203 0.463768 0.783728
O O9 0.000000 0.500000 0.500000
#
# Coordination Sequence:
#
# PCOD8253885 Si02
#       4
#     8   8   8   8
#     4  10  21  37  60  94 133 172 218 272 330 390
#     4  10  21  39  65  89 131 177 215 276 321 393
#     4  10  23  40  63  93 128 165 222 272 322 397
#     4  12  28  46  73 101 134 177 219 280 345 404
#
# _framework density 23.255222
#
# number of rings (size 3 to 8) (size 9 to 14) (size 15 to 20)
#    0.000    1.500    0.000    3.750    7.000    6.000 
#    0.000    5.000    0.000    0.000    0.000    0.000 
#    0.000    0.000    0.000    0.000    0.000    0.000 
#
# Total GULP energy -396595.540293 kJ/mol
# GULP energy per Si atom -12393.610634 kJ/mol
# Density = 2.320229 g / cm^3
# Si number density = 23.255222 Si / 1000 Ang^3
#
#
#
# Elastic Constant Matrix: (Units=GPa)
#
#
# Indices 1 2 3 4 5 6 
#
# 1 175.4375 0.2377 -19.6512 0.0000 0.0000 0.0000
# 2 0.2377 171.7903 25.9468 0.0000 0.0000 0.0000
# 3 -19.6512 25.9468 55.3482 0.0000 0.0000 0.0000
# 4 0.0000 0.0000 0.0000 51.0960 0.0000 0.0000
# 5 0.0000 0.0000 0.0000 0.0000 6.5075 0.0000
# 6 0.0000 0.0000 0.0000 0.0000 0.0000 38.8821
#
#
#
# Elastic Compliance Matrix: (Units=1/GPa)
#
#
# Indices 1 2 3 4 5 6 
#
# 1 0.005956 -0.000353 0.002280 0.000000 0.000000 0.000000
# 2 -0.000353 0.006285 -0.003072 0.000000 0.000000 0.000000
# 3 0.002280 -0.003072 0.020317 0.000000 0.000000 0.000000
# 4 0.000000 0.000000 0.000000 0.019571 0.000000 0.000000
# 5 0.000000 0.000000 0.000000 0.000000 0.153668 0.000000
# 6 0.000000 0.000000 0.000000 0.000000 0.000000 0.025719
#
#
# Mechanical properties :
#
#
# Convention : Reuss Voigt Hill
#
# Bulk Modulus (GPa) = 33.03665 46.18251 39.60958
# Shear Modulus (GPa) = 20.50063 45.69996 33.10030
#
# Velocity S-wave (km/s) = 2.97231 4.43781 3.77682
# Velocity P-wave (km/s) = 5.10063 6.79419 6.00739
#
# Compressibility (1/GPa) = 0.03026941
#
# Stress axis : x y z
#
# Youngs Moduli (GPa) = 167.90092 159.09652 49.21999
#
# Poissons Ratio (x) = 0.05610 -0.11222
# Poissons Ratio (y) = 0.05920 0.15119
# Poissons Ratio (z) = -0.38280 0.48871
#
# Static dielectric constant tensor:
#      x y z
#    x 5.955660 0.000000 0.000000 
#    y 0.000000 4.452230 0.000000 
#    z 0.000000 0.000000 3.846320 
# 
# 
# High freq. dielectric constant tensor:
#      x y z
#    x 1.965790 0.000000 0.000000 
#    y 0.000000 1.932840 0.000000 
#    z 0.000000 0.000000 1.882650 
# 
# From -- ./inp_files/3815.got.cif
#   From: 2010.03.12/outbox.cif.g09.slc.cpg/sg62_2_cif.got.tgz:3815.got - 2010.04.10 19:12:36.
