data_PCOD8253844
_publ_section_title
;
Structure prediction by ZEFSAII (Michael W. Deem and Ramdas Pophale) SiO2 
 PCOD8253844
Probable space group: P N M A
;
_chemical_formula_sum "Si O2"
_cell_formula_units_Z 40
_cell_length_a 8.978777
_cell_length_b 25.194394
_cell_length_c 7.730355
_cell_angle_alpha 90.000000
_cell_angle_beta 90.000000
_cell_angle_gamma 90.000000
_cell_volume 1748.721061
_symmetry_space_group_name_H-M "P N M A"
_symmetry_group_IT_number 62
_symmetry_cell_setting 'orthorhombic'
loop_
_space_group_symop_operation_xyz
x,y,z
1/2-x,-y,1/2+z
1/2+x,1/2-y,1/2-z
-x,1/2+y,-z
-x,-y,-z
1/2+x,y,1/2-z
1/2-x,1/2+y,1/2+z
x,1/2-y,z
loop_
_atom_site_type_symbol
_atom_site_label
_atom_site_fract_x
_atom_site_fract_y
_atom_site_fract_z
Si Si1 0.140690 0.307874 0.486570
Si Si2 0.179115 0.090698 0.086986
Si Si3 0.890243 0.019308 0.850566
Si Si4 0.629681 0.414306 0.807486
Si Si5 0.915347 0.156097 0.214260
O O1 0.126227 0.250000 0.578619
O O2 0.099476 0.355254 0.619292
O O3 0.311030 0.311952 0.419093
O O4 0.027285 0.307235 0.324681
O O5 0.186918 0.036512 0.202791
O O6 0.311259 0.127162 0.148940
O O7 0.014354 0.115101 0.106543
O O8 0.200835 0.084603 0.883006
O O9 0.758534 0.057798 0.922741
O O10 0.979773 0.049632 0.696436
O O11 0.000000 0.000000 0.000000
#
# Coordination Sequence:
#
# PCOD8253844 Si02
#       5
#     8   8   8   8   8
#     4  11  23  42  63  88 122 164 209 260 307 356
#     4  10  21  40  62  91 125 160 197 251 310 372
#     4  10  21  37  58  88 124 157 191 246 313 365
#     4  11  22  39  62  93 123 159 212 255 296 368
#     4  10  22  40  63  90 122 160 204 248 311 379
#
# _framework density 22.873858999999999
#
# number of rings (size 3 to 8) (size 9 to 14) (size 15 to 20)
#    0.000    1.600    0.000    5.400    0.000    4.800 
#    0.000   23.000    0.000    0.000    0.000    0.000 
#    0.000    0.000    0.000    0.000    0.000    0.000 
#
# Total GULP energy -495594.015262 kJ/mol
# GULP energy per Si atom -12389.850382 kJ/mol
# Density = 2.282180 g / cm^3
# Si number density = 22.873859 Si / 1000 Ang^3
#
#
#
# Elastic Constant Matrix: (Units=GPa)
#
#
# Indices 1 2 3 4 5 6 
#
# 1 99.4750 38.1280 14.3411 0.0000 0.0000 0.0000
# 2 38.1280 178.7532 35.8538 0.0000 0.0000 0.0000
# 3 14.3411 35.8538 59.3455 0.0000 0.0000 0.0000
# 4 0.0000 0.0000 0.0000 28.8643 0.0000 0.0000
# 5 0.0000 0.0000 0.0000 0.0000 30.4643 0.0000
# 6 0.0000 0.0000 0.0000 0.0000 0.0000 10.2329
#
#
#
# Elastic Compliance Matrix: (Units=1/GPa)
#
#
# Indices 1 2 3 4 5 6 
#
# 1 0.011052 -0.002073 -0.001418 0.000000 0.000000 0.000000
# 2 -0.002073 0.006754 -0.003580 0.000000 0.000000 0.000000
# 3 -0.001418 -0.003580 0.019356 0.000000 0.000000 0.000000
# 4 0.000000 0.000000 0.000000 0.034645 0.000000 0.000000
# 5 0.000000 0.000000 0.000000 0.000000 0.032825 0.000000
# 6 0.000000 0.000000 0.000000 0.000000 0.000000 0.097724
#
#
# Mechanical properties :
#
#
# Convention : Reuss Voigt Hill
#
# Bulk Modulus (GPa) = 43.44026 57.13548 50.28787
# Shear Modulus (GPa) = 22.30434 30.52903 26.41669
#
# Velocity S-wave (km/s) = 3.12605 3.65728 3.40205
# Velocity P-wave (km/s) = 5.66233 6.54729 6.12082
#
# Compressibility (1/GPa) = 0.02302012
#
# Stress axis : x y z
#
# Youngs Moduli (GPa) = 90.48323 148.05009 51.66358
#
# Poissons Ratio (x) = 0.30688 0.07328
# Poissons Ratio (y) = 0.18756 0.18495
# Poissons Ratio (z) = 0.12834 0.52999
#
# Static dielectric constant tensor:
#      x y z
#    x 4.571670 0.000000 0.000000 
#    y 0.000000 4.508620 0.000000 
#    z 0.000000 0.000000 3.665200 
# 
# 
# High freq. dielectric constant tensor:
#      x y z
#    x 1.929960 0.000000 0.000000 
#    y 0.000000 1.902450 0.000000 
#    z 0.000000 0.000000 1.872040 
# 
# From -- ./inp_files/4291.got.cif
#   From: 2010.03.12/outbox.cif.g09.slc.cpg/sg62_3_cif.got.tgz:4291.got - 2010.04.10 19:12:36.
