data_PCOD8253457
_publ_section_title
;
Structure prediction by ZEFSAII (Michael W. Deem and Ramdas Pophale) SiO2 
 PCOD8253457
Probable space group: P N M A
;
_chemical_formula_sum "Si O2"
_cell_formula_units_Z 48
_cell_length_a 16.690909
_cell_length_b 17.566302
_cell_length_c 8.445308
_cell_angle_alpha 90.000000
_cell_angle_beta 90.000000
_cell_angle_gamma 90.000000
_cell_volume 2476.143599
_symmetry_space_group_name_H-M "P N M A"
_symmetry_group_IT_number 62
_symmetry_cell_setting 'orthorhombic'
loop_
_space_group_symop_operation_xyz
x,y,z
1/2-x,-y,1/2+z
1/2+x,1/2-y,1/2-z
-x,1/2+y,-z
-x,-y,-z
1/2+x,y,1/2-z
1/2-x,1/2+y,1/2+z
x,1/2-y,z
loop_
_atom_site_type_symbol
_atom_site_label
_atom_site_fract_x
_atom_site_fract_y
_atom_site_fract_z
Si Si1 0.025765 0.942748 0.729978
Si Si2 0.107648 0.543881 0.411766
Si Si3 0.144025 0.043646 0.900940
Si Si4 0.762010 0.545594 0.420950
Si Si5 0.975321 0.836180 0.983539
Si Si6 0.645400 0.662639 0.345712
O O1 0.074462 0.918651 0.573764
O O2 0.983612 0.869322 0.805909
O O3 0.082057 0.975897 0.867495
O O4 0.963156 0.008881 0.690914
O O5 0.167591 0.473883 0.454793
O O6 0.147846 0.612670 0.315537
O O7 0.205111 0.049385 0.755761
O O8 0.096132 0.121793 0.923503
O O9 0.194069 0.020846 0.058984
O O10 0.716123 0.626064 0.456407
O O11 0.947137 0.750000 0.966961
O O12 0.058726 0.842364 0.075822
O O13 0.667607 0.750000 0.307880
#
# Coordination Sequence:
#
# PCOD8253457 Si02
#       6
#     8   8   8   8   8   8
#     4  10  20  38  65  87 113 154 209 250 284 359
#     4  10  21  38  63  90 115 157 206 250 298 352
#     4  11  21  37  62  87 117 155 208 248 289 357
#     4  11  22  37  62  89 117 157 203 251 298 358
#     4  11  23  38  60  88 123 160 195 244 307 366
#     4  11  22  39  60  88 123 159 199 252 310 360
#
# _framework density 19.384982000000001
#
# number of rings (size 3 to 8) (size 9 to 14) (size 15 to 20)
#    0.000    1.333    5.000    1.500    0.000    1.333 
#    0.000    0.833    0.000    0.000    0.000    0.000 
#    0.000    0.000    0.000    0.000    0.000    0.000 
#
# Total GULP energy -594918.228787 kJ/mol
# GULP energy per Si atom -12394.129766 kJ/mol
# Density = 1.934086 g / cm^3
# Si number density = 19.384982 Si / 1000 Ang^3
#
#
#
# Elastic Constant Matrix: (Units=GPa)
#
#
# Indices 1 2 3 4 5 6 
#
# 1 98.2610 47.5111 41.8400 0.0000 0.0000 0.0000
# 2 47.5111 133.1967 52.8963 0.0000 0.0000 0.0000
# 3 41.8400 52.8963 85.0756 0.0000 0.0000 0.0000
# 4 0.0000 0.0000 0.0000 18.6523 0.0000 0.0000
# 5 0.0000 0.0000 0.0000 0.0000 32.3137 0.0000
# 6 0.0000 0.0000 0.0000 0.0000 0.0000 28.0743
#
#
#
# Elastic Compliance Matrix: (Units=1/GPa)
#
#
# Indices 1 2 3 4 5 6 
#
# 1 0.013684 -0.002933 -0.004906 0.000000 0.000000 0.000000
# 2 -0.002933 0.010598 -0.005147 0.000000 0.000000 0.000000
# 3 -0.004906 -0.005147 0.017367 0.000000 0.000000 0.000000
# 4 0.000000 0.000000 0.000000 0.053613 0.000000 0.000000
# 5 0.000000 0.000000 0.000000 0.000000 0.030947 0.000000
# 6 0.000000 0.000000 0.000000 0.000000 0.000000 0.035620
#
#
# Mechanical properties :
#
#
# Convention : Reuss Voigt Hill
#
# Bulk Modulus (GPa) = 63.78686 66.78089 65.28388
# Shear Modulus (GPa) = 25.90320 27.42711 26.66515
#
# Velocity S-wave (km/s) = 3.65944 3.76555 3.71287
# Velocity P-wave (km/s) = 7.12966 7.30961 7.22020
#
# Compressibility (1/GPa) = 0.01567721
#
# Stress axis : x y z
#
# Youngs Moduli (GPa) = 73.07722 94.35948 57.57911
#
# Poissons Ratio (x) = 0.27672 0.28251
# Poissons Ratio (y) = 0.21431 0.29636
# Poissons Ratio (z) = 0.35855 0.48567
#
# Static dielectric constant tensor:
#      x y z
#    x 3.846650 0.000000 0.000000 
#    y 0.000000 3.455200 0.000000 
#    z 0.000000 0.000000 3.562840 
# 
# 
# High freq. dielectric constant tensor:
#      x y z
#    x 1.774970 0.000000 0.000000 
#    y 0.000000 1.727350 0.000000 
#    z 0.000000 0.000000 1.752080 
# 
# From -- ./inp_files/7805.got.cif
#   From: 2010.03.12/outbox.cif.g09.slc.cpg/sg62_4_cif.got.tgz:7805.got - 2010.04.10 19:12:36.
