data_PCOD8253598
_publ_section_title
;
Structure prediction by ZEFSAII (Michael W. Deem and Ramdas Pophale) SiO2 
 PCOD8253598
Probable space group: P N M A
;
_chemical_formula_sum "Si O2"
_cell_formula_units_Z 56
_cell_length_a 33.105182
_cell_length_b 12.956516
_cell_length_c 5.448389
_cell_angle_alpha 90.000000
_cell_angle_beta 90.000000
_cell_angle_gamma 90.000000
_cell_volume 2336.965618
_symmetry_space_group_name_H-M "P N M A"
_symmetry_group_IT_number 62
_symmetry_cell_setting 'orthorhombic'
loop_
_space_group_symop_operation_xyz
x,y,z
1/2-x,-y,1/2+z
1/2+x,1/2-y,1/2-z
-x,1/2+y,-z
-x,-y,-z
1/2+x,y,1/2-z
1/2-x,1/2+y,1/2+z
x,1/2-y,z
loop_
_atom_site_type_symbol
_atom_site_label
_atom_site_fract_x
_atom_site_fract_y
_atom_site_fract_z
Si Si1 0.994929 0.369074 0.139387
Si Si2 0.108437 0.471349 0.431980
Si Si3 0.587487 0.864644 0.425888
Si Si4 0.170536 0.364072 0.114336
Si Si5 0.034562 0.126997 0.641052
Si Si6 0.749720 0.937738 0.686025
Si Si7 0.163354 0.936342 0.803493
O O1 0.007815 0.250000 0.126294
O O2 0.011497 0.414101 0.395997
O O3 0.946226 0.381584 0.137453
O O4 0.014318 0.420736 0.889466
O O5 0.080037 0.547023 0.273708
O O6 0.130257 0.383647 0.273047
O O7 0.080674 0.414433 0.633684
O O8 0.142985 0.546106 0.540720
O O9 0.581633 0.750000 0.310332
O O10 0.632790 0.871710 0.529761
O O11 0.166565 0.250000 0.998389
O O12 0.211327 0.365524 0.279570
O O13 0.172946 0.448750 0.902786
O O14 0.033793 0.250000 0.650952
O O15 0.706436 0.877395 0.714966
O O16 0.751038 0.979048 0.407334
#
# Coordination Sequence:
#
# PCOD8253598 Si02
#       7
#     8   8   8   8   8   8   8
#     4   9  21  41  62  91 130 172 216 268 323 387
#     4  11  23  40  63  95 128 170 215 273 326 387
#     4  10  24  43  64  89 124 172 224 274 328 384
#     4  10  22  40  65  97 131 172 214 262 328 392
#     4  10  22  39  63  94 132 170 211 266 328 393
#     4  10  20  42  66  90 130 171 212 261 318 380
#     4  10  23  41  65  94 132 170 210 274 323 387
#
# _framework density 23.962695
#
# number of rings (size 3 to 8) (size 9 to 14) (size 15 to 20)
#    0.000    2.000    1.429    0.429    6.000    3.429 
#    0.000    0.000    0.000    0.000    0.000    0.000 
#    0.000    0.000    0.000    0.000    0.000    0.000 
#
# Total GULP energy -694100.314519 kJ/mol
# GULP energy per Si atom -12394.648474 kJ/mol
# Density = 2.390815 g / cm^3
# Si number density = 23.962695 Si / 1000 Ang^3
#
#
#
# Elastic Constant Matrix: (Units=GPa)
#
#
# Indices 1 2 3 4 5 6 
#
# 1 138.0232 23.7233 20.4535 0.0000 0.0000 0.0000
# 2 23.7233 73.9930 18.1540 0.0000 0.0000 0.0000
# 3 20.4535 18.1540 94.3352 0.0000 0.0000 0.0000
# 4 0.0000 0.0000 0.0000 19.1821 0.0000 0.0000
# 5 0.0000 0.0000 0.0000 0.0000 41.3109 0.0000
# 6 0.0000 0.0000 0.0000 0.0000 0.0000 21.4926
#
#
#
# Elastic Compliance Matrix: (Units=1/GPa)
#
#
# Indices 1 2 3 4 5 6 
#
# 1 0.007810 -0.002192 -0.001272 0.000000 0.000000 0.000000
# 2 -0.002192 0.014800 -0.002373 0.000000 0.000000 0.000000
# 3 -0.001272 -0.002373 0.011333 0.000000 0.000000 0.000000
# 4 0.000000 0.000000 0.000000 0.052132 0.000000 0.000000
# 5 0.000000 0.000000 0.000000 0.000000 0.024207 0.000000
# 6 0.000000 0.000000 0.000000 0.000000 0.000000 0.046528
#
#
# Mechanical properties :
#
#
# Convention : Reuss Voigt Hill
#
# Bulk Modulus (GPa) = 44.90353 47.89034 46.39693
# Shear Modulus (GPa) = 28.42433 32.66515 30.54474
#
# Velocity S-wave (km/s) = 3.44785 3.69611 3.57414
# Velocity P-wave (km/s) = 5.88471 6.18415 6.03629
#
# Compressibility (1/GPa) = 0.02226996
#
# Stress axis : x y z
#
# Youngs Moduli (GPa) = 128.03480 67.56856 88.23928
#
# Poissons Ratio (x) = 0.14812 0.11220
# Poissons Ratio (y) = 0.28067 0.20937
# Poissons Ratio (z) = 0.16281 0.16033
#
# Static dielectric constant tensor:
#      x y z
#    x 4.751420 0.000000 0.000000 
#    y 0.000000 4.016340 0.000000 
#    z 0.000000 0.000000 4.249810 
# 
# 
# High freq. dielectric constant tensor:
#      x y z
#    x 1.971470 0.000000 0.000000 
#    y 0.000000 1.931640 0.000000 
#    z 0.000000 0.000000 1.942840 
# 
# From -- ./inp_files/3612.got.cif
#   From: 2010.03.12/outbox.cif.g09.slc.cpg/sg62_2_cif.got.tgz:3612.got - 2010.04.10 19:12:36.
