data_PCOD8253721
_publ_section_title
;
Structure prediction by ZEFSAII (Michael W. Deem and Ramdas Pophale) SiO2 
 PCOD8253721
Probable space group: P N M A
;
_chemical_formula_sum "Si O2"
_cell_formula_units_Z 64
_cell_length_a 24.422672
_cell_length_b 8.905118
_cell_length_c 14.183518
_cell_angle_alpha 90.000000
_cell_angle_beta 90.000000
_cell_angle_gamma 90.000000
_cell_volume 3084.727603
_symmetry_space_group_name_H-M "P N M A"
_symmetry_group_IT_number 62
_symmetry_cell_setting 'orthorhombic'
loop_
_space_group_symop_operation_xyz
x,y,z
1/2-x,-y,1/2+z
1/2+x,1/2-y,1/2-z
-x,1/2+y,-z
-x,-y,-z
1/2+x,y,1/2-z
1/2-x,1/2+y,1/2+z
x,1/2-y,z
loop_
_atom_site_type_symbol
_atom_site_label
_atom_site_fract_x
_atom_site_fract_y
_atom_site_fract_z
Si Si1 0.808404 0.574406 0.781544
Si Si2 0.832911 0.927102 0.993011
Si Si3 0.942057 0.927683 0.474796
Si Si4 0.588034 0.924954 0.780615
Si Si5 0.301831 0.424440 0.324488
Si Si6 0.393594 0.077845 0.856877
Si Si7 0.511600 0.584109 0.278480
Si Si8 0.444344 0.078944 0.527297
O O1 0.822224 0.750000 0.775015
O O2 0.747977 0.536882 0.744619
O O3 0.850934 0.487405 0.717050
O O4 0.811525 0.519510 0.890416
O O5 0.834902 0.750000 0.998743
O O6 0.793963 0.988289 0.076412
O O7 0.892980 0.991868 0.014937
O O8 0.948018 0.750000 0.480757
O O9 0.921034 0.974486 0.372322
O O10 0.894566 0.983590 0.546544
O O11 0.000000 0.000000 0.500000
O O12 0.588903 0.750000 0.807276
O O13 0.643433 0.975652 0.729517
O O14 0.536636 0.960903 0.711477
O O15 0.304168 0.250000 0.349738
O O16 0.377899 0.250000 0.877898
O O17 0.455606 0.064209 0.818401
O O18 0.484618 0.750000 0.283586
O O19 0.557463 0.568288 0.359447
O O20 0.442620 0.250000 0.490367
O O21 0.500000 0.000000 0.500000
#
# Coordination Sequence:
#
# PCOD8253721 Si02
#       8
#     8   8   8   8   8   8   8   8
#     4  10  23  44  67  92 126 166 211 262 312 370
#     4  11  23  40  65  95 126 164 211 261 314 375
#     4  12  24  39  61  91 128 169 212 260 317 379
#     4  11  23  39  62  91 126 169 213 261 316 375
#     4  10  24  45  66  92 128 168 211 260 314 370
#     4  11  22  39  63  92 123 160 208 260 312 370
#     4  10  21  36  57  85 122 161 203 255 311 373
#     4  11  22  37  58  89 126 165 207 255 314 378
#
# _framework density 20.747375000000002
#
# number of rings (size 3 to 8) (size 9 to 14) (size 15 to 20)
#    0.000    1.250    2.500    3.375    0.000    6.500 
#    0.000    1.250    0.000    0.000    0.000    0.000 
#    0.000    0.000    0.000    0.000    0.000    0.000 
#
# Total GULP energy -793743.860342 kJ/mol
# GULP energy per Si atom -12402.247818 kJ/mol
# Density = 2.070015 g / cm^3
# Si number density = 20.747375 Si / 1000 Ang^3
#
#
#
# Elastic Constant Matrix: (Units=GPa)
#
#
# Indices 1 2 3 4 5 6 
#
# 1 96.6961 45.1734 43.8799 0.0000 0.0000 0.0000
# 2 45.1734 106.2820 52.5691 0.0000 0.0000 0.0000
# 3 43.8799 52.5691 103.0129 0.0000 0.0000 0.0000
# 4 0.0000 0.0000 0.0000 37.8391 0.0000 0.0000
# 5 0.0000 0.0000 0.0000 0.0000 29.2542 0.0000
# 6 0.0000 0.0000 0.0000 0.0000 0.0000 27.9371
#
#
#
# Elastic Compliance Matrix: (Units=1/GPa)
#
#
# Indices 1 2 3 4 5 6 
#
# 1 0.013991 -0.004011 -0.003913 0.000000 0.000000 0.000000
# 2 -0.004011 0.013736 -0.005301 0.000000 0.000000 0.000000
# 3 -0.003913 -0.005301 0.014079 0.000000 0.000000 0.000000
# 4 0.000000 0.000000 0.000000 0.026428 0.000000 0.000000
# 5 0.000000 0.000000 0.000000 0.000000 0.034183 0.000000
# 6 0.000000 0.000000 0.000000 0.000000 0.000000 0.035795
#
#
# Mechanical properties :
#
#
# Convention : Reuss Voigt Hill
#
# Bulk Modulus (GPa) = 65.11951 65.47065 65.29508
# Shear Modulus (GPa) = 29.44974 29.96398 29.70686
#
# Velocity S-wave (km/s) = 3.77164 3.80443 3.78807
# Velocity P-wave (km/s) = 7.10085 7.13602 7.11846
#
# Compressibility (1/GPa) = 0.01535638
#
# Stress axis : x y z
#
# Youngs Moduli (GPa) = 71.47326 72.80220 71.02623
#
# Poissons Ratio (x) = 0.29204 0.27790
# Poissons Ratio (y) = 0.28671 0.37650
# Poissons Ratio (z) = 0.27965 0.38592
#
# Static dielectric constant tensor:
#      x y z
#    x 3.692920 0.000000 0.000000 
#    y 0.000000 3.786810 0.000000 
#    z 0.000000 0.000000 3.823060 
# 
# 
# High freq. dielectric constant tensor:
#      x y z
#    x 1.798960 0.000000 0.000000 
#    y 0.000000 1.813790 0.000000 
#    z 0.000000 0.000000 1.830360 
# 
# From -- ./inp_files/21001.got.cif
#   From: 2010.03.12/outbox.cif.g09.slc.cpg/sg62_11_cif.got.tgz:21001.got - 2010.04.10 19:12:36.
