data_PCOD8253053
_publ_section_title
;
Structure prediction by ZEFSAII (Michael W. Deem and Ramdas Pophale) SiO2 
 PCOD8253053
Probable space group: P N M A
;
_chemical_formula_sum "Si O2"
_cell_formula_units_Z 48
_cell_length_a 18.826820
_cell_length_b 8.516562
_cell_length_c 15.150474
_cell_angle_alpha 90.000000
_cell_angle_beta 90.000000
_cell_angle_gamma 90.000000
_cell_volume 2429.223665
_symmetry_space_group_name_H-M "P N M A"
_symmetry_group_IT_number 62
_symmetry_cell_setting 'orthorhombic'
loop_
_space_group_symop_operation_xyz
x,y,z
1/2-x,-y,1/2+z
1/2+x,1/2-y,1/2-z
-x,1/2+y,-z
-x,-y,-z
1/2+x,y,1/2-z
1/2-x,1/2+y,1/2+z
x,1/2-y,z
loop_
_atom_site_type_symbol
_atom_site_label
_atom_site_fract_x
_atom_site_fract_y
_atom_site_fract_z
Si Si1 0.331971 0.068543 0.491026
Si Si2 0.075683 0.066048 0.843213
Si Si3 0.414475 0.066817 0.831976
Si Si4 0.831157 0.934838 0.509969
Si Si5 0.926292 0.566317 0.353055
Si Si6 0.924426 0.567646 0.856936
O O1 0.341013 0.250000 0.466857
O O2 0.250388 0.024437 0.507818
O O3 0.359525 0.968231 0.408151
O O4 0.374143 0.030854 0.579372
O O5 0.057910 0.250000 0.840696
O O6 0.095322 0.005302 0.744648
O O7 0.005710 0.977202 0.877250
O O8 0.410567 0.250000 0.808619
O O9 0.491642 0.023076 0.872188
O O10 0.354178 0.020636 0.900728
O O11 0.401869 0.970634 0.742689
O O12 0.844549 0.750000 0.521205
O O13 0.876336 0.008514 0.428474
O O14 0.913250 0.750000 0.356516
O O15 0.913415 0.750000 0.876908
#
# Coordination Sequence:
#
# PCOD8253053 Si02
#       6
#     8   8   8   8   8   8
#     4  11  23  37  54  81 116 151 186 228 279 335
#     4  10  20  37  60  84 110 143 187 235 282 334
#     4  10  20  36  59  85 112 144 186 233 279 329
#     4  10  21  37  56  81 115 151 185 224 274 331
#     4   8  17  35  58  82 107 141 184 228 273 322
#     4  11  22  38  60  83 109 144 187 234 283 335
#
# _framework density 19.759398999999998
#
# number of rings (size 3 to 8) (size 9 to 14) (size 15 to 20)
#    0.000    2.000    0.000    5.000    0.000    2.667 
#    0.000    5.833    0.000    0.000    0.000    0.000 
#    0.000    0.000    0.000    0.000    0.000    0.000 
#
# Total GULP energy -595335.196970 kJ/mol
# GULP energy per Si atom -12402.816604 kJ/mol
# Density = 1.971443 g / cm^3
# Si number density = 19.759399 Si / 1000 Ang^3
#
#
#
# Elastic Constant Matrix: (Units=GPa)
#
#
# Indices 1 2 3 4 5 6 
#
# 1 84.4927 17.1303 46.6687 0.0000 0.0000 0.0000
# 2 17.1303 39.3269 14.2773 0.0000 0.0000 0.0000
# 3 46.6687 14.2773 89.9018 0.0000 0.0000 0.0000
# 4 0.0000 0.0000 0.0000 26.2973 0.0000 0.0000
# 5 0.0000 0.0000 0.0000 0.0000 18.7169 0.0000
# 6 0.0000 0.0000 0.0000 0.0000 0.0000 25.3837
#
#
#
# Elastic Compliance Matrix: (Units=1/GPa)
#
#
# Indices 1 2 3 4 5 6 
#
# 1 0.017326 -0.004544 -0.008272 0.000000 0.000000 0.000000
# 2 -0.004544 0.028175 -0.002116 0.000000 0.000000 0.000000
# 3 -0.008272 -0.002116 0.015753 0.000000 0.000000 0.000000
# 4 0.000000 0.000000 0.000000 0.038027 0.000000 0.000000
# 5 0.000000 0.000000 0.000000 0.000000 0.053428 0.000000
# 6 0.000000 0.000000 0.000000 0.000000 0.000000 0.039395
#
#
# Mechanical properties :
#
#
# Convention : Reuss Voigt Hill
#
# Bulk Modulus (GPa) = 31.85655 41.09711 36.47683
# Shear Modulus (GPa) = 21.51176 23.12261 22.31718
#
# Velocity S-wave (km/s) = 3.30310 3.42454 3.36437
# Velocity P-wave (km/s) = 5.54117 6.03991 5.79591
#
# Compressibility (1/GPa) = 0.03139072
#
# Stress axis : x y z
#
# Youngs Moduli (GPa) = 57.71789 35.49220 63.47810
#
# Poissons Ratio (x) = 0.16126 0.52511
# Poissons Ratio (y) = 0.26225 0.13431
# Poissons Ratio (z) = 0.47746 0.07510
#
# Static dielectric constant tensor:
#      x y z
#    x 3.570440 0.000000 0.000000 
#    y 0.000000 3.434020 0.000000 
#    z 0.000000 0.000000 3.733560 
# 
# 
# High freq. dielectric constant tensor:
#      x y z
#    x 1.763820 0.000000 0.000000 
#    y 0.000000 1.759850 0.000000 
#    z 0.000000 0.000000 1.782900 
# 
# From -- ./inp_files/19658.got.cif
#   From: 2010.03.12/outbox.cif.g09.slc.cpg/sg62_10_cif.got.tgz:19658.got - 2010.04.10 19:12:36.
