data_PCOD8253712
_publ_section_title
;
Structure prediction by ZEFSAII (Michael W. Deem and Ramdas Pophale) SiO2 
 PCOD8253712
Probable space group: P N M A
;
_chemical_formula_sum "Si O2"
_cell_formula_units_Z 48
_cell_length_a 9.393741
_cell_length_b 8.749118
_cell_length_c 30.479489
_cell_angle_alpha 90.000000
_cell_angle_beta 90.000000
_cell_angle_gamma 90.000000
_cell_volume 2505.016192
_symmetry_space_group_name_H-M "P N M A"
_symmetry_group_IT_number 62
_symmetry_cell_setting 'orthorhombic'
loop_
_space_group_symop_operation_xyz
x,y,z
1/2-x,-y,1/2+z
1/2+x,1/2-y,1/2-z
-x,1/2+y,-z
-x,-y,-z
1/2+x,y,1/2-z
1/2-x,1/2+y,1/2+z
x,1/2-y,z
loop_
_atom_site_type_symbol
_atom_site_label
_atom_site_fract_x
_atom_site_fract_y
_atom_site_fract_z
Si Si1 0.089151 0.067900 0.708845
Si Si2 0.893576 0.073041 0.034068
Si Si3 0.910055 0.075823 0.133743
Si Si4 0.413633 0.931150 0.869730
Si Si5 0.587306 0.929885 0.292049
Si Si6 0.409567 0.069698 0.961336
O O1 0.079433 0.250000 0.704022
O O2 0.251519 0.008801 0.711948
O O3 0.007123 0.006896 0.751878
O O4 0.018555 0.989897 0.667221
O O5 0.862914 0.250000 0.022819
O O6 0.956337 0.058321 0.083113
O O7 0.751764 0.976052 0.030199
O O8 0.000000 0.000000 0.000000
O O9 0.922212 0.250000 0.149414
O O10 0.748295 0.016613 0.140690
O O11 0.018722 0.977095 0.162013
O O12 0.420612 0.750000 0.874438
O O13 0.465676 0.003336 0.915317
O O14 0.589755 0.750000 0.289773
O O15 0.426378 0.250000 0.960786
O O16 0.500000 0.000000 0.000000
#
# Coordination Sequence:
#
# PCOD8253712 Si02
#       6
#     8   8   8   8   8   8
#     4  10  21  37  56  82 111 144 185 230 278 331
#     4  10  21  38  58  84 116 152 193 237 284 339
#     4   9  20  37  56  79 110 144 183 228 277 330
#     4  10  21  38  58  82 111 146 186 230 279 336
#     4  10  21  36  57  82 110 144 186 230 276 332
#     4  11  22  38  60  85 114 150 189 235 285 338
#
# _framework density 19.161553999999999
#
# number of rings (size 3 to 8) (size 9 to 14) (size 15 to 20)
#    0.000    2.000    0.000    4.500    0.000    8.000 
#    0.000    3.333    0.000    0.000    0.000    0.000 
#    0.000    0.000    0.000    0.000    0.000    0.000 
#
# Total GULP energy -595328.737241 kJ/mol
# GULP energy per Si atom -12402.682026 kJ/mol
# Density = 1.911794 g / cm^3
# Si number density = 19.161554 Si / 1000 Ang^3
#
#
#
# Elastic Constant Matrix: (Units=GPa)
#
#
# Indices 1 2 3 4 5 6 
#
# 1 123.6549 39.1475 84.5232 0.0000 0.0000 0.0000
# 2 39.1475 67.1702 45.0597 0.0000 0.0000 0.0000
# 3 84.5232 45.0597 142.1801 0.0000 0.0000 0.0000
# 4 0.0000 0.0000 0.0000 37.0915 0.0000 0.0000
# 5 0.0000 0.0000 0.0000 0.0000 42.9466 0.0000
# 6 0.0000 0.0000 0.0000 0.0000 0.0000 32.5885
#
#
#
# Elastic Compliance Matrix: (Units=1/GPa)
#
#
# Indices 1 2 3 4 5 6 
#
# 1 0.014181 -0.003314 -0.007380 0.000000 0.000000 0.000000
# 2 -0.003314 0.019682 -0.004267 0.000000 0.000000 0.000000
# 3 -0.007380 -0.004267 0.012773 0.000000 0.000000 0.000000
# 4 0.000000 0.000000 0.000000 0.026960 0.000000 0.000000
# 5 0.000000 0.000000 0.000000 0.000000 0.023285 0.000000
# 6 0.000000 0.000000 0.000000 0.000000 0.000000 0.030686
#
#
# Mechanical properties :
#
#
# Convention : Reuss Voigt Hill
#
# Bulk Modulus (GPa) = 59.83457 74.49623 67.16540
# Shear Modulus (GPa) = 30.66368 33.47697 32.07033
#
# Velocity S-wave (km/s) = 4.00468 4.18436 4.09550
# Velocity P-wave (km/s) = 7.25792 7.89351 7.58238
#
# Compressibility (1/GPa) = 0.01671275
#
# Stress axis : x y z
#
# Youngs Moduli (GPa) = 70.51889 50.80865 78.29075
#
# Poissons Ratio (x) = 0.16838 0.57777
# Poissons Ratio (y) = 0.23370 0.33410
# Poissons Ratio (z) = 0.52042 0.21682
#
# Static dielectric constant tensor:
#      x y z
#    x 3.606620 0.000000 0.000000 
#    y 0.000000 3.489780 0.000000 
#    z 0.000000 0.000000 3.607080 
# 
# 
# High freq. dielectric constant tensor:
#      x y z
#    x 1.746120 0.000000 0.000000 
#    y 0.000000 1.746060 0.000000 
#    z 0.000000 0.000000 1.757760 
# 
# From -- ./inp_files/32030.got.cif
#   From: 2010.03.12/outbox.cif.g09.slc.cpg/sg62_17_cif.got.tgz:32030.got - 2010.04.10 19:12:36.
