data_PCOD8253231
_publ_section_title
;
Structure prediction by ZEFSAII (Michael W. Deem and Ramdas Pophale) SiO2 
 PCOD8253231
Probable space group: P N M A
;
_chemical_formula_sum "Si O2"
_cell_formula_units_Z 32
_cell_length_a 9.911406
_cell_length_b 11.268640
_cell_length_c 14.696175
_cell_angle_alpha 90.000000
_cell_angle_beta 90.000000
_cell_angle_gamma 90.000000
_cell_volume 1641.387365
_symmetry_space_group_name_H-M "P N M A"
_symmetry_group_IT_number 62
_symmetry_cell_setting 'orthorhombic'
loop_
_space_group_symop_operation_xyz
x,y,z
1/2-x,-y,1/2+z
1/2+x,1/2-y,1/2-z
-x,1/2+y,-z
-x,-y,-z
1/2+x,y,1/2-z
1/2-x,1/2+y,1/2+z
x,1/2-y,z
loop_
_atom_site_type_symbol
_atom_site_label
_atom_site_fract_x
_atom_site_fract_y
_atom_site_fract_z
Si Si1 0.544463 0.381981 0.445286
Si Si2 0.827859 0.113922 0.199443
Si Si3 0.125898 0.379231 0.448454
Si Si4 0.337632 0.057332 0.101719
O O1 0.500000 0.500000 0.500000
O O2 0.505005 0.250000 0.487285
O O3 0.474689 0.393413 0.346799
O O4 0.704720 0.377184 0.433484
O O5 0.793078 0.250000 0.227290
O O6 0.715185 0.058389 0.130754
O O7 0.828564 0.033875 0.290210
O O8 0.190506 0.250000 0.458824
O O9 0.144100 0.435217 0.547541
O O10 0.970285 0.366057 0.420038
#
# Coordination Sequence:
#
# PCOD8253231 Si02
#       4
#     8   8   8   8
#     4  11  22  38  60  86 117 153 193 240 290 343
#     4  10  20  37  60  85 113 150 195 241 289 343
#     4  10  21  37  57  85 118 152 191 242 296 342
#     4  11  21  35  61  86 115 152 196 240 287 347
#
# _framework density 19.495702999999999
#
# number of rings (size 3 to 8) (size 9 to 14) (size 15 to 20)
#    0.000    1.500    2.500    3.750    0.000    4.000 
#    0.000    1.250    0.000    3.000    0.000    0.000 
#    0.000    0.000    0.000    0.000    0.000    0.000 
#
# Total GULP energy -396470.626824 kJ/mol
# GULP energy per Si atom -12389.707088 kJ/mol
# Density = 1.945133 g / cm^3
# Si number density = 19.495703 Si / 1000 Ang^3
#
#
#
# Elastic Constant Matrix: (Units=GPa)
#
#
# Indices 1 2 3 4 5 6 
#
# 1 141.0272 24.5533 42.6045 0.0000 0.0000 0.0000
# 2 24.5533 93.3513 64.2175 0.0000 0.0000 0.0000
# 3 42.6045 64.2175 151.3660 0.0000 0.0000 0.0000
# 4 0.0000 0.0000 0.0000 1.2996 0.0000 0.0000
# 5 0.0000 0.0000 0.0000 0.0000 30.7672 0.0000
# 6 0.0000 0.0000 0.0000 0.0000 0.0000 11.9205
#
#
#
# Elastic Compliance Matrix: (Units=1/GPa)
#
#
# Indices 1 2 3 4 5 6 
#
# 1 0.007788 -0.000763 -0.001868 0.000000 0.000000 0.000000
# 2 -0.000763 0.015202 -0.006235 0.000000 0.000000 0.000000
# 3 -0.001868 -0.006235 0.009777 0.000000 0.000000 0.000000
# 4 0.000000 0.000000 0.000000 0.769477 0.000000 0.000000
# 5 0.000000 0.000000 0.000000 0.000000 0.032502 0.000000
# 6 0.000000 0.000000 0.000000 0.000000 0.000000 0.083889
#
#
# Mechanical properties :
#
#
# Convention : Reuss Voigt Hill
#
# Bulk Modulus (GPa) = 66.51085 72.05501 69.28293
# Shear Modulus (GPa) = 5.31135 25.75540 15.53338
#
# Velocity S-wave (km/s) = 1.65236 3.63861 2.82575
# Velocity P-wave (km/s) = 6.15062 7.39543 6.80156
#
# Compressibility (1/GPa) = 0.01503514
#
# Stress axis : x y z
#
# Youngs Moduli (GPa) = 128.40058 65.78152 102.27635
#
# Poissons Ratio (x) = 0.05020 0.19108
# Poissons Ratio (y) = 0.09800 0.63765
# Poissons Ratio (z) = 0.23989 0.41012
#
# Static dielectric constant tensor:
#      x y z
#    x 3.913310 0.000000 0.000000 
#    y 0.000000 3.393430 0.000000 
#    z 0.000000 0.000000 3.519280 
# 
# 
# High freq. dielectric constant tensor:
#      x y z
#    x 1.787880 0.000000 0.000000 
#    y 0.000000 1.729070 0.000000 
#    z 0.000000 0.000000 1.747680 
# 
# From -- ./inp_files/11758.got.cif
#   From: 2010.03.12/outbox.cif.g09.slc.cpg/sg62_6_cif.got.tgz:11758.got - 2010.04.10 19:12:36.
