data_PCOD8253638
_publ_section_title
;
Structure prediction by ZEFSAII (Michael W. Deem and Ramdas Pophale) SiO2 
 PCOD8253638
Probable space group: P N M A
;
_chemical_formula_sum "Si O2"
_cell_formula_units_Z 40
_cell_length_a 18.009907
_cell_length_b 8.990597
_cell_length_c 13.447896
_cell_angle_alpha 90.000000
_cell_angle_beta 90.000000
_cell_angle_gamma 90.000000
_cell_volume 2177.480844
_symmetry_space_group_name_H-M "P N M A"
_symmetry_group_IT_number 62
_symmetry_cell_setting 'orthorhombic'
loop_
_space_group_symop_operation_xyz
x,y,z
1/2-x,-y,1/2+z
1/2+x,1/2-y,1/2-z
-x,1/2+y,-z
-x,-y,-z
1/2+x,y,1/2-z
1/2-x,1/2+y,1/2+z
x,1/2-y,z
loop_
_atom_site_type_symbol
_atom_site_label
_atom_site_fract_x
_atom_site_fract_y
_atom_site_fract_z
Si Si1 0.537420 0.077333 0.407209
Si Si2 0.321677 0.426674 0.682131
Si Si3 0.532194 0.581027 0.802178
Si Si4 0.664827 0.425032 0.904873
Si Si5 0.872543 0.925674 0.624126
O O1 0.552515 0.250000 0.429572
O O2 0.482332 0.057978 0.314428
O O3 0.500000 0.000000 0.500000
O O4 0.615315 0.998536 0.386109
O O5 0.331197 0.250000 0.682160
O O6 0.243789 0.478704 0.635780
O O7 0.324424 0.487352 0.794327
O O8 0.553248 0.750000 0.826415
O O9 0.600784 0.480439 0.832277
O O10 0.459197 0.533715 0.863845
O O11 0.659219 0.250000 0.906311
O O12 0.653803 0.484334 0.017003
O O13 0.860136 0.750000 0.640499
#
# Coordination Sequence:
#
# PCOD8253638 Si02
#       5
#     8   8   8   8   8
#     4  10  21  38  58  80 107 143 181 219 264 315
#     4  10  21  36  53  79 110 140 177 220 263 314
#     4   9  19  34  54  79 104 134 177 218 261 317
#     4  10  21  35  54  80 109 139 176 221 269 317
#     4   9  19  37  55  74 105 142 175 216 267 317
#
# _framework density 18.36985
#
# number of rings (size 3 to 8) (size 9 to 14) (size 15 to 20)
#    0.000    2.400    0.000    3.000    0.000    8.000 
#    0.000    6.000    0.000    0.000    0.000    0.000 
#    0.000    0.000    0.000    0.000    0.000    0.000 
#
# Total GULP energy -496104.532586 kJ/mol
# GULP energy per Si atom -12402.613315 kJ/mol
# Density = 1.832804 g / cm^3
# Si number density = 18.369850 Si / 1000 Ang^3
#
#
#
# Elastic Constant Matrix: (Units=GPa)
#
#
# Indices 1 2 3 4 5 6 
#
# 1 133.9142 48.7949 84.4923 0.0000 0.0000 0.0000
# 2 48.7949 56.0161 44.1824 0.0000 0.0000 0.0000
# 3 84.4923 44.1824 120.1678 0.0000 0.0000 0.0000
# 4 0.0000 0.0000 0.0000 35.2191 0.0000 0.0000
# 5 0.0000 0.0000 0.0000 0.0000 28.6188 0.0000
# 6 0.0000 0.0000 0.0000 0.0000 0.0000 31.8249
#
#
#
# Elastic Compliance Matrix: (Units=1/GPa)
#
#
# Indices 1 2 3 4 5 6 
#
# 1 0.015014 -0.006693 -0.008096 0.000000 0.000000 0.000000
# 2 -0.006693 0.028127 -0.005636 0.000000 0.000000 0.000000
# 3 -0.008096 -0.005636 0.016086 0.000000 0.000000 0.000000
# 4 0.000000 0.000000 0.000000 0.028394 0.000000 0.000000
# 5 0.000000 0.000000 0.000000 0.000000 0.034942 0.000000
# 6 0.000000 0.000000 0.000000 0.000000 0.000000 0.031422
#
#
# Mechanical properties :
#
#
# Convention : Reuss Voigt Hill
#
# Bulk Modulus (GPa) = 54.41148 73.89304 64.15226
# Shear Modulus (GPa) = 24.88040 27.97447 26.42744
#
# Velocity S-wave (km/s) = 3.68423 3.90660 3.79704
# Velocity P-wave (km/s) = 6.91248 7.78853 7.36354
#
# Compressibility (1/GPa) = 0.01837848
#
# Stress axis : x y z
#
# Youngs Moduli (GPa) = 66.60259 35.55257 62.16499
#
# Poissons Ratio (x) = 0.23796 0.50329
# Poissons Ratio (y) = 0.44578 0.35033
# Poissons Ratio (z) = 0.53922 0.20036
#
# Static dielectric constant tensor:
#      x y z
#    x 3.382450 0.000000 0.000000 
#    y 0.000000 3.361330 0.000000 
#    z 0.000000 0.000000 3.540100 
# 
# 
# High freq. dielectric constant tensor:
#      x y z
#    x 1.711740 0.000000 0.000000 
#    y 0.000000 1.713740 0.000000 
#    z 0.000000 0.000000 1.720800 
# 
# From -- ./inp_files/13832.got.cif
#   From: 2010.03.12/outbox.cif.g09.slc.cpg/sg62_7_cif.got.tgz:13832.got - 2010.04.10 19:12:36.
