data_PCOD8253601
_publ_section_title
;
Structure prediction by ZEFSAII (Michael W. Deem and Ramdas Pophale) SiO2 
 PCOD8253601
Probable space group: P N M A
;
_chemical_formula_sum "Si O2"
_cell_formula_units_Z 44
_cell_length_a 21.637514
_cell_length_b 11.176943
_cell_length_c 9.970584
_cell_angle_alpha 90.000000
_cell_angle_beta 90.000000
_cell_angle_gamma 90.000000
_cell_volume 2411.298604
_symmetry_space_group_name_H-M "P N M A"
_symmetry_group_IT_number 62
_symmetry_cell_setting 'orthorhombic'
loop_
_space_group_symop_operation_xyz
x,y,z
1/2-x,-y,1/2+z
1/2+x,1/2-y,1/2-z
-x,1/2+y,-z
-x,-y,-z
1/2+x,y,1/2-z
1/2-x,1/2+y,1/2+z
x,1/2-y,z
loop_
_atom_site_type_symbol
_atom_site_label
_atom_site_fract_x
_atom_site_fract_y
_atom_site_fract_z
Si Si1 0.615173 0.250000 0.174366
Si Si2 0.540531 0.610663 0.330660
Si Si3 0.569015 0.496843 0.059987
Si Si4 0.737932 0.250000 0.318233
Si Si5 0.376811 0.750000 0.528575
Si Si6 0.643624 0.617975 0.829151
Si Si7 0.916596 0.504357 0.086955
O O1 0.589263 0.362957 0.094580
O O2 0.690957 0.250000 0.188682
O O3 0.587958 0.250000 0.326609
O O4 0.521291 0.750000 0.334345
O O5 0.574030 0.580811 0.190974
O O6 0.584683 0.581218 0.456477
O O7 0.483485 0.518761 0.344477
O O8 0.500000 0.500000 0.000000
O O9 0.619425 0.543420 0.954959
O O10 0.697006 0.250000 0.452465
O O11 0.781560 0.368038 0.325618
O O12 0.394438 0.864066 0.444711
O O13 0.612088 0.750000 0.833385
O O14 0.629201 0.553325 0.691465
#
# Coordination Sequence:
#
# PCOD8253601 Si02
#       7
#     4   8   8   4   4   8   8
#     4  10  24  44  60  89 131 173 207 251 331 374
#     4  11  22  35  57  93 124 164 198 245 321 384
#     4  12  24  38  65  94 133 165 200 272 329 386
#     4   8  22  45  62  86 123 174 209 265 316 370
#     4  10  20  43  58  89 116 167 210 254 307 360
#     4  10  23  41  62  94 121 162 214 264 312 376
#     4  11  21  37  63  86 126 162 205 258 302 383
#
# _framework density 18.247430000000001
#
# number of rings (size 3 to 8) (size 9 to 14) (size 15 to 20)
#    1.091    0.364    4.545    1.091    2.545    2.182 
#    0.000    0.000    0.000    0.000    0.000    0.000 
#    0.000    0.000    0.000    0.000    0.000    0.000 
#
# Total GULP energy -545350.955656 kJ/mol
# GULP energy per Si atom -12394.339901 kJ/mol
# Density = 1.820590 g / cm^3
# Si number density = 18.247430 Si / 1000 Ang^3
#
#
#
# Elastic Constant Matrix: (Units=GPa)
#
#
# Indices 1 2 3 4 5 6 
#
# 1 99.0508 28.8571 42.8624 0.0000 0.0000 0.0000
# 2 28.8571 113.5903 46.9868 0.0000 0.0000 0.0000
# 3 42.8624 46.9868 122.2093 0.0000 0.0000 0.0000
# 4 0.0000 0.0000 0.0000 36.1963 0.0000 0.0000
# 5 0.0000 0.0000 0.0000 0.0000 25.3465 0.0000
# 6 0.0000 0.0000 0.0000 0.0000 0.0000 24.8157
#
#
#
# Elastic Compliance Matrix: (Units=1/GPa)
#
#
# Indices 1 2 3 4 5 6 
#
# 1 0.012134 -0.001572 -0.003651 0.000000 0.000000 0.000000
# 2 -0.001572 0.010672 -0.003552 0.000000 0.000000 0.000000
# 3 -0.003651 -0.003552 0.010829 0.000000 0.000000 0.000000
# 4 0.000000 0.000000 0.000000 0.027627 0.000000 0.000000
# 5 0.000000 0.000000 0.000000 0.000000 0.039453 0.000000
# 6 0.000000 0.000000 0.000000 0.000000 0.000000 0.040297
#
#
# Mechanical properties :
#
#
# Convention : Reuss Voigt Hill
#
# Bulk Modulus (GPa) = 62.17188 63.58477 62.87833
# Shear Modulus (GPa) = 30.50190 31.68130 31.09160
#
# Velocity S-wave (km/s) = 4.09292 4.17130 4.13230
# Velocity P-wave (km/s) = 7.51542 7.62373 7.56977
#
# Compressibility (1/GPa) = 0.01608444
#
# Stress axis : x y z
#
# Youngs Moduli (GPa) = 82.41386 93.70143 92.34580
#
# Poissons Ratio (x) = 0.14732 0.33718
# Poissons Ratio (y) = 0.12957 0.32799
# Poissons Ratio (z) = 0.30091 0.33281
#
# Static dielectric constant tensor:
#      x y z
#    x 3.214230 0.000000 0.000000 
#    y 0.000000 3.228220 0.000000 
#    z 0.000000 0.000000 3.616400 
# 
# 
# High freq. dielectric constant tensor:
#      x y z
#    x 1.687190 0.000000 0.000000 
#    y 0.000000 1.713510 0.000000 
#    z 0.000000 0.000000 1.714990 
# 
# From -- ./inp_files/9275.got.cif
#   From: 2010.03.12/outbox.cif.g09.slc.cpg/sg62_5_cif.got.tgz:9275.got - 2010.04.10 19:12:36.
