data_PCOD8253958
_publ_section_title
;
Structure prediction by ZEFSAII (Michael W. Deem and Ramdas Pophale) SiO2 
 PCOD8253958
Probable space group: P N M A
;
_chemical_formula_sum "Si O2"
_cell_formula_units_Z 56
_cell_length_a 8.515791
_cell_length_b 14.982453
_cell_length_c 22.252749
_cell_angle_alpha 90.000000
_cell_angle_beta 90.000000
_cell_angle_gamma 90.000000
_cell_volume 2839.171243
_symmetry_space_group_name_H-M "P N M A"
_symmetry_group_IT_number 62
_symmetry_cell_setting 'orthorhombic'
loop_
_space_group_symop_operation_xyz
x,y,z
1/2-x,-y,1/2+z
1/2+x,1/2-y,1/2-z
-x,1/2+y,-z
-x,-y,-z
1/2+x,y,1/2-z
1/2-x,1/2+y,1/2+z
x,1/2-y,z
loop_
_atom_site_type_symbol
_atom_site_label
_atom_site_fract_x
_atom_site_fract_y
_atom_site_fract_z
Si Si1 0.500241 0.457072 0.751081
Si Si2 0.245114 0.007817 0.163475
Si Si3 0.335575 0.354943 0.575836
Si Si4 0.162952 0.650159 0.570604
Si Si5 0.127944 0.067892 0.474059
Si Si6 0.252448 0.150121 0.817421
Si Si7 0.190387 0.096378 0.946009
O O1 0.588199 0.512511 0.802798
O O2 0.387549 0.523948 0.714115
O O3 0.614949 0.415482 0.702086
O O4 0.411116 0.376943 0.784186
O O5 0.218231 0.909583 0.134728
O O6 0.239589 0.083943 0.113372
O O7 0.346096 0.250000 0.591969
O O8 0.205908 0.369772 0.524415
O O9 0.503042 0.391793 0.553377
O O10 0.186781 0.750000 0.594820
O O11 0.236438 0.642166 0.504553
O O12 0.974845 0.629214 0.571018
O O13 0.265110 0.009376 0.442700
O O14 0.000000 0.000000 0.500000
O O15 0.210193 0.250000 0.798500
O O16 0.270233 0.144180 0.889205
#
# Coordination Sequence:
#
# PCOD8253958 Si02
#       7
#     8   8   8   8   8   8   8
#     4  10  24  39  58  82 119 169 212 251 314 365
#     4  11  23  44  62  89 122 166 208 267 314 373
#     4  12  23  37  60  93 131 171 208 250 309 381
#     4  11  23  42  67  96 125 161 212 268 327 383
#     4  10  21  38  59  88 127 167 202 249 313 378
#     4  11  21  35  55  85 121 162 209 255 298 368
#     4  11  22  38  61  94 131 166 205 255 317 380
#
# _framework density 19.724066000000001
#
# number of rings (size 3 to 8) (size 9 to 14) (size 15 to 20)
#    0.000    1.143    4.286    3.429    2.000    2.857 
#    0.000    0.714    0.000    0.000    0.000    0.000 
#    0.000    0.000    0.000    0.000    0.000    0.000 
#
# Total GULP energy -694339.495533 kJ/mol
# GULP energy per Si atom -12398.919563 kJ/mol
# Density = 1.967917 g / cm^3
# Si number density = 19.724066 Si / 1000 Ang^3
#
#
#
# Elastic Constant Matrix: (Units=GPa)
#
#
# Indices 1 2 3 4 5 6 
#
# 1 99.2807 39.8612 42.1007 0.0000 0.0000 0.0000
# 2 39.8612 103.8523 47.3435 0.0000 0.0000 0.0000
# 3 42.1007 47.3435 96.1396 0.0000 0.0000 0.0000
# 4 0.0000 0.0000 0.0000 8.4500 0.0000 0.0000
# 5 0.0000 0.0000 0.0000 0.0000 29.3899 0.0000
# 6 0.0000 0.0000 0.0000 0.0000 0.0000 21.1366
#
#
#
# Elastic Compliance Matrix: (Units=1/GPa)
#
#
# Indices 1 2 3 4 5 6 
#
# 1 0.013106 -0.003113 -0.004206 0.000000 0.000000 0.000000
# 2 -0.003113 0.013156 -0.005115 0.000000 0.000000 0.000000
# 3 -0.004206 -0.005115 0.014763 0.000000 0.000000 0.000000
# 4 0.000000 0.000000 0.000000 0.118343 0.000000 0.000000
# 5 0.000000 0.000000 0.000000 0.000000 0.034025 0.000000
# 6 0.000000 0.000000 0.000000 0.000000 0.000000 0.047311
#
#
# Mechanical properties :
#
#
# Convention : Reuss Voigt Hill
#
# Bulk Modulus (GPa) = 61.89938 61.98703 61.94321
# Shear Modulus (GPa) = 18.45299 23.12644 20.78971
#
# Velocity S-wave (km/s) = 3.06201 3.42789 3.25010
# Velocity P-wave (km/s) = 6.62963 6.86750 6.74961
#
# Compressibility (1/GPa) = 0.01615525
#
# Stress axis : x y z
#
# Youngs Moduli (GPa) = 76.30092 76.01208 67.73876
#
# Poissons Ratio (x) = 0.23661 0.28493
# Poissons Ratio (y) = 0.23751 0.34651
# Poissons Ratio (z) = 0.32095 0.38883
#
# Static dielectric constant tensor:
#      x y z
#    x 3.960850 0.000000 0.000000 
#    y 0.000000 3.587700 0.000000 
#    z 0.000000 0.000000 3.573050 
# 
# 
# High freq. dielectric constant tensor:
#      x y z
#    x 1.782360 0.000000 0.000000 
#    y 0.000000 1.744040 0.000000 
#    z 0.000000 0.000000 1.766380 
# 
# From -- ./inp_files/25997.got.cif
#   From: 2010.03.12/outbox.cif.g09.slc.cpg/sg62_13_cif.got.tgz:25997.got - 2010.04.10 19:12:36.
