data_PCOD8253235
_publ_section_title
;
Structure prediction by ZEFSAII (Michael W. Deem and Ramdas Pophale) SiO2 
 PCOD8253235
Probable space group: P N M A
;
_chemical_formula_sum "Si O2"
_cell_formula_units_Z 64
_cell_length_a 13.578135
_cell_length_b 27.810682
_cell_length_c 8.151525
_cell_angle_alpha 90.000000
_cell_angle_beta 90.000000
_cell_angle_gamma 90.000000
_cell_volume 3078.156003
_symmetry_space_group_name_H-M "P N M A"
_symmetry_group_IT_number 62
_symmetry_cell_setting 'orthorhombic'
loop_
_space_group_symop_operation_xyz
x,y,z
1/2-x,-y,1/2+z
1/2+x,1/2-y,1/2-z
-x,1/2+y,-z
-x,-y,-z
1/2+x,y,1/2-z
1/2-x,1/2+y,1/2+z
x,1/2-y,z
loop_
_atom_site_type_symbol
_atom_site_label
_atom_site_fract_x
_atom_site_fract_y
_atom_site_fract_z
Si Si1 0.078719 0.304627 0.178332
Si Si2 0.576795 0.627634 0.834743
Si Si3 0.686982 0.304466 0.982962
Si Si4 0.533351 0.126136 0.835673
Si Si5 0.896237 0.052778 0.070181
Si Si6 0.838368 0.366449 0.842739
Si Si7 0.107642 0.054086 0.923239
Si Si8 0.730293 0.361735 0.507788
O O1 0.045620 0.250000 0.143403
O O2 0.152163 0.307730 0.330969
O O3 0.139457 0.324995 0.022546
O O4 0.981334 0.336100 0.214454
O O5 0.613358 0.580943 0.739826
O O6 0.676567 0.653178 0.897614
O O7 0.512430 0.610087 0.990076
O O8 0.693552 0.250000 0.920628
O O9 0.610287 0.331351 0.863980
O O10 0.796125 0.328416 0.975537
O O11 0.448288 0.147088 0.715376
O O12 0.584286 0.079832 0.751537
O O13 0.850526 0.999890 0.100176
O O14 0.838267 0.080245 0.923469
O O15 0.011444 0.050078 0.033715
O O16 0.760707 0.362269 0.696616
O O17 0.188084 0.084600 0.026373
#
# Coordination Sequence:
#
# PCOD8253235 Si02
#       8
#     8   8   8   8   8   8   8   8
#     4  10  22  40  61  87 121 163 209 257 313 375
#     4  10  21  38  63  91 123 165 205 262 316 373
#     4  10  20  37  60  85 118 162 202 249 313 372
#     4   9  20  38  59  86 127 157 203 260 307 375
#     4  10  21  38  60  86 122 160 205 255 318 369
#     4  10  21  37  58  88 123 159 202 259 309 374
#     4  10  20  38  61  86 120 164 202 255 313 376
#     4  11  21  38  61  89 125 162 208 255 315 376
#
# _framework density 20.791668999999999
#
# number of rings (size 3 to 8) (size 9 to 14) (size 15 to 20)
#    0.000    2.000    2.500    0.750    0.000    3.000 
#    0.000    3.125    0.000    0.000    0.000    0.000 
#    0.000    0.000    0.000    0.000    0.000    0.000 
#
# Total GULP energy -793309.335470 kJ/mol
# GULP energy per Si atom -12395.458367 kJ/mol
# Density = 2.074435 g / cm^3
# Si number density = 20.791669 Si / 1000 Ang^3
#
#
#
# Elastic Constant Matrix: (Units=GPa)
#
#
# Indices 1 2 3 4 5 6 
#
# 1 84.3913 40.7469 31.0688 0.0000 0.0000 0.0000
# 2 40.7469 135.9267 29.6797 0.0000 0.0000 0.0000
# 3 31.0688 29.6797 49.9051 0.0000 0.0000 0.0000
# 4 0.0000 0.0000 0.0000 31.2198 0.0000 0.0000
# 5 0.0000 0.0000 0.0000 0.0000 35.1936 0.0000
# 6 0.0000 0.0000 0.0000 0.0000 0.0000 25.4767
#
#
#
# Elastic Compliance Matrix: (Units=1/GPa)
#
#
# Indices 1 2 3 4 5 6 
#
# 1 0.016432 -0.003094 -0.008390 0.000000 0.000000 0.000000
# 2 -0.003094 0.009037 -0.003449 0.000000 0.000000 0.000000
# 3 -0.008390 -0.003449 0.027312 0.000000 0.000000 0.000000
# 4 0.000000 0.000000 0.000000 0.032031 0.000000 0.000000
# 5 0.000000 0.000000 0.000000 0.000000 0.028414 0.000000
# 6 0.000000 0.000000 0.000000 0.000000 0.000000 0.039252
#
#
# Mechanical properties :
#
#
# Convention : Reuss Voigt Hill
#
# Bulk Modulus (GPa) = 43.63601 52.57930 48.10766
# Shear Modulus (GPa) = 26.31822 29.62654 27.97238
#
# Velocity S-wave (km/s) = 3.56168 3.77891 3.67190
# Velocity P-wave (km/s) = 6.16010 6.66211 6.41602
#
# Compressibility (1/GPa) = 0.02291685
#
# Stress axis : x y z
#
# Youngs Moduli (GPa) = 60.85612 110.65149 36.61362
#
# Poissons Ratio (x) = 0.34235 0.30719
# Poissons Ratio (y) = 0.18829 0.12627
# Poissons Ratio (z) = 0.51058 0.38159
#
# Static dielectric constant tensor:
#      x y z
#    x 3.859490 0.000000 0.000000 
#    y 0.000000 3.883140 0.000000 
#    z 0.000000 0.000000 3.824210 
# 
# 
# High freq. dielectric constant tensor:
#      x y z
#    x 1.820700 0.000000 0.000000 
#    y 0.000000 1.795380 0.000000 
#    z 0.000000 0.000000 1.816630 
# 
# From -- ./inp_files/6948.got.cif
#   From: 2010.03.12/outbox.cif.g09.slc.cpg/sg62_4_cif.got.tgz:6948.got - 2010.04.10 19:12:36.
