data_PCOD8253202
_publ_section_title
;
Structure prediction by ZEFSAII (Michael W. Deem and Ramdas Pophale) SiO2 
 PCOD8253202
Probable space group: P N M A
;
_chemical_formula_sum "Si O2"
_cell_formula_units_Z 64
_cell_length_a 14.903493
_cell_length_b 9.112039
_cell_length_c 24.614179
_cell_angle_alpha 90.000000
_cell_angle_beta 90.000000
_cell_angle_gamma 90.000000
_cell_volume 3342.635278
_symmetry_space_group_name_H-M "P N M A"
_symmetry_group_IT_number 62
_symmetry_cell_setting 'orthorhombic'
loop_
_space_group_symop_operation_xyz
x,y,z
1/2-x,-y,1/2+z
1/2+x,1/2-y,1/2-z
-x,1/2+y,-z
-x,-y,-z
1/2+x,y,1/2-z
1/2-x,1/2+y,1/2+z
x,1/2-y,z
loop_
_atom_site_type_symbol
_atom_site_label
_atom_site_fract_x
_atom_site_fract_y
_atom_site_fract_z
Si Si1 0.664207 0.576976 0.136743
Si Si2 0.311543 0.079664 0.433913
Si Si3 0.708672 0.578008 0.852229
Si Si4 0.512585 0.079996 0.605009
Si Si5 0.261410 0.583248 0.254357
Si Si6 0.822273 0.081580 0.939720
Si Si7 0.995292 0.421913 0.332679
Si Si8 0.466331 0.915911 0.273034
O O1 0.660943 0.750000 0.126624
O O2 0.731258 0.508015 0.093555
O O3 0.694245 0.537206 0.197905
O O4 0.565864 0.506291 0.128800
O O5 0.305112 0.250000 0.417975
O O6 0.300852 0.054969 0.497758
O O7 0.407277 0.021309 0.414846
O O8 0.722279 0.750000 0.851231
O O9 0.756402 0.515248 0.798391
O O10 0.752768 0.515078 0.906161
O O11 0.603806 0.534538 0.852962
O O12 0.539120 0.250000 0.595592
O O13 0.424521 0.033525 0.571742
O O14 0.491067 0.051266 0.668383
O O15 0.244860 0.750000 0.236155
O O16 0.360121 0.560935 0.278720
O O17 0.809227 0.250000 0.922446
O O18 0.013423 0.250000 0.336443
O O19 0.008035 0.472927 0.270383
O O20 0.488690 0.750000 0.253921
#
# Coordination Sequence:
#
# PCOD8253202 Si02
#       8
#     8   8   8   8   8   8   8   8
#     4  11  22  38  61  87 114 156 202 239 290 353
#     4  11  23  39  59  87 121 154 194 247 298 343
#     4  10  22  39  59  85 117 152 193 242 297 348
#     4  10  20  37  59  85 118 157 199 238 282 349
#     4   9  18  34  56  81 112 150 189 232 283 343
#     4  10  23  40  60  85 116 157 200 243 292 346
#     4  10  22  38  56  85 122 153 189 246 301 348
#     4   9  17  33  55  82 115 153 192 229 276 344
#
# _framework density 19.146569
#
# number of rings (size 3 to 8) (size 9 to 14) (size 15 to 20)
#    0.000    2.000    1.250    1.875    1.750    4.500 
#    0.000    0.625    0.000    0.000    0.000    0.000 
#    0.000    0.000    0.000    0.000    0.000    0.000 
#
# Total GULP energy -793851.910805 kJ/mol
# GULP energy per Si atom -12403.936106 kJ/mol
# Density = 1.910299 g / cm^3
# Si number density = 19.146569 Si / 1000 Ang^3
#
#
#
# Elastic Constant Matrix: (Units=GPa)
#
#
# Indices 1 2 3 4 5 6 
#
# 1 61.6121 36.1703 48.7437 0.0000 0.0000 0.0000
# 2 36.1703 83.0454 56.2726 0.0000 0.0000 0.0000
# 3 48.7437 56.2726 88.0920 0.0000 0.0000 0.0000
# 4 0.0000 0.0000 0.0000 31.6408 0.0000 0.0000
# 5 0.0000 0.0000 0.0000 0.0000 22.2143 0.0000
# 6 0.0000 0.0000 0.0000 0.0000 0.0000 30.0288
#
#
#
# Elastic Compliance Matrix: (Units=1/GPa)
#
#
# Indices 1 2 3 4 5 6 
#
# 1 0.029323 -0.003134 -0.014223 0.000000 0.000000 0.000000
# 2 -0.003134 0.021567 -0.012043 0.000000 0.000000 0.000000
# 3 -0.014223 -0.012043 0.026915 0.000000 0.000000 0.000000
# 4 0.000000 0.000000 0.000000 0.031605 0.000000 0.000000
# 5 0.000000 0.000000 0.000000 0.000000 0.045016 0.000000
# 6 0.000000 0.000000 0.000000 0.000000 0.000000 0.033301
#
#
# Mechanical properties :
#
#
# Convention : Reuss Voigt Hill
#
# Bulk Modulus (GPa) = 52.61813 57.23586 54.92700
# Shear Modulus (GPa) = 19.77368 22.88099 21.32733
#
# Velocity S-wave (km/s) = 3.21713 3.46069 3.34113
# Velocity P-wave (km/s) = 6.42972 6.77694 6.60561
#
# Compressibility (1/GPa) = 0.01900486
#
# Stress axis : x y z
#
# Youngs Moduli (GPa) = 34.10304 46.36756 37.15420
#
# Poissons Ratio (x) = 0.14530 0.52846
# Poissons Ratio (y) = 0.10686 0.44744
# Poissons Ratio (z) = 0.48506 0.55840
#
# Static dielectric constant tensor:
#      x y z
#    x 3.527880 0.000000 0.000000 
#    y 0.000000 3.516830 0.000000 
#    z 0.000000 0.000000 3.416740 
# 
# 
# High freq. dielectric constant tensor:
#      x y z
#    x 1.749550 0.000000 0.000000 
#    y 0.000000 1.746520 0.000000 
#    z 0.000000 0.000000 1.735580 
# 
# From -- ./inp_files/29755.got.cif
#   From: 2010.03.12/outbox.cif.g09.slc.cpg/sg62_15_cif.got.tgz:29755.got - 2010.04.10 19:12:36.
