data_PCOD8253127
_publ_section_title
;
Structure prediction by ZEFSAII (Michael W. Deem and Ramdas Pophale) SiO2 
 PCOD8253127
Probable space group: P N M A
;
_chemical_formula_sum "Si O2"
_cell_formula_units_Z 48
_cell_length_a 11.885693
_cell_length_b 8.977908
_cell_length_c 23.339300
_cell_angle_alpha 90.000000
_cell_angle_beta 90.000000
_cell_angle_gamma 90.000000
_cell_volume 2490.505388
_symmetry_space_group_name_H-M "P N M A"
_symmetry_group_IT_number 62
_symmetry_cell_setting 'orthorhombic'
loop_
_space_group_symop_operation_xyz
x,y,z
1/2-x,-y,1/2+z
1/2+x,1/2-y,1/2-z
-x,1/2+y,-z
-x,-y,-z
1/2+x,y,1/2-z
1/2-x,1/2+y,1/2+z
x,1/2-y,z
loop_
_atom_site_type_symbol
_atom_site_label
_atom_site_fract_x
_atom_site_fract_y
_atom_site_fract_z
Si Si1 0.022653 0.423352 0.613529
Si Si2 0.898939 0.074904 0.164145
Si Si3 0.718306 0.577292 0.949244
Si Si4 0.338956 0.919013 0.222816
Si Si5 0.272612 0.421992 0.916770
Si Si6 0.867443 0.421965 0.859429
O O1 0.040696 0.250000 0.598515
O O2 0.893858 0.471922 0.607154
O O3 0.096670 0.516136 0.568846
O O4 0.060807 0.456519 0.678498
O O5 0.913240 0.250000 0.161034
O O6 0.842860 0.030470 0.224225
O O7 0.821418 0.022855 0.112066
O O8 0.019839 0.000933 0.159681
O O9 0.724083 0.750000 0.933178
O O10 0.819212 0.493517 0.917278
O O11 0.734157 0.549077 0.016039
O O12 0.351253 0.750000 0.245399
O O13 0.220069 0.942058 0.192080
O O14 0.250057 0.250000 0.901530
O O15 0.891854 0.250000 0.872245
#
# Coordination Sequence:
#
# PCOD8253127 Si02
#       6
#     8   8   8   8   8   8
#     4   9  19  37  62  89 117 158 201 236 286 354
#     4  12  26  39  57  88 121 153 194 250 302 341
#     4  10  20  36  61  91 122 153 192 249 297 337
#     4   9  20  39  62  85 112 153 199 240 287 352
#     4  10  22  39  59  87 122 160 201 237 285 355
#     4  10  22  42  65  84 112 158 201 236 287 360
#
# _framework density 19.273195000000001
#
# number of rings (size 3 to 8) (size 9 to 14) (size 15 to 20)
#    0.000    2.000    0.000    4.000    2.333    6.000 
#    0.000    0.000    0.000    0.000    0.000    0.000 
#    0.000    0.000    0.000    0.000    0.000    0.000 
#
# Total GULP energy -595444.119168 kJ/mol
# GULP energy per Si atom -12405.085816 kJ/mol
# Density = 1.922933 g / cm^3
# Si number density = 19.273195 Si / 1000 Ang^3
#
#
#
# Elastic Constant Matrix: (Units=GPa)
#
#
# Indices 1 2 3 4 5 6 
#
# 1 49.0204 -20.6868 -17.4016 0.0000 0.0000 0.0000
# 2 -20.6868 14.5417 -34.5977 0.0000 0.0000 0.0000
# 3 -17.4016 -34.5977 15.3924 0.0000 0.0000 0.0000
# 4 0.0000 0.0000 0.0000 33.7798 0.0000 0.0000
# 5 0.0000 0.0000 0.0000 0.0000 19.5316 0.0000
# 6 0.0000 0.0000 0.0000 0.0000 0.0000 16.5083
#
#
#
# Elastic Compliance Matrix: (Units=1/GPa)
#
#
# Indices 1 2 3 4 5 6 
#
# 1 0.011640 -0.011010 -0.011587 0.000000 0.000000 0.000000
# 2 -0.011010 -0.005403 -0.024592 0.000000 0.000000 0.000000
# 3 -0.011587 -0.024592 -0.003408 0.000000 0.000000 0.000000
# 4 0.000000 0.000000 0.000000 0.029603 0.000000 0.000000
# 5 0.000000 0.000000 0.000000 0.000000 0.051199 0.000000
# 6 0.000000 0.000000 0.000000 0.000000 0.000000 0.060576
#
#
# Mechanical properties :
#
#
# Convention : Reuss Voigt Hill
#
# Bulk Modulus (GPa) = -10.92321 -7.37975 -9.15148
# Shear Modulus (GPa) = 24.03048 24.07331 24.05189
#
# Velocity S-wave (km/s) = 3.53488 3.53803 3.53646
# Velocity P-wave (km/s) = 3.31371 3.58510 3.45207
#
# Compressibility (1/GPa) = -0.09154821
#
# Stress axis : x y z
#
# Youngs Moduli (GPa) = 85.90982 -185.07916 -293.45767
#
# Poissons Ratio (x) = -2.03769 -3.40041
# Poissons Ratio (y) = 0.94585 -7.21659
# Poissons Ratio (z) = 0.99547 -4.55139
#
# Static dielectric constant tensor:
#      x y z
#    x 3.616460 0.000000 0.000000 
#    y 0.000000 3.566100 0.000000 
#    z 0.000000 0.000000 3.488540 
# 
# 
# High freq. dielectric constant tensor:
#      x y z
#    x 1.757020 0.000000 0.000000 
#    y 0.000000 1.751010 0.000000 
#    z 0.000000 0.000000 1.755090 
# 
# From -- ./inp_files/29228.got.cif
#   From: 2010.03.12/outbox.cif.g09.slc.cpg/sg62_15_cif.got.tgz:29228.got - 2010.04.10 19:12:36.
