data_PCOD8253915
_publ_section_title
;
Structure prediction by ZEFSAII (Michael W. Deem and Ramdas Pophale) SiO2 
 PCOD8253915
Probable space group: P N M A
;
_chemical_formula_sum "Si O2"
_cell_formula_units_Z 40
_cell_length_a 13.444047
_cell_length_b 8.724808
_cell_length_c 18.067080
_cell_angle_alpha 90.000000
_cell_angle_beta 90.000000
_cell_angle_gamma 90.000000
_cell_volume 2119.209383
_symmetry_space_group_name_H-M "P N M A"
_symmetry_group_IT_number 62
_symmetry_cell_setting 'orthorhombic'
loop_
_space_group_symop_operation_xyz
x,y,z
1/2-x,-y,1/2+z
1/2+x,1/2-y,1/2-z
-x,1/2+y,-z
-x,-y,-z
1/2+x,y,1/2-z
1/2-x,1/2+y,1/2+z
x,1/2-y,z
loop_
_atom_site_type_symbol
_atom_site_label
_atom_site_fract_x
_atom_site_fract_y
_atom_site_fract_z
Si Si1 0.910768 0.429668 0.161179
Si Si2 0.310485 0.568888 0.479383
Si Si3 0.811372 0.428214 0.315975
Si Si4 0.383986 0.069704 0.626575
Si Si5 0.901756 0.072651 0.468242
O O1 0.905454 0.250000 0.144194
O O2 0.848789 0.521348 0.100392
O O3 0.862557 0.471416 0.239520
O O4 0.023673 0.484906 0.164231
O O5 0.321496 0.750000 0.491476
O O6 0.375595 0.485560 0.541943
O O7 0.195779 0.515866 0.487148
O O8 0.780857 0.250000 0.320803
O O9 0.712319 0.528104 0.325162
O O10 0.888530 0.468586 0.381682
O O11 0.402545 0.250000 0.627674
O O12 0.915470 0.250000 0.480408
O O13 0.000000 0.000000 0.500000
#
# Coordination Sequence:
#
# PCOD8253915 Si02
#       5
#     8   8   8   8   8
#     4  11  22  37  59  84 111 146 186 228 278 333
#     4  10  21  38  57  81 113 146 186 231 276 329
#     4   9  21  40  57  78 111 148 184 225 275 329
#     4  11  22  37  58  82 111 146 184 229 278 328
#     4   9  19  36  57  79 107 144 182 223 270 323
#
# _framework density 18.874963000000001
#
# number of rings (size 3 to 8) (size 9 to 14) (size 15 to 20)
#    0.000    2.000    0.000    4.800    0.000    7.200 
#    0.000    6.000    0.000    0.000    0.000    0.000 
#    0.000    0.000    0.000    0.000    0.000    0.000 
#
# Total GULP energy -496110.168158 kJ/mol
# GULP energy per Si atom -12402.754204 kJ/mol
# Density = 1.883200 g / cm^3
# Si number density = 18.874963 Si / 1000 Ang^3
#
#
#
# Elastic Constant Matrix: (Units=GPa)
#
#
# Indices 1 2 3 4 5 6 
#
# 1 91.4619 19.2984 55.3652 0.0000 0.0000 0.0000
# 2 19.2984 32.9441 14.5025 0.0000 0.0000 0.0000
# 3 55.3652 14.5025 112.3398 0.0000 0.0000 0.0000
# 4 0.0000 0.0000 0.0000 31.5770 0.0000 0.0000
# 5 0.0000 0.0000 0.0000 0.0000 30.1953 0.0000
# 6 0.0000 0.0000 0.0000 0.0000 0.0000 37.0357
#
#
#
# Elastic Compliance Matrix: (Units=1/GPa)
#
#
# Indices 1 2 3 4 5 6 
#
# 1 0.016828 -0.006581 -0.007444 0.000000 0.000000 0.000000
# 2 -0.006581 0.034757 -0.001244 0.000000 0.000000 0.000000
# 3 -0.007444 -0.001244 0.012731 0.000000 0.000000 0.000000
# 4 0.000000 0.000000 0.000000 0.031669 0.000000 0.000000
# 5 0.000000 0.000000 0.000000 0.000000 0.033118 0.000000
# 6 0.000000 0.000000 0.000000 0.000000 0.000000 0.027001
#
#
# Mechanical properties :
#
#
# Convention : Reuss Voigt Hill
#
# Bulk Modulus (GPa) = 29.60431 46.11979 37.86205
# Shear Modulus (GPa) = 25.26532 29.60027 27.43279
#
# Velocity S-wave (km/s) = 3.66261 3.96438 3.81648
# Velocity P-wave (km/s) = 5.79696 6.74111 6.28678
#
# Compressibility (1/GPa) = 0.03377886
#
# Stress axis : x y z
#
# Youngs Moduli (GPa) = 59.42417 28.77127 78.54973
#
# Poissons Ratio (x) = 0.18934 0.58472
# Poissons Ratio (y) = 0.39106 0.09769
# Poissons Ratio (z) = 0.44235 0.03578
#
# Static dielectric constant tensor:
#      x y z
#    x 3.812270 0.000000 0.000000 
#    y 0.000000 3.482420 0.000000 
#    z 0.000000 0.000000 3.546100 
# 
# 
# High freq. dielectric constant tensor:
#      x y z
#    x 1.741430 0.000000 0.000000 
#    y 0.000000 1.737970 0.000000 
#    z 0.000000 0.000000 1.734620 
# 
# From -- ./inp_files/22768.got.cif
#   From: 2010.03.12/outbox.cif.g09.slc.cpg/sg62_12_cif.got.tgz:22768.got - 2010.04.10 19:12:36.
