data_PCOD8253327
_publ_section_title
;
Structure prediction by ZEFSAII (Michael W. Deem and Ramdas Pophale) SiO2 
 PCOD8253327
Probable space group: P N M A
;
_chemical_formula_sum "Si O2"
_cell_formula_units_Z 64
_cell_length_a 15.675758
_cell_length_b 17.361654
_cell_length_c 11.984235
_cell_angle_alpha 90.000000
_cell_angle_beta 90.000000
_cell_angle_gamma 90.000000
_cell_volume 3261.594483
_symmetry_space_group_name_H-M "P N M A"
_symmetry_group_IT_number 62
_symmetry_cell_setting 'orthorhombic'
loop_
_space_group_symop_operation_xyz
x,y,z
1/2-x,-y,1/2+z
1/2+x,1/2-y,1/2-z
-x,1/2+y,-z
-x,-y,-z
1/2+x,y,1/2-z
1/2-x,1/2+y,1/2+z
x,1/2-y,z
loop_
_atom_site_type_symbol
_atom_site_label
_atom_site_fract_x
_atom_site_fract_y
_atom_site_fract_z
Si Si1 0.597944 0.017804 0.487371
Si Si2 0.198430 0.335589 0.997822
Si Si3 0.702702 0.580934 0.651803
Si Si4 0.530775 0.069283 0.072466
Si Si5 0.812857 0.660448 0.472606
Si Si6 0.228476 0.664391 0.261408
Si Si7 0.864120 0.159236 0.363564
Si Si8 0.357155 0.012786 0.754545
O O1 0.618889 0.108813 0.475371
O O2 0.629677 0.977382 0.376164
O O3 0.500000 0.000000 0.500000
O O4 0.645718 0.984003 0.594167
O O5 0.176329 0.250000 0.044000
O O6 0.207551 0.332586 0.865028
O O7 0.285193 0.366453 0.057136
O O8 0.739162 0.639135 0.559873
O O9 0.647951 0.631044 0.737391
O O10 0.773493 0.536453 0.721656
O O11 0.452778 0.126003 0.092810
O O12 0.564488 0.031141 0.187265
O O13 0.603195 0.112807 0.002770
O O14 0.500000 0.000000 0.000000
O O15 0.834493 0.750000 0.483411
O O16 0.782291 0.639297 0.347726
O O17 0.187570 0.750000 0.243707
O O18 0.155410 0.601908 0.292335
O O19 0.873058 0.250000 0.365293
#
# Coordination Sequence:
#
# PCOD8253327 Si02
#       8
#     8   8   8   8   8   8   8   8
#     4  12  24  40  62  95 129 164 210 266 318 373
#     4  10  22  41  65  92 125 170 210 255 320 386
#     4  11  22  38  69  90 126 167 213 255 315 388
#     4  11  25  38  64  98 126 161 210 264 320 370
#     4  10  22  40  61  91 125 164 207 259 312 372
#     4  10  20  37  65  91 121 167 212 253 310 378
#     4  11  23  42  66  94 129 167 213 263 319 386
#     4  11  22  40  63  93 127 164 209 262 316 377
#
# _framework density 19.622304
#
# number of rings (size 3 to 8) (size 9 to 14) (size 15 to 20)
#    0.000    1.250    3.750    2.250    3.500    1.000 
#    0.000    4.375    0.000    0.000    0.000    0.000 
#    0.000    0.000    0.000    0.000    0.000    0.000 
#
# Total GULP energy -793569.172552 kJ/mol
# GULP energy per Si atom -12399.518321 kJ/mol
# Density = 1.957764 g / cm^3
# Si number density = 19.622304 Si / 1000 Ang^3
#
#
#
# Elastic Constant Matrix: (Units=GPa)
#
#
# Indices 1 2 3 4 5 6 
#
# 1 101.9091 48.4238 30.5650 0.0000 0.0000 0.0000
# 2 48.4238 120.1853 22.9242 0.0000 0.0000 0.0000
# 3 30.5650 22.9242 89.5907 0.0000 0.0000 0.0000
# 4 0.0000 0.0000 0.0000 34.7773 0.0000 0.0000
# 5 0.0000 0.0000 0.0000 0.0000 21.5895 0.0000
# 6 0.0000 0.0000 0.0000 0.0000 0.0000 36.4744
#
#
#
# Elastic Compliance Matrix: (Units=1/GPa)
#
#
# Indices 1 2 3 4 5 6 
#
# 1 0.012977 -0.004609 -0.003248 0.000000 0.000000 0.000000
# 2 -0.004609 0.010384 -0.001085 0.000000 0.000000 0.000000
# 3 -0.003248 -0.001085 0.012547 0.000000 0.000000 0.000000
# 4 0.000000 0.000000 0.000000 0.028754 0.000000 0.000000
# 5 0.000000 0.000000 0.000000 0.000000 0.046319 0.000000
# 6 0.000000 0.000000 0.000000 0.000000 0.000000 0.027416
#
#
# Mechanical properties :
#
#
# Convention : Reuss Voigt Hill
#
# Bulk Modulus (GPa) = 55.47683 57.27901 56.37792
# Shear Modulus (GPa) = 30.80902 32.55304 31.68103
#
# Velocity S-wave (km/s) = 3.96675 4.07748 4.02250
# Velocity P-wave (km/s) = 7.02238 7.17091 7.09703
#
# Compressibility (1/GPa) = 0.01802554
#
# Stress axis : x y z
#
# Youngs Moduli (GPa) = 77.06047 96.29847 79.69730
#
# Poissons Ratio (x) = 0.44384 0.25885
# Poissons Ratio (y) = 0.35517 0.08645
# Poissons Ratio (z) = 0.25028 0.10446
#
# Static dielectric constant tensor:
#      x y z
#    x 3.245510 0.000000 0.000000 
#    y 0.000000 3.726430 0.000000 
#    z 0.000000 0.000000 2.591510 
# 
# 
# High freq. dielectric constant tensor:
#      x y z
#    x 1.744460 0.000000 0.000000 
#    y 0.000000 1.780770 0.000000 
#    z 0.000000 0.000000 1.780990 
# 
# From -- ./inp_files/13608.got.cif
#   From: 2010.03.12/outbox.cif.g09.slc.cpg/sg62_7_cif.got.tgz:13608.got - 2010.04.10 19:12:36.
