data_PCOD8253153
_publ_section_title
;
Structure prediction by ZEFSAII (Michael W. Deem and Ramdas Pophale) SiO2 
 PCOD8253153
Probable space group: P N M A
;
_chemical_formula_sum "Si O2"
_cell_formula_units_Z 48
_cell_length_a 14.412528
_cell_length_b 8.795504
_cell_length_c 20.321125
_cell_angle_alpha 90.000000
_cell_angle_beta 90.000000
_cell_angle_gamma 90.000000
_cell_volume 2576.016508
_symmetry_space_group_name_H-M "P N M A"
_symmetry_group_IT_number 62
_symmetry_cell_setting 'orthorhombic'
loop_
_space_group_symop_operation_xyz
x,y,z
1/2-x,-y,1/2+z
1/2+x,1/2-y,1/2-z
-x,1/2+y,-z
-x,-y,-z
1/2+x,y,1/2-z
1/2-x,1/2+y,1/2+z
x,1/2-y,z
loop_
_atom_site_type_symbol
_atom_site_label
_atom_site_fract_x
_atom_site_fract_y
_atom_site_fract_z
Si Si1 0.198566 0.429170 0.427009
Si Si2 0.222710 0.572927 0.203032
Si Si3 0.495037 0.570493 0.869972
Si Si4 0.485896 0.429190 0.729564
Si Si5 0.170256 0.426847 0.572632
Si Si6 0.162191 0.929821 0.818458
O O1 0.196667 0.250000 0.418950
O O2 0.214977 0.476065 0.502800
O O3 0.281185 0.494165 0.381477
O O4 0.100152 0.492588 0.401240
O O5 0.233378 0.750000 0.221217
O O6 0.254130 0.539316 0.128614
O O7 0.285307 0.475968 0.251925
O O8 0.116662 0.517925 0.208910
O O9 0.492979 0.750000 0.858651
O O10 0.512591 0.488741 0.801181
O O11 0.578246 0.526260 0.918320
O O12 0.495752 0.250000 0.728785
O O13 0.559753 0.498222 0.678276
O O14 0.141379 0.250000 0.571836
O O15 0.152722 0.750000 0.820084
#
# Coordination Sequence:
#
# PCOD8253153 Si02
#       6
#     8   8   8   8   8   8
#     4   9  20  36  55  81 114 148 182 224 280 335
#     4  10  21  36  57  81 109 146 187 229 273 327
#     4  11  20  33  54  84 114 143 181 229 280 332
#     4  11  22  36  54  82 113 145 186 230 277 329
#     4  10  20  37  57  80 112 149 184 224 279 335
#     4  11  21  36  58  82 111 145 185 232 275 326
#
# _framework density 18.633420999999998
#
# number of rings (size 3 to 8) (size 9 to 14) (size 15 to 20)
#    0.000    1.667    3.333    2.000    0.000    0.667 
#    0.000    3.333    0.000    0.000    0.000    0.000 
#    0.000    0.000    0.000    0.000    0.000    0.000 
#
# Total GULP energy -595326.410783 kJ/mol
# GULP energy per Si atom -12402.633558 kJ/mol
# Density = 1.859101 g / cm^3
# Si number density = 18.633421 Si / 1000 Ang^3
#
#
#
# Elastic Constant Matrix: (Units=GPa)
#
#
# Indices 1 2 3 4 5 6 
#
# 1 104.0120 26.8448 26.7142 0.0000 0.0000 0.0000
# 2 26.8448 44.5563 13.0748 0.0000 0.0000 0.0000
# 3 26.7142 13.0748 93.9762 0.0000 0.0000 0.0000
# 4 0.0000 0.0000 0.0000 17.4213 0.0000 0.0000
# 5 0.0000 0.0000 0.0000 0.0000 32.7320 0.0000
# 6 0.0000 0.0000 0.0000 0.0000 0.0000 27.2638
#
#
#
# Elastic Compliance Matrix: (Units=1/GPa)
#
#
# Indices 1 2 3 4 5 6 
#
# 1 0.011919 -0.006450 -0.002491 0.000000 0.000000 0.000000
# 2 -0.006450 0.026889 -0.001908 0.000000 0.000000 0.000000
# 3 -0.002491 -0.001908 0.011614 0.000000 0.000000 0.000000
# 4 0.000000 0.000000 0.000000 0.057401 0.000000 0.000000
# 5 0.000000 0.000000 0.000000 0.000000 0.030551 0.000000
# 6 0.000000 0.000000 0.000000 0.000000 0.000000 0.036679
#
#
# Mechanical properties :
#
#
# Convention : Reuss Voigt Hill
#
# Bulk Modulus (GPa) = 34.81180 41.75690 38.28435
# Shear Modulus (GPa) = 24.23359 27.21079 25.72219
#
# Velocity S-wave (km/s) = 3.61022 3.82556 3.71945
# Velocity P-wave (km/s) = 6.00843 6.47855 6.24791
#
# Compressibility (1/GPa) = 0.02872589
#
# Stress axis : x y z
#
# Youngs Moduli (GPa) = 83.90180 37.18942 86.09994
#
# Poissons Ratio (x) = 0.23987 0.21445
# Poissons Ratio (y) = 0.54117 0.16424
# Poissons Ratio (z) = 0.20897 0.07094
#
# Static dielectric constant tensor:
#      x y z
#    x 3.681980 0.000000 0.000000 
#    y 0.000000 3.280330 0.000000 
#    z 0.000000 0.000000 3.522550 
# 
# 
# High freq. dielectric constant tensor:
#      x y z
#    x 1.728410 0.000000 0.000000 
#    y 0.000000 1.711530 0.000000 
#    z 0.000000 0.000000 1.719860 
# 
# From -- ./inp_files/23692.got.cif
#   From: 2010.03.12/outbox.cif.g09.slc.cpg/sg62_12_cif.got.tgz:23692.got - 2010.04.10 19:12:36.
