data_PCOD8253403
_publ_section_title
;
Structure prediction by ZEFSAII (Michael W. Deem and Ramdas Pophale) SiO2 
 PCOD8253403
Probable space group: P N M A
;
_chemical_formula_sum "Si O2"
_cell_formula_units_Z 56
_cell_length_a 9.301129
_cell_length_b 14.458803
_cell_length_c 20.046200
_cell_angle_alpha 90.000000
_cell_angle_beta 90.000000
_cell_angle_gamma 90.000000
_cell_volume 2695.876961
_symmetry_space_group_name_H-M "P N M A"
_symmetry_group_IT_number 62
_symmetry_cell_setting 'orthorhombic'
loop_
_space_group_symop_operation_xyz
x,y,z
1/2-x,-y,1/2+z
1/2+x,1/2-y,1/2-z
-x,1/2+y,-z
-x,-y,-z
1/2+x,y,1/2-z
1/2-x,1/2+y,1/2+z
x,1/2-y,z
loop_
_atom_site_type_symbol
_atom_site_label
_atom_site_fract_x
_atom_site_fract_y
_atom_site_fract_z
Si Si1 0.507593 0.908339 0.750815
Si Si2 0.402942 0.510346 0.365542
Si Si3 0.176494 0.356103 0.372399
Si Si4 0.741426 0.151258 0.329882
Si Si5 0.303884 0.990349 0.563014
Si Si6 0.761986 0.145565 0.555932
Si Si7 0.061279 0.100023 0.511932
O O1 0.419070 0.915387 0.819615
O O2 0.658430 0.858338 0.764688
O O3 0.421479 0.848475 0.696202
O O4 0.542285 0.005891 0.712129
O O5 0.323676 0.412751 0.382519
O O6 0.536093 0.519447 0.416697
O O7 0.295795 0.597982 0.375418
O O8 0.201616 0.250000 0.348256
O O9 0.090933 0.349272 0.442218
O O10 0.771687 0.250000 0.365446
O O11 0.775508 0.067604 0.379051
O O12 0.305641 0.921989 0.499756
O O13 0.211723 0.084682 0.551751
O O14 0.701098 0.250000 0.550192
O O15 0.936722 0.152545 0.553602
O O16 0.000000 0.000000 0.500000
#
# Coordination Sequence:
#
# PCOD8253403 Si02
#       7
#     8   8   8   8   8   8   8
#     4  11  23  36  56  85 123 167 203 252 309 373
#     4  11  24  41  60  94 131 168 211 262 317 374
#     4  12  23  37  61  93 131 169 209 260 317 388
#     4  11  21  33  54  87 123 164 207 251 308 382
#     4  10  22  38  60  92 132 164 204 259 319 375
#     4  11  22  40  65  91 123 167 216 261 313 372
#     4  10  20  38  62  88 126 166 211 257 318 375
#
# _framework density 20.772462000000001
#
# number of rings (size 3 to 8) (size 9 to 14) (size 15 to 20)
#    0.000    1.143    4.286    4.286    0.000    3.429 
#    0.000    0.714    0.000    0.857    0.000    0.000 
#    0.000    0.000    0.000    0.000    0.000    0.000 
#
# Total GULP energy -693815.408197 kJ/mol
# GULP energy per Si atom -12389.560861 kJ/mol
# Density = 2.072518 g / cm^3
# Si number density = 20.772462 Si / 1000 Ang^3
#
#
#
# Elastic Constant Matrix: (Units=GPa)
#
#
# Indices 1 2 3 4 5 6 
#
# 1 122.8674 33.8290 47.0031 0.0000 0.0000 0.0000
# 2 33.8290 81.4406 37.7273 0.0000 0.0000 0.0000
# 3 47.0031 37.7273 93.0241 0.0000 0.0000 0.0000
# 4 0.0000 0.0000 0.0000 17.5092 0.0000 0.0000
# 5 0.0000 0.0000 0.0000 0.0000 34.6978 0.0000
# 6 0.0000 0.0000 0.0000 0.0000 0.0000 13.7216
#
#
#
# Elastic Compliance Matrix: (Units=1/GPa)
#
#
# Indices 1 2 3 4 5 6 
#
# 1 0.010436 -0.002330 -0.004328 0.000000 0.000000 0.000000
# 2 -0.002330 0.015640 -0.005166 0.000000 0.000000 0.000000
# 3 -0.004328 -0.005166 0.015032 0.000000 0.000000 0.000000
# 4 0.000000 0.000000 0.000000 0.057113 0.000000 0.000000
# 5 0.000000 0.000000 0.000000 0.000000 0.028820 0.000000
# 6 0.000000 0.000000 0.000000 0.000000 0.000000 0.072878
#
#
# Mechanical properties :
#
#
# Convention : Reuss Voigt Hill
#
# Bulk Modulus (GPa) = 57.27349 59.38343 58.32846
# Shear Modulus (GPa) = 21.79733 25.10392 23.45062
#
# Velocity S-wave (km/s) = 3.24286 3.48015 3.36360
# Velocity P-wave (km/s) = 6.45393 6.69315 6.57463
#
# Compressibility (1/GPa) = 0.01746009
#
# Stress axis : x y z
#
# Youngs Moduli (GPa) = 95.82107 63.93991 66.52540
#
# Poissons Ratio (x) = 0.14898 0.28794
# Poissons Ratio (y) = 0.22326 0.34365
# Poissons Ratio (z) = 0.41473 0.33029
#
# Static dielectric constant tensor:
#      x y z
#    x 4.371510 0.000000 0.000000 
#    y 0.000000 3.756210 0.000000 
#    z 0.000000 0.000000 3.959830 
# 
# 
# High freq. dielectric constant tensor:
#      x y z
#    x 1.835460 0.000000 0.000000 
#    y 0.000000 1.771610 0.000000 
#    z 0.000000 0.000000 1.800710 
# 
# From -- ./inp_files/25987.got.cif
#   From: 2010.03.12/outbox.cif.g09.slc.cpg/sg62_13_cif.got.tgz:25987.got - 2010.04.10 19:12:36.
