data_PCOD8253038
_publ_section_title
;
Structure prediction by ZEFSAII (Michael W. Deem and Ramdas Pophale) SiO2 
 PCOD8253038
Probable space group: P N M A
;
_chemical_formula_sum "Si O2"
_cell_formula_units_Z 64
_cell_length_a 21.585318
_cell_length_b 15.111958
_cell_length_c 9.125470
_cell_angle_alpha 90.000000
_cell_angle_beta 90.000000
_cell_angle_gamma 90.000000
_cell_volume 2976.695636
_symmetry_space_group_name_H-M "P N M A"
_symmetry_group_IT_number 62
_symmetry_cell_setting 'orthorhombic'
loop_
_space_group_symop_operation_xyz
x,y,z
1/2-x,-y,1/2+z
1/2+x,1/2-y,1/2-z
-x,1/2+y,-z
-x,-y,-z
1/2+x,y,1/2-z
1/2-x,1/2+y,1/2+z
x,1/2-y,z
loop_
_atom_site_type_symbol
_atom_site_label
_atom_site_fract_x
_atom_site_fract_y
_atom_site_fract_z
Si Si1 0.501398 0.599009 0.548660
Si Si2 0.769905 0.410799 0.021220
Si Si3 0.390270 0.150743 0.611094
Si Si4 0.592289 0.030260 0.244417
Si Si5 0.409244 0.844601 0.312698
Si Si6 0.311112 0.597259 0.527470
Si Si7 0.806274 0.152491 0.327361
Si Si8 0.138234 0.028679 0.577289
O O1 0.500000 0.500000 0.500000
O O2 0.572044 0.637879 0.546459
O O3 0.465199 0.595189 0.705147
O O4 0.468228 0.652388 0.418650
O O5 0.817000 0.362215 0.910335
O O6 0.793292 0.508684 0.060821
O O7 0.702679 0.417633 0.943895
O O8 0.771889 0.357404 0.171660
O O9 0.400997 0.250000 0.673736
O O10 0.417162 0.074316 0.717594
O O11 0.653568 0.067551 0.323928
O O12 0.599126 0.034103 0.071201
O O13 0.410483 0.750000 0.229498
O O14 0.350965 0.843779 0.420575
O O15 0.405153 0.923983 0.196929
O O16 0.249796 0.652614 0.558171
O O17 0.838711 0.250000 0.335316
O O18 0.852992 0.072892 0.369337
#
# Coordination Sequence:
#
# PCOD8253038 Si02
#       8
#     8   8   8   8   8   8   8   8
#     4   9  20  40  66  87 111 154 209 255 299 355
#     4  10  20  36  58  87 127 162 196 248 316 369
#     4  10  20  36  63  91 117 153 208 257 295 362
#     4   9  19  38  61  85 117 161 199 244 310 362
#     4  11  22  38  62  89 119 161 209 257 310 365
#     4   9  18  36  55  81 115 160 205 249 294 360
#     4  11  21  33  56  86 124 168 205 247 308 376
#     4  11  23  39  59  92 134 160 196 258 315 374
#
# _framework density 21.500350000000001
#
# number of rings (size 3 to 8) (size 9 to 14) (size 15 to 20)
#    0.000    2.000    2.500    1.875    0.000    1.500 
#    0.000    3.750    0.000    0.000    0.000    0.000 
#    0.000    0.000    0.000    0.000    0.000    0.000 
#
# Total GULP energy -792847.737392 kJ/mol
# GULP energy per Si atom -12388.245897 kJ/mol
# Density = 2.145141 g / cm^3
# Si number density = 21.500350 Si / 1000 Ang^3
#
#
#
# Elastic Constant Matrix: (Units=GPa)
#
#
# Indices 1 2 3 4 5 6 
#
# 1 21.0680 9.0693 -8.0669 0.0000 0.0000 0.0000
# 2 9.0693 133.3266 31.3666 0.0000 0.0000 0.0000
# 3 -8.0669 31.3666 81.4314 0.0000 0.0000 0.0000
# 4 0.0000 0.0000 0.0000 18.8580 0.0000 0.0000
# 5 0.0000 0.0000 0.0000 0.0000 11.9761 0.0000
# 6 0.0000 0.0000 0.0000 0.0000 0.0000 19.6838
#
#
#
# Elastic Compliance Matrix: (Units=1/GPa)
#
#
# Indices 1 2 3 4 5 6 
#
# 1 0.052504 -0.005273 0.007232 0.000000 0.000000 0.000000
# 2 -0.005273 0.008777 -0.003903 0.000000 0.000000 0.000000
# 3 0.007232 -0.003903 0.014500 0.000000 0.000000 0.000000
# 4 0.000000 0.000000 0.000000 0.053028 0.000000 0.000000
# 5 0.000000 0.000000 0.000000 0.000000 0.083500 0.000000
# 6 0.000000 0.000000 0.000000 0.000000 0.000000 0.050803
#
#
# Mechanical properties :
#
#
# Convention : Reuss Voigt Hill
#
# Bulk Modulus (GPa) = 13.90933 33.39600 23.65266
# Shear Modulus (GPa) = 17.18418 23.66740 20.42579
#
# Velocity S-wave (km/s) = 2.83017 3.32142 3.08559
# Velocity P-wave (km/s) = 4.14285 5.50232 4.87026
#
# Compressibility (1/GPa) = 0.07189420
#
# Stress axis : x y z
#
# Youngs Moduli (GPa) = 19.04599 113.92939 68.96430
#
# Poissons Ratio (x) = 0.60075 -0.49878
# Poissons Ratio (y) = 0.10043 0.26919
# Poissons Ratio (z) = -0.13775 0.44470
#
# Static dielectric constant tensor:
#      x y z
#    x 3.676310 0.000000 0.000000 
#    y 0.000000 3.979640 0.000000 
#    z 0.000000 0.000000 3.741660 
# 
# 
# High freq. dielectric constant tensor:
#      x y z
#    x 1.836400 0.000000 0.000000 
#    y 0.000000 1.844160 0.000000 
#    z 0.000000 0.000000 1.812770 
# 
# From -- ./inp_files/9512.got.cif
#   From: 2010.03.12/outbox.cif.g09.slc.cpg/sg62_5_cif.got.tgz:9512.got - 2010.04.10 19:12:36.
