data_PCOD8253840
_publ_section_title
;
Structure prediction by ZEFSAII (Michael W. Deem and Ramdas Pophale) SiO2 
 PCOD8253840
Probable space group: P N M A
;
_chemical_formula_sum "Si O2"
_cell_formula_units_Z 36
_cell_length_a 5.118617
_cell_length_b 12.425462
_cell_length_c 25.358993
_cell_angle_alpha 90.000000
_cell_angle_beta 90.000000
_cell_angle_gamma 90.000000
_cell_volume 1612.861904
_symmetry_space_group_name_H-M "P N M A"
_symmetry_group_IT_number 62
_symmetry_cell_setting 'orthorhombic'
loop_
_space_group_symop_operation_xyz
x,y,z
1/2-x,-y,1/2+z
1/2+x,1/2-y,1/2-z
-x,1/2+y,-z
-x,-y,-z
1/2+x,y,1/2-z
1/2-x,1/2+y,1/2+z
x,1/2-y,z
loop_
_atom_site_type_symbol
_atom_site_label
_atom_site_fract_x
_atom_site_fract_y
_atom_site_fract_z
Si Si1 0.406247 0.871313 0.773811
Si Si2 0.461871 0.923038 0.378348
Si Si3 0.009509 0.750000 0.036282
Si Si4 0.509766 0.750000 0.967304
Si Si5 0.043857 0.250000 0.787435
Si Si6 0.463269 0.061931 0.114606
O O1 0.140999 0.932425 0.756882
O O2 0.379163 0.750000 0.751766
O O3 0.443553 0.868419 0.835882
O O4 0.556827 0.853727 0.427835
O O5 0.440872 0.855078 0.324546
O O6 0.676600 0.016311 0.372601
O O7 0.176257 0.968351 0.393471
O O8 0.215493 0.750000 0.988858
O O9 0.715703 0.750000 0.014566
O O10 0.553184 0.641054 0.934736
O O11 0.777936 0.250000 0.754336
#
# Coordination Sequence:
#
# PCOD8253840 Si02
#       6
#     8   8   4   4   4   8
#     4  10  21  37  58  86 128 168 200 244 304 375
#     4  11  26  43  68  95 134 165 216 273 322 383
#     4  11  26  48  64  94 124 172 216 275 336 372
#     4  12  26  43  70  92 132 167 220 268 320 402
#     4  11  24  45  70 100 132 173 218 265 316 378
#     4  12  24  42  65 101 128 170 217 266 322 384
#
# _framework density 22.320571999999999
#
# number of rings (size 3 to 8) (size 9 to 14) (size 15 to 20)
#    0.000    0.889    1.111    5.333    0.000   14.222 
#    0.000    0.000    0.000    0.000    0.000    0.000 
#    0.000    0.000    0.000    0.000    0.000    0.000 
#
# Total GULP energy -446472.784631 kJ/mol
# GULP energy per Si atom -12402.021795 kJ/mol
# Density = 2.226977 g / cm^3
# Si number density = 22.320572 Si / 1000 Ang^3
#
#
#
# Elastic Constant Matrix: (Units=GPa)
#
#
# Indices 1 2 3 4 5 6 
#
# 1 125.7380 24.3596 16.6540 0.0000 0.0000 0.0000
# 2 24.3596 86.2036 32.5318 0.0000 0.0000 0.0000
# 3 16.6540 32.5318 94.2749 0.0000 0.0000 0.0000
# 4 0.0000 0.0000 0.0000 19.3878 0.0000 0.0000
# 5 0.0000 0.0000 0.0000 0.0000 49.0055 0.0000
# 6 0.0000 0.0000 0.0000 0.0000 0.0000 24.0050
#
#
#
# Elastic Compliance Matrix: (Units=1/GPa)
#
#
# Indices 1 2 3 4 5 6 
#
# 1 0.008462 -0.002101 -0.000770 0.000000 0.000000 0.000000
# 2 -0.002101 0.013859 -0.004411 0.000000 0.000000 0.000000
# 3 -0.000770 -0.004411 0.012265 0.000000 0.000000 0.000000
# 4 0.000000 0.000000 0.000000 0.051579 0.000000 0.000000
# 5 0.000000 0.000000 0.000000 0.000000 0.020406 0.000000
# 6 0.000000 0.000000 0.000000 0.000000 0.000000 0.041658
#
#
# Mechanical properties :
#
#
# Convention : Reuss Voigt Hill
#
# Bulk Modulus (GPa) = 49.94353 50.36748 50.15551
# Shear Modulus (GPa) = 29.50430 33.99107 31.74768
#
# Velocity S-wave (km/s) = 3.63966 3.90662 3.77550
# Velocity P-wave (km/s) = 6.33143 6.55464 6.44400
#
# Compressibility (1/GPa) = 0.02002261
#
# Stress axis : x y z
#
# Youngs Moduli (GPa) = 118.17554 72.15645 81.52953
#
# Poissons Ratio (x) = 0.15157 0.06277
# Poissons Ratio (y) = 0.24824 0.35964
# Poissons Ratio (z) = 0.09099 0.31830
#
# Static dielectric constant tensor:
#      x y z
#    x 4.300110 0.000000 0.000000 
#    y 0.000000 3.921830 0.000000 
#    z 0.000000 0.000000 3.961380 
# 
# 
# High freq. dielectric constant tensor:
#      x y z
#    x 1.902080 0.000000 0.000000 
#    y 0.000000 1.874310 0.000000 
#    z 0.000000 0.000000 1.888310 
# 
# From -- ./inp_files/28186.got.cif
#   From: 2010.03.12/outbox.cif.g09.slc.cpg/sg62_15_cif.got.tgz:28186.got - 2010.04.10 19:12:36.
