data_PCOD8253035
_publ_section_title
;
Structure prediction by ZEFSAII (Michael W. Deem and Ramdas Pophale) SiO2 
 PCOD8253035
Probable space group: P N M A
;
_chemical_formula_sum "Si O2"
_cell_formula_units_Z 48
_cell_length_a 20.025385
_cell_length_b 13.503904
_cell_length_c 8.294401
_cell_angle_alpha 90.000000
_cell_angle_beta 90.000000
_cell_angle_gamma 90.000000
_cell_volume 2242.979189
_symmetry_space_group_name_H-M "P N M A"
_symmetry_group_IT_number 62
_symmetry_cell_setting 'orthorhombic'
loop_
_space_group_symop_operation_xyz
x,y,z
1/2-x,-y,1/2+z
1/2+x,1/2-y,1/2-z
-x,1/2+y,-z
-x,-y,-z
1/2+x,y,1/2-z
1/2-x,1/2+y,1/2+z
x,1/2-y,z
loop_
_atom_site_type_symbol
_atom_site_label
_atom_site_fract_x
_atom_site_fract_y
_atom_site_fract_z
Si Si1 0.715640 0.987374 0.087406
Si Si2 0.421656 0.978290 0.492247
Si Si3 0.810612 0.630466 0.865142
Si Si4 0.880377 0.360757 0.792287
Si Si5 0.980329 0.360005 0.511595
Si Si6 0.098093 0.028937 0.632115
O O1 0.679454 0.902182 0.186703
O O2 0.723620 0.085096 0.202240
O O3 0.780889 0.932134 0.017896
O O4 0.672912 0.022749 0.933013
O O5 0.387010 0.081977 0.539476
O O6 0.500000 0.000000 0.500000
O O7 0.390680 0.895947 0.619237
O O8 0.399506 0.941088 0.317520
O O9 0.798694 0.750000 0.871890
O O10 0.862618 0.250000 0.838989
O O11 0.948559 0.370619 0.689785
O O12 0.975692 0.250000 0.443775
O O13 0.941123 0.425032 0.381474
O O14 0.057697 0.390725 0.526097
#
# Coordination Sequence:
#
# PCOD8253035 Si02
#       6
#     8   8   8   8   8   8
#     4  10  22  43  64  93 129 166 217 282 329 391
#     4  11  22  38  60  92 133 169 213 275 324 390
#     4  11  25  45  70  97 130 178 225 273 340 404
#     4   9  18  35  59  86 121 164 210 259 321 388
#     4   9  18  32  54  84 118 163 209 251 307 379
#     4  10  20  36  58  86 126 165 203 263 327 372
#
# _framework density 21.400109
#
# number of rings (size 3 to 8) (size 9 to 14) (size 15 to 20)
#    0.000    2.000    1.667    1.500    2.333    3.333 
#    0.000    9.167    0.000    0.000    0.000    0.000 
#    0.000    0.000    0.000    0.000    0.000    0.000 
#
# Total GULP energy -594757.009192 kJ/mol
# GULP energy per Si atom -12390.771025 kJ/mol
# Density = 2.135140 g / cm^3
# Si number density = 21.400109 Si / 1000 Ang^3
#
#
#
# Elastic Constant Matrix: (Units=GPa)
#
#
# Indices 1 2 3 4 5 6 
#
# 1 81.6121 24.2339 14.5550 0.0000 0.0000 0.0000
# 2 24.2339 134.8864 25.1079 0.0000 0.0000 0.0000
# 3 14.5550 25.1079 75.1254 0.0000 0.0000 0.0000
# 4 0.0000 0.0000 0.0000 26.6829 0.0000 0.0000
# 5 0.0000 0.0000 0.0000 0.0000 19.8718 0.0000
# 6 0.0000 0.0000 0.0000 0.0000 0.0000 18.6063
#
#
#
# Elastic Compliance Matrix: (Units=1/GPa)
#
#
# Indices 1 2 3 4 5 6 
#
# 1 0.013188 -0.002019 -0.001880 0.000000 0.000000 0.000000
# 2 -0.002019 0.008215 -0.002354 0.000000 0.000000 0.000000
# 3 -0.001880 -0.002354 0.014462 0.000000 0.000000 0.000000
# 4 0.000000 0.000000 0.000000 0.037477 0.000000 0.000000
# 5 0.000000 0.000000 0.000000 0.000000 0.050322 0.000000
# 6 0.000000 0.000000 0.000000 0.000000 0.000000 0.053745
#
#
# Mechanical properties :
#
#
# Convention : Reuss Voigt Hill
#
# Bulk Modulus (GPa) = 42.81319 46.60195 44.70757
# Shear Modulus (GPa) = 25.29043 28.21400 26.75222
#
# Velocity S-wave (km/s) = 3.44145 3.63492 3.53951
# Velocity P-wave (km/s) = 5.98673 6.28018 6.13521
#
# Compressibility (1/GPa) = 0.02335729
#
# Stress axis : x y z
#
# Youngs Moduli (GPa) = 75.82627 121.73344 69.14604
#
# Poissons Ratio (x) = 0.24583 0.13001
# Poissons Ratio (y) = 0.15312 0.16278
# Poissons Ratio (z) = 0.14257 0.28658
#
# Static dielectric constant tensor:
#      x y z
#    x 3.937620 0.000000 0.000000 
#    y 0.000000 3.806990 0.000000 
#    z 0.000000 0.000000 3.800480 
# 
# 
# High freq. dielectric constant tensor:
#      x y z
#    x 1.839520 0.000000 0.000000 
#    y 0.000000 1.826860 0.000000 
#    z 0.000000 0.000000 1.833540 
# 
# From -- ./inp_files/8566.got.cif
#   From: 2010.03.12/outbox.cif.g09.slc.cpg/sg62_5_cif.got.tgz:8566.got - 2010.04.10 19:12:36.
