data_PCOD8253232
_publ_section_title
;
Structure prediction by ZEFSAII (Michael W. Deem and Ramdas Pophale) SiO2 
 PCOD8253232
Probable space group: P N M A
;
_chemical_formula_sum "Si O2"
_cell_formula_units_Z 56
_cell_length_a 21.973164
_cell_length_b 8.827983
_cell_length_c 14.687947
_cell_angle_alpha 90.000000
_cell_angle_beta 90.000000
_cell_angle_gamma 90.000000
_cell_volume 2849.149133
_symmetry_space_group_name_H-M "P N M A"
_symmetry_group_IT_number 62
_symmetry_cell_setting 'orthorhombic'
loop_
_space_group_symop_operation_xyz
x,y,z
1/2-x,-y,1/2+z
1/2+x,1/2-y,1/2-z
-x,1/2+y,-z
-x,-y,-z
1/2+x,y,1/2-z
1/2-x,1/2+y,1/2+z
x,1/2-y,z
loop_
_atom_site_type_symbol
_atom_site_label
_atom_site_fract_x
_atom_site_fract_y
_atom_site_fract_z
Si Si1 0.746308 0.071209 0.386750
Si Si2 0.958661 0.430598 0.577690
Si Si3 0.399819 0.573160 0.395173
Si Si4 0.012717 0.570592 0.221648
Si Si5 0.725469 0.073651 0.703297
Si Si6 0.384351 0.070672 0.584814
Si Si7 0.321852 0.070722 0.942744
O O1 0.738555 0.250000 0.394923
O O2 0.788605 0.006282 0.467607
O O3 0.778965 0.026639 0.293296
O O4 0.680581 0.997727 0.392408
O O5 0.961133 0.250000 0.571996
O O6 0.982173 0.491321 0.675401
O O7 0.890151 0.492605 0.563544
O O8 0.000000 0.500000 0.500000
O O9 0.408628 0.750000 0.416461
O O10 0.449301 0.514904 0.322072
O O11 0.333111 0.538967 0.357505
O O12 0.409639 0.481876 0.487688
O O13 0.014806 0.750000 0.224395
O O14 0.068988 0.510937 0.161458
O O15 0.728828 0.250000 0.730297
O O16 0.784687 0.021390 0.646891
O O17 0.379085 0.250000 0.585943
O O18 0.322924 0.250000 0.948471
#
# Coordination Sequence:
#
# PCOD8253232 Si02
#       7
#     8   8   8   8   8   8   8
#     4  11  22  37  58  85 116 152 193 239 289 341
#     4  10  21  39  60  81 111 149 194 237 282 343
#     4  10  20  37  60  86 118 153 190 239 295 348
#     4   9  20  37  59  84 115 156 195 234 289 350
#     4  10  20  37  60  85 114 152 192 233 289 348
#     4  11  21  37  60  88 118 154 195 236 287 349
#     4   9  19  38  59  79 112 155 186 224 287 348
#
# _framework density 19.654990999999999
#
# number of rings (size 3 to 8) (size 9 to 14) (size 15 to 20)
#    0.000    2.000    1.429    2.143    2.000    2.857 
#    0.000    5.714    0.000    0.000    0.000    0.000 
#    0.000    0.000    0.000    0.000    0.000    0.000 
#
# Total GULP energy -694530.598658 kJ/mol
# GULP energy per Si atom -12402.332119 kJ/mol
# Density = 1.961026 g / cm^3
# Si number density = 19.654991 Si / 1000 Ang^3
#
#
#
# Elastic Constant Matrix: (Units=GPa)
#
#
# Indices 1 2 3 4 5 6 
#
# 1 129.8751 26.1259 57.6772 0.0000 0.0000 0.0000
# 2 26.1259 39.7154 27.6665 0.0000 0.0000 0.0000
# 3 57.6772 27.6665 146.1007 0.0000 0.0000 0.0000
# 4 0.0000 0.0000 0.0000 33.7856 0.0000 0.0000
# 5 0.0000 0.0000 0.0000 0.0000 32.4245 0.0000
# 6 0.0000 0.0000 0.0000 0.0000 0.0000 23.7936
#
#
#
# Elastic Compliance Matrix: (Units=1/GPa)
#
#
# Indices 1 2 3 4 5 6 
#
# 1 0.009960 -0.004392 -0.003100 0.000000 0.000000 0.000000
# 2 -0.004392 0.030942 -0.004125 0.000000 0.000000 0.000000
# 3 -0.003100 -0.004125 0.008850 0.000000 0.000000 0.000000
# 4 0.000000 0.000000 0.000000 0.029598 0.000000 0.000000
# 5 0.000000 0.000000 0.000000 0.000000 0.030841 0.000000
# 6 0.000000 0.000000 0.000000 0.000000 0.000000 0.042028
#
#
# Mechanical properties :
#
#
# Convention : Reuss Voigt Hill
#
# Bulk Modulus (GPa) = 37.71285 59.84783 48.78034
# Shear Modulus (GPa) = 27.13050 31.61552 29.37301
#
# Velocity S-wave (km/s) = 3.71932 4.01499 3.86998
# Velocity P-wave (km/s) = 6.13788 7.21171 6.69636
#
# Compressibility (1/GPa) = 0.02651616
#
# Stress axis : x y z
#
# Youngs Moduli (GPa) = 100.40075 32.31807 112.99793
#
# Poissons Ratio (x) = 0.14195 0.35032
# Poissons Ratio (y) = 0.44099 0.46617
# Poissons Ratio (z) = 0.31127 0.13333
#
# Static dielectric constant tensor:
#      x y z
#    x 3.834090 0.000000 0.000000 
#    y 0.000000 3.270240 0.000000 
#    z 0.000000 0.000000 3.905100 
# 
# 
# High freq. dielectric constant tensor:
#      x y z
#    x 1.780870 0.000000 0.000000 
#    y 0.000000 1.730640 0.000000 
#    z 0.000000 0.000000 1.782290 
# 
# From -- ./inp_files/20308.got.cif
#   From: 2010.03.12/outbox.cif.g09.slc.cpg/sg62_11_cif.got.tgz:20308.got - 2010.04.10 19:12:36.
