data_PCOD8253237
_publ_section_title
;
Structure prediction by ZEFSAII (Michael W. Deem and Ramdas Pophale) SiO2 
 PCOD8253237
Probable space group: P N M A
;
_chemical_formula_sum "Si O2"
_cell_formula_units_Z 48
_cell_length_a 15.137902
_cell_length_b 18.438994
_cell_length_c 8.978618
_cell_angle_alpha 90.000000
_cell_angle_beta 90.000000
_cell_angle_gamma 90.000000
_cell_volume 2506.180849
_symmetry_space_group_name_H-M "P N M A"
_symmetry_group_IT_number 62
_symmetry_cell_setting 'orthorhombic'
loop_
_space_group_symop_operation_xyz
x,y,z
1/2-x,-y,1/2+z
1/2+x,1/2-y,1/2-z
-x,1/2+y,-z
-x,-y,-z
1/2+x,y,1/2-z
1/2-x,1/2+y,1/2+z
x,1/2-y,z
loop_
_atom_site_type_symbol
_atom_site_label
_atom_site_fract_x
_atom_site_fract_y
_atom_site_fract_z
Si Si1 0.085745 0.665574 0.585594
Si Si2 0.249926 0.432958 0.581965
Si Si3 0.084333 0.165780 0.602464
Si Si4 0.269713 0.420126 0.926327
Si Si5 0.581965 0.577791 0.614718
Si Si6 0.073430 0.090661 0.901903
O O1 0.099088 0.750000 0.618268
O O2 0.159793 0.641302 0.467142
O O3 0.097771 0.621605 0.736175
O O4 0.989120 0.649125 0.521053
O O5 0.174334 0.373749 0.557513
O O6 0.278155 0.441129 0.753323
O O7 0.211582 0.509301 0.525900
O O8 0.335032 0.407870 0.491041
O O9 0.105959 0.250000 0.613854
O O10 0.047129 0.138955 0.760834
O O11 0.171484 0.389540 0.959767
O O12 0.571238 0.492990 0.651008
O O13 0.494029 0.607209 0.534559
#
# Coordination Sequence:
#
# PCOD8253237 Si02
#       6
#     8   8   8   8   8   8
#     4  11  24  38  54  81 117 153 187 227 277 334
#     4  10  21  37  61  87 111 144 186 236 282 333
#     4  10  22  38  55  79 111 149 188 225 273 330
#     4  10  20  37  60  86 112 143 187 232 282 333
#     4  10  21  38  59  86 112 143 186 231 285 335
#     4   9  20  38  61  83 107 142 186 234 279 330
#
# _framework density 19.152647999999999
#
# number of rings (size 3 to 8) (size 9 to 14) (size 15 to 20)
#    0.000    2.000    0.000    4.000    0.000   12.000 
#    0.000    1.667    0.000    0.000    0.000    0.000 
#    0.000    0.000    0.000    0.000    0.000    0.000 
#
# Total GULP energy -595399.627484 kJ/mol
# GULP energy per Si atom -12404.158906 kJ/mol
# Density = 1.910906 g / cm^3
# Si number density = 19.152648 Si / 1000 Ang^3
#
#
#
# Elastic Constant Matrix: (Units=GPa)
#
#
# Indices 1 2 3 4 5 6 
#
# 1 101.6733 49.2349 52.5085 0.0000 0.0000 0.0000
# 2 49.2349 70.4054 41.2944 0.0000 0.0000 0.0000
# 3 52.5085 41.2944 102.8313 0.0000 0.0000 0.0000
# 4 0.0000 0.0000 0.0000 21.2839 0.0000 0.0000
# 5 0.0000 0.0000 0.0000 0.0000 33.1064 0.0000
# 6 0.0000 0.0000 0.0000 0.0000 0.0000 26.6420
#
#
#
# Elastic Compliance Matrix: (Units=1/GPa)
#
#
# Indices 1 2 3 4 5 6 
#
# 1 0.016628 -0.008696 -0.004998 0.000000 0.000000 0.000000
# 2 -0.008696 0.023128 -0.004847 0.000000 0.000000 0.000000
# 3 -0.004998 -0.004847 0.014223 0.000000 0.000000 0.000000
# 4 0.000000 0.000000 0.000000 0.046984 0.000000 0.000000
# 5 0.000000 0.000000 0.000000 0.000000 0.030206 0.000000
# 6 0.000000 0.000000 0.000000 0.000000 0.000000 0.037535
#
#
# Mechanical properties :
#
#
# Convention : Reuss Voigt Hill
#
# Bulk Modulus (GPa) = 59.18680 62.33174 60.75927
# Shear Modulus (GPa) = 23.64976 24.99795 24.32385
#
# Velocity S-wave (km/s) = 3.51779 3.61667 3.56757
# Velocity P-wave (km/s) = 6.88982 7.07501 6.98303
#
# Compressibility (1/GPa) = 0.01689566
#
# Stress axis : x y z
#
# Youngs Moduli (GPa) = 60.13949 43.23831 70.30659
#
# Poissons Ratio (x) = 0.37601 0.35143
# Poissons Ratio (y) = 0.52299 0.34077
# Poissons Ratio (z) = 0.30061 0.20957
#
# Static dielectric constant tensor:
#      x y z
#    x 3.668900 0.000000 0.000000 
#    y 0.000000 3.399220 0.000000 
#    z 0.000000 0.000000 3.495760 
# 
# 
# High freq. dielectric constant tensor:
#      x y z
#    x 1.759690 0.000000 0.000000 
#    y 0.000000 1.735920 0.000000 
#    z 0.000000 0.000000 1.750700 
# 
# From -- ./inp_files/6629.got.cif
#   From: 2010.03.12/outbox.cif.g09.slc.cpg/sg62_4_cif.got.tgz:6629.got - 2010.04.10 19:12:36.
