data_PCOD8253061
_publ_section_title
;
Structure prediction by ZEFSAII (Michael W. Deem and Ramdas Pophale) SiO2 
 PCOD8253061
Probable space group: P N M A
;
_chemical_formula_sum "Si O2"
_cell_formula_units_Z 64
_cell_length_a 32.594438
_cell_length_b 8.716691
_cell_length_c 11.058843
_cell_angle_alpha 90.000000
_cell_angle_beta 90.000000
_cell_angle_gamma 90.000000
_cell_volume 3141.990305
_symmetry_space_group_name_H-M "P N M A"
_symmetry_group_IT_number 62
_symmetry_cell_setting 'orthorhombic'
loop_
_space_group_symop_operation_xyz
x,y,z
1/2-x,-y,1/2+z
1/2+x,1/2-y,1/2-z
-x,1/2+y,-z
-x,-y,-z
1/2+x,y,1/2-z
1/2-x,1/2+y,1/2+z
x,1/2-y,z
loop_
_atom_site_type_symbol
_atom_site_label
_atom_site_fract_x
_atom_site_fract_y
_atom_site_fract_z
Si Si1 0.779268 0.070546 0.310377
Si Si2 0.664225 0.429371 0.005171
Si Si3 0.511497 0.070993 0.869271
Si Si4 0.651124 0.581839 0.642881
Si Si5 0.114173 0.428442 0.074299
Si Si6 0.974106 0.431655 0.887210
Si Si7 0.688538 0.431778 0.264296
Si Si8 0.904717 0.420340 0.375784
O O1 0.782043 0.250000 0.346602
O O2 0.801519 0.046131 0.179425
O O3 0.732759 0.008179 0.308044
O O4 0.801802 0.965335 0.406449
O O5 0.654796 0.250000 0.006888
O O6 0.620780 0.514665 0.988719
O O7 0.682318 0.491356 0.129703
O O8 0.503830 0.250000 0.881110
O O9 0.487905 0.009722 0.747679
O O10 0.558629 0.034037 0.843913
O O11 0.500000 0.000000 0.000000
O O12 0.648162 0.750000 0.579968
O O13 0.631001 0.451280 0.560998
O O14 0.626212 0.585284 0.765958
O O15 0.104806 0.250000 0.096975
O O16 0.073167 0.523538 0.097392
O O17 0.150711 0.495004 0.157257
O O18 0.979487 0.250000 0.895210
O O19 0.000000 0.500000 0.000000
O O20 0.688857 0.250000 0.271052
O O21 0.921577 0.250000 0.406682
#
# Coordination Sequence:
#
# PCOD8253061 Si02
#       8
#     8   8   8   8   8   8   8   8
#     4   9  19  38  59  81 115 157 199 245 298 351
#     4  10  20  36  59  86 115 152 199 246 295 355
#     4  11  25  42  64  94 126 161 205 255 307 370
#     4   9  19  36  60  86 116 157 199 246 295 347
#     4  11  23  38  60  89 123 160 197 244 302 360
#     4  11  25  45  68  96 126 161 206 256 310 374
#     4   9  21  38  56  82 119 158 193 240 301 354
#     4  10  21  39  62  87 118 157 197 241 299 357
#
# _framework density 20.369253
#
# number of rings (size 3 to 8) (size 9 to 14) (size 15 to 20)
#    0.000    2.000    0.000    3.375    3.500    6.500 
#    0.000    3.750    0.000    0.000    0.000    0.000 
#    0.000    0.000    0.000    0.000    0.000    0.000 
#
# Total GULP energy -793283.009999 kJ/mol
# GULP energy per Si atom -12395.047031 kJ/mol
# Density = 2.032289 g / cm^3
# Si number density = 20.369253 Si / 1000 Ang^3
#
#
#
# Elastic Constant Matrix: (Units=GPa)
#
#
# Indices 1 2 3 4 5 6 
#
# 1 139.4246 18.9361 40.8471 0.0000 0.0000 0.0000
# 2 18.9361 48.7352 34.2534 0.0000 0.0000 0.0000
# 3 40.8471 34.2534 97.9272 0.0000 0.0000 0.0000
# 4 0.0000 0.0000 0.0000 26.4825 0.0000 0.0000
# 5 0.0000 0.0000 0.0000 0.0000 25.4308 0.0000
# 6 0.0000 0.0000 0.0000 0.0000 0.0000 29.4936
#
#
#
# Elastic Compliance Matrix: (Units=1/GPa)
#
#
# Indices 1 2 3 4 5 6 
#
# 1 0.008210 -0.001038 -0.003061 0.000000 0.000000 0.000000
# 2 -0.001038 0.027339 -0.009130 0.000000 0.000000 0.000000
# 3 -0.003061 -0.009130 0.014682 0.000000 0.000000 0.000000
# 4 0.000000 0.000000 0.000000 0.037761 0.000000 0.000000
# 5 0.000000 0.000000 0.000000 0.000000 0.039322 0.000000
# 6 0.000000 0.000000 0.000000 0.000000 0.000000 0.033906
#
#
# Mechanical properties :
#
#
# Convention : Reuss Voigt Hill
#
# Bulk Modulus (GPa) = 42.06533 52.68450 47.37491
# Shear Modulus (GPa) = 25.56188 29.08475 27.32332
#
# Velocity S-wave (km/s) = 3.54633 3.78282 3.66649
# Velocity P-wave (km/s) = 6.12086 6.70824 6.42127
#
# Compressibility (1/GPa) = 0.02377255
#
# Stress axis : x y z
#
# Youngs Moduli (GPa) = 121.79867 36.57735 68.11021
#
# Poissons Ratio (x) = 0.03798 0.20851
# Poissons Ratio (y) = 0.12647 0.62183
# Poissons Ratio (z) = 0.37288 0.33394
#
# Static dielectric constant tensor:
#      x y z
#    x 3.964790 0.000000 0.000000 
#    y 0.000000 3.744720 0.000000 
#    z 0.000000 0.000000 3.841990 
# 
# 
# High freq. dielectric constant tensor:
#      x y z
#    x 1.809660 0.000000 0.000000 
#    y 0.000000 1.785300 0.000000 
#    z 0.000000 0.000000 1.796370 
# 
# From -- ./inp_files/15893.got.cif
#   From: 2010.03.12/outbox.cif.g09.slc.cpg/sg62_8_cif.got.tgz:15893.got - 2010.04.10 19:12:36.
