data_PCOD8253123
_publ_section_title
;
Structure prediction by ZEFSAII (Michael W. Deem and Ramdas Pophale) SiO2 
 PCOD8253123
Probable space group: P N M A
;
_chemical_formula_sum "Si O2"
_cell_formula_units_Z 64
_cell_length_a 24.687182
_cell_length_b 9.032324
_cell_length_c 15.019817
_cell_angle_alpha 90.000000
_cell_angle_beta 90.000000
_cell_angle_gamma 90.000000
_cell_volume 3349.158244
_symmetry_space_group_name_H-M "P N M A"
_symmetry_group_IT_number 62
_symmetry_cell_setting 'orthorhombic'
loop_
_space_group_symop_operation_xyz
x,y,z
1/2-x,-y,1/2+z
1/2+x,1/2-y,1/2-z
-x,1/2+y,-z
-x,-y,-z
1/2+x,y,1/2-z
1/2-x,1/2+y,1/2+z
x,1/2-y,z
loop_
_atom_site_type_symbol
_atom_site_label
_atom_site_fract_x
_atom_site_fract_y
_atom_site_fract_z
Si Si1 0.636871 0.419927 0.658245
Si Si2 0.057040 0.075073 0.686188
Si Si3 0.670270 0.578265 0.493389
Si Si4 0.612258 0.076423 0.995833
Si Si5 0.944147 0.577584 0.678062
Si Si6 0.219541 0.925095 0.541740
Si Si7 0.264723 0.581381 0.220864
Si Si8 0.642782 0.581438 0.292883
O O1 0.624970 0.250000 0.634213
O O2 0.595334 0.476891 0.733047
O O3 0.629868 0.517757 0.569546
O O4 0.698316 0.440705 0.692932
O O5 0.050926 0.250000 0.684314
O O6 0.082703 0.019601 0.593480
O O7 0.998827 0.005749 0.702001
O O8 0.682331 0.750000 0.508544
O O9 0.726438 0.490786 0.501494
O O10 0.642257 0.550506 0.398443
O O11 0.625776 0.250000 0.990542
O O12 0.667713 0.987311 0.010876
O O13 0.573224 0.037906 0.077865
O O14 0.954388 0.750000 0.689749
O O15 0.898227 0.530160 0.747306
O O16 0.221233 0.750000 0.532698
O O17 0.214516 0.971898 0.644615
O O18 0.269903 0.750000 0.183759
O O19 0.202601 0.548933 0.246497
O O20 0.625382 0.750000 0.272602
#
# Coordination Sequence:
#
# PCOD8253123 Si02
#       8
#     8   8   8   8   8   8   8   8
#     4  10  20  36  61  90 117 153 196 238 292 352
#     4  10  21  40  63  83 117 159 193 233 292 360
#     4  10  22  39  59  84 119 158 193 243 298 348
#     4  10  21  39  58  83 119 158 192 236 295 347
#     4  11  24  38  59  87 116 150 198 252 290 337
#     4  11  21  33  55  87 119 154 195 236 282 346
#     4   9  18  36  58  82 118 155 188 233 293 351
#     4   9  20  39  60  81 114 157 195 235 294 353
#
# _framework density 19.109279000000001
#
# number of rings (size 3 to 8) (size 9 to 14) (size 15 to 20)
#    0.000    2.000    1.250    3.000    1.750    5.000 
#    0.000    0.625    0.000    0.000    0.000    0.000 
#    0.000    0.000    0.000    0.000    0.000    0.000 
#
# Total GULP energy -793827.921527 kJ/mol
# GULP energy per Si atom -12403.561274 kJ/mol
# Density = 1.906579 g / cm^3
# Si number density = 19.109279 Si / 1000 Ang^3
#
#
#
# Elastic Constant Matrix: (Units=GPa)
#
#
# Indices 1 2 3 4 5 6 
#
# 1 103.7296 34.3407 45.1874 0.0000 0.0000 0.0000
# 2 34.3407 62.0552 28.8985 0.0000 0.0000 0.0000
# 3 45.1874 28.8985 77.8345 0.0000 0.0000 0.0000
# 4 0.0000 0.0000 0.0000 30.8341 0.0000 0.0000
# 5 0.0000 0.0000 0.0000 0.0000 23.7348 0.0000
# 6 0.0000 0.0000 0.0000 0.0000 0.0000 29.2388
#
#
#
# Elastic Compliance Matrix: (Units=1/GPa)
#
#
# Indices 1 2 3 4 5 6 
#
# 1 0.013989 -0.004787 -0.006344 0.000000 0.000000 0.000000
# 2 -0.004787 0.021121 -0.005063 0.000000 0.000000 0.000000
# 3 -0.006344 -0.005063 0.018411 0.000000 0.000000 0.000000
# 4 0.000000 0.000000 0.000000 0.032432 0.000000 0.000000
# 5 0.000000 0.000000 0.000000 0.000000 0.042132 0.000000
# 6 0.000000 0.000000 0.000000 0.000000 0.000000 0.034201
#
#
# Mechanical properties :
#
#
# Convention : Reuss Voigt Hill
#
# Bulk Modulus (GPa) = 47.31898 51.16362 49.24130
# Shear Modulus (GPa) = 24.78708 25.77440 25.28074
#
# Velocity S-wave (km/s) = 3.60547 3.67657 3.64119
# Velocity P-wave (km/s) = 6.49219 6.69741 6.59560
#
# Compressibility (1/GPa) = 0.02113317
#
# Stress axis : x y z
#
# Youngs Moduli (GPa) = 71.48558 47.34518 54.31647
#
# Poissons Ratio (x) = 0.22664 0.34459
# Poissons Ratio (y) = 0.34220 0.27500
# Poissons Ratio (z) = 0.45351 0.23970
#
# Static dielectric constant tensor:
#      x y z
#    x 3.420510 0.000000 0.000000 
#    y 0.000000 3.405100 0.000000 
#    z 0.000000 0.000000 3.476690 
# 
# 
# High freq. dielectric constant tensor:
#      x y z
#    x 1.736560 0.000000 0.000000 
#    y 0.000000 1.738460 0.000000 
#    z 0.000000 0.000000 1.742980 
# 
# From -- ./inp_files/20915.got.cif
#   From: 2010.03.12/outbox.cif.g09.slc.cpg/sg62_11_cif.got.tgz:20915.got - 2010.04.10 19:12:36.
