data_PCOD8253242
_publ_section_title
;
Structure prediction by ZEFSAII (Michael W. Deem and Ramdas Pophale) SiO2 
 PCOD8253242
Probable space group: P N M A
;
_chemical_formula_sum "Si O2"
_cell_formula_units_Z 56
_cell_length_a 14.611228
_cell_length_b 8.878076
_cell_length_c 21.809848
_cell_angle_alpha 90.000000
_cell_angle_beta 90.000000
_cell_angle_gamma 90.000000
_cell_volume 2829.164598
_symmetry_space_group_name_H-M "P N M A"
_symmetry_group_IT_number 62
_symmetry_cell_setting 'orthorhombic'
loop_
_space_group_symop_operation_xyz
x,y,z
1/2-x,-y,1/2+z
1/2+x,1/2-y,1/2-z
-x,1/2+y,-z
-x,-y,-z
1/2+x,y,1/2-z
1/2-x,1/2+y,1/2+z
x,1/2-y,z
loop_
_atom_site_type_symbol
_atom_site_label
_atom_site_fract_x
_atom_site_fract_y
_atom_site_fract_z
Si Si1 0.477902 0.573100 0.819011
Si Si2 0.166824 0.575628 0.232546
Si Si3 0.390029 0.425703 0.595634
Si Si4 0.926598 0.571542 0.544591
Si Si5 0.576184 0.571642 0.617058
Si Si6 0.276115 0.071692 0.479998
Si Si7 0.374381 0.573184 0.256330
O O1 0.493275 0.750000 0.815372
O O2 0.399637 0.528363 0.771331
O O3 0.448645 0.520720 0.886441
O O4 0.572887 0.491608 0.802629
O O5 0.146090 0.750000 0.247025
O O6 0.154749 0.540593 0.161092
O O7 0.268852 0.529625 0.251208
O O8 0.413413 0.250000 0.587185
O O9 0.482183 0.520180 0.585475
O O10 0.317418 0.481371 0.544864
O O11 0.930017 0.750000 0.537265
O O12 0.826156 0.506582 0.527687
O O13 0.000000 0.500000 0.500000
O O14 0.577069 0.750000 0.624374
O O15 0.660102 0.513042 0.575442
O O16 0.581738 0.497301 0.683346
O O17 0.272095 0.250000 0.476849
O O18 0.390238 0.750000 0.258575
#
# Coordination Sequence:
#
# PCOD8253242 Si02
#       7
#     8   8   8   8   8   8   8
#     4  11  23  40  62  90 123 157 195 246 301 353
#     4  10  22  38  60  89 119 157 203 247 296 353
#     4  10  20  37  60  87 118 155 197 245 294 355
#     4  10  23  42  63  88 118 157 200 244 293 352
#     4  11  21  37  60  90 121 158 196 242 303 356
#     4   9  20  38  61  85 118 159 197 239 298 357
#     4  11  23  38  60  89 119 158 201 243 295 357
#
# _framework density 19.793831000000001
#
# number of rings (size 3 to 8) (size 9 to 14) (size 15 to 20)
#    0.000    1.714    1.429    2.571    2.000    3.429 
#    0.000    2.857    0.000    0.000    0.000    0.000 
#    0.000    0.000    0.000    0.000    0.000    0.000 
#
# Total GULP energy -694657.755381 kJ/mol
# GULP energy per Si atom -12404.602775 kJ/mol
# Density = 1.974878 g / cm^3
# Si number density = 19.793831 Si / 1000 Ang^3
#
#
#
# Elastic Constant Matrix: (Units=GPa)
#
#
# Indices 1 2 3 4 5 6 
#
# 1 100.0322 25.8650 35.8070 0.0000 0.0000 0.0000
# 2 25.8650 51.9939 26.4389 0.0000 0.0000 0.0000
# 3 35.8070 26.4389 107.1669 0.0000 0.0000 0.0000
# 4 0.0000 0.0000 0.0000 23.2618 0.0000 0.0000
# 5 0.0000 0.0000 0.0000 0.0000 38.6002 0.0000
# 6 0.0000 0.0000 0.0000 0.0000 0.0000 31.2377
#
#
#
# Elastic Compliance Matrix: (Units=1/GPa)
#
#
# Indices 1 2 3 4 5 6 
#
# 1 0.012242 -0.004585 -0.002959 0.000000 0.000000 0.000000
# 2 -0.004585 0.023709 -0.004317 0.000000 0.000000 0.000000
# 3 -0.002959 -0.004317 0.011385 0.000000 0.000000 0.000000
# 4 0.000000 0.000000 0.000000 0.042989 0.000000 0.000000
# 5 0.000000 0.000000 0.000000 0.000000 0.025907 0.000000
# 6 0.000000 0.000000 0.000000 0.000000 0.000000 0.032013
#
#
# Mechanical properties :
#
#
# Convention : Reuss Voigt Hill
#
# Bulk Modulus (GPa) = 42.34934 48.37942 45.36438
# Shear Modulus (GPa) = 27.80286 30.02543 28.91414
#
# Velocity S-wave (km/s) = 3.75190 3.89898 3.82614
# Velocity P-wave (km/s) = 6.34118 6.69060 6.51823
#
# Compressibility (1/GPa) = 0.02361312
#
# Stress axis : x y z
#
# Youngs Moduli (GPa) = 81.68927 42.17765 87.83475
#
# Poissons Ratio (x) = 0.19339 0.25990
# Poissons Ratio (y) = 0.37455 0.37921
# Poissons Ratio (z) = 0.24172 0.18209
#
# Static dielectric constant tensor:
#      x y z
#    x 3.931220 0.000000 0.000000 
#    y 0.000000 3.440380 0.000000 
#    z 0.000000 0.000000 3.824540 
# 
# 
# High freq. dielectric constant tensor:
#      x y z
#    x 1.787500 0.000000 0.000000 
#    y 0.000000 1.755350 0.000000 
#    z 0.000000 0.000000 1.783390 
# 
# From -- ./inp_files/27233.got.cif
#   From: 2010.03.12/outbox.cif.g09.slc.cpg/sg62_14_cif.got.tgz:27233.got - 2010.04.10 19:12:36.
