data_PCOD8253826
_publ_section_title
;
Structure prediction by ZEFSAII (Michael W. Deem and Ramdas Pophale) SiO2 
 PCOD8253826
Probable space group: P N M A
;
_chemical_formula_sum "Si O2"
_cell_formula_units_Z 56
_cell_length_a 15.598176
_cell_length_b 9.088270
_cell_length_c 20.056655
_cell_angle_alpha 90.000000
_cell_angle_beta 90.000000
_cell_angle_gamma 90.000000
_cell_volume 2843.240137
_symmetry_space_group_name_H-M "P N M A"
_symmetry_group_IT_number 62
_symmetry_cell_setting 'orthorhombic'
loop_
_space_group_symop_operation_xyz
x,y,z
1/2-x,-y,1/2+z
1/2+x,1/2-y,1/2-z
-x,1/2+y,-z
-x,-y,-z
1/2+x,y,1/2-z
1/2-x,1/2+y,1/2+z
x,1/2-y,z
loop_
_atom_site_type_symbol
_atom_site_label
_atom_site_fract_x
_atom_site_fract_y
_atom_site_fract_z
Si Si1 0.017320 0.920561 0.319267
Si Si2 0.682014 0.079159 0.802377
Si Si3 0.691145 0.078828 0.401208
Si Si4 0.760347 0.418949 0.029548
Si Si5 0.031309 0.418521 0.187401
Si Si6 0.064125 0.080194 0.450673
Si Si7 0.163654 0.920953 0.831106
O O1 0.040006 0.750000 0.326649
O O2 0.916074 0.949328 0.321950
O O3 0.055507 0.979029 0.249798
O O4 0.062415 0.008738 0.378101
O O5 0.704596 0.250000 0.799589
O O6 0.737677 0.004179 0.858906
O O7 0.703344 0.010068 0.730580
O O8 0.714186 0.250000 0.401588
O O9 0.597125 0.048380 0.371811
O O10 0.690512 0.018007 0.476059
O O11 0.788673 0.250000 0.019742
O O12 0.658922 0.436626 0.019715
O O13 0.788177 0.474369 0.102586
O O14 0.037117 0.250000 0.211588
O O15 0.936956 0.455431 0.160032
O O16 0.037204 0.250000 0.445124
O O17 0.000000 0.000000 0.500000
O O18 0.180893 0.750000 0.816893
#
# Coordination Sequence:
#
# PCOD8253826 Si02
#       7
#     8   8   8   8   8   8   8
#     4  10  21  37  58  85 114 147 189 236 289 343
#     4  10  21  37  58  85 117 150 189 238 286 339
#     4  11  23  37  57  85 116 151 193 235 283 344
#     4  10  23  40  58  83 115 151 191 238 290 342
#     4   9  20  38  59  84 113 148 191 235 283 342
#     4  11  23  38  57  83 117 153 192 238 287 346
#     4   9  19  39  62  83 112 151 191 236 291 344
#
# _framework density 19.69584
#
# number of rings (size 3 to 8) (size 9 to 14) (size 15 to 20)
#    0.000    2.000    0.000    2.571    2.000    8.571 
#    0.000    0.000    0.000    0.000    0.000    0.000 
#    0.000    0.000    0.000    0.000    0.000    0.000 
#
# Total GULP energy -694731.492442 kJ/mol
# GULP energy per Si atom -12405.919508 kJ/mol
# Density = 1.965101 g / cm^3
# Si number density = 19.695840 Si / 1000 Ang^3
#
#
#
# Elastic Constant Matrix: (Units=GPa)
#
#
# Indices 1 2 3 4 5 6 
#
# 1 37.5973 27.2246 20.4035 0.0000 0.0000 0.0000
# 2 27.2246 100.0570 50.6804 0.0000 0.0000 0.0000
# 3 20.4035 50.6804 107.4121 0.0000 0.0000 0.0000
# 4 0.0000 0.0000 0.0000 44.3111 0.0000 0.0000
# 5 0.0000 0.0000 0.0000 0.0000 35.9756 0.0000
# 6 0.0000 0.0000 0.0000 0.0000 0.0000 25.1491
#
#
#
# Elastic Compliance Matrix: (Units=1/GPa)
#
#
# Indices 1 2 3 4 5 6 
#
# 1 0.033722 -0.007793 -0.002728 0.000000 0.000000 0.000000
# 2 -0.007793 0.014934 -0.005566 0.000000 0.000000 0.000000
# 3 -0.002728 -0.005566 0.012454 0.000000 0.000000 0.000000
# 4 0.000000 0.000000 0.000000 0.022568 0.000000 0.000000
# 5 0.000000 0.000000 0.000000 0.000000 0.027797 0.000000
# 6 0.000000 0.000000 0.000000 0.000000 0.000000 0.039763
#
#
# Mechanical properties :
#
#
# Convention : Reuss Voigt Hill
#
# Bulk Modulus (GPa) = 34.56077 49.07592 41.81834
# Shear Modulus (GPa) = 25.89900 30.87100 28.38500
#
# Velocity S-wave (km/s) = 3.63015 3.96332 3.80039
# Velocity P-wave (km/s) = 5.92925 6.77605 6.36674
#
# Compressibility (1/GPa) = 0.02893454
#
# Stress axis : x y z
#
# Youngs Moduli (GPa) = 29.65458 66.96114 80.29275
#
# Poissons Ratio (x) = 0.52185 0.21908
# Poissons Ratio (y) = 0.23111 0.44691
# Poissons Ratio (z) = 0.08091 0.37270
#
# Static dielectric constant tensor:
#      x y z
#    x 3.595230 0.000000 0.000000 
#    y 0.000000 3.654040 0.000000 
#    z 0.000000 0.000000 3.649940 
# 
# 
# High freq. dielectric constant tensor:
#      x y z
#    x 1.767040 0.000000 0.000000 
#    y 0.000000 1.772370 0.000000 
#    z 0.000000 0.000000 1.774010 
# 
# From -- ./inp_files/27248.got.cif
#   From: 2010.03.12/outbox.cif.g09.slc.cpg/sg62_14_cif.got.tgz:27248.got - 2010.04.10 19:12:36.
