data_PCOD8253272
_publ_section_title
;
Structure prediction by ZEFSAII (Michael W. Deem and Ramdas Pophale) SiO2 
 PCOD8253272
Probable space group: P N M A
;
_chemical_formula_sum "Si O2"
_cell_formula_units_Z 64
_cell_length_a 14.048165
_cell_length_b 23.490502
_cell_length_c 9.915648
_cell_angle_alpha 90.000000
_cell_angle_beta 90.000000
_cell_angle_gamma 90.000000
_cell_volume 3272.148451
_symmetry_space_group_name_H-M "P N M A"
_symmetry_group_IT_number 62
_symmetry_cell_setting 'orthorhombic'
loop_
_space_group_symop_operation_xyz
x,y,z
1/2-x,-y,1/2+z
1/2+x,1/2-y,1/2-z
-x,1/2+y,-z
-x,-y,-z
1/2+x,y,1/2-z
1/2-x,1/2+y,1/2+z
x,1/2-y,z
loop_
_atom_site_type_symbol
_atom_site_label
_atom_site_fract_x
_atom_site_fract_y
_atom_site_fract_z
Si Si1 0.817637 0.488662 0.662329
Si Si2 0.129722 0.869030 0.291151
Si Si3 0.842936 0.612845 0.602489
Si Si4 0.942154 0.814941 0.376058
Si Si5 0.339326 0.987292 0.544611
Si Si6 0.929521 0.873138 0.886272
Si Si7 0.130320 0.886910 0.983655
Si Si8 0.319949 0.685181 0.383502
O O1 0.891479 0.435938 0.676107
O O2 0.863874 0.544835 0.594114
O O3 0.782011 0.504406 0.813886
O O4 0.730654 0.466652 0.572637
O O5 0.052690 0.830259 0.364923
O O6 0.230616 0.854405 0.355140
O O7 0.133111 0.857244 0.130590
O O8 0.890828 0.638048 0.736372
O O9 0.728892 0.624041 0.597009
O O10 0.890670 0.642766 0.476951
O O11 0.930749 0.750000 0.426242
O O12 0.898467 0.824800 0.230124
O O13 0.416999 0.938210 0.564911
O O14 0.388671 0.045872 0.500606
O O15 0.042842 0.860454 0.897523
O O16 0.868960 0.830112 0.976056
O O17 0.284817 0.750000 0.387514
#
# Coordination Sequence:
#
# PCOD8253272 Si02
#       8
#     8   8   8   8   8   8   8   8
#     4   9  19  34  60  90 125 163 198 247 308 370
#     4  11  20  39  65  91 121 160 209 255 306 356
#     4  10  23  41  59  93 130 160 199 251 317 371
#     4  11  24  42  64  87 119 164 211 254 300 365
#     4   9  18  34  56  88 123 161 201 243 305 366
#     4  11  21  38  61  90 121 162 204 251 305 368
#     4  10  20  37  61  88 124 164 200 249 306 371
#     4  11  23  39  62  89 118 158 211 261 297 355
#
# _framework density 19.559014000000001
#
# number of rings (size 3 to 8) (size 9 to 14) (size 15 to 20)
#    0.000    1.750    3.750    0.750    0.000    2.000 
#    2.250    0.625    0.000    0.000    0.000    0.000 
#    0.000    0.000    0.000    0.000    0.000    0.000 
#
# Total GULP energy -793468.785370 kJ/mol
# GULP energy per Si atom -12397.949771 kJ/mol
# Density = 1.951450 g / cm^3
# Si number density = 19.559014 Si / 1000 Ang^3
#
#
#
# Elastic Constant Matrix: (Units=GPa)
#
#
# Indices 1 2 3 4 5 6 
#
# 1 92.2693 26.5497 22.7711 0.0000 0.0000 0.0000
# 2 26.5497 67.0344 27.2809 0.0000 0.0000 0.0000
# 3 22.7711 27.2809 60.9086 0.0000 0.0000 0.0000
# 4 0.0000 0.0000 0.0000 26.7224 0.0000 0.0000
# 5 0.0000 0.0000 0.0000 0.0000 31.0844 0.0000
# 6 0.0000 0.0000 0.0000 0.0000 0.0000 23.1849
#
#
#
# Elastic Compliance Matrix: (Units=1/GPa)
#
#
# Indices 1 2 3 4 5 6 
#
# 1 0.012678 -0.003782 -0.003046 0.000000 0.000000 0.000000
# 2 -0.003782 0.019371 -0.007263 0.000000 0.000000 0.000000
# 3 -0.003046 -0.007263 0.020810 0.000000 0.000000 0.000000
# 4 0.000000 0.000000 0.000000 0.037422 0.000000 0.000000
# 5 0.000000 0.000000 0.000000 0.000000 0.032171 0.000000
# 6 0.000000 0.000000 0.000000 0.000000 0.000000 0.043132
#
#
# Mechanical properties :
#
#
# Convention : Reuss Voigt Hill
#
# Bulk Modulus (GPa) = 40.52117 41.49063 41.00590
# Shear Modulus (GPa) = 24.75392 25.77237 25.26315
#
# Velocity S-wave (km/s) = 3.56139 3.63391 3.59783
# Velocity P-wave (km/s) = 6.13789 6.23428 6.18627
#
# Compressibility (1/GPa) = 0.02467846
#
# Stress axis : x y z
#
# Youngs Moduli (GPa) = 78.87914 51.62339 48.05467
#
# Poissons Ratio (x) = 0.19522 0.14637
# Poissons Ratio (y) = 0.29828 0.34900
# Poissons Ratio (z) = 0.24025 0.37492
#
# Static dielectric constant tensor:
#      x y z
#    x 3.361800 0.000000 0.000000 
#    y 0.000000 3.577690 0.000000 
#    z 0.000000 0.000000 3.584420 
# 
# 
# High freq. dielectric constant tensor:
#      x y z
#    x 1.748200 0.000000 0.000000 
#    y 0.000000 1.759670 0.000000 
#    z 0.000000 0.000000 1.761360 
# 
# From -- ./inp_files/6934.got.cif
#   From: 2010.03.12/outbox.cif.g09.slc.cpg/sg62_4_cif.got.tgz:6934.got - 2010.04.10 19:12:36.
