data_PCOD8253530
_publ_section_title
;
Structure prediction by ZEFSAII (Michael W. Deem and Ramdas Pophale) SiO2 
 PCOD8253530
Probable space group: P N M A
;
_chemical_formula_sum "Si O2"
_cell_formula_units_Z 40
_cell_length_a 17.794592
_cell_length_b 11.614817
_cell_length_c 8.624827
_cell_angle_alpha 90.000000
_cell_angle_beta 90.000000
_cell_angle_gamma 90.000000
_cell_volume 1782.587263
_symmetry_space_group_name_H-M "P N M A"
_symmetry_group_IT_number 62
_symmetry_cell_setting 'orthorhombic'
loop_
_space_group_symop_operation_xyz
x,y,z
1/2-x,-y,1/2+z
1/2+x,1/2-y,1/2-z
-x,1/2+y,-z
-x,-y,-z
1/2+x,y,1/2-z
1/2-x,1/2+y,1/2+z
x,1/2-y,z
loop_
_atom_site_type_symbol
_atom_site_label
_atom_site_fract_x
_atom_site_fract_y
_atom_site_fract_z
Si Si1 0.842105 0.490387 0.297709
Si Si2 0.049399 0.618474 0.488707
Si Si3 0.407008 0.081781 0.647099
Si Si4 0.069051 0.124541 0.955719
Si Si5 0.240955 0.876469 0.970565
O O1 0.890650 0.386477 0.371309
O O2 0.898661 0.570394 0.201591
O O3 0.807060 0.560672 0.438815
O O4 0.775848 0.443424 0.188847
O O5 0.012009 0.750000 0.497975
O O6 0.093391 0.610093 0.327295
O O7 0.000000 0.500000 0.500000
O O8 0.479342 0.134362 0.560246
O O9 0.333307 0.137189 0.574243
O O10 0.407619 0.945028 0.610083
O O11 0.104521 0.250000 0.977402
O O12 0.270417 0.750000 0.928025
#
# Coordination Sequence:
#
# PCOD8253530 Si02
#       5
#     8   8   8   8   8
#     4  11  24  42  65  98 132 176 227 273 337 399
#     4  12  25  43  67  99 135 176 223 279 338 400
#     4  10  22  39  62  96 131 174 219 273 337 395
#     4  10  20  39  64  94 131 173 224 276 332 398
#     4  11  23  42  67  94 134 178 222 276 336 401
#
# _framework density 22.439294
#
# number of rings (size 3 to 8) (size 9 to 14) (size 15 to 20)
#    0.000    1.200    2.000    4.200    0.000    1.600 
#    0.000   13.000    0.000    0.000    0.000    0.000 
#    0.000    0.000    0.000    0.000    0.000    0.000 
#
# Total GULP energy -495726.605027 kJ/mol
# GULP energy per Si atom -12393.165126 kJ/mol
# Density = 2.238822 g / cm^3
# Si number density = 22.439294 Si / 1000 Ang^3
#
#
#
# Elastic Constant Matrix: (Units=GPa)
#
#
# Indices 1 2 3 4 5 6 
#
# 1 51.3171 17.6074 -0.7072 0.0000 0.0000 0.0000
# 2 17.6074 186.0456 45.4818 0.0000 0.0000 0.0000
# 3 -0.7072 45.4818 68.9141 0.0000 0.0000 0.0000
# 4 0.0000 0.0000 0.0000 14.0411 0.0000 0.0000
# 5 0.0000 0.0000 0.0000 0.0000 38.7156 0.0000
# 6 0.0000 0.0000 0.0000 0.0000 0.0000 6.7567
#
#
#
# Elastic Compliance Matrix: (Units=1/GPa)
#
#
# Indices 1 2 3 4 5 6 
#
# 1 0.020319 -0.002354 0.001762 0.000000 0.000000 0.000000
# 2 -0.002354 0.006682 -0.004434 0.000000 0.000000 0.000000
# 3 0.001762 -0.004434 0.017455 0.000000 0.000000 0.000000
# 4 0.000000 0.000000 0.000000 0.071219 0.000000 0.000000
# 5 0.000000 0.000000 0.000000 0.000000 0.025829 0.000000
# 6 0.000000 0.000000 0.000000 0.000000 0.000000 0.148001
#
#
# Mechanical properties :
#
#
# Convention : Reuss Voigt Hill
#
# Bulk Modulus (GPa) = 29.06637 47.89342 38.47989
# Shear Modulus (GPa) = 16.07589 28.16234 22.11911
#
# Velocity S-wave (km/s) = 2.67950 3.54651 3.14304
# Velocity P-wave (km/s) = 4.74915 6.17739 5.50974
#
# Compressibility (1/GPa) = 0.03440403
#
# Stress axis : x y z
#
# Youngs Moduli (GPa) = 49.21613 149.66188 57.28945
#
# Poissons Ratio (x) = 0.35226 -0.10094
# Poissons Ratio (y) = 0.11584 0.25402
# Poissons Ratio (z) = -0.08671 0.66359
#
# Static dielectric constant tensor:
#      x y z
#    x 3.824770 0.000000 0.000000 
#    y 0.000000 4.503560 0.000000 
#    z 0.000000 0.000000 4.078690 
# 
# 
# High freq. dielectric constant tensor:
#      x y z
#    x 1.867380 0.000000 0.000000 
#    y 0.000000 1.895560 0.000000 
#    z 0.000000 0.000000 1.888330 
# 
# From -- ./inp_files/7303.got.cif
#   From: 2010.03.12/outbox.cif.g09.slc.cpg/sg62_4_cif.got.tgz:7303.got - 2010.04.10 19:12:36.
