data_PCOD8253539
_publ_section_title
;
Structure prediction by ZEFSAII (Michael W. Deem and Ramdas Pophale) SiO2 
 PCOD8253539
Probable space group: P N M A
;
_chemical_formula_sum "Si O2"
_cell_formula_units_Z 64
_cell_length_a 14.995372
_cell_length_b 22.559367
_cell_length_c 9.286619
_cell_angle_alpha 90.000000
_cell_angle_beta 90.000000
_cell_angle_gamma 90.000000
_cell_volume 3141.534126
_symmetry_space_group_name_H-M "P N M A"
_symmetry_group_IT_number 62
_symmetry_cell_setting 'orthorhombic'
loop_
_space_group_symop_operation_xyz
x,y,z
1/2-x,-y,1/2+z
1/2+x,1/2-y,1/2-z
-x,1/2+y,-z
-x,-y,-z
1/2+x,y,1/2-z
1/2-x,1/2+y,1/2+z
x,1/2-y,z
loop_
_atom_site_type_symbol
_atom_site_label
_atom_site_fract_x
_atom_site_fract_y
_atom_site_fract_z
Si Si1 0.784577 0.575307 0.133357
Si Si2 0.065373 0.434597 0.657099
Si Si3 0.614714 0.496273 0.131844
Si Si4 0.511762 0.680904 0.615838
Si Si5 0.496658 0.684052 0.281913
Si Si6 0.317662 0.181406 0.203504
Si Si7 0.348756 0.893186 0.671618
Si Si8 0.681824 0.685192 0.127394
O O1 0.853309 0.541938 0.241363
O O2 0.699188 0.536142 0.087994
O O3 0.747353 0.637079 0.199793
O O4 0.839544 0.596666 0.996941
O O5 0.090902 0.450015 0.494167
O O6 0.059352 0.364158 0.690361
O O7 0.969632 0.464929 0.685445
O O8 0.644406 0.458594 0.266979
O O9 0.494608 0.750000 0.641975
O O10 0.507400 0.664549 0.447694
O O11 0.604721 0.661333 0.687784
O O12 0.436899 0.644887 0.701631
O O13 0.452430 0.750000 0.269467
O O14 0.594563 0.687177 0.220660
O O15 0.293560 0.250000 0.226735
O O16 0.232732 0.141886 0.244181
O O17 0.344299 0.168435 0.037505
O O18 0.728931 0.750000 0.129525
#
# Coordination Sequence:
#
# PCOD8253539 Si02
#       8
#     8   8   8   8   8   8   8   8
#     4  11  22  42  64  89 124 164 210 256 312 365
#     4  11  24  44  64  90 125 167 208 262 310 367
#     4  11  26  42  62  88 127 166 213 258 303 364
#     4  10  21  38  63  94 127 159 200 256 311 371
#     4  10  20  39  65  93 123 157 201 256 316 371
#     4   9  20  38  62  91 126 161 196 249 311 372
#     4  11  23  39  62  92 119 165 208 254 306 371
#     4   9  19  36  65  94 123 160 201 252 312 372
#
# _framework density 20.372212000000001
#
# number of rings (size 3 to 8) (size 9 to 14) (size 15 to 20)
#    0.000    1.750    2.500    1.125    1.750    4.500 
#    2.250    0.625    0.000    0.000    0.000    0.000 
#    0.000    0.000    0.000    0.000    0.000    0.000 
#
# Total GULP energy -793368.517320 kJ/mol
# GULP energy per Si atom -12396.383083 kJ/mol
# Density = 2.032584 g / cm^3
# Si number density = 20.372212 Si / 1000 Ang^3
#
#
#
# Elastic Constant Matrix: (Units=GPa)
#
#
# Indices 1 2 3 4 5 6 
#
# 1 115.5359 54.8908 34.9556 0.0000 0.0000 0.0000
# 2 54.8908 95.2842 34.9359 0.0000 0.0000 0.0000
# 3 34.9556 34.9359 44.6686 0.0000 0.0000 0.0000
# 4 0.0000 0.0000 0.0000 32.8121 0.0000 0.0000
# 5 0.0000 0.0000 0.0000 0.0000 32.5927 0.0000
# 6 0.0000 0.0000 0.0000 0.0000 0.0000 -27.8477
#
#
#
# Elastic Compliance Matrix: (Units=1/GPa)
#
#
# Indices 1 2 3 4 5 6 
#
# 1 0.012985 -0.005264 -0.006044 0.000000 0.000000 0.000000
# 2 -0.005264 0.016849 -0.009058 0.000000 0.000000 0.000000
# 3 -0.006044 -0.009058 0.034201 0.000000 0.000000 0.000000
# 4 0.000000 0.000000 0.000000 0.030477 0.000000 0.000000
# 5 0.000000 0.000000 0.000000 0.000000 0.030682 0.000000
# 6 0.000000 0.000000 0.000000 0.000000 0.000000 -0.035910
#
#
# Mechanical properties :
#
#
# Convention : Reuss Voigt Hill
#
# Bulk Modulus (GPa) = 42.91458 56.11703 49.51580
# Shear Modulus (GPa) = 36.28869 16.22519 26.25694
#
# Velocity S-wave (km/s) = 4.22510 2.82518 3.59397
# Velocity P-wave (km/s) = 6.70172 6.18449 6.44829
#
# Compressibility (1/GPa) = 0.02330210
#
# Stress axis : x y z
#
# Youngs Moduli (GPa) = 77.01167 59.35209 29.23858
#
# Poissons Ratio (x) = 0.31244 0.17673
# Poissons Ratio (y) = 0.40541 0.26484
# Poissons Ratio (z) = 0.46548 0.53761
#
# Static dielectric constant tensor:
#      x y z
#    x 3.743090 0.000000 0.000000 
#    y 0.000000 4.218630 0.000000 
#    z 0.000000 0.000000 3.523830 
# 
# 
# High freq. dielectric constant tensor:
#      x y z
#    x 1.802310 0.000000 0.000000 
#    y 0.000000 1.802580 0.000000 
#    z 0.000000 0.000000 1.782640 
# 
# From -- ./inp_files/6958.got.cif
#   From: 2010.03.12/outbox.cif.g09.slc.cpg/sg62_4_cif.got.tgz:6958.got - 2010.04.10 19:12:36.
