data_PCOD8253295
_publ_section_title
;
Structure prediction by ZEFSAII (Michael W. Deem and Ramdas Pophale) SiO2 
 PCOD8253295
Probable space group: P N M A
;
_chemical_formula_sum "Si O2"
_cell_formula_units_Z 40
_cell_length_a 7.612563
_cell_length_b 10.769483
_cell_length_c 23.927750
_cell_angle_alpha 90.000000
_cell_angle_beta 90.000000
_cell_angle_gamma 90.000000
_cell_volume 1961.677529
_symmetry_space_group_name_H-M "P N M A"
_symmetry_group_IT_number 62
_symmetry_cell_setting 'orthorhombic'
loop_
_space_group_symop_operation_xyz
x,y,z
1/2-x,-y,1/2+z
1/2+x,1/2-y,1/2-z
-x,1/2+y,-z
-x,-y,-z
1/2+x,y,1/2-z
1/2-x,1/2+y,1/2+z
x,1/2-y,z
loop_
_atom_site_type_symbol
_atom_site_label
_atom_site_fract_x
_atom_site_fract_y
_atom_site_fract_z
Si Si1 0.790774 0.886302 0.531937
Si Si2 0.112776 0.105876 0.802098
Si Si3 0.490041 0.110664 0.378487
Si Si4 0.155759 0.545827 0.575520
Si Si5 0.482841 0.609758 0.177314
O O1 0.727481 0.750000 0.515080
O O2 0.655978 0.938751 0.577940
O O3 0.987136 0.875888 0.556933
O O4 0.780123 0.965251 0.476415
O O5 0.049608 0.250000 0.813836
O O6 0.310376 0.085639 0.821661
O O7 0.103491 0.076563 0.736563
O O8 0.996398 0.999605 0.832456
O O9 0.439629 0.250000 0.355095
O O10 0.678773 0.129688 0.407767
O O11 0.106229 0.467554 0.629326
O O12 0.441575 0.750000 0.161709
#
# Coordination Sequence:
#
# PCOD8253295 Si02
#       5
#     8   8   8   8   8
#     4  10  22  39  59  88 126 163 205 254 302 363
#     4  10  21  39  62  91 121 159 204 257 307 366
#     4  11  23  41  61  91 127 164 204 251 306 368
#     4  11  21  38  63  88 121 164 208 250 307 362
#     4  10  20  37  62  90 122 156 206 258 309 363
#
# _framework density 20.390712000000001
#
# number of rings (size 3 to 8) (size 9 to 14) (size 15 to 20)
#    0.000    1.600    2.000    3.000    0.000    3.200 
#    0.000    6.000    0.000    0.000    0.000    0.000 
#    0.000    0.000    0.000    0.000    0.000    0.000 
#
# Total GULP energy -495784.305351 kJ/mol
# GULP energy per Si atom -12394.607634 kJ/mol
# Density = 2.034430 g / cm^3
# Si number density = 20.390712 Si / 1000 Ang^3
#
#
#
# Elastic Constant Matrix: (Units=GPa)
#
#
# Indices 1 2 3 4 5 6 
#
# 1 41.8133 16.1092 14.2221 0.0000 0.0000 0.0000
# 2 16.1092 107.1073 59.5074 0.0000 0.0000 0.0000
# 3 14.2221 59.5074 89.0732 0.0000 0.0000 0.0000
# 4 0.0000 0.0000 0.0000 36.0945 0.0000 0.0000
# 5 0.0000 0.0000 0.0000 0.0000 24.4667 0.0000
# 6 0.0000 0.0000 0.0000 0.0000 0.0000 14.4470
#
#
#
# Elastic Compliance Matrix: (Units=1/GPa)
#
#
# Indices 1 2 3 4 5 6 
#
# 1 0.025711 -0.002522 -0.002420 0.000000 0.000000 0.000000
# 2 -0.002522 0.015095 -0.009682 0.000000 0.000000 0.000000
# 3 -0.002420 -0.009682 0.018081 0.000000 0.000000 0.000000
# 4 0.000000 0.000000 0.000000 0.027705 0.000000 0.000000
# 5 0.000000 0.000000 0.000000 0.000000 0.040872 0.000000
# 6 0.000000 0.000000 0.000000 0.000000 0.000000 0.069219
#
#
# Mechanical properties :
#
#
# Convention : Reuss Voigt Hill
#
# Bulk Modulus (GPa) = 33.73986 46.40792 40.07389
# Shear Modulus (GPa) = 21.20348 24.87862 23.04105
#
# Velocity S-wave (km/s) = 3.22818 3.49678 3.36516
# Velocity P-wave (km/s) = 5.52064 6.25396 5.89871
#
# Compressibility (1/GPa) = 0.02963854
#
# Stress axis : x y z
#
# Youngs Moduli (GPa) = 38.89417 66.24778 55.30602
#
# Poissons Ratio (x) = 0.16711 0.13384
# Poissons Ratio (y) = 0.09811 0.53546
# Poissons Ratio (z) = 0.09412 0.64139
#
# Static dielectric constant tensor:
#      x y z
#    x 3.868210 0.000000 0.000000 
#    y 0.000000 3.534250 0.000000 
#    z 0.000000 0.000000 3.644420 
# 
# 
# High freq. dielectric constant tensor:
#      x y z
#    x 1.811080 0.000000 0.000000 
#    y 0.000000 1.791660 0.000000 
#    z 0.000000 0.000000 1.794070 
# 
# From -- ./inp_files/21889.got.cif
#   From: 2010.03.12/outbox.cif.g09.slc.cpg/sg62_11_cif.got.tgz:21889.got - 2010.04.10 19:12:36.
