data_PCOD8253215
_publ_section_title
;
Structure prediction by ZEFSAII (Michael W. Deem and Ramdas Pophale) SiO2 
 PCOD8253215
Probable space group: P N M A
;
_chemical_formula_sum "Si O2"
_cell_formula_units_Z 56
_cell_length_a 14.665755
_cell_length_b 8.878476
_cell_length_c 21.623691
_cell_angle_alpha 90.000000
_cell_angle_beta 90.000000
_cell_angle_gamma 90.000000
_cell_volume 2815.611156
_symmetry_space_group_name_H-M "P N M A"
_symmetry_group_IT_number 62
_symmetry_cell_setting 'orthorhombic'
loop_
_space_group_symop_operation_xyz
x,y,z
1/2-x,-y,1/2+z
1/2+x,1/2-y,1/2-z
-x,1/2+y,-z
-x,-y,-z
1/2+x,y,1/2-z
1/2-x,1/2+y,1/2+z
x,1/2-y,z
loop_
_atom_site_type_symbol
_atom_site_label
_atom_site_fract_x
_atom_site_fract_y
_atom_site_fract_z
Si Si1 0.271794 0.928225 0.489108
Si Si2 0.107007 0.426307 0.749657
Si Si3 0.943702 0.573442 0.679084
Si Si4 0.812281 0.422802 0.770932
Si Si5 0.587482 0.072182 0.612370
Si Si6 0.918664 0.571658 0.538157
Si Si7 0.384209 0.424674 0.593828
O O1 0.257138 0.750000 0.485509
O O2 0.333297 0.990342 0.432280
O O3 0.175661 0.010554 0.488751
O O4 0.322004 0.968377 0.552664
O O5 0.085302 0.250000 0.751266
O O6 0.206218 0.462745 0.722556
O O7 0.099062 0.495494 0.818804
O O8 0.035783 0.500798 0.703914
O O9 0.954938 0.750000 0.683816
O O10 0.855926 0.523914 0.717832
O O11 0.928625 0.520600 0.608993
O O12 0.825313 0.250000 0.750866
O O13 0.861627 0.456567 0.835027
O O14 0.596553 0.250000 0.616814
O O15 0.489480 0.028468 0.583848
O O16 0.921188 0.750000 0.530378
O O17 0.000000 0.500000 0.500000
O O18 0.366738 0.250000 0.576925
#
# Coordination Sequence:
#
# PCOD8253215 Si02
#       7
#     8   8   8   8   8   8   8
#     4  11  23  39  62  91 122 162 206 254 309 363
#     4  10  20  37  63  91 118 158 206 246 294 363
#     4  11  24  41  62  92 126 157 195 254 313 359
#     4  10  21  38  64  92 122 164 208 250 300 365
#     4   9  18  36  60  88 124 160 203 248 294 362
#     4  11  26  46  65  89 122 161 207 255 307 370
#     4  10  20  37  59  89 126 163 207 255 301 358
#
# _framework density 19.889111
#
# number of rings (size 3 to 8) (size 9 to 14) (size 15 to 20)
#    0.000    1.714    1.429    2.571    2.000    4.571 
#    0.000    2.143    0.000    0.000    0.000    0.000 
#    0.000    0.000    0.000    0.000    0.000    0.000 
#
# Total GULP energy -694644.618830 kJ/mol
# GULP energy per Si atom -12404.368193 kJ/mol
# Density = 1.984384 g / cm^3
# Si number density = 19.889111 Si / 1000 Ang^3
#
#
#
# Elastic Constant Matrix: (Units=GPa)
#
#
# Indices 1 2 3 4 5 6 
#
# 1 127.9268 31.4721 42.8640 0.0000 0.0000 0.0000
# 2 31.4721 49.7060 32.4549 0.0000 0.0000 0.0000
# 3 42.8640 32.4549 77.6004 0.0000 0.0000 0.0000
# 4 0.0000 0.0000 0.0000 29.4052 0.0000 0.0000
# 5 0.0000 0.0000 0.0000 0.0000 32.8649 0.0000
# 6 0.0000 0.0000 0.0000 0.0000 0.0000 31.7176
#
#
#
# Elastic Compliance Matrix: (Units=1/GPa)
#
#
# Indices 1 2 3 4 5 6 
#
# 1 0.010083 -0.003780 -0.003989 0.000000 0.000000 0.000000
# 2 -0.003780 0.029093 -0.010080 0.000000 0.000000 0.000000
# 3 -0.003989 -0.010080 0.019305 0.000000 0.000000 0.000000
# 4 0.000000 0.000000 0.000000 0.034008 0.000000 0.000000
# 5 0.000000 0.000000 0.000000 0.000000 0.030428 0.000000
# 6 0.000000 0.000000 0.000000 0.000000 0.000000 0.031528
#
#
# Mechanical properties :
#
#
# Convention : Reuss Voigt Hill
#
# Bulk Modulus (GPa) = 43.88869 52.09057 47.98963
# Shear Modulus (GPa) = 25.28605 28.69367 26.98986
#
# Velocity S-wave (km/s) = 3.56947 3.80239 3.68777
# Velocity P-wave (km/s) = 6.25322 6.74721 6.50491
#
# Compressibility (1/GPa) = 0.02278491
#
# Stress axis : x y z
#
# Youngs Moduli (GPa) = 99.17241 34.37247 51.79879
#
# Poissons Ratio (x) = 0.12993 0.20662
# Poissons Ratio (y) = 0.37487 0.52211
# Poissons Ratio (z) = 0.39558 0.34646
#
# Static dielectric constant tensor:
#      x y z
#    x 3.792170 0.000000 0.000000 
#    y 0.000000 3.464940 0.000000 
#    z 0.000000 0.000000 3.827000 
# 
# 
# High freq. dielectric constant tensor:
#      x y z
#    x 1.794470 0.000000 0.000000 
#    y 0.000000 1.756460 0.000000 
#    z 0.000000 0.000000 1.785380 
# 
# From -- ./inp_files/27206.got.cif
#   From: 2010.03.12/outbox.cif.g09.slc.cpg/sg62_14_cif.got.tgz:27206.got - 2010.04.10 19:12:36.
