data_PCOD8253863
_publ_section_title
;
Structure prediction by ZEFSAII (Michael W. Deem and Ramdas Pophale) SiO2 
 PCOD8253863
Probable space group: P N M A
;
_chemical_formula_sum "Si O2"
_cell_formula_units_Z 56
_cell_length_a 15.333418
_cell_length_b 8.891667
_cell_length_c 19.613344
_cell_angle_alpha 90.000000
_cell_angle_beta 90.000000
_cell_angle_gamma 90.000000
_cell_volume 2674.076394
_symmetry_space_group_name_H-M "P N M A"
_symmetry_group_IT_number 62
_symmetry_cell_setting 'orthorhombic'
loop_
_space_group_symop_operation_xyz
x,y,z
1/2-x,-y,1/2+z
1/2+x,1/2-y,1/2-z
-x,1/2+y,-z
-x,-y,-z
1/2+x,y,1/2-z
1/2-x,1/2+y,1/2+z
x,1/2-y,z
loop_
_atom_site_type_symbol
_atom_site_label
_atom_site_fract_x
_atom_site_fract_y
_atom_site_fract_z
Si Si1 0.912661 0.583852 0.513438
Si Si2 0.659447 0.923343 0.137847
Si Si3 0.854929 0.915566 0.362985
Si Si4 0.497274 0.072280 0.637790
Si Si5 0.816255 0.428356 0.923367
Si Si6 0.673158 0.424536 0.567269
Si Si7 0.992449 0.927236 0.717214
O O1 0.926300 0.750000 0.547537
O O2 0.862653 0.469538 0.561424
O O3 0.863876 0.606490 0.443359
O O4 0.000000 0.500000 0.500000
O O5 0.636366 0.750000 0.152072
O O6 0.764173 0.953108 0.134513
O O7 0.602848 0.018692 0.191365
O O8 0.862347 0.750000 0.327538
O O9 0.754897 0.978464 0.364288
O O10 0.928055 0.024253 0.332350
O O11 0.494828 0.250000 0.650247
O O12 0.409401 0.011167 0.602740
O O13 0.576662 0.024253 0.588916
O O14 0.511703 0.993005 0.709463
O O15 0.816904 0.250000 0.928109
O O16 0.797273 0.488054 0.999427
O O17 0.676348 0.250000 0.548098
O O18 0.991436 0.750000 0.720586
#
# Coordination Sequence:
#
# PCOD8253863 Si02
#       7
#     8   8   8   8   8   8   8
#     4  11  20  32  55  86 121 156 194 241 298 354
#     4  11  22  37  59  88 123 159 195 242 298 356
#     4  10  21  37  59  89 123 157 194 239 299 360
#     4  10  23  44  64  85 120 163 203 243 294 356
#     4  10  21  39  66  94 120 155 197 246 300 351
#     4  10  22  39  64  94 121 155 198 246 298 351
#     4  12  26  41  60  87 120 161 204 248 298 355
#
# _framework density 20.941811000000001
#
# number of rings (size 3 to 8) (size 9 to 14) (size 15 to 20)
#    0.000    1.429    2.857    2.571    0.000    4.000 
#    0.000    5.714    0.000    0.000    0.000    0.000 
#    0.000    0.000    0.000    0.000    0.000    0.000 
#
# Total GULP energy -693905.156494 kJ/mol
# GULP energy per Si atom -12391.163509 kJ/mol
# Density = 2.089415 g / cm^3
# Si number density = 20.941811 Si / 1000 Ang^3
#
#
#
# Elastic Constant Matrix: (Units=GPa)
#
#
# Indices 1 2 3 4 5 6 
#
# 1 114.4140 22.1381 6.4413 0.0000 0.0000 0.0000
# 2 22.1381 56.2177 14.9385 0.0000 0.0000 0.0000
# 3 6.4413 14.9385 59.4082 0.0000 0.0000 0.0000
# 4 0.0000 0.0000 0.0000 28.2807 0.0000 0.0000
# 5 0.0000 0.0000 0.0000 0.0000 21.7150 0.0000
# 6 0.0000 0.0000 0.0000 0.0000 0.0000 18.9783
#
#
#
# Elastic Compliance Matrix: (Units=1/GPa)
#
#
# Indices 1 2 3 4 5 6 
#
# 1 0.009462 -0.003701 -0.000095 0.000000 0.000000 0.000000
# 2 -0.003701 0.020509 -0.004756 0.000000 0.000000 0.000000
# 3 -0.000095 -0.004756 0.018039 0.000000 0.000000 0.000000
# 4 0.000000 0.000000 0.000000 0.035360 0.000000 0.000000
# 5 0.000000 0.000000 0.000000 0.000000 0.046051 0.000000
# 6 0.000000 0.000000 0.000000 0.000000 0.000000 0.052692
#
#
# Mechanical properties :
#
#
# Convention : Reuss Voigt Hill
#
# Bulk Modulus (GPa) = 32.35623 35.23065 33.79344
# Shear Modulus (GPa) = 23.86435 26.22962 25.04698
#
# Velocity S-wave (km/s) = 3.37939 3.54291 3.46211
# Velocity P-wave (km/s) = 5.54176 5.79620 5.67041
#
# Compressibility (1/GPa) = 0.03090595
#
# Stress axis : x y z
#
# Youngs Moduli (GPa) = 105.69055 48.75904 55.43566
#
# Poissons Ratio (x) = 0.18044 0.00528
# Poissons Ratio (y) = 0.39112 0.26365
# Poissons Ratio (z) = 0.01008 0.23189
#
# Static dielectric constant tensor:
#      x y z
#    x 4.326570 0.000000 0.000000 
#    y 0.000000 3.641280 0.000000 
#    z 0.000000 0.000000 3.556600 
# 
# 
# High freq. dielectric constant tensor:
#      x y z
#    x 1.845460 0.000000 0.000000 
#    y 0.000000 1.810320 0.000000 
#    z 0.000000 0.000000 1.802450 
# 
# From -- ./inp_files/27264.got.cif
#   From: 2010.03.12/outbox.cif.g09.slc.cpg/sg62_14_cif.got.tgz:27264.got - 2010.04.10 19:12:36.
