data_PCOD8253991
_publ_section_title
;
Structure prediction by ZEFSAII (Michael W. Deem and Ramdas Pophale) SiO2 
 PCOD8253991
Probable space group: P N M A
;
_chemical_formula_sum "Si O2"
_cell_formula_units_Z 56
_cell_length_a 14.857030
_cell_length_b 8.659092
_cell_length_c 21.064722
_cell_angle_alpha 90.000000
_cell_angle_beta 90.000000
_cell_angle_gamma 90.000000
_cell_volume 2709.942563
_symmetry_space_group_name_H-M "P N M A"
_symmetry_group_IT_number 62
_symmetry_cell_setting 'orthorhombic'
loop_
_space_group_symop_operation_xyz
x,y,z
1/2-x,-y,1/2+z
1/2+x,1/2-y,1/2-z
-x,1/2+y,-z
-x,-y,-z
1/2+x,y,1/2-z
1/2-x,1/2+y,1/2+z
x,1/2-y,z
loop_
_atom_site_type_symbol
_atom_site_label
_atom_site_fract_x
_atom_site_fract_y
_atom_site_fract_z
Si Si1 0.962689 0.573609 0.595066
Si Si2 0.639082 0.572120 0.985935
Si Si3 0.283669 0.432037 0.601497
Si Si4 0.971460 0.928123 0.933514
Si Si5 0.084260 0.927571 0.278698
Si Si6 0.440481 0.072941 0.306435
Si Si7 0.260856 0.070107 0.234513
O O1 0.948582 0.750000 0.615787
O O2 0.881363 0.525099 0.549038
O O3 0.965172 0.463794 0.655706
O O4 0.058719 0.547357 0.563287
O O5 0.650002 0.750000 0.005060
O O6 0.730680 0.510662 0.956082
O O7 0.278617 0.250000 0.593545
O O8 0.386113 0.486923 0.597110
O O9 0.239260 0.477461 0.668581
O O10 0.946669 0.750000 0.944392
O O11 0.053935 0.945063 0.883074
O O12 0.000000 0.000000 0.000000
O O13 0.113071 0.750000 0.274337
O O14 0.172567 0.032800 0.274830
O O15 0.017022 0.964001 0.221799
O O16 0.460177 0.250000 0.286747
O O17 0.344282 0.020202 0.279028
O O18 0.264619 0.250000 0.217424
#
# Coordination Sequence:
#
# PCOD8253991 Si02
#       7
#     8   8   8   8   8   8   8
#     4  10  21  38  60  88 125 165 207 258 317 377
#     4  10  21  38  61  89 122 164 210 258 314 375
#     4  12  24  40  63  94 127 167 215 262 323 391
#     4  11  24  44  68  93 127 170 216 270 327 388
#     4  12  24  38  61  92 127 164 205 257 315 380
#     4  10  23  43  67  92 124 168 215 267 327 386
#     4  11  23  41  65  92 123 164 215 266 323 385
#
# _framework density 20.664643999999999
#
# number of rings (size 3 to 8) (size 9 to 14) (size 15 to 20)
#    0.000    1.143    1.429    5.143    0.000    8.000 
#    0.000    4.286    0.000    0.000    0.000    0.000 
#    0.000    0.000    0.000    0.000    0.000    0.000 
#
# Total GULP energy -694687.314244 kJ/mol
# GULP energy per Si atom -12405.130612 kJ/mol
# Density = 2.061761 g / cm^3
# Si number density = 20.664644 Si / 1000 Ang^3
#
#
#
# Elastic Constant Matrix: (Units=GPa)
#
#
# Indices 1 2 3 4 5 6 
#
# 1 96.5049 30.1956 33.4652 0.0000 0.0000 0.0000
# 2 30.1956 56.2876 23.6919 0.0000 0.0000 0.0000
# 3 33.4652 23.6919 108.7236 0.0000 0.0000 0.0000
# 4 0.0000 0.0000 0.0000 38.7849 0.0000 0.0000
# 5 0.0000 0.0000 0.0000 0.0000 33.7562 0.0000
# 6 0.0000 0.0000 0.0000 0.0000 0.0000 19.2279
#
#
#
# Elastic Compliance Matrix: (Units=1/GPa)
#
#
# Indices 1 2 3 4 5 6 
#
# 1 0.013168 -0.005899 -0.002768 0.000000 0.000000 0.000000
# 2 -0.005899 0.022203 -0.003022 0.000000 0.000000 0.000000
# 3 -0.002768 -0.003022 0.010708 0.000000 0.000000 0.000000
# 4 0.000000 0.000000 0.000000 0.025783 0.000000 0.000000
# 5 0.000000 0.000000 0.000000 0.000000 0.029624 0.000000
# 6 0.000000 0.000000 0.000000 0.000000 0.000000 0.052008
#
#
# Mechanical properties :
#
#
# Convention : Reuss Voigt Hill
#
# Bulk Modulus (GPa) = 44.05207 48.46905 46.26056
# Shear Modulus (GPa) = 27.10938 29.96469 28.53704
#
# Velocity S-wave (km/s) = 3.62591 3.81208 3.72016
# Velocity P-wave (km/s) = 6.23646 6.54843 6.39435
#
# Compressibility (1/GPa) = 0.02270041
#
# Stress axis : x y z
#
# Youngs Moduli (GPa) = 75.94401 45.03991 93.38708
#
# Poissons Ratio (x) = 0.26568 0.25846
# Poissons Ratio (y) = 0.44798 0.28226
# Poissons Ratio (z) = 0.21018 0.13613
#
# Static dielectric constant tensor:
#      x y z
#    x 3.719420 0.000000 0.000000 
#    y 0.000000 3.800080 0.000000 
#    z 0.000000 0.000000 3.805600 
# 
# 
# High freq. dielectric constant tensor:
#      x y z
#    x 1.805090 0.000000 0.000000 
#    y 0.000000 1.816790 0.000000 
#    z 0.000000 0.000000 1.816090 
# 
# From -- ./inp_files/27287.got.cif
#   From: 2010.03.12/outbox.cif.g09.slc.cpg/sg62_14_cif.got.tgz:27287.got - 2010.04.10 19:12:36.
