data_PCOD8253124
_publ_section_title
;
Structure prediction by ZEFSAII (Michael W. Deem and Ramdas Pophale) SiO2 
 PCOD8253124
Probable space group: P N M A
;
_chemical_formula_sum "Si O2"
_cell_formula_units_Z 48
_cell_length_a 23.226238
_cell_length_b 8.968353
_cell_length_c 11.798523
_cell_angle_alpha 90.000000
_cell_angle_beta 90.000000
_cell_angle_gamma 90.000000
_cell_volume 2457.645334
_symmetry_space_group_name_H-M "P N M A"
_symmetry_group_IT_number 62
_symmetry_cell_setting 'orthorhombic'
loop_
_space_group_symop_operation_xyz
x,y,z
1/2-x,-y,1/2+z
1/2+x,1/2-y,1/2-z
-x,1/2+y,-z
-x,-y,-z
1/2+x,y,1/2-z
1/2-x,1/2+y,1/2+z
x,1/2-y,z
loop_
_atom_site_type_symbol
_atom_site_label
_atom_site_fract_x
_atom_site_fract_y
_atom_site_fract_z
Si Si1 0.629518 0.423042 0.500588
Si Si2 0.082155 0.574557 0.781976
Si Si3 0.652776 0.423556 0.905499
Si Si4 0.281573 0.079311 0.647469
Si Si5 0.050108 0.423208 0.208000
Si Si6 0.140311 0.576593 0.357338
O O1 0.633918 0.250000 0.530355
O O2 0.619539 0.510488 0.615949
O O3 0.689814 0.474623 0.447117
O O4 0.577768 0.458465 0.413993
O O5 0.090163 0.750000 0.779054
O O6 0.103485 0.507860 0.663622
O O7 0.015985 0.528285 0.798360
O O8 0.637725 0.250000 0.907886
O O9 0.714018 0.454571 0.846215
O O10 0.654832 0.483675 0.032126
O O11 0.294038 0.250000 0.612987
O O12 0.307794 0.044110 0.770456
O O13 0.057799 0.250000 0.239708
O O14 0.080202 0.521456 0.304505
O O15 0.134635 0.750000 0.387473
#
# Coordination Sequence:
#
# PCOD8253124 Si02
#       6
#     8   8   8   8   8   8
#     4  10  20  36  61  90 118 152 193 240 293 343
#     4  11  23  38  58  87 121 155 196 240 289 345
#     4  11  24  40  58  85 118 155 196 239 292 348
#     4   9  21  40  60  84 115 151 192 239 289 344
#     4   9  20  39  61  86 117 155 196 240 289 346
#     4  10  21  39  62  86 114 151 195 241 293 349
#
# _framework density 19.530889999999999
#
# number of rings (size 3 to 8) (size 9 to 14) (size 15 to 20)
#    0.000    2.000    0.000    2.500    2.333    4.667 
#    0.000    0.000    0.000    0.000    0.000    0.000 
#    0.000    0.000    0.000    0.000    0.000    0.000 
#
# Total GULP energy -595499.105978 kJ/mol
# GULP energy per Si atom -12406.231375 kJ/mol
# Density = 1.948644 g / cm^3
# Si number density = 19.530890 Si / 1000 Ang^3
#
#
#
# Elastic Constant Matrix: (Units=GPa)
#
#
# Indices 1 2 3 4 5 6 
#
# 1 50.6467 35.7579 22.2945 0.0000 0.0000 0.0000
# 2 35.7579 89.4248 43.2026 0.0000 0.0000 0.0000
# 3 22.2945 43.2026 96.4664 0.0000 0.0000 0.0000
# 4 0.0000 0.0000 0.0000 40.9720 0.0000 0.0000
# 5 0.0000 0.0000 0.0000 0.0000 20.8282 0.0000
# 6 0.0000 0.0000 0.0000 0.0000 0.0000 29.8723
#
#
#
# Elastic Compliance Matrix: (Units=1/GPa)
#
#
# Indices 1 2 3 4 5 6 
#
# 1 0.027766 -0.010212 -0.001844 0.000000 0.000000 0.000000
# 2 -0.010212 0.018026 -0.005713 0.000000 0.000000 0.000000
# 3 -0.001844 -0.005713 0.013351 0.000000 0.000000 0.000000
# 4 0.000000 0.000000 0.000000 0.024407 0.000000 0.000000
# 5 0.000000 0.000000 0.000000 0.000000 0.048012 0.000000
# 6 0.000000 0.000000 0.000000 0.000000 0.000000 0.033476
#
#
# Mechanical properties :
#
#
# Convention : Reuss Voigt Hill
#
# Bulk Modulus (GPa) = 42.36203 48.78309 45.57256
# Shear Modulus (GPa) = 23.98731 27.35334 25.67033
#
# Velocity S-wave (km/s) = 3.50833 3.74641 3.62932
# Velocity P-wave (km/s) = 6.17641 6.61406 6.39898
#
# Compressibility (1/GPa) = 0.02360605
#
# Stress axis : x y z
#
# Youngs Moduli (GPa) = 36.01503 55.47539 74.90139
#
# Poissons Ratio (x) = 0.56652 0.13809
# Poissons Ratio (y) = 0.36779 0.42790
# Poissons Ratio (z) = 0.06640 0.31692
#
# Static dielectric constant tensor:
#      x y z
#    x 3.608750 0.000000 0.000000 
#    y 0.000000 3.616310 0.000000 
#    z 0.000000 0.000000 3.493370 
# 
# 
# High freq. dielectric constant tensor:
#      x y z
#    x 1.762440 0.000000 0.000000 
#    y 0.000000 1.769770 0.000000 
#    z 0.000000 0.000000 1.762850 
# 
# From -- ./inp_files/15087.got.cif
#   From: 2010.03.12/outbox.cif.g09.slc.cpg/sg62_8_cif.got.tgz:15087.got - 2010.04.10 19:12:36.
