data_PCOD8253051
_publ_section_title
;
Structure prediction by ZEFSAII (Michael W. Deem and Ramdas Pophale) SiO2 
 PCOD8253051
Probable space group: P N M A
;
_chemical_formula_sum "Si O2"
_cell_formula_units_Z 48
_cell_length_a 26.681433
_cell_length_b 9.146143
_cell_length_c 9.826977
_cell_angle_alpha 90.000000
_cell_angle_beta 90.000000
_cell_angle_gamma 90.000000
_cell_volume 2398.098833
_symmetry_space_group_name_H-M "P N M A"
_symmetry_group_IT_number 62
_symmetry_cell_setting 'orthorhombic'
loop_
_space_group_symop_operation_xyz
x,y,z
1/2-x,-y,1/2+z
1/2+x,1/2-y,1/2-z
-x,1/2+y,-z
-x,-y,-z
1/2+x,y,1/2-z
1/2-x,1/2+y,1/2+z
x,1/2-y,z
loop_
_atom_site_type_symbol
_atom_site_label
_atom_site_fract_x
_atom_site_fract_y
_atom_site_fract_z
Si Si1 0.798416 0.920679 0.915235
Si Si2 0.277199 0.920549 0.891942
Si Si3 0.398539 0.081048 0.530953
Si Si4 0.535199 0.582836 0.217732
Si Si5 0.623508 0.581544 0.024886
Si Si6 0.065144 0.917221 0.742464
O O1 0.801414 0.750000 0.949072
O O2 0.772060 0.947696 0.769669
O O3 0.768662 0.999498 0.035454
O O4 0.853945 0.985814 0.907286
O O5 0.274847 0.750000 0.926710
O O6 0.328800 0.982505 0.949271
O O7 0.381110 0.250000 0.522865
O O8 0.446755 0.063441 0.627328
O O9 0.413907 0.018097 0.383717
O O10 0.524156 0.750000 0.181221
O O11 0.484293 0.497563 0.191333
O O12 0.577987 0.522627 0.117023
O O13 0.636149 0.750000 0.062258
O O14 0.609067 0.565660 0.867283
O O15 0.049720 0.750000 0.764436
#
# Coordination Sequence:
#
# PCOD8253051 Si02
#       6
#     8   8   8   8   8   8
#     4  11  25  43  65  92 121 157 199 248 304 361
#     4  11  25  43  65  92 121 157 199 248 304 361
#     4  10  21  39  60  86 122 159 198 248 300 352
#     4  10  20  36  59  84 117 162 203 244 298 350
#     4  10  21  39  60  86 122 159 198 248 300 352
#     4  10  22  36  57  88 121 158 199 246 296 350
#
# _framework density 20.015855999999999
#
# number of rings (size 3 to 8) (size 9 to 14) (size 15 to 20)
#    0.000    1.667    1.667    2.000    2.333    4.667 
#    0.000    0.000    0.000    0.000    0.000    0.000 
#    0.000    0.000    0.000    0.000    0.000    0.000 
#
# Total GULP energy -595463.057513 kJ/mol
# GULP energy per Si atom -12405.480365 kJ/mol
# Density = 1.997030 g / cm^3
# Si number density = 20.015856 Si / 1000 Ang^3
#
#
#
# Elastic Constant Matrix: (Units=GPa)
#
#
# Indices 1 2 3 4 5 6 
#
# 1 62.3088 32.5262 -5.0513 0.0000 0.0000 0.0000
# 2 32.5262 74.2795 11.0156 0.0000 0.0000 0.0000
# 3 -5.0513 11.0156 69.2371 0.0000 0.0000 0.0000
# 4 0.0000 0.0000 0.0000 25.5502 0.0000 0.0000
# 5 0.0000 0.0000 0.0000 0.0000 33.9781 0.0000
# 6 0.0000 0.0000 0.0000 0.0000 0.0000 31.4356
#
#
#
# Elastic Compliance Matrix: (Units=1/GPa)
#
#
# Indices 1 2 3 4 5 6 
#
# 1 0.021448 -0.009857 0.003133 0.000000 0.000000 0.000000
# 2 -0.009857 0.018318 -0.003633 0.000000 0.000000 0.000000
# 3 0.003133 -0.003633 0.015250 0.000000 0.000000 0.000000
# 4 0.000000 0.000000 0.000000 0.039139 0.000000 0.000000
# 5 0.000000 0.000000 0.000000 0.000000 0.029431 0.000000
# 6 0.000000 0.000000 0.000000 0.000000 0.000000 0.031811
#
#
# Mechanical properties :
#
#
# Convention : Reuss Voigt Hill
#
# Bulk Modulus (GPa) = 29.15316 31.42295 30.28806
# Shear Modulus (GPa) = 26.66035 29.34843 28.00439
#
# Velocity S-wave (km/s) = 3.65356 3.83333 3.74453
# Velocity P-wave (km/s) = 5.69163 5.94354 5.81895
#
# Compressibility (1/GPa) = 0.03430160
#
# Stress axis : x y z
#
# Youngs Moduli (GPa) = 46.62349 54.59218 65.57472
#
# Poissons Ratio (x) = 0.53810 -0.20545
# Poissons Ratio (y) = 0.45955 0.23826
# Poissons Ratio (z) = -0.14607 0.19836
#
# Static dielectric constant tensor:
#      x y z
#    x 3.485560 0.000000 0.000000 
#    y 0.000000 3.583420 0.000000 
#    z 0.000000 0.000000 3.857870 
# 
# 
# High freq. dielectric constant tensor:
#      x y z
#    x 1.779070 0.000000 0.000000 
#    y 0.000000 1.774340 0.000000 
#    z 0.000000 0.000000 1.798400 
# 
# From -- ./inp_files/10147.got.cif
#   From: 2010.03.12/outbox.cif.g09.slc.cpg/sg62_6_cif.got.tgz:10147.got - 2010.04.10 19:12:36.
