data_PCOD8253172
_publ_section_title
;
Structure prediction by ZEFSAII (Michael W. Deem and Ramdas Pophale) SiO2 
 PCOD8253172
Probable space group: P N M A
;
_chemical_formula_sum "Si O2"
_cell_formula_units_Z 48
_cell_length_a 15.082427
_cell_length_b 8.702722
_cell_length_c 18.919557
_cell_angle_alpha 90.000000
_cell_angle_beta 90.000000
_cell_angle_gamma 90.000000
_cell_volume 2483.346415
_symmetry_space_group_name_H-M "P N M A"
_symmetry_group_IT_number 62
_symmetry_cell_setting 'orthorhombic'
loop_
_space_group_symop_operation_xyz
x,y,z
1/2-x,-y,1/2+z
1/2+x,1/2-y,1/2-z
-x,1/2+y,-z
-x,-y,-z
1/2+x,y,1/2-z
1/2-x,1/2+y,1/2+z
x,1/2-y,z
loop_
_atom_site_type_symbol
_atom_site_label
_atom_site_fract_x
_atom_site_fract_y
_atom_site_fract_z
Si Si1 0.241195 0.931798 0.080117
Si Si2 0.986463 0.433315 0.713014
Si Si3 0.202670 0.932804 0.238591
Si Si4 0.406026 0.932028 0.479155
Si Si5 0.943427 0.568394 0.436769
Si Si6 0.630389 0.432911 0.677476
O O1 0.227364 0.750000 0.074109
O O2 0.223382 0.990244 0.159605
O O3 0.340427 0.980350 0.057092
O O4 0.171381 0.015890 0.030799
O O5 0.987332 0.250000 0.712416
O O6 0.890047 0.498913 0.732887
O O7 0.016644 0.495941 0.636668
O O8 0.052404 0.496836 0.772814
O O9 0.201656 0.750000 0.238479
O O10 0.277121 0.995992 0.291865
O O11 0.413302 0.750000 0.479896
O O12 0.382421 0.995483 0.401419
O O13 0.500000 0.000000 0.500000
O O14 0.952139 0.750000 0.438882
O O15 0.000000 0.500000 0.500000
O O16 0.629638 0.250000 0.678338
#
# Coordination Sequence:
#
# PCOD8253172 Si02
#       6
#     8   8   8   8   8   8
#     4  10  20  37  58  83 115 149 183 232 290 337
#     4   9  16  29  51  77 104 135 178 231 276 315
#     4   9  16  29  53  80 105 136 182 236 278 315
#     4  11  23  37  58  86 115 148 186 231 283 339
#     4  10  21  35  54  80 113 149 185 227 281 336
#     4   9  17  31  51  81 107 133 183 235 273 313
#
# _framework density 19.328757
#
# number of rings (size 3 to 8) (size 9 to 14) (size 15 to 20)
#    0.000    2.333    1.667    1.500    2.333    3.333 
#    0.000    0.000    0.000    7.000    0.000    0.000 
#    0.000    0.000    0.000    0.000    0.000    0.000 
#
# Total GULP energy -595168.237757 kJ/mol
# GULP energy per Si atom -12399.338287 kJ/mol
# Density = 1.928476 g / cm^3
# Si number density = 19.328757 Si / 1000 Ang^3
#
#
#
# Elastic Constant Matrix: (Units=GPa)
#
#
# Indices 1 2 3 4 5 6 
#
# 1 209.1574 29.1769 109.1232 0.0000 0.0000 0.0000
# 2 29.1769 23.6012 28.8378 0.0000 0.0000 0.0000
# 3 109.1232 28.8378 189.2705 0.0000 0.0000 0.0000
# 4 0.0000 0.0000 0.0000 25.8897 0.0000 0.0000
# 5 0.0000 0.0000 0.0000 0.0000 46.2488 0.0000
# 6 0.0000 0.0000 0.0000 0.0000 0.0000 21.5632
#
#
#
# Elastic Compliance Matrix: (Units=1/GPa)
#
#
# Indices 1 2 3 4 5 6 
#
# 1 0.007244 -0.004734 -0.003455 0.000000 0.000000 0.000000
# 2 -0.004734 0.055156 -0.005675 0.000000 0.000000 0.000000
# 3 -0.003455 -0.005675 0.008140 0.000000 0.000000 0.000000
# 4 0.000000 0.000000 0.000000 0.038625 0.000000 0.000000
# 5 0.000000 0.000000 0.000000 0.000000 0.021622 0.000000
# 6 0.000000 0.000000 0.000000 0.000000 0.000000 0.046375
#
#
# Mechanical properties :
#
#
# Convention : Reuss Voigt Hill
#
# Bulk Modulus (GPa) = 23.35708 84.03386 53.69547
# Shear Modulus (GPa) = 22.81417 35.73308 29.27363
#
# Velocity S-wave (km/s) = 3.43931 4.30432 3.89589
# Velocity P-wave (km/s) = 5.28035 8.26277 6.93381
#
# Compressibility (1/GPa) = 0.04281357
#
# Stress axis : x y z
#
# Youngs Moduli (GPa) = 138.04205 18.13029 122.84642
#
# Poissons Ratio (x) = 0.08582 0.42448
# Poissons Ratio (y) = 0.65342 0.69711
# Poissons Ratio (z) = 0.47699 0.10288
#
# Static dielectric constant tensor:
#      x y z
#    x 3.736380 0.000000 0.000000 
#    y 0.000000 2.955130 0.000000 
#    z 0.000000 0.000000 4.009290 
# 
# 
# High freq. dielectric constant tensor:
#      x y z
#    x 1.774030 0.000000 0.000000 
#    y 0.000000 1.693500 0.000000 
#    z 0.000000 0.000000 1.769020 
# 
# From -- ./inp_files/23854.got.cif
#   From: 2010.03.12/outbox.cif.g09.slc.cpg/sg62_12_cif.got.tgz:23854.got - 2010.04.10 19:12:36.
