data_PCOD8253793
_publ_section_title
;
Structure prediction by ZEFSAII (Michael W. Deem and Ramdas Pophale) SiO2 
 PCOD8253793
Probable space group: P N M A
;
_chemical_formula_sum "Si O2"
_cell_formula_units_Z 48
_cell_length_a 29.496121
_cell_length_b 8.476233
_cell_length_c 9.900829
_cell_angle_alpha 90.000000
_cell_angle_beta 90.000000
_cell_angle_gamma 90.000000
_cell_volume 2475.365606
_symmetry_space_group_name_H-M "P N M A"
_symmetry_group_IT_number 62
_symmetry_cell_setting 'orthorhombic'
loop_
_space_group_symop_operation_xyz
x,y,z
1/2-x,-y,1/2+z
1/2+x,1/2-y,1/2-z
-x,1/2+y,-z
-x,-y,-z
1/2+x,y,1/2-z
1/2-x,1/2+y,1/2+z
x,1/2-y,z
loop_
_atom_site_type_symbol
_atom_site_label
_atom_site_fract_x
_atom_site_fract_y
_atom_site_fract_z
Si Si1 0.623797 0.433647 0.656096
Si Si2 0.045063 0.067330 0.349442
Si Si3 0.219509 0.563828 0.877605
Si Si4 0.391401 0.433391 0.630303
Si Si5 0.941631 0.431923 0.370035
Si Si6 0.294528 0.934808 0.662633
O O1 0.627675 0.250000 0.622617
O O2 0.673438 0.500861 0.689961
O O3 0.603185 0.521220 0.526082
O O4 0.592047 0.460623 0.784131
O O5 0.049510 0.250000 0.387509
O O6 0.992619 0.021608 0.327874
O O7 0.071402 0.030423 0.212671
O O8 0.066264 0.966972 0.471950
O O9 0.215428 0.750000 0.897894
O O10 0.261012 0.515972 0.782189
O O11 0.228431 0.482609 0.021419
O O12 0.401177 0.250000 0.649311
O O13 0.341351 0.473163 0.684472
O O14 0.930846 0.250000 0.340657
O O15 0.304898 0.750000 0.663140
#
# Coordination Sequence:
#
# PCOD8253793 Si02
#       6
#     8   8   8   8   8   8
#     4  11  22  37  58  82 112 147 184 228 275 326
#     4  10  21  38  59  83 112 145 183 227 274 326
#     4  10  21  37  57  81 110 143 182 227 273 325
#     4  11  22  37  58  82 112 147 184 228 275 326
#     4  10  21  38  59  83 112 145 183 227 274 326
#     4  10  21  37  57  81 110 143 182 227 273 325
#
# _framework density 19.391076000000002
#
# number of rings (size 3 to 8) (size 9 to 14) (size 15 to 20)
#    0.000    1.667    0.000    7.000    0.000    6.667 
#    0.000    3.333    0.000    0.000    0.000    0.000 
#    0.000    0.000    0.000    0.000    0.000    0.000 
#
# Total GULP energy -595482.895326 kJ/mol
# GULP energy per Si atom -12405.893653 kJ/mol
# Density = 1.934694 g / cm^3
# Si number density = 19.391076 Si / 1000 Ang^3
#
#
#
# Elastic Constant Matrix: (Units=GPa)
#
#
# Indices 1 2 3 4 5 6 
#
# 1 22.7339 12.3190 4.0033 0.0000 0.0000 0.0000
# 2 12.3190 31.9402 18.2461 0.0000 0.0000 0.0000
# 3 4.0033 18.2461 28.8869 0.0000 0.0000 0.0000
# 4 0.0000 0.0000 0.0000 35.9075 0.0000 0.0000
# 5 0.0000 0.0000 0.0000 0.0000 38.4566 0.0000
# 6 0.0000 0.0000 0.0000 0.0000 0.0000 29.5725
#
#
#
# Elastic Compliance Matrix: (Units=1/GPa)
#
#
# Indices 1 2 3 4 5 6 
#
# 1 0.057195 -0.027428 0.009398 0.000000 0.000000 0.000000
# 2 -0.027428 0.062137 -0.035447 0.000000 0.000000 0.000000
# 3 0.009398 -0.035447 0.055705 0.000000 0.000000 0.000000
# 4 0.000000 0.000000 0.000000 0.027849 0.000000 0.000000
# 5 0.000000 0.000000 0.000000 0.000000 0.026003 0.000000
# 6 0.000000 0.000000 0.000000 0.000000 0.000000 0.033815
#
#
# Mechanical properties :
#
#
# Convention : Reuss Voigt Hill
#
# Bulk Modulus (GPa) = 14.68797 16.96643 15.82720
# Shear Modulus (GPa) = 12.74364 24.05348 18.39856
#
# Velocity S-wave (km/s) = 2.56635 3.52581 3.08363
# Velocity P-wave (km/s) = 4.04631 5.03425 4.56707
#
# Compressibility (1/GPa) = 0.06808293
#
# Stress axis : x y z
#
# Youngs Moduli (GPa) = 17.48406 16.09354 17.95174
#
# Poissons Ratio (x) = 0.44142 -0.16872
# Poissons Ratio (y) = 0.47956 0.63633
# Poissons Ratio (z) = -0.16432 0.57046
#
# Static dielectric constant tensor:
#      x y z
#    x 3.519590 0.000000 0.000000 
#    y 0.000000 3.597840 0.000000 
#    z 0.000000 0.000000 3.498700 
# 
# 
# High freq. dielectric constant tensor:
#      x y z
#    x 1.753490 0.000000 0.000000 
#    y 0.000000 1.771490 0.000000 
#    z 0.000000 0.000000 1.754610 
# 
# From -- ./inp_files/15399.got.cif
#   From: 2010.03.12/outbox.cif.g09.slc.cpg/sg62_8_cif.got.tgz:15399.got - 2010.04.10 19:12:36.
