data_PCOD8253874
_publ_section_title
;
Structure prediction by ZEFSAII (Michael W. Deem and Ramdas Pophale) SiO2 
 PCOD8253874
Probable space group: P N M A
;
_chemical_formula_sum "Si O2"
_cell_formula_units_Z 48
_cell_length_a 8.876446
_cell_length_b 8.628781
_cell_length_c 30.092083
_cell_angle_alpha 90.000000
_cell_angle_beta 90.000000
_cell_angle_gamma 90.000000
_cell_volume 2304.840163
_symmetry_space_group_name_H-M "P N M A"
_symmetry_group_IT_number 62
_symmetry_cell_setting 'orthorhombic'
loop_
_space_group_symop_operation_xyz
x,y,z
1/2-x,-y,1/2+z
1/2+x,1/2-y,1/2-z
-x,1/2+y,-z
-x,-y,-z
1/2+x,y,1/2-z
1/2-x,1/2+y,1/2+z
x,1/2-y,z
loop_
_atom_site_type_symbol
_atom_site_label
_atom_site_fract_x
_atom_site_fract_y
_atom_site_fract_z
Si Si1 0.655732 0.430123 0.621810
Si Si2 0.124534 0.071353 0.718486
Si Si3 0.646855 0.570325 0.949839
Si Si4 0.697059 0.430267 0.040225
Si Si5 0.689537 0.571585 0.368398
Si Si6 0.806265 0.570457 0.703511
O O1 0.687499 0.250000 0.629952
O O2 0.688853 0.473628 0.570887
O O3 0.484712 0.474487 0.632995
O O4 0.766179 0.529792 0.652826
O O5 0.073098 0.250000 0.718849
O O6 0.245292 0.037106 0.680144
O O7 0.201046 0.032611 0.765135
O O8 0.980641 0.964429 0.711411
O O9 0.661896 0.750000 0.961526
O O10 0.472421 0.521615 0.946397
O O11 0.725084 0.535156 0.903395
O O12 0.728059 0.474688 0.989047
O O13 0.728509 0.250000 0.047174
O O14 0.712110 0.750000 0.382275
O O15 0.776320 0.750000 0.713094
#
# Coordination Sequence:
#
# PCOD8253874 Si02
#       6
#     8   8   8   8   8   8
#     4  11  23  40  61  87 120 159 202 245 296 358
#     4  11  23  42  66  90 120 161 204 245 296 359
#     4  10  21  37  60  87 116 153 196 243 298 358
#     4  10  21  38  60  87 118 153 197 247 298 354
#     4  10  23  40  60  86 117 155 199 245 292 349
#     4  12  25  41  63  93 125 157 198 250 304 355
#
# _framework density 20.825742000000002
#
# number of rings (size 3 to 8) (size 9 to 14) (size 15 to 20)
#    0.000    1.333    0.000    5.500    0.000    9.333 
#    0.000    0.000    0.000    0.000    0.000    0.000 
#    0.000    0.000    0.000    0.000    0.000    0.000 
#
# Total GULP energy -595640.972912 kJ/mol
# GULP energy per Si atom -12409.186936 kJ/mol
# Density = 2.077834 g / cm^3
# Si number density = 20.825742 Si / 1000 Ang^3
#
#
#
# Elastic Constant Matrix: (Units=GPa)
#
#
# Indices 1 2 3 4 5 6 
#
# 1 48.9092 28.0655 -5.5998 0.0000 0.0000 0.0000
# 2 28.0655 70.1250 25.4086 0.0000 0.0000 0.0000
# 3 -5.5998 25.4086 68.4402 0.0000 0.0000 0.0000
# 4 0.0000 0.0000 0.0000 37.0012 0.0000 0.0000
# 5 0.0000 0.0000 0.0000 0.0000 39.1691 0.0000
# 6 0.0000 0.0000 0.0000 0.0000 0.0000 30.6646
#
#
#
# Elastic Compliance Matrix: (Units=1/GPa)
#
#
# Indices 1 2 3 4 5 6 
#
# 1 0.029870 -0.014836 0.007952 0.000000 0.000000 0.000000
# 2 -0.014836 0.023845 -0.010066 0.000000 0.000000 0.000000
# 3 0.007952 -0.010066 0.018999 0.000000 0.000000 0.000000
# 4 0.000000 0.000000 0.000000 0.027026 0.000000 0.000000
# 5 0.000000 0.000000 0.000000 0.000000 0.025530 0.000000
# 6 0.000000 0.000000 0.000000 0.000000 0.000000 0.032611
#
#
# Mechanical properties :
#
#
# Convention : Reuss Voigt Hill
#
# Bulk Modulus (GPa) = 25.76444 31.46921 28.61683
# Shear Modulus (GPa) = 24.42366 30.67365 27.54866
#
# Velocity S-wave (km/s) = 3.42828 3.84196 3.64100
# Velocity P-wave (km/s) = 5.29803 5.90123 5.60774
#
# Compressibility (1/GPa) = 0.03881318
#
# Stress axis : x y z
#
# Youngs Moduli (GPa) = 33.47892 41.93728 52.63411
#
# Poissons Ratio (x) = 0.62216 -0.41853
# Poissons Ratio (y) = 0.49668 0.52984
# Poissons Ratio (z) = -0.26621 0.42216
#
# Static dielectric constant tensor:
#      x y z
#    x 3.718390 0.000000 0.000000 
#    y 0.000000 3.688420 0.000000 
#    z 0.000000 0.000000 3.735420 
# 
# 
# High freq. dielectric constant tensor:
#      x y z
#    x 1.814900 0.000000 0.000000 
#    y 0.000000 1.819770 0.000000 
#    z 0.000000 0.000000 1.826600 
# 
# From -- ./inp_files/32042.got.cif
#   From: 2010.03.12/outbox.cif.g09.slc.cpg/sg62_17_cif.got.tgz:32042.got - 2010.04.10 19:12:36.
