data_PCOD8253897
_publ_section_title
;
Structure prediction by ZEFSAII (Michael W. Deem and Ramdas Pophale) SiO2 
 PCOD8253897
Probable space group: P N M A
;
_chemical_formula_sum "Si O2"
_cell_formula_units_Z 48
_cell_length_a 9.757979
_cell_length_b 12.806214
_cell_length_c 20.021274
_cell_angle_alpha 90.000000
_cell_angle_beta 90.000000
_cell_angle_gamma 90.000000
_cell_volume 2501.913804
_symmetry_space_group_name_H-M "P N M A"
_symmetry_group_IT_number 62
_symmetry_cell_setting 'orthorhombic'
loop_
_space_group_symop_operation_xyz
x,y,z
1/2-x,-y,1/2+z
1/2+x,1/2-y,1/2-z
-x,1/2+y,-z
-x,-y,-z
1/2+x,y,1/2-z
1/2-x,1/2+y,1/2+z
x,1/2-y,z
loop_
_atom_site_type_symbol
_atom_site_label
_atom_site_fract_x
_atom_site_fract_y
_atom_site_fract_z
Si Si1 0.022888 0.456355 0.894142
Si Si2 0.589848 0.530099 0.937280
Si Si3 0.631814 0.130738 0.471280
Si Si4 0.256484 0.629049 0.151181
Si Si5 0.468900 0.628417 0.809890
Si Si6 0.805390 0.480926 0.230248
O O1 0.961603 0.564498 0.921200
O O2 0.904739 0.385880 0.861704
O O3 0.138553 0.483006 0.840725
O O4 0.095266 0.391720 0.952299
O O5 0.708724 0.608680 0.959760
O O6 0.655779 0.425083 0.907191
O O7 0.492912 0.588622 0.884817
O O8 0.500000 0.500000 0.000000
O O9 0.600278 0.250000 0.454064
O O10 0.294869 0.750000 0.151439
O O11 0.297200 0.581994 0.222597
O O12 0.434664 0.750000 0.811307
O O13 0.601164 0.607569 0.764180
O O14 0.344327 0.566686 0.777038
#
# Coordination Sequence:
#
# PCOD8253897 Si02
#       6
#     8   8   8   8   8   8
#     4  10  21  40  60  87 126 155 203 258 299 370
#     4  10  22  41  59  89 127 156 205 261 302 364
#     4  10  21  37  62  89 117 161 204 249 306 363
#     4  10  22  39  61  88 123 166 206 253 309 366
#     4  11  23  39  63  90 122 161 203 253 312 370
#     4  11  22  42  59  91 125 159 207 257 307 367
#
# _framework density 19.185314000000002
#
# number of rings (size 3 to 8) (size 9 to 14) (size 15 to 20)
#    0.000    1.667    1.667    2.500    0.000    4.000 
#    0.000    0.000    0.000    0.000    0.000    0.000 
#    0.000    0.000    0.000    0.000    0.000    0.000 
#
# Total GULP energy -595501.979698 kJ/mol
# GULP energy per Si atom -12406.291244 kJ/mol
# Density = 1.914165 g / cm^3
# Si number density = 19.185314 Si / 1000 Ang^3
#
#
#
# Elastic Constant Matrix: (Units=GPa)
#
#
# Indices 1 2 3 4 5 6 
#
# 1 91.4122 31.8118 43.4107 0.0000 0.0000 0.0000
# 2 31.8118 133.2408 28.1487 0.0000 0.0000 0.0000
# 3 43.4107 28.1487 99.0551 0.0000 0.0000 0.0000
# 4 0.0000 0.0000 0.0000 16.3737 0.0000 0.0000
# 5 0.0000 0.0000 0.0000 0.0000 47.4447 0.0000
# 6 0.0000 0.0000 0.0000 0.0000 0.0000 16.5957
#
#
#
# Elastic Compliance Matrix: (Units=1/GPa)
#
#
# Indices 1 2 3 4 5 6 
#
# 1 0.014418 -0.002242 -0.005681 0.000000 0.000000 0.000000
# 2 -0.002242 0.008333 -0.001386 0.000000 0.000000 0.000000
# 3 -0.005681 -0.001386 0.012979 0.000000 0.000000 0.000000
# 4 0.000000 0.000000 0.000000 0.061073 0.000000 0.000000
# 5 0.000000 0.000000 0.000000 0.000000 0.021077 0.000000
# 6 0.000000 0.000000 0.000000 0.000000 0.000000 0.060257
#
#
# Mechanical properties :
#
#
# Convention : Reuss Voigt Hill
#
# Bulk Modulus (GPa) = 58.43845 58.93896 58.68870
# Shear Modulus (GPa) = 24.69634 30.77195 27.73414
#
# Velocity S-wave (km/s) = 3.59172 4.00926 3.80622
# Velocity P-wave (km/s) = 6.90845 7.22632 7.06918
#
# Compressibility (1/GPa) = 0.01711202
#
# Stress axis : x y z
#
# Youngs Moduli (GPa) = 69.35901 120.00187 77.04766
#
# Poissons Ratio (x) = 0.26905 0.43774
# Poissons Ratio (y) = 0.15550 0.10675
# Poissons Ratio (z) = 0.39406 0.16626
#
# Static dielectric constant tensor:
#      x y z
#    x 3.450600 0.000000 0.000000 
#    y 0.000000 3.356570 0.000000 
#    z 0.000000 0.000000 3.569060 
# 
# 
# High freq. dielectric constant tensor:
#      x y z
#    x 1.755200 0.000000 0.000000 
#    y 0.000000 1.742470 0.000000 
#    z 0.000000 0.000000 1.760050 
# 
# From -- ./inp_files/23000.got.cif
#   From: 2010.03.12/outbox.cif.g09.slc.cpg/sg62_12_cif.got.tgz:23000.got - 2010.04.10 19:12:36.
