data_PCOD8253185
_publ_section_title
;
Structure prediction by ZEFSAII (Michael W. Deem and Ramdas Pophale) SiO2 
 PCOD8253185
Probable space group: P N M A
;
_chemical_formula_sum "Si O2"
_cell_formula_units_Z 48
_cell_length_a 30.211500
_cell_length_b 8.903147
_cell_length_c 9.353142
_cell_angle_alpha 90.000000
_cell_angle_beta 90.000000
_cell_angle_gamma 90.000000
_cell_volume 2515.784056
_symmetry_space_group_name_H-M "P N M A"
_symmetry_group_IT_number 62
_symmetry_cell_setting 'orthorhombic'
loop_
_space_group_symop_operation_xyz
x,y,z
1/2-x,-y,1/2+z
1/2+x,1/2-y,1/2-z
-x,1/2+y,-z
-x,-y,-z
1/2+x,y,1/2-z
1/2-x,1/2+y,1/2+z
x,1/2-y,z
loop_
_atom_site_type_symbol
_atom_site_label
_atom_site_fract_x
_atom_site_fract_y
_atom_site_fract_z
Si Si1 0.384614 0.074576 0.405967
Si Si2 0.540351 0.428438 0.415472
Si Si3 0.283321 0.418923 0.412452
Si Si4 0.961510 0.925083 0.589218
Si Si5 0.209806 0.579076 0.582521
Si Si6 0.620270 0.425367 0.895131
O O1 0.396850 0.250000 0.408210
O O2 0.334059 0.046125 0.451966
O O3 0.413829 0.984699 0.518533
O O4 0.393428 0.016174 0.246125
O O5 0.500000 0.500000 0.500000
O O6 0.537899 0.250000 0.427475
O O7 0.538304 0.484247 0.251776
O O8 0.270971 0.250000 0.459918
O O9 0.252020 0.536695 0.489363
O O10 0.275866 0.440895 0.245215
O O11 0.970872 0.750000 0.586536
O O12 0.914432 0.964199 0.519144
O O13 0.000000 0.000000 0.500000
O O14 0.196061 0.750000 0.550217
O O15 0.168050 0.474714 0.545359
O O16 0.620937 0.250000 0.857162
#
# Coordination Sequence:
#
# PCOD8253185 Si02
#       6
#     8   8   8   8   8   8
#     4  10  21  38  58  83 113 146 186 230 275 328
#     4  11  23  39  58  83 113 146 184 228 278 331
#     4   9  20  37  55  79 112 146 182 226 274 325
#     4  10  23  39  57  82 111 143 181 225 273 327
#     4  10  21  36  56  83 112 145 186 230 275 325
#     4  10  20  37  59  82 110 146 184 225 277 330
#
# _framework density 19.079539
#
# number of rings (size 3 to 8) (size 9 to 14) (size 15 to 20)
#    0.000    2.000    0.000    4.000    0.000   10.667 
#    0.000    5.000    0.000    0.000    0.000    0.000 
#    0.000    0.000    0.000    0.000    0.000    0.000 
#
# Total GULP energy -595389.003780 kJ/mol
# GULP energy per Si atom -12403.937579 kJ/mol
# Density = 1.903611 g / cm^3
# Si number density = 19.079539 Si / 1000 Ang^3
#
#
#
# Elastic Constant Matrix: (Units=GPa)
#
#
# Indices 1 2 3 4 5 6 
#
# 1 115.8492 50.0221 78.0682 0.0000 0.0000 0.0000
# 2 50.0221 77.7805 51.0961 0.0000 0.0000 0.0000
# 3 78.0682 51.0961 123.9314 0.0000 0.0000 0.0000
# 4 0.0000 0.0000 0.0000 32.4708 0.0000 0.0000
# 5 0.0000 0.0000 0.0000 0.0000 35.9571 0.0000
# 6 0.0000 0.0000 0.0000 0.0000 0.0000 39.5815
#
#
#
# Elastic Compliance Matrix: (Units=1/GPa)
#
#
# Indices 1 2 3 4 5 6 
#
# 1 0.016377 -0.005150 -0.008193 0.000000 0.000000 0.000000
# 2 -0.005150 0.019252 -0.004693 0.000000 0.000000 0.000000
# 3 -0.008193 -0.004693 0.015165 0.000000 0.000000 0.000000
# 4 0.000000 0.000000 0.000000 0.030797 0.000000 0.000000
# 5 0.000000 0.000000 0.000000 0.000000 0.027811 0.000000
# 6 0.000000 0.000000 0.000000 0.000000 0.000000 0.025264
#
#
# Mechanical properties :
#
#
# Convention : Reuss Voigt Hill
#
# Bulk Modulus (GPa) = 67.92933 75.10378 71.51656
# Shear Modulus (GPa) = 28.46656 30.82686 29.64671
#
# Velocity S-wave (km/s) = 3.86682 4.02394 3.94616
# Velocity P-wave (km/s) = 7.45768 7.81271 7.63726
#
# Compressibility (1/GPa) = 0.01472118
#
# Stress axis : x y z
#
# Youngs Moduli (GPa) = 61.06287 51.94293 65.94184
#
# Poissons Ratio (x) = 0.26751 0.54025
# Poissons Ratio (y) = 0.31447 0.30948
# Poissons Ratio (z) = 0.50028 0.24378
#
# Static dielectric constant tensor:
#      x y z
#    x 3.804910 0.000000 0.000000 
#    y 0.000000 3.903110 0.000000 
#    z 0.000000 0.000000 3.534190 
# 
# 
# High freq. dielectric constant tensor:
#      x y z
#    x 1.752540 0.000000 0.000000 
#    y 0.000000 1.751390 0.000000 
#    z 0.000000 0.000000 1.741150 
# 
# From -- ./inp_files/10193.got.cif
#   From: 2010.03.12/outbox.cif.g09.slc.cpg/sg62_6_cif.got.tgz:10193.got - 2010.04.10 19:12:36.
