data_PCOD8253621
_publ_section_title
;
Structure prediction by ZEFSAII (Michael W. Deem and Ramdas Pophale) SiO2 
 PCOD8253621
Probable space group: P N M A
;
_chemical_formula_sum "Si O2"
_cell_formula_units_Z 48
_cell_length_a 11.937164
_cell_length_b 9.035881
_cell_length_c 24.696240
_cell_angle_alpha 90.000000
_cell_angle_beta 90.000000
_cell_angle_gamma 90.000000
_cell_volume 2663.805432
_symmetry_space_group_name_H-M "P N M A"
_symmetry_group_IT_number 62
_symmetry_cell_setting 'orthorhombic'
loop_
_space_group_symop_operation_xyz
x,y,z
1/2-x,-y,1/2+z
1/2+x,1/2-y,1/2-z
-x,1/2+y,-z
-x,-y,-z
1/2+x,y,1/2-z
1/2-x,1/2+y,1/2+z
x,1/2-y,z
loop_
_atom_site_type_symbol
_atom_site_label
_atom_site_fract_x
_atom_site_fract_y
_atom_site_fract_z
Si Si1 0.206848 0.923124 0.331167
Si Si2 0.537797 0.422445 0.659694
Si Si3 0.125032 0.082658 0.227915
Si Si4 0.411482 0.576907 0.927267
Si Si5 0.352167 0.582918 0.609332
Si Si6 0.656192 0.576582 0.968076
O O1 0.181178 0.750000 0.329840
O O2 0.332598 0.956638 0.350991
O O3 0.192353 0.988280 0.271433
O O4 0.120335 0.001285 0.371080
O O5 0.515324 0.250000 0.667746
O O6 0.495899 0.507343 0.714271
O O7 0.465340 0.482492 0.608004
O O8 0.105808 0.250000 0.248986
O O9 0.195518 0.081716 0.171333
O O10 0.387772 0.750000 0.923609
O O11 0.541324 0.539955 0.937192
O O12 0.336544 0.510115 0.975524
O O13 0.384496 0.750000 0.592415
O O14 0.257885 0.519268 0.569304
O O15 0.665584 0.750000 0.980531
#
# Coordination Sequence:
#
# PCOD8253621 Si02
#       6
#     8   8   8   8   8   8
#     4  11  22  36  54  79 112 146 180 222 272 322
#     4   9  19  35  53  77 108 138 176 223 267 316
#     4   9  19  34  54  79 105 140 179 218 267 322
#     4  10  21  34  54  83 109 143 181 223 274 322
#     4   8  17  34  56  79 103 139 177 217 268 317
#     4   9  18  37  58  79 110 140 179 226 270 323
#
# _framework density 18.019333
#
# number of rings (size 3 to 8) (size 9 to 14) (size 15 to 20)
#    1.000    1.667    0.000    1.500    0.000    5.333 
#    0.000    2.500    0.000    0.000    0.000    0.000 
#    0.000    0.000    0.000    0.000    0.000    0.000 
#
# Total GULP energy -594903.657923 kJ/mol
# GULP energy per Si atom -12393.826207 kJ/mol
# Density = 1.797832 g / cm^3
# Si number density = 18.019333 Si / 1000 Ang^3
#
#
#
# Elastic Constant Matrix: (Units=GPa)
#
#
# Indices 1 2 3 4 5 6 
#
# 1 41.0311 24.4523 -2.2257 0.0000 0.0000 0.0000
# 2 24.4523 71.7270 13.6866 0.0000 0.0000 0.0000
# 3 -2.2257 13.6866 32.8957 0.0000 0.0000 0.0000
# 4 0.0000 0.0000 0.0000 32.0788 0.0000 0.0000
# 5 0.0000 0.0000 0.0000 0.0000 31.3545 0.0000
# 6 0.0000 0.0000 0.0000 0.0000 0.0000 27.1460
#
#
#
# Elastic Compliance Matrix: (Units=1/GPa)
#
#
# Indices 1 2 3 4 5 6 
#
# 1 0.032127 -0.012347 0.007311 0.000000 0.000000 0.000000
# 2 -0.012347 0.019889 -0.009111 0.000000 0.000000 0.000000
# 3 0.007311 -0.009111 0.034684 0.000000 0.000000 0.000000
# 4 0.000000 0.000000 0.000000 0.031173 0.000000 0.000000
# 5 0.000000 0.000000 0.000000 0.000000 0.031893 0.000000
# 6 0.000000 0.000000 0.000000 0.000000 0.000000 0.036838
#
#
# Mechanical properties :
#
#
# Convention : Reuss Voigt Hill
#
# Bulk Modulus (GPa) = 17.12142 24.16446 20.64294
# Shear Modulus (GPa) = 21.33401 25.43189 23.38295
#
# Velocity S-wave (km/s) = 3.44459 3.76089 3.60621
# Velocity P-wave (km/s) = 5.03414 5.68318 5.36848
#
# Compressibility (1/GPa) = 0.05840638
#
# Stress axis : x y z
#
# Youngs Moduli (GPa) = 31.12690 50.27790 28.83144
#
# Poissons Ratio (x) = 0.62079 -0.21078
# Poissons Ratio (y) = 0.38433 0.26267
# Poissons Ratio (z) = -0.22756 0.45806
#
# Static dielectric constant tensor:
#      x y z
#    x 3.160200 0.000000 0.000000 
#    y 0.000000 3.370340 0.000000 
#    z 0.000000 0.000000 3.162780 
# 
# 
# High freq. dielectric constant tensor:
#      x y z
#    x 1.681560 0.000000 0.000000 
#    y 0.000000 1.708210 0.000000 
#    z 0.000000 0.000000 1.683740 
# 
# From -- ./inp_files/31006.got.cif
#   From: 2010.03.12/outbox.cif.g09.slc.cpg/sg62_16_cif.got.tgz:31006.got - 2010.04.10 19:12:36.
