data_PCOD8253028
_publ_section_title
;
Structure prediction by ZEFSAII (Michael W. Deem and Ramdas Pophale) SiO2 
 PCOD8253028
Probable space group: P N M A
;
_chemical_formula_sum "Si O2"
_cell_formula_units_Z 48
_cell_length_a 23.697138
_cell_length_b 8.840229
_cell_length_c 11.934590
_cell_angle_alpha 90.000000
_cell_angle_beta 90.000000
_cell_angle_gamma 90.000000
_cell_volume 2500.154900
_symmetry_space_group_name_H-M "P N M A"
_symmetry_group_IT_number 62
_symmetry_cell_setting 'orthorhombic'
loop_
_space_group_symop_operation_xyz
x,y,z
1/2-x,-y,1/2+z
1/2+x,1/2-y,1/2-z
-x,1/2+y,-z
-x,-y,-z
1/2+x,y,1/2-z
1/2-x,1/2+y,1/2+z
x,1/2-y,z
loop_
_atom_site_type_symbol
_atom_site_label
_atom_site_fract_x
_atom_site_fract_y
_atom_site_fract_z
Si Si1 0.601105 0.572585 0.464258
Si Si2 0.086320 0.575810 0.780833
Si Si3 0.668697 0.428635 0.889829
Si Si4 0.291095 0.072393 0.670012
Si Si5 0.043263 0.075617 0.236782
Si Si6 0.137107 0.570700 0.376133
O O1 0.589758 0.750000 0.447007
O O2 0.592325 0.521759 0.591302
O O3 0.664812 0.529283 0.427755
O O4 0.556602 0.483561 0.387845
O O5 0.105438 0.750000 0.768345
O O6 0.125814 0.468942 0.708241
O O7 0.022676 0.553822 0.739141
O O8 0.671103 0.250000 0.905895
O O9 0.730121 0.498056 0.858251
O O10 0.648061 0.501652 0.003887
O O11 0.284036 0.250000 0.679128
O O12 0.314787 0.012672 0.789333
O O13 0.061065 0.250000 0.244387
O O14 0.076315 0.982180 0.331244
O O15 0.136181 0.750000 0.385417
#
# Coordination Sequence:
#
# PCOD8253028 Si02
#       6
#     8   8   8   8   8   8
#     4   9  18  36  60  84 114 151 186 227 283 336
#     4  10  22  37  56  84 117 153 188 228 281 338
#     4  11  23  37  56  85 115 147 190 237 277 327
#     4   8  18  36  57  81 111 144 182 228 278 334
#     4  10  20  36  58  86 115 145 190 236 278 331
#     4  10  21  40  61  80 110 151 189 226 283 342
#
# _framework density 19.198810999999999
#
# number of rings (size 3 to 8) (size 9 to 14) (size 15 to 20)
#    0.000    2.333    0.000    3.000    2.333    2.667 
#    0.000    7.500    0.000    0.000    0.000    0.000 
#    0.000    0.000    0.000    0.000    0.000    0.000 
#
# Total GULP energy -595272.757029 kJ/mol
# GULP energy per Si atom -12401.515771 kJ/mol
# Density = 1.915511 g / cm^3
# Si number density = 19.198811 Si / 1000 Ang^3
#
#
#
# Elastic Constant Matrix: (Units=GPa)
#
#
# Indices 1 2 3 4 5 6 
#
# 1 93.5901 28.3119 21.7500 0.0000 0.0000 0.0000
# 2 28.3119 62.6515 21.3164 0.0000 0.0000 0.0000
# 3 21.7500 21.3164 54.4480 0.0000 0.0000 0.0000
# 4 0.0000 0.0000 0.0000 27.3314 0.0000 0.0000
# 5 0.0000 0.0000 0.0000 0.0000 22.0595 0.0000
# 6 0.0000 0.0000 0.0000 0.0000 0.0000 23.3940
#
#
#
# Elastic Compliance Matrix: (Units=1/GPa)
#
#
# Indices 1 2 3 4 5 6 
#
# 1 0.012872 -0.004693 -0.003305 0.000000 0.000000 0.000000
# 2 -0.004693 0.020125 -0.006004 0.000000 0.000000 0.000000
# 3 -0.003305 -0.006004 0.022037 0.000000 0.000000 0.000000
# 4 0.000000 0.000000 0.000000 0.036588 0.000000 0.000000
# 5 0.000000 0.000000 0.000000 0.000000 0.045332 0.000000
# 6 0.000000 0.000000 0.000000 0.000000 0.000000 0.042746
#
#
# Mechanical properties :
#
#
# Convention : Reuss Voigt Hill
#
# Bulk Modulus (GPa) = 36.99510 39.27179 38.13344
# Shear Modulus (GPa) = 23.07185 23.84437 23.45811
#
# Velocity S-wave (km/s) = 3.47036 3.52798 3.49929
# Velocity P-wave (km/s) = 5.94720 6.09059 6.01932
#
# Compressibility (1/GPa) = 0.02703061
#
# Stress axis : x y z
#
# Youngs Moduli (GPa) = 77.68502 49.69004 45.37812
#
# Poissons Ratio (x) = 0.23317 0.14997
# Poissons Ratio (y) = 0.36454 0.27247
# Poissons Ratio (z) = 0.25675 0.29836
#
# Static dielectric constant tensor:
#      x y z
#    x 3.704360 0.000000 0.000000 
#    y 0.000000 3.379790 0.000000 
#    z 0.000000 0.000000 3.544930 
# 
# 
# High freq. dielectric constant tensor:
#      x y z
#    x 1.754200 0.000000 0.000000 
#    y 0.000000 1.735460 0.000000 
#    z 0.000000 0.000000 1.750600 
# 
# From -- ./inp_files/15136.got.cif
#   From: 2010.03.12/outbox.cif.g09.slc.cpg/sg62_8_cif.got.tgz:15136.got - 2010.04.10 19:12:36.
