data_PCOD8253956
_publ_section_title
;
Structure prediction by ZEFSAII (Michael W. Deem and Ramdas Pophale) SiO2 
 PCOD8253956
Probable space group: P N M A
;
_chemical_formula_sum "Si O2"
_cell_formula_units_Z 32
_cell_length_a 13.115830
_cell_length_b 18.077024
_cell_length_c 7.519779
_cell_angle_alpha 90.000000
_cell_angle_beta 90.000000
_cell_angle_gamma 90.000000
_cell_volume 1782.903308
_symmetry_space_group_name_H-M "P N M A"
_symmetry_group_IT_number 62
_symmetry_cell_setting 'orthorhombic'
loop_
_space_group_symop_operation_xyz
x,y,z
1/2-x,-y,1/2+z
1/2+x,1/2-y,1/2-z
-x,1/2+y,-z
-x,-y,-z
1/2+x,y,1/2-z
1/2-x,1/2+y,1/2+z
x,1/2-y,z
loop_
_atom_site_type_symbol
_atom_site_label
_atom_site_fract_x
_atom_site_fract_y
_atom_site_fract_z
Si Si1 0.695197 0.079792 0.379717
Si Si2 0.196736 0.166620 0.791008
Si Si3 0.485148 0.833517 0.521244
Si Si4 0.696459 0.584784 0.508778
O O1 0.750869 0.123744 0.542531
O O2 0.584901 0.118633 0.341064
O O3 0.673965 0.996261 0.436944
O O4 0.767735 0.083200 0.211092
O O5 0.240146 0.250000 0.780143
O O6 0.216658 0.124137 0.607956
O O7 0.074709 0.166706 0.830709
O O8 0.496450 0.750000 0.594804
O O9 0.594352 0.868454 0.492742
#
# Coordination Sequence:
#
# PCOD8253956 Si02
#       4
#     8   8   8   8
#     4  10  21  38  59  88 119 145 200 242 281 352
#     4   9  21  39  57  86 120 149 197 242 281 350
#     4   9  21  39  57  85 119 149 194 242 285 351
#     4  12  20  39  64  84 117 162 186 240 304 334
#
# _framework density 17.948252
#
# number of rings (size 3 to 8) (size 9 to 14) (size 15 to 20)
#    1.500    0.500    2.500    1.500    0.000    4.000 
#    4.500    2.500    0.000    0.000    0.000    0.000 
#    0.000    0.000    0.000    0.000    0.000    0.000 
#
# Total GULP energy -396475.172494 kJ/mol
# GULP energy per Si atom -12389.849140 kJ/mol
# Density = 1.790740 g / cm^3
# Si number density = 17.948252 Si / 1000 Ang^3
#
#
#
# Elastic Constant Matrix: (Units=GPa)
#
#
# Indices 1 2 3 4 5 6 
#
# 1 61.0674 34.7947 12.1077 0.0000 0.0000 0.0000
# 2 34.7947 156.5998 33.6572 0.0000 0.0000 0.0000
# 3 12.1077 33.6572 72.1364 0.0000 0.0000 0.0000
# 4 0.0000 0.0000 0.0000 22.7118 0.0000 0.0000
# 5 0.0000 0.0000 0.0000 0.0000 17.7508 0.0000
# 6 0.0000 0.0000 0.0000 0.0000 0.0000 23.9277
#
#
#
# Elastic Compliance Matrix: (Units=1/GPa)
#
#
# Indices 1 2 3 4 5 6 
#
# 1 0.018866 -0.003903 -0.001346 0.000000 0.000000 0.000000
# 2 -0.003903 0.007905 -0.003033 0.000000 0.000000 0.000000
# 3 -0.001346 -0.003033 0.015504 0.000000 0.000000 0.000000
# 4 0.000000 0.000000 0.000000 0.044030 0.000000 0.000000
# 5 0.000000 0.000000 0.000000 0.000000 0.056336 0.000000
# 6 0.000000 0.000000 0.000000 0.000000 0.000000 0.041793
#
#
# Mechanical properties :
#
#
# Convention : Reuss Voigt Hill
#
# Bulk Modulus (GPa) = 38.89322 50.10253 44.49787
# Shear Modulus (GPa) = 23.85891 26.82766 25.34329
#
# Velocity S-wave (km/s) = 3.64994 3.87036 3.76176
# Velocity P-wave (km/s) = 6.28326 6.92449 6.61165
#
# Compressibility (1/GPa) = 0.02571142
#
# Stress axis : x y z
#
# Youngs Moduli (GPa) = 53.00615 126.50702 64.50085
#
# Poissons Ratio (x) = 0.49370 0.08680
# Poissons Ratio (y) = 0.20686 0.19564
# Poissons Ratio (z) = 0.07133 0.38371
#
# Static dielectric constant tensor:
#      x y z
#    x 3.014050 0.000000 0.000000 
#    y 0.000000 3.583750 0.000000 
#    z 0.000000 0.000000 3.138210 
# 
# 
# High freq. dielectric constant tensor:
#      x y z
#    x 1.671360 0.000000 0.000000 
#    y 0.000000 1.724380 0.000000 
#    z 0.000000 0.000000 1.671660 
# 
# From -- ./inp_files/892.got.cif
#   From: 2010.03.12/outbox.cif.g09.slc.cpg/sg62_1_cif.got.tgz:892.got - 2010.04.10 19:12:36.
