data_PCOD8253415
_publ_section_title
;
Structure prediction by ZEFSAII (Michael W. Deem and Ramdas Pophale) SiO2 
 PCOD8253415
Probable space group: P N M A
;
_chemical_formula_sum "Si O2"
_cell_formula_units_Z 64
_cell_length_a 30.801725
_cell_length_b 8.773784
_cell_length_c 11.935212
_cell_angle_alpha 90.000000
_cell_angle_beta 90.000000
_cell_angle_gamma 90.000000
_cell_volume 3225.463377
_symmetry_space_group_name_H-M "P N M A"
_symmetry_group_IT_number 62
_symmetry_cell_setting 'orthorhombic'
loop_
_space_group_symop_operation_xyz
x,y,z
1/2-x,-y,1/2+z
1/2+x,1/2-y,1/2-z
-x,1/2+y,-z
-x,-y,-z
1/2+x,y,1/2-z
1/2-x,1/2+y,1/2+z
x,1/2-y,z
loop_
_atom_site_type_symbol
_atom_site_label
_atom_site_fract_x
_atom_site_fract_y
_atom_site_fract_z
Si Si1 0.875785 0.568618 0.361731
Si Si2 0.922223 0.072926 0.008067
Si Si3 0.946493 0.424103 0.756077
Si Si4 0.294445 0.571472 0.275751
Si Si5 0.800869 0.429575 0.766955
Si Si6 0.627361 0.429322 0.115001
Si Si7 0.956903 0.927565 0.217111
Si Si8 0.832599 0.573639 0.990625
O O1 0.874801 0.750000 0.359441
O O2 0.833432 0.499658 0.298371
O O3 0.876323 0.507316 0.488658
O O4 0.919464 0.511504 0.300261
O O5 0.910236 0.250000 0.019941
O O6 0.956725 0.023880 0.102238
O O7 0.880459 0.968600 0.031357
O O8 0.941327 0.035948 0.886544
O O9 0.932660 0.250000 0.733112
O O10 0.916220 0.530963 0.681921
O O11 0.996598 0.453645 0.723190
O O12 0.294741 0.750000 0.252408
O O13 0.247882 0.502167 0.240741
O O14 0.300432 0.537725 0.407134
O O15 0.800757 0.250000 0.750231
O O16 0.830078 0.499035 0.669603
O O17 0.820272 0.468149 0.887212
O O18 0.633391 0.250000 0.116162
O O19 0.950713 0.750000 0.187237
O O20 0.830705 0.750000 0.954600
#
# Coordination Sequence:
#
# PCOD8253415 Si02
#       8
#     8   8   8   8   8   8   8   8
#     4   9  19  38  60  84 112 149 197 241 286 343
#     4  11  21  35  56  88 125 153 187 240 295 345
#     4  10  22  38  58  85 119 155 191 240 299 346
#     4   9  20  38  61  86 116 152 189 237 294 342
#     4  11  23  39  60  87 121 154 188 242 297 340
#     4  11  23  38  60  84 113 155 199 241 285 347
#     4  10  20  38  63  85 113 156 198 240 291 352
#     4  11  21  38  64  89 115 155 200 236 284 353
#
# _framework density 19.842109000000001
#
# number of rings (size 3 to 8) (size 9 to 14) (size 15 to 20)
#    0.000    1.750    2.500    1.875    1.750    1.500 
#    0.000    3.125    0.000    0.000    0.000    0.000 
#    0.000    0.000    0.000    0.000    0.000    0.000 
#
# Total GULP energy -793755.340450 kJ/mol
# GULP energy per Si atom -12402.427195 kJ/mol
# Density = 1.979695 g / cm^3
# Si number density = 19.842109 Si / 1000 Ang^3
#
#
#
# Elastic Constant Matrix: (Units=GPa)
#
#
# Indices 1 2 3 4 5 6 
#
# 1 134.3495 27.7704 48.3777 0.0000 0.0000 0.0000
# 2 27.7704 48.2884 34.0186 0.0000 0.0000 0.0000
# 3 48.3777 34.0186 117.3711 0.0000 0.0000 0.0000
# 4 0.0000 0.0000 0.0000 9.5826 0.0000 0.0000
# 5 0.0000 0.0000 0.0000 0.0000 23.4620 0.0000
# 6 0.0000 0.0000 0.0000 0.0000 0.0000 18.0275
#
#
#
# Elastic Compliance Matrix: (Units=1/GPa)
#
#
# Indices 1 2 3 4 5 6 
#
# 1 0.009133 -0.003268 -0.002817 0.000000 0.000000 0.000000
# 2 -0.003268 0.027191 -0.006534 0.000000 0.000000 0.000000
# 3 -0.002817 -0.006534 0.011575 0.000000 0.000000 0.000000
# 4 0.000000 0.000000 0.000000 0.104356 0.000000 0.000000
# 5 0.000000 0.000000 0.000000 0.000000 0.042622 0.000000
# 6 0.000000 0.000000 0.000000 0.000000 0.000000 0.055471
#
#
# Mechanical properties :
#
#
# Convention : Reuss Voigt Hill
#
# Bulk Modulus (GPa) = 44.12838 57.81583 50.97211
# Shear Modulus (GPa) = 17.65906 22.87056 20.26481
#
# Velocity S-wave (km/s) = 2.98649 3.39872 3.19925
# Velocity P-wave (km/s) = 5.84638 6.67854 6.27627
#
# Compressibility (1/GPa) = 0.02266115
#
# Stress axis : x y z
#
# Youngs Moduli (GPa) = 109.49031 36.77627 86.39194
#
# Poissons Ratio (x) = 0.12017 0.24340
# Poissons Ratio (y) = 0.35777 0.56451
# Poissons Ratio (z) = 0.30848 0.24031
#
# Static dielectric constant tensor:
#      x y z
#    x 3.904360 0.000000 0.000000 
#    y 0.000000 3.328950 0.000000 
#    z 0.000000 0.000000 3.631910 
# 
# 
# High freq. dielectric constant tensor:
#      x y z
#    x 1.787290 0.000000 0.000000 
#    y 0.000000 1.749470 0.000000 
#    z 0.000000 0.000000 1.776450 
# 
# From -- ./inp_files/15885.got.cif
#   From: 2010.03.12/outbox.cif.g09.slc.cpg/sg62_8_cif.got.tgz:15885.got - 2010.04.10 19:12:36.
