data_PCOD8253229
_publ_section_title
;
Structure prediction by ZEFSAII (Michael W. Deem and Ramdas Pophale) SiO2 
 PCOD8253229
Probable space group: P N M A
;
_chemical_formula_sum "Si O2"
_cell_formula_units_Z 48
_cell_length_a 15.311354
_cell_length_b 8.592616
_cell_length_c 18.393796
_cell_angle_alpha 90.000000
_cell_angle_beta 90.000000
_cell_angle_gamma 90.000000
_cell_volume 2419.972144
_symmetry_space_group_name_H-M "P N M A"
_symmetry_group_IT_number 62
_symmetry_cell_setting 'orthorhombic'
loop_
_space_group_symop_operation_xyz
x,y,z
1/2-x,-y,1/2+z
1/2+x,1/2-y,1/2-z
-x,1/2+y,-z
-x,-y,-z
1/2+x,y,1/2-z
1/2-x,1/2+y,1/2+z
x,1/2-y,z
loop_
_atom_site_type_symbol
_atom_site_label
_atom_site_fract_x
_atom_site_fract_y
_atom_site_fract_z
Si Si1 0.010245 0.567253 0.168262
Si Si2 0.167280 0.067222 0.415612
Si Si3 0.146461 0.067550 0.580449
Si Si4 0.671673 0.067445 0.409900
Si Si5 0.002755 0.067612 0.323347
Si Si6 0.848952 0.567286 0.074372
O O1 0.024219 0.750000 0.156053
O O2 0.987593 0.532344 0.251374
O O3 0.931223 0.501080 0.118923
O O4 0.097459 0.475682 0.147337
O O5 0.177863 0.250000 0.415001
O O6 0.141959 0.012210 0.496691
O O7 0.093063 0.011488 0.360032
O O8 0.259489 0.996146 0.390871
O O9 0.127402 0.250000 0.590168
O O10 0.241628 0.026463 0.612404
O O11 0.075463 0.966289 0.621926
O O12 0.691762 0.250000 0.406635
O O13 0.641271 0.015131 0.490526
O O14 0.005071 0.250000 0.304957
O O15 0.846331 0.750000 0.082437
#
# Coordination Sequence:
#
# PCOD8253229 Si02
#       6
#     8   8   8   8   8   8
#     4  11  23  38  55  81 115 151 187 228 276 330
#     4   9  20  37  59  84 110 141 183 230 278 329
#     4  10  20  37  60  85 110 142 183 230 279 331
#     4  10  20  37  60  85 110 142 183 230 279 331
#     4  11  23  38  55  81 115 151 187 228 276 330
#     4   9  20  37  59  84 110 141 183 230 278 329
#
# _framework density 19.834938999999999
#
# number of rings (size 3 to 8) (size 9 to 14) (size 15 to 20)
#    0.000    2.000    0.000    3.000    0.000    5.333 
#    0.000    3.333    0.000    0.000    0.000    0.000 
#    0.000    0.000    0.000    0.000    0.000    0.000 
#
# Total GULP energy -595444.159598 kJ/mol
# GULP energy per Si atom -12405.086658 kJ/mol
# Density = 1.978979 g / cm^3
# Si number density = 19.834939 Si / 1000 Ang^3
#
#
#
# Elastic Constant Matrix: (Units=GPa)
#
#
# Indices 1 2 3 4 5 6 
#
# 1 100.5404 21.7926 25.2994 0.0000 0.0000 0.0000
# 2 21.7926 33.9041 19.4273 0.0000 0.0000 0.0000
# 3 25.2994 19.4273 53.6671 0.0000 0.0000 0.0000
# 4 0.0000 0.0000 0.0000 29.6216 0.0000 0.0000
# 5 0.0000 0.0000 0.0000 0.0000 13.4300 0.0000
# 6 0.0000 0.0000 0.0000 0.0000 0.0000 34.8767
#
#
#
# Elastic Compliance Matrix: (Units=1/GPa)
#
#
# Indices 1 2 3 4 5 6 
#
# 1 0.012096 -0.005687 -0.003643 0.000000 0.000000 0.000000
# 2 -0.005687 0.039888 -0.011758 0.000000 0.000000 0.000000
# 3 -0.003643 -0.011758 0.024607 0.000000 0.000000 0.000000
# 4 0.000000 0.000000 0.000000 0.033759 0.000000 0.000000
# 5 0.000000 0.000000 0.000000 0.000000 0.074460 0.000000
# 6 0.000000 0.000000 0.000000 0.000000 0.000000 0.028672
#
#
# Mechanical properties :
#
#
# Convention : Reuss Voigt Hill
#
# Bulk Modulus (GPa) = 29.05830 35.68334 32.37082
# Shear Modulus (GPa) = 18.71732 23.69180 21.20456
#
# Velocity S-wave (km/s) = 3.07523 3.45983 3.27318
# Velocity P-wave (km/s) = 5.22410 5.83007 5.53539
#
# Compressibility (1/GPa) = 0.03441358
#
# Stress axis : x y z
#
# Youngs Moduli (GPa) = 82.67353 25.07009 40.63814
#
# Poissons Ratio (x) = 0.14258 0.14806
# Poissons Ratio (y) = 0.47018 0.47784
# Poissons Ratio (z) = 0.30121 0.29478
#
# Static dielectric constant tensor:
#      x y z
#    x 3.793940 0.000000 0.000000 
#    y 0.000000 3.469600 0.000000 
#    z 0.000000 0.000000 3.610600 
# 
# 
# High freq. dielectric constant tensor:
#      x y z
#    x 1.785450 0.000000 0.000000 
#    y 0.000000 1.772850 0.000000 
#    z 0.000000 0.000000 1.765600 
# 
# From -- ./inp_files/23684.got.cif
#   From: 2010.03.12/outbox.cif.g09.slc.cpg/sg62_12_cif.got.tgz:23684.got - 2010.04.10 19:12:36.
