data_PCOD8253778
_publ_section_title
;
Structure prediction by ZEFSAII (Michael W. Deem and Ramdas Pophale) SiO2 
 PCOD8253778
Probable space group: P N M A
;
_chemical_formula_sum "Si O2"
_cell_formula_units_Z 64
_cell_length_a 5.270758
_cell_length_b 26.528378
_cell_length_c 21.371466
_cell_angle_alpha 90.000000
_cell_angle_beta 90.000000
_cell_angle_gamma 90.000000
_cell_volume 2988.257979
_symmetry_space_group_name_H-M "P N M A"
_symmetry_group_IT_number 62
_symmetry_cell_setting 'orthorhombic'
loop_
_space_group_symop_operation_xyz
x,y,z
1/2-x,-y,1/2+z
1/2+x,1/2-y,1/2-z
-x,1/2+y,-z
-x,-y,-z
1/2+x,y,1/2-z
1/2-x,1/2+y,1/2+z
x,1/2-y,z
loop_
_atom_site_type_symbol
_atom_site_label
_atom_site_fract_x
_atom_site_fract_y
_atom_site_fract_z
Si Si1 0.098113 0.444259 0.789493
Si Si2 0.007332 0.307915 0.998244
Si Si3 0.960821 0.901491 0.076417
Si Si4 0.457769 0.558251 0.010167
Si Si5 0.536491 0.307484 0.277767
Si Si6 0.385875 0.060396 0.289305
Si Si7 0.267878 0.877984 0.902130
Si Si8 0.831667 0.304581 0.392243
O O1 0.357166 0.431286 0.753511
O O2 0.083421 0.409408 0.850483
O O3 0.099600 0.502342 0.811120
O O4 0.912981 0.250000 0.985816
O O5 0.015311 0.340579 0.934612
O O6 0.842560 0.339192 0.047407
O O7 0.281378 0.306326 0.033083
O O8 0.717341 0.919285 0.037463
O O9 0.216272 0.930500 0.054995
O O10 0.500000 0.500000 0.000000
O O11 0.408638 0.578448 0.940707
O O12 0.278945 0.334671 0.255833
O O13 0.522710 0.250000 0.254287
O O14 0.566133 0.311648 0.353274
O O15 0.618631 0.072008 0.243738
O O16 0.416586 0.095620 0.351203
O O17 0.480484 0.846274 0.865542
O O18 0.945940 0.250000 0.374180
#
# Coordination Sequence:
#
# PCOD8253778 Si02
#       8
#     8   8   8   8   8   8   8   8
#     4  10  21  41  67  96 129 166 205 254 319 395
#     4  10  23  42  62  90 126 167 216 268 323 378
#     4  11  22  41  66  98 127 170 214 257 327 398
#     4  11  23  38  62  96 130 164 209 269 326 387
#     4   9  19  33  49  70  95 133 190 248 296 340
#     4  10  24  40  60  88 125 168 212 265 322 381
#     4  11  23  38  60  85 124 164 216 262 324 381
#     4  10  21  37  56  76 111 158 207 261 312 360
#
# _framework density 21.417161
#
# number of rings (size 3 to 8) (size 9 to 14) (size 15 to 20)
#    0.000    1.750    1.250    2.250    3.500    4.000 
#    0.000    0.000    0.000    2.250    0.000    0.000 
#    0.000    0.000    0.000    0.000    0.000    0.000 
#
# Total GULP energy -793109.873539 kJ/mol
# GULP energy per Si atom -12392.341774 kJ/mol
# Density = 2.136841 g / cm^3
# Si number density = 21.417161 Si / 1000 Ang^3
#
#
#
# Elastic Constant Matrix: (Units=GPa)
#
#
# Indices 1 2 3 4 5 6 
#
# 1 108.8498 45.9096 30.9189 0.0000 0.0000 0.0000
# 2 45.9096 153.5953 78.5668 0.0000 0.0000 0.0000
# 3 30.9189 78.5668 109.2944 0.0000 0.0000 0.0000
# 4 0.0000 0.0000 0.0000 32.2590 0.0000 0.0000
# 5 0.0000 0.0000 0.0000 0.0000 26.3881 0.0000
# 6 0.0000 0.0000 0.0000 0.0000 0.0000 24.2731
#
#
#
# Elastic Compliance Matrix: (Units=1/GPa)
#
#
# Indices 1 2 3 4 5 6 
#
# 1 0.010601 -0.002585 -0.001141 0.000000 0.000000 0.000000
# 2 -0.002585 0.010927 -0.007124 0.000000 0.000000 0.000000
# 3 -0.001141 -0.007124 0.014593 0.000000 0.000000 0.000000
# 4 0.000000 0.000000 0.000000 0.030999 0.000000 0.000000
# 5 0.000000 0.000000 0.000000 0.000000 0.037896 0.000000
# 6 0.000000 0.000000 0.000000 0.000000 0.000000 0.041198
#
#
# Mechanical properties :
#
#
# Convention : Reuss Voigt Hill
#
# Bulk Modulus (GPa) = 69.33607 75.83670 72.58639
# Shear Modulus (GPa) = 28.94831 31.00699 29.97765
#
# Velocity S-wave (km/s) = 3.68046 3.80908 3.74532
# Velocity P-wave (km/s) = 7.10671 7.40484 7.25731
#
# Compressibility (1/GPa) = 0.01442251
#
# Stress axis : x y z
#
# Youngs Moduli (GPa) = 94.32747 91.51393 68.52487
#
# Poissons Ratio (x) = 0.23659 0.07816
# Poissons Ratio (y) = 0.24386 0.48816
# Poissons Ratio (z) = 0.10759 0.65192
#
# Static dielectric constant tensor:
#      x y z
#    x 4.151130 0.000000 0.000000 
#    y 0.000000 4.055970 0.000000 
#    z 0.000000 0.000000 3.828140 
# 
# 
# High freq. dielectric constant tensor:
#      x y z
#    x 1.854920 0.000000 0.000000 
#    y 0.000000 1.842090 0.000000 
#    z 0.000000 0.000000 1.819540 
# 
# From -- ./inp_files/25469.got.cif
#   From: 2010.03.12/outbox.cif.g09.slc.cpg/sg62_13_cif.got.tgz:25469.got - 2010.04.10 19:12:36.
