data_PCOD8253183
_publ_section_title
;
Structure prediction by ZEFSAII (Michael W. Deem and Ramdas Pophale) SiO2 
 PCOD8253183
Probable space group: P N M A
;
_chemical_formula_sum "Si O2"
_cell_formula_units_Z 56
_cell_length_a 20.865724
_cell_length_b 9.326246
_cell_length_c 14.987036
_cell_angle_alpha 90.000000
_cell_angle_beta 90.000000
_cell_angle_gamma 90.000000
_cell_volume 2916.460345
_symmetry_space_group_name_H-M "P N M A"
_symmetry_group_IT_number 62
_symmetry_cell_setting 'orthorhombic'
loop_
_space_group_symop_operation_xyz
x,y,z
1/2-x,-y,1/2+z
1/2+x,1/2-y,1/2-z
-x,1/2+y,-z
-x,-y,-z
1/2+x,y,1/2-z
1/2-x,1/2+y,1/2+z
x,1/2-y,z
loop_
_atom_site_type_symbol
_atom_site_label
_atom_site_fract_x
_atom_site_fract_y
_atom_site_fract_z
Si Si1 0.966141 0.915473 0.130048
Si Si2 0.904868 0.418521 0.276404
Si Si3 0.906228 0.085312 0.974566
Si Si4 0.695482 0.586834 0.060183
Si Si5 0.935098 0.081765 0.477812
Si Si6 0.707972 0.410760 0.404761
Si Si7 0.734535 0.585235 0.714643
O O1 0.946655 0.750000 0.138209
O O2 0.038653 0.935383 0.098392
O O3 0.960148 0.993993 0.224911
O O4 0.917881 0.990446 0.061460
O O5 0.914997 0.250000 0.261822
O O6 0.910726 0.459738 0.379553
O O7 0.836841 0.470783 0.236386
O O8 0.900093 0.250000 0.004673
O O9 0.841145 0.033583 0.930848
O O10 0.697132 0.750000 0.093644
O O11 0.733292 0.495975 0.132754
O O12 0.621489 0.537076 0.047048
O O13 0.728225 0.572621 0.963402
O O14 0.949059 0.250000 0.484511
O O15 0.000000 0.000000 0.500000
O O16 0.679363 0.250000 0.417788
O O17 0.723092 0.437433 0.301931
O O18 0.731274 0.750000 0.686435
#
# Coordination Sequence:
#
# PCOD8253183 Si02
#       7
#     8   8   8   8   8   8   8
#     4  10  21  36  55  81 114 150 189 234 285 342
#     4  10  20  38  61  83 113 154 197 240 291 351
#     4  10  21  36  54  81 116 150 187 234 287 341
#     4  10  21  39  60  84 117 154 191 240 298 349
#     4  10  22  41  62  84 116 157 197 242 296 351
#     4  10  20  37  59  81 112 150 187 232 287 345
#     4  10  21  37  59  86 114 149 193 240 291 349
#
# _framework density 19.201360000000001
#
# number of rings (size 3 to 8) (size 9 to 14) (size 15 to 20)
#    0.000    2.000    1.429    1.714    0.000    8.000 
#    0.000    5.714    0.000    0.000    0.000    0.000 
#    0.000    0.000    0.000    0.000    0.000    0.000 
#
# Total GULP energy -694468.548514 kJ/mol
# GULP energy per Si atom -12401.224081 kJ/mol
# Density = 1.915766 g / cm^3
# Si number density = 19.201360 Si / 1000 Ang^3
#
#
#
# Elastic Constant Matrix: (Units=GPa)
#
#
# Indices 1 2 3 4 5 6 
#
# 1 99.7103 48.4324 43.7689 0.0000 0.0000 0.0000
# 2 48.4324 72.4343 43.0632 0.0000 0.0000 0.0000
# 3 43.7689 43.0632 96.2619 0.0000 0.0000 0.0000
# 4 0.0000 0.0000 0.0000 27.7317 0.0000 0.0000
# 5 0.0000 0.0000 0.0000 0.0000 24.0916 0.0000
# 6 0.0000 0.0000 0.0000 0.0000 0.0000 33.8628
#
#
#
# Elastic Compliance Matrix: (Units=1/GPa)
#
#
# Indices 1 2 3 4 5 6 
#
# 1 0.015588 -0.008459 -0.003304 0.000000 0.000000 0.000000
# 2 -0.008459 0.023398 -0.006621 0.000000 0.000000 0.000000
# 3 -0.003304 -0.006621 0.014852 0.000000 0.000000 0.000000
# 4 0.000000 0.000000 0.000000 0.036060 0.000000 0.000000
# 5 0.000000 0.000000 0.000000 0.000000 0.041508 0.000000
# 6 0.000000 0.000000 0.000000 0.000000 0.000000 0.029531
#
#
# Mechanical properties :
#
#
# Convention : Reuss Voigt Hill
#
# Bulk Modulus (GPa) = 58.57742 59.88170 59.22956
# Shear Modulus (GPa) = 24.58289 26.01337 25.29813
#
# Velocity S-wave (km/s) = 3.58197 3.68471 3.63370
# Velocity P-wave (km/s) = 6.90510 7.02543 6.96553
#
# Compressibility (1/GPa) = 0.01707142
#
# Stress axis : x y z
#
# Youngs Moduli (GPa) = 64.15288 42.73933 67.32935
#
# Poissons Ratio (x) = 0.36151 0.22243
# Poissons Ratio (y) = 0.54264 0.44579
# Poissons Ratio (z) = 0.21193 0.28298
#
# Static dielectric constant tensor:
#      x y z
#    x 3.499230 0.000000 0.000000 
#    y 0.000000 3.488470 0.000000 
#    z 0.000000 0.000000 3.496330 
# 
# 
# High freq. dielectric constant tensor:
#      x y z
#    x 1.749030 0.000000 0.000000 
#    y 0.000000 1.743350 0.000000 
#    z 0.000000 0.000000 1.751050 
# 
# From -- ./inp_files/20251.got.cif
#   From: 2010.03.12/outbox.cif.g09.slc.cpg/sg62_11_cif.got.tgz:20251.got - 2010.04.10 19:12:36.
