data_PCOD8253811
_publ_section_title
;
Structure prediction by ZEFSAII (Michael W. Deem and Ramdas Pophale) SiO2 
 PCOD8253811
Probable space group: P N M A
;
_chemical_formula_sum "Si O2"
_cell_formula_units_Z 64
_cell_length_a 24.321355
_cell_length_b 9.056930
_cell_length_c 14.620030
_cell_angle_alpha 90.000000
_cell_angle_beta 90.000000
_cell_angle_gamma 90.000000
_cell_volume 3220.453567
_symmetry_space_group_name_H-M "P N M A"
_symmetry_group_IT_number 62
_symmetry_cell_setting 'orthorhombic'
loop_
_space_group_symop_operation_xyz
x,y,z
1/2-x,-y,1/2+z
1/2+x,1/2-y,1/2-z
-x,1/2+y,-z
-x,-y,-z
1/2+x,y,1/2-z
1/2-x,1/2+y,1/2+z
x,1/2-y,z
loop_
_atom_site_type_symbol
_atom_site_label
_atom_site_fract_x
_atom_site_fract_y
_atom_site_fract_z
Si Si1 0.848207 0.581686 0.870095
Si Si2 0.486070 0.082500 0.407678
Si Si3 0.949384 0.424493 0.550123
Si Si4 0.261750 0.576694 0.166745
Si Si5 0.170111 0.577043 0.518881
Si Si6 0.734580 0.422308 0.621611
Si Si7 0.368991 0.418109 0.460608
Si Si8 0.443625 0.919835 0.760497
O O1 0.831884 0.750000 0.890823
O O2 0.793788 0.484722 0.876322
O O3 0.885996 0.516482 0.951177
O O4 0.880863 0.568392 0.775116
O O5 0.507007 0.250000 0.419400
O O6 0.420353 0.074035 0.390924
O O7 0.515444 0.017808 0.317645
O O8 0.500000 0.000000 0.500000
O O9 0.956543 0.250000 0.544980
O O10 0.891661 0.474442 0.505239
O O11 0.950316 0.473325 0.654752
O O12 0.000000 0.500000 0.500000
O O13 0.264895 0.750000 0.152205
O O14 0.312707 0.504977 0.112380
O O15 0.259844 0.532683 0.272803
O O16 0.172197 0.750000 0.538645
O O17 0.210007 0.536162 0.433707
O O18 0.720809 0.250000 0.610645
O O19 0.684869 0.518282 0.585572
O O20 0.357964 0.250000 0.491012
O O21 0.457576 0.750000 0.786825
#
# Coordination Sequence:
#
# PCOD8253811 Si02
#       8
#     8   8   8   8   8   8   8   8
#     4  11  21  36  60  88 123 163 202 249 308 362
#     4  10  21  37  57  86 124 161 200 246 299 359
#     4  11  25  45  68  92 121 160 208 262 314 368
#     4  11  23  38  61  93 125 160 206 254 301 365
#     4  10  22  42  65  88 120 163 203 250 310 366
#     4  10  22  40  60  86 124 162 198 246 306 362
#     4  11  22  35  57  88 121 159 202 248 297 356
#     4  10  22  40  63  91 123 164 211 257 306 366
#
# _framework density 19.872978
#
# number of rings (size 3 to 8) (size 9 to 14) (size 15 to 20)
#    0.000    1.500    2.500    2.250    0.000    6.000 
#    0.000    3.750    0.000    0.000    0.000    0.000 
#    0.000    0.000    0.000    0.000    0.000    0.000 
#
# Total GULP energy -793666.424905 kJ/mol
# GULP energy per Si atom -12401.037889 kJ/mol
# Density = 1.982775 g / cm^3
# Si number density = 19.872978 Si / 1000 Ang^3
#
#
#
# Elastic Constant Matrix: (Units=GPa)
#
#
# Indices 1 2 3 4 5 6 
#
# 1 130.3607 49.4741 52.0379 0.0000 0.0000 0.0000
# 2 49.4741 70.1025 50.0049 0.0000 0.0000 0.0000
# 3 52.0379 50.0049 104.6637 0.0000 0.0000 0.0000
# 4 0.0000 0.0000 0.0000 37.6751 0.0000 0.0000
# 5 0.0000 0.0000 0.0000 0.0000 30.1640 0.0000
# 6 0.0000 0.0000 0.0000 0.0000 0.0000 29.5733
#
#
#
# Elastic Compliance Matrix: (Units=1/GPa)
#
#
# Indices 1 2 3 4 5 6 
#
# 1 0.010943 -0.005828 -0.002656 0.000000 0.000000 0.000000
# 2 -0.005828 0.024744 -0.008924 0.000000 0.000000 0.000000
# 3 -0.002656 -0.008924 0.015139 0.000000 0.000000 0.000000
# 4 0.000000 0.000000 0.000000 0.026543 0.000000 0.000000
# 5 0.000000 0.000000 0.000000 0.000000 0.033152 0.000000
# 6 0.000000 0.000000 0.000000 0.000000 0.000000 0.033814
#
#
# Mechanical properties :
#
#
# Convention : Reuss Voigt Hill
#
# Bulk Modulus (GPa) = 62.46691 67.57341 65.02016
# Shear Modulus (GPa) = 27.10201 29.72314 28.41257
#
# Velocity S-wave (km/s) = 3.69692 3.87157 3.78525
# Velocity P-wave (km/s) = 7.05155 7.35268 7.20368
#
# Compressibility (1/GPa) = 0.01600848
#
# Stress axis : x y z
#
# Youngs Moduli (GPa) = 91.37970 40.41441 66.05598
#
# Poissons Ratio (x) = 0.23555 0.17547
# Poissons Ratio (y) = 0.53259 0.58948
# Poissons Ratio (z) = 0.24274 0.36065
#
# Static dielectric constant tensor:
#      x y z
#    x 3.805340 0.000000 0.000000 
#    y 0.000000 3.609720 0.000000 
#    z 0.000000 0.000000 3.811470 
# 
# 
# High freq. dielectric constant tensor:
#      x y z
#    x 1.784360 0.000000 0.000000 
#    y 0.000000 1.775970 0.000000 
#    z 0.000000 0.000000 1.774200 
# 
# From -- ./inp_files/20834.got.cif
#   From: 2010.03.12/outbox.cif.g09.slc.cpg/sg62_11_cif.got.tgz:20834.got - 2010.04.10 19:12:36.
