data_PCOD8253645
_publ_section_title
;
Structure prediction by ZEFSAII (Michael W. Deem and Ramdas Pophale) SiO2 
 PCOD8253645
Probable space group: P N M A
;
_chemical_formula_sum "Si O2"
_cell_formula_units_Z 64
_cell_length_a 29.450447
_cell_length_b 9.293100
_cell_length_c 12.458917
_cell_angle_alpha 90.000000
_cell_angle_beta 90.000000
_cell_angle_gamma 90.000000
_cell_volume 3409.830523
_symmetry_space_group_name_H-M "P N M A"
_symmetry_group_IT_number 62
_symmetry_cell_setting 'orthorhombic'
loop_
_space_group_symop_operation_xyz
x,y,z
1/2-x,-y,1/2+z
1/2+x,1/2-y,1/2-z
-x,1/2+y,-z
-x,-y,-z
1/2+x,y,1/2-z
1/2-x,1/2+y,1/2+z
x,1/2-y,z
loop_
_atom_site_type_symbol
_atom_site_label
_atom_site_fract_x
_atom_site_fract_y
_atom_site_fract_z
Si Si1 0.744982 0.907774 0.619299
Si Si2 0.174453 0.079963 0.232628
Si Si3 0.820749 0.583886 0.227519
Si Si4 0.952977 0.080040 0.007496
Si Si5 0.758495 0.090786 0.879694
Si Si6 0.916583 0.083144 0.770525
Si Si7 0.577113 0.081305 0.717219
Si Si8 0.500041 0.580669 0.115031
O O1 0.734883 0.750000 0.667155
O O2 0.789001 0.972832 0.678751
O O3 0.760152 0.899848 0.498179
O O4 0.698102 0.998457 0.624444
O O5 0.168411 0.250000 0.222741
O O6 0.197012 0.012304 0.125431
O O7 0.126203 0.012681 0.262007
O O8 0.816285 0.750000 0.200968
O O9 0.785830 0.530461 0.318739
O O10 0.872284 0.548078 0.259819
O O11 0.959717 0.250000 0.026260
O O12 0.927127 0.011304 0.108643
O O13 0.928011 0.050332 0.894752
O O14 0.000000 0.000000 0.000000
O O15 0.772369 0.250000 0.837863
O O16 0.904743 0.250000 0.756284
O O17 0.956657 0.039364 0.688255
O O18 0.569262 0.250000 0.689416
O O19 0.543357 0.033747 0.812827
O O20 0.498595 0.750000 0.090380
O O21 0.500000 0.500000 0.000000
#
# Coordination Sequence:
#
# PCOD8253645 Si02
#       8
#     8   8   8   8   8   8   8   8
#     4   9  19  35  54  77 109 144 183 230 276 322
#     4  10  21  35  54  83 111 141 187 237 275 325
#     4   9  19  34  55  80 107 143 184 223 272 330
#     4  11  22  38  61  86 116 151 189 235 287 341
#     4   9  18  35  55  76 108 149 184 222 279 336
#     4  10  22  40  58  82 117 154 186 228 288 342
#     4  10  21  39  59  85 118 151 189 236 285 339
#     4  10  22  41  61  83 115 150 188 232 281 336
#
# _framework density 18.769259999999999
#
# number of rings (size 3 to 8) (size 9 to 14) (size 15 to 20)
#    0.000    2.250    1.250    0.750    1.750    4.500 
#    0.000    2.500    0.000    3.000    0.000    0.000 
#    0.000    0.000    0.000    0.000    0.000    0.000 
#
# Total GULP energy -793079.544978 kJ/mol
# GULP energy per Si atom -12391.867890 kJ/mol
# Density = 1.872654 g / cm^3
# Si number density = 18.769260 Si / 1000 Ang^3
#
#
#
# Elastic Constant Matrix: (Units=GPa)
#
#
# Indices 1 2 3 4 5 6 
#
# 1 162.1008 69.0980 54.3783 0.0000 0.0000 0.0000
# 2 69.0980 80.7372 48.0121 0.0000 0.0000 0.0000
# 3 54.3783 48.0121 108.1245 0.0000 0.0000 0.0000
# 4 0.0000 0.0000 0.0000 29.9898 0.0000 0.0000
# 5 0.0000 0.0000 0.0000 0.0000 16.1726 0.0000
# 6 0.0000 0.0000 0.0000 0.0000 0.0000 17.8007
#
#
#
# Elastic Compliance Matrix: (Units=1/GPa)
#
#
# Indices 1 2 3 4 5 6 
#
# 1 0.009926 -0.007509 -0.001658 0.000000 0.000000 0.000000
# 2 -0.007509 0.022511 -0.006219 0.000000 0.000000 0.000000
# 3 -0.001658 -0.006219 0.012844 0.000000 0.000000 0.000000
# 4 0.000000 0.000000 0.000000 0.033345 0.000000 0.000000
# 5 0.000000 0.000000 0.000000 0.000000 0.061833 0.000000
# 6 0.000000 0.000000 0.000000 0.000000 0.000000 0.056178
#
#
# Mechanical properties :
#
#
# Convention : Reuss Voigt Hill
#
# Bulk Modulus (GPa) = 68.92475 77.10436 73.01456
# Shear Modulus (GPa) = 21.52899 24.75755 23.14327
#
# Velocity S-wave (km/s) = 3.39046 3.63581 3.51528
# Velocity P-wave (km/s) = 7.22003 7.66778 7.44727
#
# Compressibility (1/GPa) = 0.01450858
#
# Stress axis : x y z
#
# Youngs Moduli (GPa) = 100.74516 44.42251 77.85833
#
# Poissons Ratio (x) = 0.33359 0.12905
# Poissons Ratio (y) = 0.75654 0.48422
# Poissons Ratio (z) = 0.16699 0.27628
#
# Static dielectric constant tensor:
#      x y z
#    x 3.671600 0.000000 0.000000 
#    y 0.000000 3.719350 0.000000 
#    z 0.000000 0.000000 3.210910 
# 
# 
# High freq. dielectric constant tensor:
#      x y z
#    x 1.735750 0.000000 0.000000 
#    y 0.000000 1.728920 0.000000 
#    z 0.000000 0.000000 1.723580 
# 
# From -- ./inp_files/15877.got.cif
#   From: 2010.03.12/outbox.cif.g09.slc.cpg/sg62_8_cif.got.tgz:15877.got - 2010.04.10 19:12:36.
