data_PCOD8253107
_publ_section_title
;
Structure prediction by ZEFSAII (Michael W. Deem and Ramdas Pophale) SiO2 
 PCOD8253107
Probable space group: P N M A
;
_chemical_formula_sum "Si O2"
_cell_formula_units_Z 64
_cell_length_a 23.208939
_cell_length_b 8.727973
_cell_length_c 15.534811
_cell_angle_alpha 90.000000
_cell_angle_beta 90.000000
_cell_angle_gamma 90.000000
_cell_volume 3146.839950
_symmetry_space_group_name_H-M "P N M A"
_symmetry_group_IT_number 62
_symmetry_cell_setting 'orthorhombic'
loop_
_space_group_symop_operation_xyz
x,y,z
1/2-x,-y,1/2+z
1/2+x,1/2-y,1/2-z
-x,1/2+y,-z
-x,-y,-z
1/2+x,y,1/2-z
1/2-x,1/2+y,1/2+z
x,1/2-y,z
loop_
_atom_site_type_symbol
_atom_site_label
_atom_site_fract_x
_atom_site_fract_y
_atom_site_fract_z
Si Si1 0.547810 0.070037 0.562315
Si Si2 0.629115 0.074743 0.137580
Si Si3 0.336687 0.575555 0.533786
Si Si4 0.208691 0.576405 0.493237
Si Si5 0.313262 0.573633 0.170625
Si Si6 0.066849 0.068963 0.746929
Si Si7 0.185091 0.575983 0.208465
Si Si8 0.012011 0.571023 0.407668
O O1 0.537544 0.250000 0.563154
O O2 0.611105 0.028263 0.527774
O O3 0.544784 0.003784 0.660498
O O4 0.500000 0.000000 0.500000
O O5 0.609225 0.250000 0.128935
O O6 0.680995 0.040930 0.073028
O O7 0.650975 0.042964 0.233188
O O8 0.577094 0.962080 0.117373
O O9 0.343631 0.750000 0.567770
O O10 0.277235 0.559591 0.481658
O O11 0.335006 0.456923 0.611922
O O12 0.189334 0.750000 0.472838
O O13 0.186870 0.535759 0.588303
O O14 0.319923 0.750000 0.140059
O O15 0.366156 0.525001 0.232095
O O16 0.253525 0.551365 0.221743
O O17 0.059600 0.250000 0.749998
O O18 0.029236 0.001787 0.667521
O O19 0.168266 0.750000 0.232061
O O20 0.000858 0.750000 0.415755
O O21 0.000000 0.500000 0.500000
#
# Coordination Sequence:
#
# PCOD8253107 Si02
#       8
#     8   8   8   8   8   8   8   8
#     4  10  22  40  61  86 116 157 202 251 301 357
#     4  12  25  39  58  85 122 160 203 252 300 358
#     4   9  20  38  61  86 120 156 193 242 305 366
#     4  10  20  36  60  90 121 154 193 243 303 368
#     4   9  18  36  62  89 119 155 193 238 301 367
#     4   9  20  38  63  89 118 156 201 246 297 359
#     4  10  21  36  60  89 119 154 196 243 299 366
#     4  11  23  41  64  93 124 162 206 252 308 369
#
# _framework density 20.337862999999999
#
# number of rings (size 3 to 8) (size 9 to 14) (size 15 to 20)
#    0.000    2.000    0.000    3.000    3.500    2.500 
#    0.000    1.875    0.000    0.000    0.000    0.000 
#    0.000    0.000    0.000    0.000    0.000    0.000 
#
# Total GULP energy -793640.693738 kJ/mol
# GULP energy per Si atom -12400.635840 kJ/mol
# Density = 2.029157 g / cm^3
# Si number density = 20.337863 Si / 1000 Ang^3
#
#
#
# Elastic Constant Matrix: (Units=GPa)
#
#
# Indices 1 2 3 4 5 6 
#
# 1 120.9295 27.2944 73.4912 0.0000 0.0000 0.0000
# 2 27.2944 52.3582 28.4658 0.0000 0.0000 0.0000
# 3 73.4912 28.4658 132.9578 0.0000 0.0000 0.0000
# 4 0.0000 0.0000 0.0000 32.3225 0.0000 0.0000
# 5 0.0000 0.0000 0.0000 0.0000 33.7981 0.0000
# 6 0.0000 0.0000 0.0000 0.0000 0.0000 25.7871
#
#
#
# Elastic Compliance Matrix: (Units=1/GPa)
#
#
# Indices 1 2 3 4 5 6 
#
# 1 0.012917 -0.003228 -0.006449 0.000000 0.000000 0.000000
# 2 -0.003228 0.022422 -0.003016 0.000000 0.000000 0.000000
# 3 -0.006449 -0.003016 0.011731 0.000000 0.000000 0.000000
# 4 0.000000 0.000000 0.000000 0.030938 0.000000 0.000000
# 5 0.000000 0.000000 0.000000 0.000000 0.029587 0.000000
# 6 0.000000 0.000000 0.000000 0.000000 0.000000 0.038779
#
#
# Mechanical properties :
#
#
# Convention : Reuss Voigt Hill
#
# Bulk Modulus (GPa) = 46.11554 62.74981 54.43267
# Shear Modulus (GPa) = 27.93489 30.18115 29.05802
#
# Velocity S-wave (km/s) = 3.71015 3.85644 3.78400
# Velocity P-wave (km/s) = 6.40918 7.12391 6.77598
#
# Compressibility (1/GPa) = 0.02168467
#
# Stress axis : x y z
#
# Youngs Moduli (GPa) = 77.41938 44.59975 85.24167
#
# Poissons Ratio (x) = 0.14395 0.54969
# Poissons Ratio (y) = 0.24988 0.25712
# Poissons Ratio (z) = 0.49924 0.13453
#
# Static dielectric constant tensor:
#      x y z
#    x 4.031810 0.000000 0.000000 
#    y 0.000000 2.819370 0.000000 
#    z 0.000000 0.000000 3.772940 
# 
# 
# High freq. dielectric constant tensor:
#      x y z
#    x 1.803310 0.000000 0.000000 
#    y 0.000000 1.777850 0.000000 
#    z 0.000000 0.000000 1.797350 
# 
# From -- ./inp_files/20864.got.cif
#   From: 2010.03.12/outbox.cif.g09.slc.cpg/sg62_11_cif.got.tgz:20864.got - 2010.04.10 19:12:36.
