data_PCOD8253388
_publ_section_title
;
Structure prediction by ZEFSAII (Michael W. Deem and Ramdas Pophale) SiO2 
 PCOD8253388
Probable space group: P N M A
;
_chemical_formula_sum "Si O2"
_cell_formula_units_Z 48
_cell_length_a 9.165261
_cell_length_b 8.605341
_cell_length_c 30.739061
_cell_angle_alpha 90.000000
_cell_angle_beta 90.000000
_cell_angle_gamma 90.000000
_cell_volume 2424.395774
_symmetry_space_group_name_H-M "P N M A"
_symmetry_group_IT_number 62
_symmetry_cell_setting 'orthorhombic'
loop_
_space_group_symop_operation_xyz
x,y,z
1/2-x,-y,1/2+z
1/2+x,1/2-y,1/2-z
-x,1/2+y,-z
-x,-y,-z
1/2+x,y,1/2-z
1/2-x,1/2+y,1/2+z
x,1/2-y,z
loop_
_atom_site_type_symbol
_atom_site_label
_atom_site_fract_x
_atom_site_fract_y
_atom_site_fract_z
Si Si1 0.916776 0.431045 0.288399
Si Si2 0.590912 0.432972 0.630903
Si Si3 0.080301 0.572347 0.959441
Si Si4 0.579131 0.429880 0.041096
Si Si5 0.922863 0.432872 0.631906
Si Si6 0.399732 0.067447 0.712056
O O1 0.941095 0.250000 0.278429
O O2 0.746972 0.469630 0.284925
O O3 0.972958 0.472260 0.336243
O O4 0.004351 0.535778 0.254395
O O5 0.591154 0.250000 0.627756
O O6 0.527253 0.496925 0.585723
O O7 0.756400 0.490543 0.639408
O O8 0.489095 0.491231 0.669998
O O9 0.036322 0.750000 0.956893
O O10 0.250486 0.545129 0.966329
O O11 0.000000 0.500000 0.000000
O O12 0.538552 0.250000 0.047149
O O13 0.526622 0.524992 0.083268
O O14 0.500000 0.500000 0.000000
O O15 0.941062 0.250000 0.640100
O O16 0.363658 0.250000 0.709393
#
# Coordination Sequence:
#
# PCOD8253388 Si02
#       6
#     8   8   8   8   8   8
#     4  12  25  40  60  89 121 153 192 241 291 344
#     4   9  20  38  61  85 111 146 191 237 284 338
#     4  10  21  36  57  83 114 149 188 233 284 339
#     4  10  21  37  57  84 115 151 193 239 290 345
#     4  10  20  38  62  86 114 152 194 239 291 348
#     4  11  23  41  63  87 117 155 195 237 287 348
#
# _framework density 19.798748
#
# number of rings (size 3 to 8) (size 9 to 14) (size 15 to 20)
#    0.000    1.667    0.000    4.500    0.000    6.667 
#    0.000    1.667    0.000    0.000    0.000    0.000 
#    0.000    0.000    0.000    0.000    0.000    0.000 
#
# Total GULP energy -595458.847805 kJ/mol
# GULP energy per Si atom -12405.392663 kJ/mol
# Density = 1.975368 g / cm^3
# Si number density = 19.798748 Si / 1000 Ang^3
#
#
#
# Elastic Constant Matrix: (Units=GPa)
#
#
# Indices 1 2 3 4 5 6 
#
# 1 80.5652 22.4717 53.3641 0.0000 0.0000 0.0000
# 2 22.4717 46.1416 19.8957 0.0000 0.0000 0.0000
# 3 53.3641 19.8957 133.0635 0.0000 0.0000 0.0000
# 4 0.0000 0.0000 0.0000 37.8844 0.0000 0.0000
# 5 0.0000 0.0000 0.0000 0.0000 42.3980 0.0000
# 6 0.0000 0.0000 0.0000 0.0000 0.0000 30.9058
#
#
#
# Elastic Compliance Matrix: (Units=1/GPa)
#
#
# Indices 1 2 3 4 5 6 
#
# 1 0.018417 -0.006183 -0.006461 0.000000 0.000000 0.000000
# 2 -0.006183 0.025242 -0.001294 0.000000 0.000000 0.000000
# 3 -0.006461 -0.001294 0.010300 0.000000 0.000000 0.000000
# 4 0.000000 0.000000 0.000000 0.026396 0.000000 0.000000
# 5 0.000000 0.000000 0.000000 0.000000 0.023586 0.000000
# 6 0.000000 0.000000 0.000000 0.000000 0.000000 0.032356
#
#
# Mechanical properties :
#
#
# Convention : Reuss Voigt Hill
#
# Bulk Modulus (GPa) = 38.34263 50.13705 44.23984
# Shear Modulus (GPa) = 28.92364 33.17355 31.04860
#
# Velocity S-wave (km/s) = 3.82630 4.09777 3.96436
# Velocity P-wave (km/s) = 6.23931 6.91139 6.58393
#
# Compressibility (1/GPa) = 0.02608063
#
# Stress axis : x y z
#
# Youngs Moduli (GPa) = 54.29819 39.61666 97.08684
#
# Poissons Ratio (x) = 0.24496 0.62732
# Poissons Ratio (y) = 0.33574 0.12567
# Poissons Ratio (z) = 0.35084 0.05128
#
# Static dielectric constant tensor:
#      x y z
#    x 3.253900 0.000000 0.000000 
#    y 0.000000 3.619960 0.000000 
#    z 0.000000 0.000000 3.751370 
# 
# 
# High freq. dielectric constant tensor:
#      x y z
#    x 1.767800 0.000000 0.000000 
#    y 0.000000 1.779550 0.000000 
#    z 0.000000 0.000000 1.788180 
# 
# From -- ./inp_files/32038.got.cif
#   From: 2010.03.12/outbox.cif.g09.slc.cpg/sg62_17_cif.got.tgz:32038.got - 2010.04.10 19:12:36.
