data_PCOD8253981
_publ_section_title
;
Structure prediction by ZEFSAII (Michael W. Deem and Ramdas Pophale) SiO2 
 PCOD8253981
Probable space group: P N M A
;
_chemical_formula_sum "Si O2"
_cell_formula_units_Z 40
_cell_length_a 10.306833
_cell_length_b 9.140381
_cell_length_c 21.215737
_cell_angle_alpha 90.000000
_cell_angle_beta 90.000000
_cell_angle_gamma 90.000000
_cell_volume 1998.700224
_symmetry_space_group_name_H-M "P N M A"
_symmetry_group_IT_number 62
_symmetry_cell_setting 'orthorhombic'
loop_
_space_group_symop_operation_xyz
x,y,z
1/2-x,-y,1/2+z
1/2+x,1/2-y,1/2-z
-x,1/2+y,-z
-x,-y,-z
1/2+x,y,1/2-z
1/2-x,1/2+y,1/2+z
x,1/2-y,z
loop_
_atom_site_type_symbol
_atom_site_label
_atom_site_fract_x
_atom_site_fract_y
_atom_site_fract_z
Si Si1 0.661547 0.082535 0.046377
Si Si2 0.457456 0.420003 0.437038
Si Si3 0.200369 0.078391 0.716809
Si Si4 0.577301 0.077589 0.910211
Si Si5 0.015093 0.922660 0.188244
O O1 0.616876 0.250000 0.050827
O O2 0.804572 0.058952 0.072441
O O3 0.567283 0.987607 0.089987
O O4 0.653599 0.030071 0.973463
O O5 0.500000 0.500000 0.500000
O O6 0.496004 0.250000 0.441492
O O7 0.526996 0.493944 0.377740
O O8 0.176021 0.250000 0.715782
O O9 0.352405 0.042300 0.727336
O O10 0.155179 0.013227 0.649468
O O11 0.108280 0.015649 0.772458
O O12 0.563755 0.250000 0.904946
O O13 0.005042 0.750000 0.174045
#
# Coordination Sequence:
#
# PCOD8253981 Si02
#       5
#     8   8   8   8   8
#     4   9  19  34  53  81 114 145 183 234 287 334
#     4  11  23  39  59  84 115 151 192 241 294 344
#     4   9  19  35  58  85 115 151 194 237 279 335
#     4   9  17  32  55  81 110 146 187 229 277 337
#     4  10  21  38  60  87 117 154 196 238 285 340
#
# _framework density 20.013007000000002
#
# number of rings (size 3 to 8) (size 9 to 14) (size 15 to 20)
#    0.000    2.400    0.000    1.800    2.800    4.800 
#    0.000    7.000    0.000    0.000    0.000    0.000 
#    0.000    0.000    0.000    0.000    0.000    0.000 
#
# Total GULP energy -495972.928116 kJ/mol
# GULP energy per Si atom -12399.323203 kJ/mol
# Density = 1.996746 g / cm^3
# Si number density = 20.013007 Si / 1000 Ang^3
#
#
#
# Elastic Constant Matrix: (Units=GPa)
#
#
# Indices 1 2 3 4 5 6 
#
# 1 103.6054 35.1258 47.9957 0.0000 0.0000 0.0000
# 2 35.1258 50.3284 30.3379 0.0000 0.0000 0.0000
# 3 47.9957 30.3379 103.4221 0.0000 0.0000 0.0000
# 4 0.0000 0.0000 0.0000 26.3754 0.0000 0.0000
# 5 0.0000 0.0000 0.0000 0.0000 35.1363 0.0000
# 6 0.0000 0.0000 0.0000 0.0000 0.0000 27.6806
#
#
#
# Elastic Compliance Matrix: (Units=1/GPa)
#
#
# Indices 1 2 3 4 5 6 
#
# 1 0.014156 -0.007192 -0.004460 0.000000 0.000000 0.000000
# 2 -0.007192 0.027791 -0.004815 0.000000 0.000000 0.000000
# 3 -0.004460 -0.004815 0.013151 0.000000 0.000000 0.000000
# 4 0.000000 0.000000 0.000000 0.037914 0.000000 0.000000
# 5 0.000000 0.000000 0.000000 0.000000 0.028461 0.000000
# 6 0.000000 0.000000 0.000000 0.000000 0.000000 0.036126
#
#
# Mechanical properties :
#
#
# Convention : Reuss Voigt Hill
#
# Bulk Modulus (GPa) = 45.11454 53.80832 49.46143
# Shear Modulus (GPa) = 25.26254 27.43155 26.34705
#
# Velocity S-wave (km/s) = 3.55675 3.70629 3.63229
# Velocity P-wave (km/s) = 6.28163 6.72760 6.50843
#
# Compressibility (1/GPa) = 0.02216580
#
# Stress axis : x y z
#
# Youngs Moduli (GPa) = 70.63968 35.98269 76.03826
#
# Poissons Ratio (x) = 0.25878 0.33913
# Poissons Ratio (y) = 0.50802 0.36611
# Poissons Ratio (z) = 0.31505 0.17325
#
# Static dielectric constant tensor:
#      x y z
#    x 3.763670 0.000000 0.000000 
#    y 0.000000 3.349050 0.000000 
#    z 0.000000 0.000000 3.704010 
# 
# 
# High freq. dielectric constant tensor:
#      x y z
#    x 1.790710 0.000000 0.000000 
#    y 0.000000 1.748330 0.000000 
#    z 0.000000 0.000000 1.781460 
# 
# From -- ./inp_files/21914.got.cif
#   From: 2010.03.12/outbox.cif.g09.slc.cpg/sg62_11_cif.got.tgz:21914.got - 2010.04.10 19:12:36.
