data_PCOD8253680
_publ_section_title
;
Structure prediction by ZEFSAII (Michael W. Deem and Ramdas Pophale) SiO2 
 PCOD8253680
Probable space group: P N M A
;
_chemical_formula_sum "Si O2"
_cell_formula_units_Z 48
_cell_length_a 8.899909
_cell_length_b 9.618542
_cell_length_c 30.091499
_cell_angle_alpha 90.000000
_cell_angle_beta 90.000000
_cell_angle_gamma 90.000000
_cell_volume 2575.957149
_symmetry_space_group_name_H-M "P N M A"
_symmetry_group_IT_number 62
_symmetry_cell_setting 'orthorhombic'
loop_
_space_group_symop_operation_xyz
x,y,z
1/2-x,-y,1/2+z
1/2+x,1/2-y,1/2-z
-x,1/2+y,-z
-x,-y,-z
1/2+x,y,1/2-z
1/2-x,1/2+y,1/2+z
x,1/2-y,z
loop_
_atom_site_type_symbol
_atom_site_label
_atom_site_fract_x
_atom_site_fract_y
_atom_site_fract_z
Si Si1 0.341477 0.910856 0.876570
Si Si2 0.310369 0.409223 0.466894
Si Si3 0.342509 0.088950 0.713141
Si Si4 0.846283 0.910885 0.951173
Si Si5 0.314039 0.589443 0.303953
Si Si6 0.185804 0.912854 0.638535
O O1 0.309101 0.750000 0.866220
O O2 0.306314 0.944189 0.927903
O O3 0.512493 0.951611 0.867771
O O4 0.231175 0.999237 0.846087
O O5 0.297872 0.250000 0.482325
O O6 0.269463 0.504260 0.508886
O O7 0.476941 0.441963 0.448857
O O8 0.309821 0.250000 0.702390
O O9 0.516649 0.051105 0.709206
O O10 0.294261 0.052271 0.763106
O O11 0.245011 0.996677 0.680321
O O12 0.809893 0.750000 0.959681
O O13 0.775996 0.961588 0.904961
O O14 0.299431 0.750000 0.317347
O O15 0.209437 0.750000 0.647436
#
# Coordination Sequence:
#
# PCOD8253680 Si02
#       6
#     8   8   8   8   8   8
#     4  10  21  36  54  78 108 141 177 216 259 309
#     4   9  18  33  52  74 102 136 174 216 260 307
#     4  10  21  37  57  80 106 137 174 216 262 312
#     4   9  18  33  52  74 102 136 174 216 260 307
#     4  10  21  37  57  80 106 137 174 216 262 312
#     4  10  21  36  54  78 108 141 177 216 259 309
#
# _framework density 18.633851
#
# number of rings (size 3 to 8) (size 9 to 14) (size 15 to 20)
#    0.000    2.333    0.000    2.000    0.000    6.667 
#    0.000    3.333    0.000    0.000    0.000    0.000 
#    0.000    0.000    0.000    0.000    0.000    0.000 
#
# Total GULP energy -595430.346993 kJ/mol
# GULP energy per Si atom -12404.798896 kJ/mol
# Density = 1.859144 g / cm^3
# Si number density = 18.633851 Si / 1000 Ang^3
#
#
#
# Elastic Constant Matrix: (Units=GPa)
#
#
# Indices 1 2 3 4 5 6 
#
# 1 49.4285 15.5442 -0.0585 0.0000 0.0000 0.0000
# 2 15.5442 45.1022 25.9033 0.0000 0.0000 0.0000
# 3 -0.0585 25.9033 47.7593 0.0000 0.0000 0.0000
# 4 0.0000 0.0000 0.0000 42.0763 0.0000 0.0000
# 5 0.0000 0.0000 0.0000 0.0000 34.5950 0.0000
# 6 0.0000 0.0000 0.0000 0.0000 0.0000 27.7259
#
#
#
# Elastic Compliance Matrix: (Units=1/GPa)
#
#
# Indices 1 2 3 4 5 6 
#
# 1 0.024029 -0.012053 0.006567 0.000000 0.000000 0.000000
# 2 -0.012053 0.038249 -0.020760 0.000000 0.000000 0.000000
# 3 0.006567 -0.020760 0.032206 0.000000 0.000000 0.000000
# 4 0.000000 0.000000 0.000000 0.023766 0.000000 0.000000
# 5 0.000000 0.000000 0.000000 0.000000 0.028906 0.000000
# 6 0.000000 0.000000 0.000000 0.000000 0.000000 0.036067
#
#
# Mechanical properties :
#
#
# Convention : Reuss Voigt Hill
#
# Bulk Modulus (GPa) = 23.81420 25.00756 24.41088
# Shear Modulus (GPa) = 20.02301 27.60619 23.81460
#
# Velocity S-wave (km/s) = 3.28159 3.85321 3.57883
# Velocity P-wave (km/s) = 5.21213 5.76593 5.49601
#
# Compressibility (1/GPa) = 0.04199175
#
# Stress axis : x y z
#
# Youngs Moduli (GPa) = 41.61570 26.14476 31.05032
#
# Poissons Ratio (x) = 0.31512 -0.20390
# Poissons Ratio (y) = 0.50159 0.64459
# Poissons Ratio (z) = -0.27327 0.54276
#
# Static dielectric constant tensor:
#      x y z
#    x 3.486080 0.000000 0.000000 
#    y 0.000000 3.376500 0.000000 
#    z 0.000000 0.000000 3.411110 
# 
# 
# High freq. dielectric constant tensor:
#      x y z
#    x 1.729940 0.000000 0.000000 
#    y 0.000000 1.718000 0.000000 
#    z 0.000000 0.000000 1.728600 
# 
# From -- ./inp_files/31938.got.cif
#   From: 2010.03.12/outbox.cif.g09.slc.cpg/sg62_16_cif.got.tgz:31938.got - 2010.04.10 19:12:36.
