data_PCOD8253892
_publ_section_title
;
Structure prediction by ZEFSAII (Michael W. Deem and Ramdas Pophale) SiO2 
 PCOD8253892
Probable space group: P N M A
;
_chemical_formula_sum "Si O2"
_cell_formula_units_Z 56
_cell_length_a 14.041707
_cell_length_b 13.832307
_cell_length_c 14.251071
_cell_angle_alpha 90.000000
_cell_angle_beta 90.000000
_cell_angle_gamma 90.000000
_cell_volume 2767.974148
_symmetry_space_group_name_H-M "P N M A"
_symmetry_group_IT_number 62
_symmetry_cell_setting 'orthorhombic'
loop_
_space_group_symop_operation_xyz
x,y,z
1/2-x,-y,1/2+z
1/2+x,1/2-y,1/2-z
-x,1/2+y,-z
-x,-y,-z
1/2+x,y,1/2-z
1/2-x,1/2+y,1/2+z
x,1/2-y,z
loop_
_atom_site_type_symbol
_atom_site_label
_atom_site_fract_x
_atom_site_fract_y
_atom_site_fract_z
Si Si1 0.490306 0.987775 0.728927
Si Si2 0.148950 0.361028 0.458850
Si Si3 0.560443 0.860753 0.891806
Si Si4 0.419303 0.564962 0.542530
Si Si5 0.869574 0.857422 0.139584
Si Si6 0.220764 0.503275 0.597531
Si Si7 0.791346 0.490575 0.695926
O O1 0.549367 0.919179 0.795758
O O2 0.452959 0.912147 0.648421
O O3 0.555873 0.074625 0.693309
O O4 0.399459 0.038942 0.778172
O O5 0.181289 0.250000 0.451330
O O6 0.034618 0.370592 0.453265
O O7 0.175578 0.401969 0.561953
O O8 0.202996 0.417529 0.374441
O O9 0.584855 0.750000 0.870061
O O10 0.651784 0.910599 0.941312
O O11 0.500000 0.500000 0.500000
O O12 0.400957 0.652920 0.470416
O O13 0.321561 0.505620 0.546379
O O14 0.870089 0.750000 0.183310
O O15 0.763197 0.902031 0.145818
O O16 0.231666 0.513230 0.709603
#
# Coordination Sequence:
#
# PCOD8253892 Si02
#       7
#     8   8   8   8   8   8   8
#     4   9  20  40  61  82 123 159 203 257 308 372
#     4  10  22  41  63  90 123 166 211 255 316 383
#     4  10  21  37  61  91 123 160 203 254 314 372
#     4   9  20  38  60  83 118 160 204 254 310 361
#     4  11  21  37  60  87 121 160 204 255 318 379
#     4  11  20  38  65  90 121 160 203 261 314 367
#     4  10  21  39  62  88 122 160 204 263 307 367
#
# _framework density 20.231401999999999
#
# number of rings (size 3 to 8) (size 9 to 14) (size 15 to 20)
#    0.000    2.000    2.857    0.429    0.000    2.857 
#    0.000    8.571    0.000    0.000    0.000    0.000 
#    0.000    0.000    0.000    0.000    0.000    0.000 
#
# Total GULP energy -693763.826811 kJ/mol
# GULP energy per Si atom -12388.639764 kJ/mol
# Density = 2.018535 g / cm^3
# Si number density = 20.231402 Si / 1000 Ang^3
#
#
#
# Elastic Constant Matrix: (Units=GPa)
#
#
# Indices 1 2 3 4 5 6 
#
# 1 122.8036 58.8202 37.6081 0.0000 0.0000 0.0000
# 2 58.8202 132.7653 31.5037 0.0000 0.0000 0.0000
# 3 37.6081 31.5037 59.1534 0.0000 0.0000 0.0000
# 4 0.0000 0.0000 0.0000 24.5043 0.0000 0.0000
# 5 0.0000 0.0000 0.0000 0.0000 25.5445 0.0000
# 6 0.0000 0.0000 0.0000 0.0000 0.0000 23.0609
#
#
#
# Elastic Compliance Matrix: (Units=1/GPa)
#
#
# Indices 1 2 3 4 5 6 
#
# 1 0.011639 -0.003892 -0.005327 0.000000 0.000000 0.000000
# 2 -0.003892 0.009923 -0.002810 0.000000 0.000000 0.000000
# 3 -0.005327 -0.002810 0.021788 0.000000 0.000000 0.000000
# 4 0.000000 0.000000 0.000000 0.040809 0.000000 0.000000
# 5 0.000000 0.000000 0.000000 0.000000 0.039147 0.000000
# 6 0.000000 0.000000 0.000000 0.000000 0.000000 0.043363
#
#
# Mechanical properties :
#
#
# Convention : Reuss Voigt Hill
#
# Bulk Modulus (GPa) = 51.83510 63.39850 57.61680
# Shear Modulus (GPa) = 25.36016 27.07463 26.21739
#
# Velocity S-wave (km/s) = 3.54433 3.66218 3.60373
# Velocity P-wave (km/s) = 6.51356 7.02045 6.77175
#
# Compressibility (1/GPa) = 0.01929195
#
# Stress axis : x y z
#
# Youngs Moduli (GPa) = 85.92002 100.77137 45.89614
#
# Poissons Ratio (x) = 0.39225 0.24447
# Poissons Ratio (y) = 0.33444 0.12898
# Poissons Ratio (z) = 0.45766 0.28319
#
# Static dielectric constant tensor:
#      x y z
#    x 3.966350 0.000000 0.000000 
#    y 0.000000 3.386310 0.000000 
#    z 0.000000 0.000000 4.189130 
# 
# 
# High freq. dielectric constant tensor:
#      x y z
#    x 1.812960 0.000000 0.000000 
#    y 0.000000 1.752760 0.000000 
#    z 0.000000 0.000000 1.796830 
# 
# From -- ./inp_files/19035.got.cif
#   From: 2010.03.12/outbox.cif.g09.slc.cpg/sg62_10_cif.got.tgz:19035.got - 2010.04.10 19:12:36.
