data_PCOD8253597
_publ_section_title
;
Structure prediction by ZEFSAII (Michael W. Deem and Ramdas Pophale) SiO2 
 PCOD8253597
Probable space group: P N M A
;
_chemical_formula_sum "Si O2"
_cell_formula_units_Z 56
_cell_length_a 28.156417
_cell_length_b 15.761679
_cell_length_c 5.808836
_cell_angle_alpha 90.000000
_cell_angle_beta 90.000000
_cell_angle_gamma 90.000000
_cell_volume 2577.917308
_symmetry_space_group_name_H-M "P N M A"
_symmetry_group_IT_number 62
_symmetry_cell_setting 'orthorhombic'
loop_
_space_group_symop_operation_xyz
x,y,z
1/2-x,-y,1/2+z
1/2+x,1/2-y,1/2-z
-x,1/2+y,-z
-x,-y,-z
1/2+x,y,1/2-z
1/2-x,1/2+y,1/2+z
x,1/2-y,z
loop_
_atom_site_type_symbol
_atom_site_label
_atom_site_fract_x
_atom_site_fract_y
_atom_site_fract_z
Si Si1 0.105808 0.750000 0.893414
Si Si2 0.158754 0.750000 0.392366
Si Si3 0.795870 0.925929 0.501102
Si Si4 0.463838 0.534638 0.814979
Si Si5 0.362346 0.515604 0.388848
Si Si6 0.380855 0.848536 0.758460
Si Si7 0.553258 0.919222 0.569126
Si Si8 0.799731 0.088276 0.793937
O O1 0.132051 0.750000 0.640565
O O2 0.135227 0.750000 0.133121
O O3 0.069137 0.674843 0.898698
O O4 0.188695 0.662609 0.389501
O O5 0.831916 0.855575 0.600101
O O6 0.746473 0.880214 0.436902
O O7 0.783771 0.000637 0.677309
O O8 0.820659 0.970268 0.286770
O O9 0.424082 0.603435 0.894663
O O10 0.438473 0.454237 0.692507
O O11 0.497662 0.579573 0.626787
O O12 0.500000 0.500000 0.000000
O O13 0.373443 0.604178 0.516272
O O14 0.411837 0.480892 0.275267
O O15 0.345032 0.435918 0.548602
O O16 0.393327 0.750000 0.719544
#
# Coordination Sequence:
#
# PCOD8253597 Si02
#       8
#     4   4   8   8   8   8   8   8
#     4  12  26  44  70 105 145 187 229 294 368 419
#     4  12  28  44  68 107 145 179 237 302 356 421
#     4  11  22  40  66  92 126 182 226 282 350 422
#     4  10  22  42  68  98 130 181 234 286 351 421
#     4  10  20  42  65  88 128 171 226 273 351 416
#     4  10  24  41  61  95 135 175 225 284 341 422
#     4  10  22  40  67  96 132 178 227 289 349 423
#     4  11  23  40  65  96 131 176 233 287 352 426
#
# _framework density 21.722964000000001
#
# number of rings (size 3 to 8) (size 9 to 14) (size 15 to 20)
#    0.000    1.429    2.857    1.714    4.000    0.571 
#    1.286    0.000    0.000    0.000    0.000    0.000 
#    0.000    0.000    0.000    0.000    0.000    0.000 
#
# Total GULP energy -693735.935552 kJ/mol
# GULP energy per Si atom -12388.141706 kJ/mol
# Density = 2.167352 g / cm^3
# Si number density = 21.722964 Si / 1000 Ang^3
#
#
#
# Elastic Constant Matrix: (Units=GPa)
#
#
# Indices 1 2 3 4 5 6 
#
# 1 106.4137 36.3015 11.2168 0.0000 0.0000 0.0000
# 2 36.3015 123.0365 17.6035 0.0000 0.0000 0.0000
# 3 11.2168 17.6035 55.7823 0.0000 0.0000 0.0000
# 4 0.0000 0.0000 0.0000 14.9827 0.0000 0.0000
# 5 0.0000 0.0000 0.0000 0.0000 33.0981 0.0000
# 6 0.0000 0.0000 0.0000 0.0000 0.0000 27.9381
#
#
#
# Elastic Compliance Matrix: (Units=1/GPa)
#
#
# Indices 1 2 3 4 5 6 
#
# 1 0.010524 -0.002935 -0.001190 0.000000 0.000000 0.000000
# 2 -0.002935 0.009330 -0.002354 0.000000 0.000000 0.000000
# 3 -0.001190 -0.002354 0.018909 0.000000 0.000000 0.000000
# 4 0.000000 0.000000 0.000000 0.066744 0.000000 0.000000
# 5 0.000000 0.000000 0.000000 0.000000 0.030213 0.000000
# 6 0.000000 0.000000 0.000000 0.000000 0.000000 0.035793
#
#
# Mechanical properties :
#
#
# Convention : Reuss Voigt Hill
#
# Bulk Modulus (GPa) = 38.75192 46.16402 42.45797
# Shear Modulus (GPa) = 25.89685 29.87783 27.88734
#
# Velocity S-wave (km/s) = 3.45649 3.71267 3.58686
# Velocity P-wave (km/s) = 5.81443 6.29888 6.06150
#
# Compressibility (1/GPa) = 0.02580517
#
# Stress axis : x y z
#
# Youngs Moduli (GPa) = 95.02202 107.17643 52.88457
#
# Poissons Ratio (x) = 0.31454 0.06293
# Poissons Ratio (y) = 0.27887 0.12451
# Poissons Ratio (z) = 0.11308 0.25233
#
# Static dielectric constant tensor:
#      x y z
#    x 4.468090 0.000000 0.000000 
#    y 0.000000 3.768480 0.000000 
#    z 0.000000 0.000000 4.001050 
# 
# 
# High freq. dielectric constant tensor:
#      x y z
#    x 1.875570 0.000000 0.000000 
#    y 0.000000 1.843170 0.000000 
#    z 0.000000 0.000000 1.839820 
# 
# From -- ./inp_files/3629.got.cif
#   From: 2010.03.12/outbox.cif.g09.slc.cpg/sg62_2_cif.got.tgz:3629.got - 2010.04.10 19:12:36.
