data_PCOD8253971
_publ_section_title
;
Structure prediction by ZEFSAII (Michael W. Deem and Ramdas Pophale) SiO2 
 PCOD8253971
Probable space group: P N M A
;
_chemical_formula_sum "Si O2"
_cell_formula_units_Z 56
_cell_length_a 23.732349
_cell_length_b 8.845603
_cell_length_c 13.593140
_cell_angle_alpha 90.000000
_cell_angle_beta 90.000000
_cell_angle_gamma 90.000000
_cell_volume 2853.566251
_symmetry_space_group_name_H-M "P N M A"
_symmetry_group_IT_number 62
_symmetry_cell_setting 'orthorhombic'
loop_
_space_group_symop_operation_xyz
x,y,z
1/2-x,-y,1/2+z
1/2+x,1/2-y,1/2-z
-x,1/2+y,-z
-x,-y,-z
1/2+x,y,1/2-z
1/2-x,1/2+y,1/2+z
x,1/2-y,z
loop_
_atom_site_type_symbol
_atom_site_label
_atom_site_fract_x
_atom_site_fract_y
_atom_site_fract_z
Si Si1 0.115431 0.574896 0.710239
Si Si2 0.664752 0.575895 0.299636
Si Si3 0.269023 0.422935 0.108154
Si Si4 0.941369 0.926228 0.890722
Si Si5 0.057840 0.426331 0.883020
Si Si6 0.941226 0.928156 0.472098
Si Si7 0.340667 0.075919 0.924597
O O1 0.099317 0.750000 0.702620
O O2 0.180798 0.548748 0.685387
O O3 0.104662 0.513308 0.819549
O O4 0.076025 0.484001 0.635641
O O5 0.649840 0.750000 0.319418
O O6 0.717690 0.531563 0.366038
O O7 0.611277 0.474767 0.325664
O O8 0.680288 0.546585 0.185828
O O9 0.248038 0.250000 0.112750
O O10 0.289755 0.465790 0.998403
O O11 0.953608 0.750000 0.876159
O O12 0.928580 0.965162 0.004119
O O13 0.995725 0.017127 0.853530
O O14 0.061932 0.250000 0.860776
O O15 0.947450 0.750000 0.470782
O O16 0.895075 0.974903 0.553130
O O17 0.000000 0.000000 0.500000
O O18 0.358199 0.250000 0.942760
#
# Coordination Sequence:
#
# PCOD8253971 Si02
#       7
#     8   8   8   8   8   8   8
#     4  10  21  38  60  85 115 153 193 239 294 353
#     4  11  23  38  61  88 117 154 199 248 300 353
#     4   9  20  40  60  81 114 152 195 241 292 351
#     4  10  22  39  58  83 118 155 195 242 295 353
#     4  10  21  38  60  86 117 154 195 243 293 351
#     4  11  22  36  57  85 117 152 191 238 290 353
#     4   9  21  41  59  81 116 154 194 244 293 346
#
# _framework density 19.624565
#
# number of rings (size 3 to 8) (size 9 to 14) (size 15 to 20)
#    0.000    2.000    0.000    3.857    2.000    6.857 
#    0.000    4.286    0.000    0.000    0.000    0.000 
#    0.000    0.000    0.000    0.000    0.000    0.000 
#
# Total GULP energy -694684.059907 kJ/mol
# GULP energy per Si atom -12405.072498 kJ/mol
# Density = 1.957990 g / cm^3
# Si number density = 19.624565 Si / 1000 Ang^3
#
#
#
# Elastic Constant Matrix: (Units=GPa)
#
#
# Indices 1 2 3 4 5 6 
#
# 1 63.8879 26.0151 33.6797 0.0000 0.0000 0.0000
# 2 26.0151 91.1414 28.3407 0.0000 0.0000 0.0000
# 3 33.6797 28.3407 84.2636 0.0000 0.0000 0.0000
# 4 0.0000 0.0000 0.0000 34.2742 0.0000 0.0000
# 5 0.0000 0.0000 0.0000 0.0000 28.4656 0.0000
# 6 0.0000 0.0000 0.0000 0.0000 0.0000 36.8975
#
#
#
# Elastic Compliance Matrix: (Units=1/GPa)
#
#
# Indices 1 2 3 4 5 6 
#
# 1 0.020928 -0.003766 -0.007098 0.000000 0.000000 0.000000
# 2 -0.003766 0.012931 -0.002844 0.000000 0.000000 0.000000
# 3 -0.007098 -0.002844 0.015661 0.000000 0.000000 0.000000
# 4 0.000000 0.000000 0.000000 0.029176 0.000000 0.000000
# 5 0.000000 0.000000 0.000000 0.000000 0.035130 0.000000
# 6 0.000000 0.000000 0.000000 0.000000 0.000000 0.027102
#
#
# Mechanical properties :
#
#
# Convention : Reuss Voigt Hill
#
# Bulk Modulus (GPa) = 45.24114 46.15154 45.69634
# Shear Modulus (GPa) = 28.45541 30.01128 29.23335
#
# Velocity S-wave (km/s) = 3.81200 3.91483 3.86376
# Velocity P-wave (km/s) = 6.51756 6.63346 6.57576
#
# Compressibility (1/GPa) = 0.02210377
#
# Stress axis : x y z
#
# Youngs Moduli (GPa) = 47.78296 77.33148 63.85274
#
# Poissons Ratio (x) = 0.29127 0.45323
# Poissons Ratio (y) = 0.17997 0.18159
# Poissons Ratio (z) = 0.33916 0.21992
#
# Static dielectric constant tensor:
#      x y z
#    x 3.458220 0.000000 0.000000 
#    y 0.000000 3.663380 0.000000 
#    z 0.000000 0.000000 3.753190 
# 
# 
# High freq. dielectric constant tensor:
#      x y z
#    x 1.758560 0.000000 0.000000 
#    y 0.000000 1.773230 0.000000 
#    z 0.000000 0.000000 1.769060 
# 
# From -- ./inp_files/20320.got.cif
#   From: 2010.03.12/outbox.cif.g09.slc.cpg/sg62_11_cif.got.tgz:20320.got - 2010.04.10 19:12:36.
