data_PCOD8253181
_publ_section_title
;
Structure prediction by ZEFSAII (Michael W. Deem and Ramdas Pophale) SiO2 
 PCOD8253181
Probable space group: P N M A
;
_chemical_formula_sum "Si O2"
_cell_formula_units_Z 64
_cell_length_a 31.128399
_cell_length_b 8.524666
_cell_length_c 12.050933
_cell_angle_alpha 90.000000
_cell_angle_beta 90.000000
_cell_angle_gamma 90.000000
_cell_volume 3197.825995
_symmetry_space_group_name_H-M "P N M A"
_symmetry_group_IT_number 62
_symmetry_cell_setting 'orthorhombic'
loop_
_space_group_symop_operation_xyz
x,y,z
1/2-x,-y,1/2+z
1/2+x,1/2-y,1/2-z
-x,1/2+y,-z
-x,-y,-z
1/2+x,y,1/2-z
1/2-x,1/2+y,1/2+z
x,1/2-y,z
loop_
_atom_site_type_symbol
_atom_site_label
_atom_site_fract_x
_atom_site_fract_y
_atom_site_fract_z
Si Si1 0.450367 0.934200 0.244359
Si Si2 0.955718 0.436401 0.724454
Si Si3 0.704182 0.935598 0.207262
Si Si4 0.573761 0.568148 0.988715
Si Si5 0.798641 0.564427 0.264686
Si Si6 0.874847 0.064825 0.861919
Si Si7 0.126694 0.436225 0.892402
Si Si8 0.335587 0.933741 0.002793
O O1 0.450369 0.750000 0.259588
O O2 0.498439 0.998121 0.271737
O O3 0.415270 0.007060 0.328654
O O4 0.438775 0.967732 0.117474
O O5 0.952334 0.250000 0.727832
O O6 0.953230 0.489611 0.595750
O O7 0.916555 0.504880 0.797709
O O8 0.703206 0.750000 0.184406
O O9 0.750229 0.996281 0.249787
O O10 0.668069 0.983870 0.296468
O O11 0.697777 0.030888 0.094386
O O12 0.566113 0.750000 0.962514
O O13 0.622902 0.538154 0.021262
O O14 0.798819 0.750000 0.261394
O O15 0.830526 0.499258 0.168999
O O16 0.815139 0.505199 0.383055
O O17 0.878214 0.250000 0.875010
O O18 0.873063 0.989574 0.982037
O O19 0.125529 0.250000 0.886293
O O20 0.347238 0.750000 0.008196
#
# Coordination Sequence:
#
# PCOD8253181 Si02
#       8
#     8   8   8   8   8   8   8   8
#     4  10  20  37  59  81 111 149 186 231 283 332
#     4   9  19  36  57  81 111 147 184 228 284 334
#     4  10  21  39  60  82 113 149 183 231 285 327
#     4  11  20  35  58  86 118 147 183 229 280 336
#     4   9  20  38  58  81 113 148 181 225 281 332
#     4  10  21  38  57  79 111 149 187 229 280 334
#     4  10  21  38  56  79 111 147 185 228 279 331
#     4  11  21  37  61  87 115 149 189 229 277 337
#
# _framework density 20.013596
#
# number of rings (size 3 to 8) (size 9 to 14) (size 15 to 20)
#    0.000    2.000    2.500    1.125    1.750    1.500 
#    0.000    2.500    0.000    0.000    0.000    0.000 
#    0.000    0.000    0.000    0.000    0.000    0.000 
#
# Total GULP energy -793551.642074 kJ/mol
# GULP energy per Si atom -12399.244407 kJ/mol
# Density = 1.996804 g / cm^3
# Si number density = 20.013596 Si / 1000 Ang^3
#
#
#
# Elastic Constant Matrix: (Units=GPa)
#
#
# Indices 1 2 3 4 5 6 
#
# 1 153.2433 12.7322 59.1529 0.0000 0.0000 0.0000
# 2 12.7322 8.0219 7.5314 0.0000 0.0000 0.0000
# 3 59.1529 7.5314 139.8564 0.0000 0.0000 0.0000
# 4 0.0000 0.0000 0.0000 32.9475 0.0000 0.0000
# 5 0.0000 0.0000 0.0000 0.0000 26.4376 0.0000
# 6 0.0000 0.0000 0.0000 0.0000 0.0000 11.6706
#
#
#
# Elastic Compliance Matrix: (Units=1/GPa)
#
#
# Indices 1 2 3 4 5 6 
#
# 1 0.008602 -0.010782 -0.003057 0.000000 0.000000 0.000000
# 2 -0.010782 0.144811 -0.003238 0.000000 0.000000 0.000000
# 3 -0.003057 -0.003238 0.008618 0.000000 0.000000 0.000000
# 4 0.000000 0.000000 0.000000 0.030351 0.000000 0.000000
# 5 0.000000 0.000000 0.000000 0.000000 0.037825 0.000000
# 6 0.000000 0.000000 0.000000 0.000000 0.000000 0.085685
#
#
# Mechanical properties :
#
#
# Convention : Reuss Voigt Hill
#
# Bulk Modulus (GPa) = 7.82008 51.10609 29.46309
# Shear Modulus (GPa) = 12.73328 28.99147 20.86238
#
# Velocity S-wave (km/s) = 2.52510 3.81016 3.23214
# Velocity P-wave (km/s) = 3.52383 6.70429 5.35560
#
# Compressibility (1/GPa) = 0.12787587
#
# Stress axis : x y z
#
# Youngs Moduli (GPa) = 116.25781 6.90555 116.03974
#
# Poissons Ratio (x) = 0.07445 0.35479
# Poissons Ratio (y) = 1.25346 0.37575
# Poissons Ratio (z) = 0.35545 0.02236
#
# Static dielectric constant tensor:
#      x y z
#    x 4.146550 0.000000 0.000000 
#    y 0.000000 3.216590 0.000000 
#    z 0.000000 0.000000 3.697510 
# 
# 
# High freq. dielectric constant tensor:
#      x y z
#    x 1.798930 0.000000 0.000000 
#    y 0.000000 1.744560 0.000000 
#    z 0.000000 0.000000 1.785350 
# 
# From -- ./inp_files/15830.got.cif
#   From: 2010.03.12/outbox.cif.g09.slc.cpg/sg62_8_cif.got.tgz:15830.got - 2010.04.10 19:12:36.
