data_PCOD8253858
_publ_section_title
;
Structure prediction by ZEFSAII (Michael W. Deem and Ramdas Pophale) SiO2 
 PCOD8253858
Probable space group: P N M A
;
_chemical_formula_sum "Si O2"
_cell_formula_units_Z 56
_cell_length_a 14.109996
_cell_length_b 9.288944
_cell_length_c 20.959453
_cell_angle_alpha 90.000000
_cell_angle_beta 90.000000
_cell_angle_gamma 90.000000
_cell_volume 2747.091844
_symmetry_space_group_name_H-M "P N M A"
_symmetry_group_IT_number 62
_symmetry_cell_setting 'orthorhombic'
loop_
_space_group_symop_operation_xyz
x,y,z
1/2-x,-y,1/2+z
1/2+x,1/2-y,1/2-z
-x,1/2+y,-z
-x,-y,-z
1/2+x,y,1/2-z
1/2-x,1/2+y,1/2+z
x,1/2-y,z
loop_
_atom_site_type_symbol
_atom_site_label
_atom_site_fract_x
_atom_site_fract_y
_atom_site_fract_z
Si Si1 0.313005 0.414666 0.064452
Si Si2 0.375281 0.588312 0.638349
Si Si3 0.516375 0.414857 0.878238
Si Si4 0.492888 0.411049 0.248868
Si Si5 0.192239 0.914360 0.420062
Si Si6 0.981693 0.581609 0.063243
Si Si7 0.340659 0.081691 0.356388
O O1 0.346953 0.250000 0.063910
O O2 0.234221 0.436808 0.120475
O O3 0.401491 0.511303 0.081784
O O4 0.275813 0.454879 0.993064
O O5 0.405481 0.750000 0.613746
O O6 0.406424 0.580111 0.712755
O O7 0.431427 0.455943 0.608655
O O8 0.544477 0.250000 0.869502
O O9 0.504480 0.477563 0.807759
O O10 0.420557 0.434563 0.917935
O O11 0.480646 0.250000 0.221524
O O12 0.399073 0.446953 0.291606
O O13 0.220697 0.750000 0.403897
O O14 0.233916 0.019538 0.363706
O O15 0.971390 0.750000 0.052845
O O16 0.884841 0.516515 0.088564
O O17 0.000000 0.500000 0.000000
O O18 0.342864 0.250000 0.373171
#
# Coordination Sequence:
#
# PCOD8253858 Si02
#       7
#     8   8   8   8   8   8   8
#     4  10  21  39  62  85 114 152 193 239 293 345
#     4   9  19  36  58  84 111 144 190 240 289 347
#     4  11  24  39  57  83 116 154 199 244 287 340
#     4   9  20  39  59  83 116 151 191 235 289 352
#     4  10  22  39  59  87 120 154 191 238 295 348
#     4  11  20  31  51  80 116 154 189 231 284 342
#     4  10  21  37  59  86 114 149 193 239 288 348
#
# _framework density 20.385195
#
# number of rings (size 3 to 8) (size 9 to 14) (size 15 to 20)
#    0.000    2.000    0.000    4.286    0.000    7.429 
#    0.000    4.286    0.000    0.000    0.000    0.000 
#    0.000    0.000    0.000    0.000    0.000    0.000 
#
# Total GULP energy -693876.490229 kJ/mol
# GULP energy per Si atom -12390.651611 kJ/mol
# Density = 2.033880 g / cm^3
# Si number density = 20.385195 Si / 1000 Ang^3
#
#
#
# Elastic Constant Matrix: (Units=GPa)
#
#
# Indices 1 2 3 4 5 6 
#
# 1 77.8432 38.6652 18.9582 0.0000 0.0000 0.0000
# 2 38.6652 120.7464 40.8870 0.0000 0.0000 0.0000
# 3 18.9582 40.8870 74.3541 0.0000 0.0000 0.0000
# 4 0.0000 0.0000 0.0000 33.9579 0.0000 0.0000
# 5 0.0000 0.0000 0.0000 0.0000 18.0671 0.0000
# 6 0.0000 0.0000 0.0000 0.0000 0.0000 36.6714
#
#
#
# Elastic Compliance Matrix: (Units=1/GPa)
#
#
# Indices 1 2 3 4 5 6 
#
# 1 0.015410 -0.004429 -0.001494 0.000000 0.000000 0.000000
# 2 -0.004429 0.011450 -0.005167 0.000000 0.000000 0.000000
# 3 -0.001494 -0.005167 0.016671 0.000000 0.000000 0.000000
# 4 0.000000 0.000000 0.000000 0.029448 0.000000 0.000000
# 5 0.000000 0.000000 0.000000 0.000000 0.055349 0.000000
# 6 0.000000 0.000000 0.000000 0.000000 0.000000 0.027269
#
#
# Mechanical properties :
#
#
# Convention : Reuss Voigt Hill
#
# Bulk Modulus (GPa) = 46.83390 52.21826 49.52608
# Shear Modulus (GPa) = 27.04258 29.36814 28.20536
#
# Velocity S-wave (km/s) = 3.64617 3.79972 3.72374
# Velocity P-wave (km/s) = 6.38361 6.70238 6.54494
#
# Compressibility (1/GPa) = 0.02135205
#
# Stress axis : x y z
#
# Youngs Moduli (GPa) = 64.89332 87.33945 59.98341
#
# Poissons Ratio (x) = 0.38680 0.08960
# Poissons Ratio (y) = 0.28739 0.30993
# Poissons Ratio (z) = 0.09693 0.45127
#
# Static dielectric constant tensor:
#      x y z
#    x 3.766490 0.000000 0.000000 
#    y 0.000000 2.767690 0.000000 
#    z 0.000000 0.000000 3.494360 
# 
# 
# High freq. dielectric constant tensor:
#      x y z
#    x 1.799210 0.000000 0.000000 
#    y 0.000000 1.798740 0.000000 
#    z 0.000000 0.000000 1.788060 
# 
# From -- ./inp_files/27140.got.cif
#   From: 2010.03.12/outbox.cif.g09.slc.cpg/sg62_14_cif.got.tgz:27140.got - 2010.04.10 19:12:36.
