data_PCOD8253259
_publ_section_title
;
Structure prediction by ZEFSAII (Michael W. Deem and Ramdas Pophale) SiO2 
 PCOD8253259
Probable space group: P N M A
;
_chemical_formula_sum "Si O2"
_cell_formula_units_Z 56
_cell_length_a 18.472834
_cell_length_b 9.031629
_cell_length_c 17.077266
_cell_angle_alpha 90.000000
_cell_angle_beta 90.000000
_cell_angle_gamma 90.000000
_cell_volume 2849.167358
_symmetry_space_group_name_H-M "P N M A"
_symmetry_group_IT_number 62
_symmetry_cell_setting 'orthorhombic'
loop_
_space_group_symop_operation_xyz
x,y,z
1/2-x,-y,1/2+z
1/2+x,1/2-y,1/2-z
-x,1/2+y,-z
-x,-y,-z
1/2+x,y,1/2-z
1/2-x,1/2+y,1/2+z
x,1/2-y,z
loop_
_atom_site_type_symbol
_atom_site_label
_atom_site_fract_x
_atom_site_fract_y
_atom_site_fract_z
Si Si1 0.642462 0.925888 0.050881
Si Si2 0.297546 0.925507 0.400910
Si Si3 0.889107 0.075490 0.377820
Si Si4 0.277551 0.920702 0.225099
Si Si5 0.969965 0.077969 0.678069
Si Si6 0.382648 0.082055 0.670569
Si Si7 0.923247 0.925502 0.984851
O O1 0.646441 0.750000 0.057069
O O2 0.723331 0.991308 0.062342
O O3 0.589451 0.988003 0.118092
O O4 0.610883 0.978189 0.967736
O O5 0.294268 0.750000 0.405928
O O6 0.302945 0.975706 0.310710
O O7 0.366899 0.983512 0.449224
O O8 0.893631 0.250000 0.371946
O O9 0.814873 0.021870 0.339451
O O10 0.955447 0.006646 0.331483
O O11 0.299512 0.750000 0.212204
O O12 0.191974 0.943183 0.216507
O O13 0.982822 0.250000 0.660351
O O14 0.945902 0.051946 0.767145
O O15 0.387587 0.250000 0.638427
O O16 0.391539 0.969370 0.599369
O O17 0.932649 0.750000 0.988596
O O18 0.000000 0.000000 0.000000
#
# Coordination Sequence:
#
# PCOD8253259 Si02
#       7
#     8   8   8   8   8   8   8
#     4   9  17  35  60  84 111 147 191 235 284 345
#     4   9  18  36  61  84 107 149 200 240 283 345
#     4  11  23  35  54  87 123 150 182 234 297 349
#     4  10  20  38  63  87 111 149 203 246 283 344
#     4  10  20  37  61  85 112 151 194 234 280 348
#     4  10  21  39  63  87 113 150 200 249 295 348
#     4  11  24  40  61  88 123 161 202 247 297 354
#
# _framework density 19.654865000000001
#
# number of rings (size 3 to 8) (size 9 to 14) (size 15 to 20)
#    0.000    2.000    1.429    2.143    2.000    2.286 
#    0.000    1.429    0.000    3.429    0.000    0.000 
#    0.000    0.000    0.000    0.000    0.000    0.000 
#
# Total GULP energy -694530.713735 kJ/mol
# GULP energy per Si atom -12402.334174 kJ/mol
# Density = 1.961013 g / cm^3
# Si number density = 19.654865 Si / 1000 Ang^3
#
#
#
# Elastic Constant Matrix: (Units=GPa)
#
#
# Indices 1 2 3 4 5 6 
#
# 1 78.5977 23.0468 23.0527 0.0000 0.0000 0.0000
# 2 23.0468 48.2629 33.3626 0.0000 0.0000 0.0000
# 3 23.0527 33.3626 103.9565 0.0000 0.0000 0.0000
# 4 0.0000 0.0000 0.0000 29.3731 0.0000 0.0000
# 5 0.0000 0.0000 0.0000 0.0000 32.0728 0.0000
# 6 0.0000 0.0000 0.0000 0.0000 0.0000 27.7361
#
#
#
# Elastic Compliance Matrix: (Units=1/GPa)
#
#
# Indices 1 2 3 4 5 6 
#
# 1 0.014933 -0.006222 -0.001315 0.000000 0.000000 0.000000
# 2 -0.006222 0.029220 -0.007998 0.000000 0.000000 0.000000
# 3 -0.001315 -0.007998 0.012478 0.000000 0.000000 0.000000
# 4 0.000000 0.000000 0.000000 0.034045 0.000000 0.000000
# 5 0.000000 0.000000 0.000000 0.000000 0.031179 0.000000
# 6 0.000000 0.000000 0.000000 0.000000 0.000000 0.036054
#
#
# Mechanical properties :
#
#
# Convention : Reuss Voigt Hill
#
# Bulk Modulus (GPa) = 39.12136 43.30458 41.21297
# Shear Modulus (GPa) = 25.31678 27.92673 26.62175
#
# Velocity S-wave (km/s) = 3.59286 3.77351 3.68429
# Velocity P-wave (km/s) = 6.09581 6.40829 6.25400
#
# Compressibility (1/GPa) = 0.02556148
#
# Stress axis : x y z
#
# Youngs Moduli (GPa) = 66.96544 34.22361 80.14372
#
# Poissons Ratio (x) = 0.21295 0.10535
# Poissons Ratio (y) = 0.41667 0.64096
# Poissons Ratio (z) = 0.08803 0.27371
#
# Static dielectric constant tensor:
#      x y z
#    x 3.693880 0.000000 0.000000 
#    y 0.000000 3.263610 0.000000 
#    z 0.000000 0.000000 3.733440 
# 
# 
# High freq. dielectric constant tensor:
#      x y z
#    x 1.779720 0.000000 0.000000 
#    y 0.000000 1.729370 0.000000 
#    z 0.000000 0.000000 1.778710 
# 
# From -- ./inp_files/20294.got.cif
#   From: 2010.03.12/outbox.cif.g09.slc.cpg/sg62_11_cif.got.tgz:20294.got - 2010.04.10 19:12:36.
