data_PCOD8253386
_publ_section_title
;
Structure prediction by ZEFSAII (Michael W. Deem and Ramdas Pophale) SiO2 
 PCOD8253386
Probable space group: P N M A
;
_chemical_formula_sum "Si O2"
_cell_formula_units_Z 64
_cell_length_a 13.612849
_cell_length_b 12.578820
_cell_length_c 19.705085
_cell_angle_alpha 90.000000
_cell_angle_beta 90.000000
_cell_angle_gamma 90.000000
_cell_volume 3374.172195
_symmetry_space_group_name_H-M "P N M A"
_symmetry_group_IT_number 62
_symmetry_cell_setting 'orthorhombic'
loop_
_space_group_symop_operation_xyz
x,y,z
1/2-x,-y,1/2+z
1/2+x,1/2-y,1/2-z
-x,1/2+y,-z
-x,-y,-z
1/2+x,y,1/2-z
1/2-x,1/2+y,1/2+z
x,1/2-y,z
loop_
_atom_site_type_symbol
_atom_site_label
_atom_site_fract_x
_atom_site_fract_y
_atom_site_fract_z
Si Si1 0.940633 0.126070 0.139583
Si Si2 0.683390 0.870943 0.898103
Si Si3 0.371847 0.006202 0.603044
Si Si4 0.906315 0.488660 0.279731
Si Si5 0.281096 0.133182 0.717948
Si Si6 0.289296 0.373799 0.476733
Si Si7 0.927655 0.132280 0.666658
Si Si8 0.108061 0.524871 0.474494
O O1 0.973314 0.250000 0.139602
O O2 0.023322 0.051905 0.105324
O O3 0.920736 0.089781 0.216407
O O4 0.841004 0.111715 0.096245
O O5 0.689242 0.750000 0.878498
O O6 0.790367 0.917227 0.884874
O O7 0.601648 0.922541 0.849259
O O8 0.653196 0.886493 0.976042
O O9 0.360273 0.091227 0.663370
O O10 0.357260 0.066700 0.531850
O O11 0.809229 0.556419 0.270944
O O12 0.996629 0.567865 0.287237
O O13 0.245350 0.250000 0.693631
O O14 0.329075 0.143252 0.791094
O O15 0.279741 0.250000 0.496204
O O16 0.178975 0.421500 0.475378
O O17 0.970013 0.250000 0.649580
O O18 0.897588 0.070993 0.599749
O O19 0.000000 0.500000 0.500000
#
# Coordination Sequence:
#
# PCOD8253386 Si02
#       8
#     8   8   8   8   8   8   8   8
#     4  11  22  39  61  88 122 159 199 246 301 357
#     4  10  21  37  57  82 113 152 196 240 292 350
#     4  10  20  38  62  85 118 151 199 247 295 354
#     4  11  21  38  58  84 119 154 194 241 292 350
#     4  10  21  37  59  85 116 153 195 244 297 351
#     4  10  23  40  61  89 120 157 200 246 301 358
#     4  11  22  38  59  86 117 151 193 239 295 351
#     4  11  22  40  58  85 118 155 194 245 296 350
#
# _framework density 18.967614999999999
#
# number of rings (size 3 to 8) (size 9 to 14) (size 15 to 20)
#    0.000    1.500    2.500    3.000    0.000    1.000 
#    0.000    0.000    0.000    6.000    0.000    0.000 
#    0.000    0.000    0.000    0.000    0.000    0.000 
#
# Total GULP energy -793598.998450 kJ/mol
# GULP energy per Si atom -12399.984351 kJ/mol
# Density = 1.892444 g / cm^3
# Si number density = 18.967615 Si / 1000 Ang^3
#
#
#
# Elastic Constant Matrix: (Units=GPa)
#
#
# Indices 1 2 3 4 5 6 
#
# 1 82.6258 42.1484 38.9633 0.0000 0.0000 0.0000
# 2 42.1484 131.0823 39.6653 0.0000 0.0000 0.0000
# 3 38.9633 39.6653 95.5082 0.0000 0.0000 0.0000
# 4 0.0000 0.0000 0.0000 20.8818 0.0000 0.0000
# 5 0.0000 0.0000 0.0000 0.0000 29.1153 0.0000
# 6 0.0000 0.0000 0.0000 0.0000 0.0000 58.6021
#
#
#
# Elastic Compliance Matrix: (Units=1/GPa)
#
#
# Indices 1 2 3 4 5 6 
#
# 1 0.016435 -0.003724 -0.005158 0.000000 0.000000 0.000000
# 2 -0.003724 0.009569 -0.002455 0.000000 0.000000 0.000000
# 3 -0.005158 -0.002455 0.013594 0.000000 0.000000 0.000000
# 4 0.000000 0.000000 0.000000 0.047889 0.000000 0.000000
# 5 0.000000 0.000000 0.000000 0.000000 0.034346 0.000000
# 6 0.000000 0.000000 0.000000 0.000000 0.000000 0.017064
#
#
# Mechanical properties :
#
#
# Convention : Reuss Voigt Hill
#
# Bulk Modulus (GPa) = 59.08682 61.19672 60.14177
# Shear Modulus (GPa) = 29.90218 34.28244 32.09231
#
# Velocity S-wave (km/s) = 3.97481 4.25599 4.11780
# Velocity P-wave (km/s) = 7.23080 7.51566 7.37460
#
# Compressibility (1/GPa) = 0.01692425
#
# Stress axis : x y z
#
# Youngs Moduli (GPa) = 60.84720 104.50460 73.56064
#
# Poissons Ratio (x) = 0.38913 0.37944
# Poissons Ratio (y) = 0.22657 0.18059
# Poissons Ratio (z) = 0.31386 0.25656
#
# Static dielectric constant tensor:
#      x y z
#    x 14.338560 0.000000 0.000000 
#    y 0.000000 3.620390 0.000000 
#    z 0.000000 0.000000 3.753680 
# 
# 
# High freq. dielectric constant tensor:
#      x y z
#    x 1.734610 0.000000 0.000000 
#    y 0.000000 1.746710 0.000000 
#    z 0.000000 0.000000 1.748790 
# 
# From -- ./inp_files/24057.got.cif
#   From: 2010.03.12/outbox.cif.g09.slc.cpg/sg62_13_cif.got.tgz:24057.got - 2010.04.10 19:12:36.
