data_PCOD8253370
_publ_section_title
;
Structure prediction by ZEFSAII (Michael W. Deem and Ramdas Pophale) SiO2 
 PCOD8253370
Probable space group: P N M A
;
_chemical_formula_sum "Si O2"
_cell_formula_units_Z 40
_cell_length_a 10.229320
_cell_length_b 8.866459
_cell_length_c 21.763730
_cell_angle_alpha 90.000000
_cell_angle_beta 90.000000
_cell_angle_gamma 90.000000
_cell_volume 1973.923440
_symmetry_space_group_name_H-M "P N M A"
_symmetry_group_IT_number 62
_symmetry_cell_setting 'orthorhombic'
loop_
_space_group_symop_operation_xyz
x,y,z
1/2-x,-y,1/2+z
1/2+x,1/2-y,1/2-z
-x,1/2+y,-z
-x,-y,-z
1/2+x,y,1/2-z
1/2-x,1/2+y,1/2+z
x,1/2-y,z
loop_
_atom_site_type_symbol
_atom_site_label
_atom_site_fract_x
_atom_site_fract_y
_atom_site_fract_z
Si Si1 0.462961 0.428046 0.691839
Si Si2 0.328955 0.929099 0.210065
Si Si3 0.095535 0.924191 0.584200
Si Si4 0.444453 0.928094 0.438464
Si Si5 0.190056 0.423372 0.467147
O O1 0.473508 0.250000 0.691470
O O2 0.582940 0.489373 0.733318
O O3 0.322528 0.478606 0.719408
O O4 0.476849 0.486499 0.621682
O O5 0.340277 0.750000 0.201384
O O6 0.385976 0.009423 0.150891
O O7 0.136897 0.750000 0.581527
O O8 0.944929 0.947067 0.567536
O O9 0.185061 0.016015 0.536791
O O10 0.452085 0.750000 0.444515
O O11 0.500000 0.000000 0.500000
O O12 0.295333 0.980423 0.429361
O O13 0.233436 0.250000 0.470145
#
# Coordination Sequence:
#
# PCOD8253370 Si02
#       5
#     8   8   8   8   8
#     4   9  21  37  59  88 117 153 199 243 293 356
#     4  10  20  38  61  85 116 155 198 244 293 355
#     4  10  21  37  58  87 119 153 194 245 303 358
#     4  11  22  37  59  88 121 157 202 251 304 359
#     4  10  21  37  58  86 118 154 198 245 299 359
#
# _framework density 20.264211
#
# number of rings (size 3 to 8) (size 9 to 14) (size 15 to 20)
#    0.000    2.000    0.000    3.000    2.800    4.000 
#    0.000    4.000    0.000    0.000    0.000    0.000 
#    0.000    0.000    0.000    0.000    0.000    0.000 
#
# Total GULP energy -496032.123980 kJ/mol
# GULP energy per Si atom -12400.803100 kJ/mol
# Density = 2.021809 g / cm^3
# Si number density = 20.264211 Si / 1000 Ang^3
#
#
#
# Elastic Constant Matrix: (Units=GPa)
#
#
# Indices 1 2 3 4 5 6 
#
# 1 114.6991 44.5404 85.2850 0.0000 0.0000 0.0000
# 2 44.5404 43.6088 24.6198 0.0000 0.0000 0.0000
# 3 85.2850 24.6198 144.7469 0.0000 0.0000 0.0000
# 4 0.0000 0.0000 0.0000 31.3391 0.0000 0.0000
# 5 0.0000 0.0000 0.0000 0.0000 26.0139 0.0000
# 6 0.0000 0.0000 0.0000 0.0000 0.0000 29.5603
#
#
#
# Elastic Compliance Matrix: (Units=1/GPa)
#
#
# Indices 1 2 3 4 5 6 
#
# 1 0.024058 -0.018329 -0.011057 0.000000 0.000000 0.000000
# 2 -0.018329 0.039332 0.004110 0.000000 0.000000 0.000000
# 3 -0.011057 0.004110 0.012725 0.000000 0.000000 0.000000
# 4 0.000000 0.000000 0.000000 0.031909 0.000000 0.000000
# 5 0.000000 0.000000 0.000000 0.000000 0.038441 0.000000
# 6 0.000000 0.000000 0.000000 0.000000 0.000000 0.033829
#
#
# Mechanical properties :
#
#
# Convention : Reuss Voigt Hill
#
# Bulk Modulus (GPa) = 39.12282 67.99390 53.55836
# Shear Modulus (GPa) = 20.88838 27.28995 24.08916
#
# Velocity S-wave (km/s) = 3.21409 3.67373 3.45157
# Velocity P-wave (km/s) = 5.75518 7.18482 6.50937
#
# Compressibility (1/GPa) = 0.02556053
#
# Stress axis : x y z
#
# Youngs Moduli (GPa) = 41.56633 25.42470 78.58800
#
# Poissons Ratio (x) = 0.46602 0.86898
# Poissons Ratio (y) = 0.76188 -0.32298
# Poissons Ratio (z) = 0.45961 -0.10449
#
# Static dielectric constant tensor:
#      x y z
#    x 4.055520 0.000000 0.000000 
#    y 0.000000 3.544720 0.000000 
#    z 0.000000 0.000000 3.820720 
# 
# 
# High freq. dielectric constant tensor:
#      x y z
#    x 1.807140 0.000000 0.000000 
#    y 0.000000 1.773670 0.000000 
#    z 0.000000 0.000000 1.793470 
# 
# From -- ./inp_files/22795.got.cif
#   From: 2010.03.12/outbox.cif.g09.slc.cpg/sg62_12_cif.got.tgz:22795.got - 2010.04.10 19:12:36.
