data_PCOD8253804
_publ_section_title
;
Structure prediction by ZEFSAII (Michael W. Deem and Ramdas Pophale) SiO2 
 PCOD8253804
Probable space group: P N M A
;
_chemical_formula_sum "Si O2"
_cell_formula_units_Z 56
_cell_length_a 14.938602
_cell_length_b 9.036037
_cell_length_c 21.065808
_cell_angle_alpha 90.000000
_cell_angle_beta 90.000000
_cell_angle_gamma 90.000000
_cell_volume 2843.584111
_symmetry_space_group_name_H-M "P N M A"
_symmetry_group_IT_number 62
_symmetry_cell_setting 'orthorhombic'
loop_
_space_group_symop_operation_xyz
x,y,z
1/2-x,-y,1/2+z
1/2+x,1/2-y,1/2-z
-x,1/2+y,-z
-x,-y,-z
1/2+x,y,1/2-z
1/2-x,1/2+y,1/2+z
x,1/2-y,z
loop_
_atom_site_type_symbol
_atom_site_label
_atom_site_fract_x
_atom_site_fract_y
_atom_site_fract_z
Si Si1 0.742661 0.581780 0.533620
Si Si2 0.819405 0.922747 0.666765
Si Si3 0.057615 0.085112 0.132090
Si Si4 0.436687 0.576774 0.449455
Si Si5 0.819204 0.574732 0.263201
Si Si6 0.266762 0.080662 0.605557
Si Si7 0.505292 0.415741 0.230480
O O1 0.705767 0.750000 0.540456
O O2 0.810078 0.547376 0.591267
O O3 0.665264 0.462451 0.539684
O O4 0.785600 0.562933 0.462453
O O5 0.808946 0.750000 0.683393
O O6 0.921801 0.975968 0.679719
O O7 0.744461 0.006598 0.708766
O O8 0.047989 0.250000 0.103441
O O9 0.067409 0.089129 0.207230
O O10 0.143342 0.013170 0.099191
O O11 0.968356 0.989968 0.117848
O O12 0.500000 0.500000 0.500000
O O13 0.450479 0.750000 0.450296
O O14 0.816873 0.750000 0.254086
O O15 0.790143 0.525270 0.334270
O O16 0.921305 0.521439 0.258832
O O17 0.294609 0.250000 0.616997
O O18 0.470874 0.250000 0.213625
#
# Coordination Sequence:
#
# PCOD8253804 Si02
#       7
#     8   8   8   8   8   8   8
#     4  10  21  38  59  82 114 153 194 243 298 349
#     4  10  21  40  63  87 116 154 199 245 295 354
#     4  11  21  35  57  83 112 148 191 239 291 348
#     4  12  23  34  51  80 117 151 190 232 287 353
#     4  11  23  38  60  89 120 155 196 245 300 351
#     4  10  21  37  57  83 115 152 190 235 292 348
#     4  10  22  39  60  86 116 153 198 244 292 351
#
# _framework density 19.693456000000001
#
# number of rings (size 3 to 8) (size 9 to 14) (size 15 to 20)
#    0.000    1.429    2.857    3.000    0.000    6.286 
#    0.000    0.714    0.000    0.000    0.000    0.000 
#    0.000    0.000    0.000    0.000    0.000    0.000 
#
# Total GULP energy -694042.437921 kJ/mol
# GULP energy per Si atom -12393.614963 kJ/mol
# Density = 1.964863 g / cm^3
# Si number density = 19.693456 Si / 1000 Ang^3
#
#
#
# Elastic Constant Matrix: (Units=GPa)
#
#
# Indices 1 2 3 4 5 6 
#
# 1 67.5692 21.4890 24.3724 0.0000 0.0000 0.0000
# 2 21.4890 90.3003 24.5498 0.0000 0.0000 0.0000
# 3 24.3724 24.5498 120.3223 0.0000 0.0000 0.0000
# 4 0.0000 0.0000 0.0000 23.4656 0.0000 0.0000
# 5 0.0000 0.0000 0.0000 0.0000 31.1280 0.0000
# 6 0.0000 0.0000 0.0000 0.0000 0.0000 23.5297
#
#
#
# Elastic Compliance Matrix: (Units=1/GPa)
#
#
# Indices 1 2 3 4 5 6 
#
# 1 0.016825 -0.003258 -0.002743 0.000000 0.000000 0.000000
# 2 -0.003258 0.012355 -0.001861 0.000000 0.000000 0.000000
# 3 -0.002743 -0.001861 0.009246 0.000000 0.000000 0.000000
# 4 0.000000 0.000000 0.000000 0.042616 0.000000 0.000000
# 5 0.000000 0.000000 0.000000 0.000000 0.032125 0.000000
# 6 0.000000 0.000000 0.000000 0.000000 0.000000 0.042499
#
#
# Mechanical properties :
#
#
# Convention : Reuss Voigt Hill
#
# Bulk Modulus (GPa) = 44.04841 46.55712 45.30276
# Shear Modulus (GPa) = 27.93920 29.47670 28.70795
#
# Velocity S-wave (km/s) = 3.77066 3.87302 3.82218
# Velocity P-wave (km/s) = 6.43216 6.61004 6.52171
#
# Compressibility (1/GPa) = 0.02270229
#
# Stress axis : x y z
#
# Youngs Moduli (GPa) = 59.43407 80.93601 108.15021
#
# Poissons Ratio (x) = 0.26370 0.29670
# Poissons Ratio (y) = 0.19364 0.20126
# Poissons Ratio (z) = 0.16305 0.15062
#
# Static dielectric constant tensor:
#      x y z
#    x 3.511800 0.000000 0.000000 
#    y 0.000000 3.675080 0.000000 
#    z 0.000000 0.000000 4.250300 
# 
# 
# High freq. dielectric constant tensor:
#      x y z
#    x 1.737950 0.000000 0.000000 
#    y 0.000000 1.768190 0.000000 
#    z 0.000000 0.000000 1.785290 
# 
# From -- ./inp_files/27117.got.cif
#   From: 2010.03.12/outbox.cif.g09.slc.cpg/sg62_14_cif.got.tgz:27117.got - 2010.04.10 19:12:36.
