data_PCOD8253583
_publ_section_title
;
Structure prediction by ZEFSAII (Michael W. Deem and Ramdas Pophale) SiO2 
 PCOD8253583
Probable space group: P N M A
;
_chemical_formula_sum "Si O2"
_cell_formula_units_Z 64
_cell_length_a 17.382729
_cell_length_b 14.347316
_cell_length_c 12.350483
_cell_angle_alpha 90.000000
_cell_angle_beta 90.000000
_cell_angle_gamma 90.000000
_cell_volume 3080.154956
_symmetry_space_group_name_H-M "P N M A"
_symmetry_group_IT_number 62
_symmetry_cell_setting 'orthorhombic'
loop_
_space_group_symop_operation_xyz
x,y,z
1/2-x,-y,1/2+z
1/2+x,1/2-y,1/2-z
-x,1/2+y,-z
-x,-y,-z
1/2+x,y,1/2-z
1/2-x,1/2+y,1/2+z
x,1/2-y,z
loop_
_atom_site_type_symbol
_atom_site_label
_atom_site_fract_x
_atom_site_fract_y
_atom_site_fract_z
Si Si1 0.595135 0.025734 0.723844
Si Si2 0.731884 0.485961 0.222428
Si Si3 0.877430 0.645329 0.622466
Si Si4 0.145205 0.642202 0.380688
Si Si5 0.736717 0.355746 0.430007
Si Si6 0.428087 0.854770 0.470721
Si Si7 0.497707 0.645426 0.696900
Si Si8 0.031306 0.140950 0.586862
O O1 0.549585 0.076112 0.626294
O O2 0.585951 0.086571 0.830878
O O3 0.683304 0.016875 0.690270
O O4 0.561444 0.923208 0.744302
O O5 0.698428 0.418657 0.127684
O O6 0.678711 0.579351 0.218159
O O7 0.734002 0.433894 0.337249
O O8 0.849691 0.750000 0.599229
O O9 0.938617 0.613199 0.532232
O O10 0.917605 0.635801 0.739436
O O11 0.151365 0.750000 0.345011
O O12 0.190687 0.624395 0.492525
O O13 0.057401 0.611090 0.401622
O O14 0.741943 0.250000 0.381182
O O15 0.661151 0.365115 0.501671
O O16 0.445187 0.750000 0.431097
O O17 0.481509 0.878967 0.572526
O O18 0.530261 0.750000 0.711299
O O19 0.040978 0.250000 0.608825
#
# Coordination Sequence:
#
# PCOD8253583 Si02
#       8
#     8   8   8   8   8   8   8   8
#     4  12  25  37  62  95 129 162 208 258 313 387
#     4  12  24  36  64  95 125 160 207 261 321 370
#     4  10  22  43  66  91 126 164 208 264 318 371
#     4  10  23  44  67  92 128 171 217 262 314 387
#     4  10  21  40  64  91 123 165 213 258 312 381
#     4  10  20  41  65  84 118 166 212 252 305 374
#     4  10  22  40  62  88 120 164 212 262 313 366
#     4  10  24  43  66  95 128 170 211 259 322 377
#
# _framework density 20.778174
#
# number of rings (size 3 to 8) (size 9 to 14) (size 15 to 20)
#    0.000    1.500    2.500    1.875    3.500    2.500 
#    0.000    0.000    0.000    0.000    0.000    0.000 
#    0.000    0.000    0.000    0.000    0.000    0.000 
#
# Total GULP energy -793678.764030 kJ/mol
# GULP energy per Si atom -12401.230688 kJ/mol
# Density = 2.073088 g / cm^3
# Si number density = 20.778174 Si / 1000 Ang^3
#
#
#
# Elastic Constant Matrix: (Units=GPa)
#
#
# Indices 1 2 3 4 5 6 
#
# 1 94.7643 41.4124 10.2327 0.0000 0.0000 0.0000
# 2 41.4124 109.5966 52.7815 0.0000 0.0000 0.0000
# 3 10.2327 52.7815 81.5217 0.0000 0.0000 0.0000
# 4 0.0000 0.0000 0.0000 36.5120 0.0000 0.0000
# 5 0.0000 0.0000 0.0000 0.0000 9.8917 0.0000
# 6 0.0000 0.0000 0.0000 0.0000 0.0000 33.4171
#
#
#
# Elastic Compliance Matrix: (Units=1/GPa)
#
#
# Indices 1 2 3 4 5 6 
#
# 1 0.012914 -0.005956 0.002235 0.000000 0.000000 0.000000
# 2 -0.005956 0.016006 -0.009615 0.000000 0.000000 0.000000
# 3 0.002235 -0.009615 0.018212 0.000000 0.000000 0.000000
# 4 0.000000 0.000000 0.000000 0.027388 0.000000 0.000000
# 5 0.000000 0.000000 0.000000 0.000000 0.101095 0.000000
# 6 0.000000 0.000000 0.000000 0.000000 0.000000 0.029925
#
#
# Mechanical properties :
#
#
# Convention : Reuss Voigt Hill
#
# Bulk Modulus (GPa) = 48.87838 54.97066 51.92452
# Shear Modulus (GPa) = 20.91777 28.06122 24.48950
#
# Velocity S-wave (km/s) = 3.17632 3.67892 3.43682
# Velocity P-wave (km/s) = 6.08498 6.67528 6.38695
#
# Compressibility (1/GPa) = 0.02045894
#
# Stress axis : x y z
#
# Youngs Moduli (GPa) = 77.43509 62.47742 54.91017
#
# Poissons Ratio (x) = 0.37214 -0.12275
# Poissons Ratio (y) = 0.46123 0.52798
# Poissons Ratio (z) = -0.17310 0.60074
#
# Static dielectric constant tensor:
#      x y z
#    x 3.634520 0.000000 0.000000 
#    y 0.000000 3.968300 0.000000 
#    z 0.000000 0.000000 3.570520 
# 
# 
# High freq. dielectric constant tensor:
#      x y z
#    x 1.804030 0.000000 0.000000 
#    y 0.000000 1.829510 0.000000 
#    z 0.000000 0.000000 1.802820 
# 
# From -- ./inp_files/14332.got.cif
#   From: 2010.03.12/outbox.cif.g09.slc.cpg/sg62_8_cif.got.tgz:14332.got - 2010.04.10 19:12:36.
