data_PCOD8253946
_publ_section_title
;
Structure prediction by ZEFSAII (Michael W. Deem and Ramdas Pophale) SiO2 
 PCOD8253946
Probable space group: P N M A
;
_chemical_formula_sum "Si O2"
_cell_formula_units_Z 40
_cell_length_a 7.664999
_cell_length_b 8.560531
_cell_length_c 29.314540
_cell_angle_alpha 90.000000
_cell_angle_beta 90.000000
_cell_angle_gamma 90.000000
_cell_volume 1923.516387
_symmetry_space_group_name_H-M "P N M A"
_symmetry_group_IT_number 62
_symmetry_cell_setting 'orthorhombic'
loop_
_space_group_symop_operation_xyz
x,y,z
1/2-x,-y,1/2+z
1/2+x,1/2-y,1/2-z
-x,1/2+y,-z
-x,-y,-z
1/2+x,y,1/2-z
1/2-x,1/2+y,1/2+z
x,1/2-y,z
loop_
_atom_site_type_symbol
_atom_site_label
_atom_site_fract_x
_atom_site_fract_y
_atom_site_fract_z
Si Si1 0.673538 0.573941 0.206690
Si Si2 0.313815 0.933482 0.112156
Si Si3 0.822513 0.072822 0.293977
Si Si4 0.479955 0.567492 0.549903
Si Si5 0.217563 0.572814 0.393312
O O1 0.594821 0.750000 0.210141
O O2 0.529241 0.440310 0.201863
O O3 0.784231 0.538619 0.251257
O O4 0.782364 0.562575 0.159512
O O5 0.301647 0.750000 0.119663
O O6 0.514854 0.980908 0.101679
O O7 0.240528 0.013502 0.158521
O O8 0.189283 0.985538 0.071439
O O9 0.762746 0.250000 0.284833
O O10 0.500000 0.500000 0.500000
O O11 0.443318 0.750000 0.547957
O O12 0.658273 0.537835 0.577416
O O13 0.238303 0.750000 0.411285
#
# Coordination Sequence:
#
# PCOD8253946 Si02
#       5
#     8   8   8   8   8
#     4  10  21  38  59  85 121 167 209 250 309 376
#     4  10  22  43  67  91 126 167 210 259 318 382
#     4  11  22  36  57  89 125 161 208 259 308 367
#     4  12  26  43  67  96 127 164 211 264 322 380
#     4   9  21  42  66  91 123 165 211 260 316 377
#
# _framework density 20.795248999999998
#
# number of rings (size 3 to 8) (size 9 to 14) (size 15 to 20)
#    0.000    1.600    0.000    6.000    2.800    5.600 
#    0.000    0.000    0.000    0.000    0.000    0.000 
#    0.000    0.000    0.000    0.000    0.000    0.000 
#
# Total GULP energy -495875.979315 kJ/mol
# GULP energy per Si atom -12396.899483 kJ/mol
# Density = 2.074792 g / cm^3
# Si number density = 20.795249 Si / 1000 Ang^3
#
#
#
# Elastic Constant Matrix: (Units=GPa)
#
#
# Indices 1 2 3 4 5 6 
#
# 1 75.6238 22.4060 38.8536 0.0000 0.0000 0.0000
# 2 22.4060 85.9048 24.9715 0.0000 0.0000 0.0000
# 3 38.8536 24.9715 122.4725 0.0000 0.0000 0.0000
# 4 0.0000 0.0000 0.0000 35.5915 0.0000 0.0000
# 5 0.0000 0.0000 0.0000 0.0000 33.7142 0.0000
# 6 0.0000 0.0000 0.0000 0.0000 0.0000 33.3032
#
#
#
# Elastic Compliance Matrix: (Units=1/GPa)
#
#
# Indices 1 2 3 4 5 6 
#
# 1 0.016474 -0.002953 -0.004624 0.000000 0.000000 0.000000
# 2 -0.002953 0.012903 -0.001694 0.000000 0.000000 0.000000
# 3 -0.004624 -0.001694 0.009978 0.000000 0.000000 0.000000
# 4 0.000000 0.000000 0.000000 0.028097 0.000000 0.000000
# 5 0.000000 0.000000 0.000000 0.000000 0.029661 0.000000
# 6 0.000000 0.000000 0.000000 0.000000 0.000000 0.030027
#
#
# Mechanical properties :
#
#
# Convention : Reuss Voigt Hill
#
# Bulk Modulus (GPa) = 48.04742 50.71814 49.38278
# Shear Modulus (GPa) = 32.76120 33.70643 33.23382
#
# Velocity S-wave (km/s) = 3.97346 4.03037 4.00202
# Velocity P-wave (km/s) = 6.64878 6.78976 6.71964
#
# Compressibility (1/GPa) = 0.02081277
#
# Stress axis : x y z
#
# Youngs Moduli (GPa) = 60.70188 77.49901 100.22498
#
# Poissons Ratio (x) = 0.22882 0.46346
# Poissons Ratio (y) = 0.17923 0.16981
# Poissons Ratio (z) = 0.28070 0.13130
#
# Static dielectric constant tensor:
#      x y z
#    x 3.463900 0.000000 0.000000 
#    y 0.000000 3.663260 0.000000 
#    z 0.000000 0.000000 3.979170 
# 
# 
# High freq. dielectric constant tensor:
#      x y z
#    x 1.802170 0.000000 0.000000 
#    y 0.000000 1.818540 0.000000 
#    z 0.000000 0.000000 1.821580 
# 
# From -- ./inp_files/28605.got.cif
#   From: 2010.03.12/outbox.cif.g09.slc.cpg/sg62_15_cif.got.tgz:28605.got - 2010.04.10 19:12:36.
