data_PCOD8253011
_publ_section_title
;
Structure prediction by ZEFSAII (Michael W. Deem and Ramdas Pophale) SiO2 
 PCOD8253011
Probable space group: P N M A
;
_chemical_formula_sum "Si O2"
_cell_formula_units_Z 64
_cell_length_a 14.730000
_cell_length_b 8.774345
_cell_length_c 24.463343
_cell_angle_alpha 90.000000
_cell_angle_beta 90.000000
_cell_angle_gamma 90.000000
_cell_volume 3161.791721
_symmetry_space_group_name_H-M "P N M A"
_symmetry_group_IT_number 62
_symmetry_cell_setting 'orthorhombic'
loop_
_space_group_symop_operation_xyz
x,y,z
1/2-x,-y,1/2+z
1/2+x,1/2-y,1/2-z
-x,1/2+y,-z
-x,-y,-z
1/2+x,y,1/2-z
1/2-x,1/2+y,1/2+z
x,1/2-y,z
loop_
_atom_site_type_symbol
_atom_site_label
_atom_site_fract_x
_atom_site_fract_y
_atom_site_fract_z
Si Si1 0.321554 0.569909 0.209696
Si Si2 0.949676 0.582894 0.574132
Si Si3 0.876231 0.570510 0.775265
Si Si4 0.308412 0.068744 0.387920
Si Si5 0.054630 0.430641 0.812970
Si Si6 0.859137 0.074108 0.666296
Si Si7 0.784227 0.578123 0.501580
Si Si8 0.149920 0.579144 0.597069
O O1 0.309128 0.750000 0.211556
O O2 0.223694 0.492206 0.213075
O O3 0.388553 0.517213 0.258841
O O4 0.362900 0.521427 0.151324
O O5 0.925074 0.750000 0.599943
O O6 0.923537 0.446137 0.614432
O O7 0.889784 0.565773 0.519678
O O8 0.056266 0.574956 0.562714
O O9 0.878445 0.750000 0.784264
O O10 0.904220 0.523863 0.714183
O O11 0.951997 0.492434 0.813127
O O12 0.301892 0.250000 0.382402
O O13 0.282547 0.018065 0.449975
O O14 0.405276 0.005440 0.368647
O O15 0.240587 0.989514 0.345278
O O16 0.054264 0.250000 0.818472
O O17 0.852738 0.250000 0.683569
O O18 0.757302 0.750000 0.487050
O O19 0.773750 0.482656 0.445394
O O20 0.177329 0.750000 0.614306
#
# Coordination Sequence:
#
# PCOD8253011 Si02
#       8
#     8   8   8   8   8   8   8   8
#     4  11  24  41  60  85 120 158 197 242 293 352
#     4   9  19  34  52  79 114 152 195 239 288 348
#     4  12  24  38  59  84 117 156 196 241 293 354
#     4  10  20  36  58  83 113 149 190 236 286 340
#     4  11  23  39  62  90 119 152 194 242 294 351
#     4  11  20  32  52  80 113 149 190 235 285 341
#     4   9  19  35  55  80 113 154 195 239 290 343
#     4  11  22  35  54  81 114 153 197 241 292 350
#
# _framework density 20.241686999999999
#
# number of rings (size 3 to 8) (size 9 to 14) (size 15 to 20)
#    0.000    1.500    1.250    5.625    0.000    7.000 
#    0.000    0.000    0.000    0.750    0.000    0.000 
#    0.000    0.000    0.000    0.000    0.000    0.000 
#
# Total GULP energy -793320.100281 kJ/mol
# GULP energy per Si atom -12395.626567 kJ/mol
# Density = 2.019562 g / cm^3
# Si number density = 20.241687 Si / 1000 Ang^3
#
#
#
# Elastic Constant Matrix: (Units=GPa)
#
#
# Indices 1 2 3 4 5 6 
#
# 1 64.7008 19.5592 -3.9373 0.0000 0.0000 0.0000
# 2 19.5592 75.8829 18.8679 0.0000 0.0000 0.0000
# 3 -3.9373 18.8679 44.1960 0.0000 0.0000 0.0000
# 4 0.0000 0.0000 0.0000 31.8889 0.0000 0.0000
# 5 0.0000 0.0000 0.0000 0.0000 15.3450 0.0000
# 6 0.0000 0.0000 0.0000 0.0000 0.0000 28.7781
#
#
#
# Elastic Compliance Matrix: (Units=1/GPa)
#
#
# Indices 1 2 3 4 5 6 
#
# 1 0.017331 -0.005427 0.003861 0.000000 0.000000 0.000000
# 2 -0.005427 0.016443 -0.007503 0.000000 0.000000 0.000000
# 3 0.003861 -0.007503 0.026174 0.000000 0.000000 0.000000
# 4 0.000000 0.000000 0.000000 0.031359 0.000000 0.000000
# 5 0.000000 0.000000 0.000000 0.000000 0.065168 0.000000
# 6 0.000000 0.000000 0.000000 0.000000 0.000000 0.034749
#
#
# Mechanical properties :
#
#
# Convention : Reuss Voigt Hill
#
# Bulk Modulus (GPa) = 23.91832 28.19546 26.05689
# Shear Modulus (GPa) = 22.39156 25.22171 23.80663
#
# Velocity S-wave (km/s) = 3.32958 3.53374 3.43318
# Velocity P-wave (km/s) = 5.15980 5.53258 5.34944
#
# Compressibility (1/GPa) = 0.04180895
#
# Stress axis : x y z
#
# Youngs Moduli (GPa) = 57.69876 60.81714 38.20637
#
# Poissons Ratio (x) = 0.33007 -0.14751
# Poissons Ratio (y) = 0.31315 0.28667
# Poissons Ratio (z) = -0.22277 0.45632
#
# Static dielectric constant tensor:
#      x y z
#    x 3.554640 0.000000 0.000000 
#    y 0.000000 3.729980 0.000000 
#    z 0.000000 0.000000 3.567490 
# 
# 
# High freq. dielectric constant tensor:
#      x y z
#    x 1.770130 0.000000 0.000000 
#    y 0.000000 1.798760 0.000000 
#    z 0.000000 0.000000 1.778290 
# 
# From -- ./inp_files/29823.got.cif
#   From: 2010.03.12/outbox.cif.g09.slc.cpg/sg62_15_cif.got.tgz:29823.got - 2010.04.10 19:12:36.
