data_PCOD8253328
_publ_section_title
;
Structure prediction by ZEFSAII (Michael W. Deem and Ramdas Pophale) SiO2 
 PCOD8253328
Probable space group: P N M A
;
_chemical_formula_sum "Si O2"
_cell_formula_units_Z 48
_cell_length_a 17.200778
_cell_length_b 14.552370
_cell_length_c 9.706713
_cell_angle_alpha 90.000000
_cell_angle_beta 90.000000
_cell_angle_gamma 90.000000
_cell_volume 2429.707577
_symmetry_space_group_name_H-M "P N M A"
_symmetry_group_IT_number 62
_symmetry_cell_setting 'orthorhombic'
loop_
_space_group_symop_operation_xyz
x,y,z
1/2-x,-y,1/2+z
1/2+x,1/2-y,1/2-z
-x,1/2+y,-z
-x,-y,-z
1/2+x,y,1/2-z
1/2-x,1/2+y,1/2+z
x,1/2-y,z
loop_
_atom_site_type_symbol
_atom_site_label
_atom_site_fract_x
_atom_site_fract_y
_atom_site_fract_z
Si Si1 0.932235 0.560254 0.434066
Si Si2 0.443321 0.148042 0.468088
Si Si3 0.847431 0.989359 0.160975
Si Si4 0.116127 0.143782 0.071623
Si Si5 0.938816 0.148776 0.714708
Si Si6 0.833007 0.974305 0.677731
O O1 0.884097 0.509789 0.313069
O O2 0.869236 0.586521 0.552057
O O3 0.000000 0.500000 0.500000
O O4 0.979833 0.645646 0.370309
O O5 0.410020 0.250000 0.439497
O O6 0.525113 0.134229 0.390452
O O7 0.461853 0.132988 0.627769
O O8 0.380494 0.076114 0.420133
O O9 0.756064 0.002680 0.159981
O O10 0.866332 0.895415 0.080335
O O11 0.142993 0.250000 0.075943
O O12 0.161325 0.083270 0.182801
O O13 0.902048 0.250000 0.690716
O O14 0.876791 0.071973 0.673440
#
# Coordination Sequence:
#
# PCOD8253328 Si02
#       6
#     8   8   8   8   8   8
#     4  10  22  38  60  91 126 165 213 259 315 372
#     4  10  20  37  65  92 115 163 217 257 300 367
#     4  12  22  40  65  90 131 170 207 262 318 383
#     4  11  23  41  66  92 122 166 217 259 305 376
#     4  10  20  39  64  90 122 164 214 261 311 378
#     4  11  24  40  61  97 130 167 203 264 332 380
#
# _framework density 19.755462999999999
#
# number of rings (size 3 to 8) (size 9 to 14) (size 15 to 20)
#    0.000    1.333    3.333    3.500    0.000    2.000 
#    0.000    5.000    0.000    0.000    0.000    0.000 
#    0.000    0.000    0.000    0.000    0.000    0.000 
#
# Total GULP energy -595004.366229 kJ/mol
# GULP energy per Si atom -12395.924296 kJ/mol
# Density = 1.971050 g / cm^3
# Si number density = 19.755463 Si / 1000 Ang^3
#
#
#
# Elastic Constant Matrix: (Units=GPa)
#
#
# Indices 1 2 3 4 5 6 
#
# 1 125.5438 48.2540 36.1522 0.0000 0.0000 0.0000
# 2 48.2540 100.6048 34.6139 0.0000 0.0000 0.0000
# 3 36.1522 34.6139 96.8562 0.0000 0.0000 0.0000
# 4 0.0000 0.0000 0.0000 1425.2132 0.0000 0.0000
# 5 0.0000 0.0000 0.0000 0.0000 28.5501 0.0000
# 6 0.0000 0.0000 0.0000 0.0000 0.0000 8.8256
#
#
#
# Elastic Compliance Matrix: (Units=1/GPa)
#
#
# Indices 1 2 3 4 5 6 
#
# 1 0.010215 -0.004090 -0.002351 0.000000 0.000000 0.000000
# 2 -0.004090 0.012971 -0.003109 0.000000 0.000000 0.000000
# 3 -0.002351 -0.003109 0.012313 0.000000 0.000000 0.000000
# 4 0.000000 0.000000 0.000000 0.000702 0.000000 0.000000
# 5 0.000000 0.000000 0.000000 0.000000 0.035026 0.000000
# 6 0.000000 0.000000 0.000000 0.000000 0.000000 0.113307
#
#
# Mechanical properties :
#
#
# Convention : Reuss Voigt Hill
#
# Bulk Modulus (GPa) = 60.98025 62.33835 61.65930
# Shear Modulus (GPa) = 23.91201 306.11677 165.01439
#
# Velocity S-wave (km/s) = 3.48285 12.46152 9.14931
# Velocity P-wave (km/s) = 6.86355 15.44914 11.95375
#
# Compressibility (1/GPa) = 0.01639875
#
# Stress axis : x y z
#
# Youngs Moduli (GPa) = 97.89992 77.09230 81.21452
#
# Poissons Ratio (x) = 0.31534 0.19092
# Poissons Ratio (y) = 0.40046 0.25249
# Poissons Ratio (z) = 0.23014 0.23967
#
# Static dielectric constant tensor:
#      x y z
#    x 3.568610 0.000000 0.000000 
#    y 0.000000 3.637250 0.000000 
#    z 0.000000 0.000000 3.870920 
# 
# 
# High freq. dielectric constant tensor:
#      x y z
#    x 1.768850 0.000000 0.000000 
#    y 0.000000 1.762090 0.000000 
#    z 0.000000 0.000000 1.779720 
# 
# From -- ./inp_files/7670.got.cif
#   From: 2010.03.12/outbox.cif.g09.slc.cpg/sg62_4_cif.got.tgz:7670.got - 2010.04.10 19:12:36.
