data_PCOD8253353
_publ_section_title
;
Structure prediction by ZEFSAII (Michael W. Deem and Ramdas Pophale) SiO2 
 PCOD8253353
Probable space group: P N M A
;
_chemical_formula_sum "Si O2"
_cell_formula_units_Z 56
_cell_length_a 21.629485
_cell_length_b 9.568977
_cell_length_c 14.418911
_cell_angle_alpha 90.000000
_cell_angle_beta 90.000000
_cell_angle_gamma 90.000000
_cell_volume 2984.311489
_symmetry_space_group_name_H-M "P N M A"
_symmetry_group_IT_number 62
_symmetry_cell_setting 'orthorhombic'
loop_
_space_group_symop_operation_xyz
x,y,z
1/2-x,-y,1/2+z
1/2+x,1/2-y,1/2-z
-x,1/2+y,-z
-x,-y,-z
1/2+x,y,1/2-z
1/2-x,1/2+y,1/2+z
x,1/2-y,z
loop_
_atom_site_type_symbol
_atom_site_label
_atom_site_fract_x
_atom_site_fract_y
_atom_site_fract_z
Si Si1 0.388808 0.588125 0.081101
Si Si2 0.764666 0.909344 0.692589
Si Si3 0.504154 0.413355 0.780007
Si Si4 0.040374 0.087339 0.929213
Si Si5 0.267125 0.409284 0.100966
Si Si6 0.182064 0.086789 0.931411
Si Si7 0.899159 0.588215 0.629731
O O1 0.372416 0.750000 0.095696
O O2 0.440361 0.537158 0.153394
O O3 0.327238 0.503405 0.099980
O O4 0.414545 0.560733 0.977889
O O5 0.751032 0.750000 0.663417
O O6 0.768982 0.925876 0.802804
O O7 0.829054 0.960228 0.648550
O O8 0.709053 0.004346 0.656039
O O9 0.490886 0.250000 0.793877
O O10 0.521683 0.450574 0.675303
O O11 0.442910 0.497030 0.805674
O O12 0.029684 0.250000 0.949790
O O13 0.111199 0.044241 0.945302
O O14 0.000000 0.000000 0.000000
O O15 0.288161 0.250000 0.084262
O O16 0.219166 0.458444 0.022876
O O17 0.187983 0.250000 0.908983
O O18 0.908026 0.750000 0.656855
#
# Coordination Sequence:
#
# PCOD8253353 Si02
#       7
#     8   8   8   8   8   8   8
#     4  10  20  38  60  85 116 150 187 232 285 341
#     4  10  21  37  57  86 119 148 189 238 283 339
#     4  10  22  38  57  83 115 151 193 237 282 339
#     4  10  23  41  60  84 115 153 197 240 285 340
#     4  10  21  35  57  86 115 148 186 230 282 338
#     4  10  21  39  61  84 113 151 189 231 284 338
#     4  10  21  36  58  86 115 150 189 233 287 338
#
# _framework density 18.764797000000002
#
# number of rings (size 3 to 8) (size 9 to 14) (size 15 to 20)
#    0.000    2.000    1.429    1.286    2.000    4.571 
#    0.000    0.000    0.000    0.000    0.000    0.000 
#    0.000    0.000    0.000    0.000    0.000    0.000 
#
# Total GULP energy -694691.792460 kJ/mol
# GULP energy per Si atom -12405.210580 kJ/mol
# Density = 1.872209 g / cm^3
# Si number density = 18.764797 Si / 1000 Ang^3
#
#
#
# Elastic Constant Matrix: (Units=GPa)
#
#
# Indices 1 2 3 4 5 6 
#
# 1 128.4987 57.0625 46.9252 0.0000 0.0000 0.0000
# 2 57.0625 54.9963 36.1438 0.0000 0.0000 0.0000
# 3 46.9252 36.1438 89.6987 0.0000 0.0000 0.0000
# 4 0.0000 0.0000 0.0000 30.8431 0.0000 0.0000
# 5 0.0000 0.0000 0.0000 0.0000 30.2475 0.0000
# 6 0.0000 0.0000 0.0000 0.0000 0.0000 38.5877
#
#
#
# Elastic Compliance Matrix: (Units=1/GPa)
#
#
# Indices 1 2 3 4 5 6 
#
# 1 0.014718 -0.013888 -0.002103 0.000000 0.000000 0.000000
# 2 -0.013888 0.037838 -0.007981 0.000000 0.000000 0.000000
# 3 -0.002103 -0.007981 0.015465 0.000000 0.000000 0.000000
# 4 0.000000 0.000000 0.000000 0.032422 0.000000 0.000000
# 5 0.000000 0.000000 0.000000 0.000000 0.033061 0.000000
# 6 0.000000 0.000000 0.000000 0.000000 0.000000 0.025915
#
#
# Mechanical properties :
#
#
# Convention : Reuss Voigt Hill
#
# Bulk Modulus (GPa) = 49.81268 61.49520 55.65394
# Shear Modulus (GPa) = 23.35838 28.80647 26.08243
#
# Velocity S-wave (km/s) = 3.53200 3.92233 3.73227
# Velocity P-wave (km/s) = 6.57547 7.30449 6.94955
#
# Compressibility (1/GPa) = 0.02007521
#
# Stress axis : x y z
#
# Youngs Moduli (GPa) = 67.94587 26.42813 64.66327
#
# Poissons Ratio (x) = 0.36704 0.13600
# Poissons Ratio (y) = 0.94365 0.51610
# Poissons Ratio (z) = 0.14290 0.21093
#
# Static dielectric constant tensor:
#      x y z
#    x 3.426660 0.000000 0.000000 
#    y 0.000000 3.389690 0.000000 
#    z 0.000000 0.000000 3.591370 
# 
# 
# High freq. dielectric constant tensor:
#      x y z
#    x 1.732200 0.000000 0.000000 
#    y 0.000000 1.722840 0.000000 
#    z 0.000000 0.000000 1.742520 
# 
# From -- ./inp_files/20259.got.cif
#   From: 2010.03.12/outbox.cif.g09.slc.cpg/sg62_11_cif.got.tgz:20259.got - 2010.04.10 19:12:36.
