data_PCOD8253308
_publ_section_title
;
Structure prediction by ZEFSAII (Michael W. Deem and Ramdas Pophale) SiO2 
 PCOD8253308
Probable space group: P N M A
;
_chemical_formula_sum "Si O2"
_cell_formula_units_Z 64
_cell_length_a 13.699975
_cell_length_b 19.031650
_cell_length_c 11.913645
_cell_angle_alpha 90.000000
_cell_angle_beta 90.000000
_cell_angle_gamma 90.000000
_cell_volume 3106.281941
_symmetry_space_group_name_H-M "P N M A"
_symmetry_group_IT_number 62
_symmetry_cell_setting 'orthorhombic'
loop_
_space_group_symop_operation_xyz
x,y,z
1/2-x,-y,1/2+z
1/2+x,1/2-y,1/2-z
-x,1/2+y,-z
-x,-y,-z
1/2+x,y,1/2-z
1/2-x,1/2+y,1/2+z
x,1/2-y,z
loop_
_atom_site_type_symbol
_atom_site_label
_atom_site_fract_x
_atom_site_fract_y
_atom_site_fract_z
Si Si1 0.779773 0.327945 0.229179
Si Si2 0.368458 0.595196 0.907396
Si Si3 0.941490 0.666558 0.373838
Si Si4 0.983529 0.502939 0.131457
Si Si5 0.333105 0.825829 0.563185
Si Si6 0.827360 0.891058 0.174866
Si Si7 0.388563 0.059872 0.816227
Si Si8 0.503774 0.853580 0.717495
O O1 0.731818 0.250000 0.213213
O O2 0.739896 0.381415 0.134032
O O3 0.744039 0.359840 0.349285
O O4 0.894952 0.313391 0.232549
O O5 0.382663 0.509950 0.896938
O O6 0.448000 0.637854 0.835001
O O7 0.379407 0.624458 0.032884
O O8 0.961328 0.750000 0.400472
O O9 0.876033 0.664633 0.260488
O O10 0.041901 0.621797 0.364218
O O11 0.886844 0.537536 0.181606
O O12 0.962859 0.426463 0.170803
O O13 0.078148 0.536504 0.191962
O O14 0.000000 0.500000 0.000000
O O15 0.294839 0.750000 0.524095
O O16 0.343383 0.871802 0.454157
O O17 0.436929 0.816286 0.624989
O O18 0.715081 0.903562 0.201953
#
# Coordination Sequence:
#
# PCOD8253308 Si02
#       8
#     8   8   8   8   8   8   8   8
#     4  10  21  36  60  94 123 163 209 259 327 381
#     4  10  22  43  62  94 128 162 212 271 318 375
#     4  11  25  44  64  91 132 173 212 265 324 391
#     4  10  20  40  63  90 126 160 208 265 325 372
#     4  10  21  37  57  86 123 157 203 259 310 375
#     4  11  23  41  62  91 125 167 212 261 314 390
#     4  10  24  41  66  97 122 169 221 264 322 390
#     4  10  20  37  63  88 122 160 204 261 320 376
#
# _framework density 20.60341
#
# number of rings (size 3 to 8) (size 9 to 14) (size 15 to 20)
#    0.000    1.750    1.250    2.250    1.750    4.500 
#    0.000    0.000    0.000    0.000    0.000    0.000 
#    0.000    0.000    0.000    0.000    0.000    0.000 
#
# Total GULP energy -793002.401508 kJ/mol
# GULP energy per Si atom -12390.662524 kJ/mol
# Density = 2.055652 g / cm^3
# Si number density = 20.603410 Si / 1000 Ang^3
#
#
#
# Elastic Constant Matrix: (Units=GPa)
#
#
# Indices 1 2 3 4 5 6 
#
# 1 128.7313 24.7867 29.0150 0.0000 0.0000 0.0000
# 2 24.7867 105.1031 21.4790 0.0000 0.0000 0.0000
# 3 29.0150 21.4790 98.6486 0.0000 0.0000 0.0000
# 4 0.0000 0.0000 0.0000 55.7070 0.0000 0.0000
# 5 0.0000 0.0000 0.0000 0.0000 18.1431 0.0000
# 6 0.0000 0.0000 0.0000 0.0000 0.0000 39.3984
#
#
#
# Elastic Compliance Matrix: (Units=1/GPa)
#
#
# Indices 1 2 3 4 5 6 
#
# 1 0.008562 -0.001575 -0.002175 0.000000 0.000000 0.000000
# 2 -0.001575 0.010247 -0.001768 0.000000 0.000000 0.000000
# 3 -0.002175 -0.001768 0.011162 0.000000 0.000000 0.000000
# 4 0.000000 0.000000 0.000000 0.017951 0.000000 0.000000
# 5 0.000000 0.000000 0.000000 0.000000 0.055117 0.000000
# 6 0.000000 0.000000 0.000000 0.000000 0.000000 0.025382
#
#
# Mechanical properties :
#
#
# Convention : Reuss Voigt Hill
#
# Bulk Modulus (GPa) = 52.81320 53.67160 53.24240
# Shear Modulus (GPa) = 34.30111 39.79653 37.04882
#
# Velocity S-wave (km/s) = 4.08466 4.39971 4.24511
# Velocity P-wave (km/s) = 6.92349 7.20530 7.06580
#
# Compressibility (1/GPa) = 0.01893466
#
# Stress axis : x y z
#
# Youngs Moduli (GPa) = 116.80068 97.58852 89.59158
#
# Poissons Ratio (x) = 0.15366 0.19489
# Poissons Ratio (y) = 0.18391 0.15840
# Poissons Ratio (z) = 0.25408 0.17254
#
# Static dielectric constant tensor:
#      x y z
#    x 3.694880 0.000000 0.000000 
#    y 0.000000 3.936570 0.000000 
#    z 0.000000 0.000000 3.698440 
# 
# 
# High freq. dielectric constant tensor:
#      x y z
#    x 1.805620 0.000000 0.000000 
#    y 0.000000 1.815900 0.000000 
#    z 0.000000 0.000000 1.799890 
# 
# From -- ./inp_files/13576.got.cif
#   From: 2010.03.12/outbox.cif.g09.slc.cpg/sg62_7_cif.got.tgz:13576.got - 2010.04.10 19:12:36.
