data_PCOD8253768
_publ_section_title
;
Structure prediction by ZEFSAII (Michael W. Deem and Ramdas Pophale) SiO2 
 PCOD8253768
Probable space group: P N M A
;
_chemical_formula_sum "Si O2"
_cell_formula_units_Z 56
_cell_length_a 7.926093
_cell_length_b 15.782326
_cell_length_c 23.490159
_cell_angle_alpha 90.000000
_cell_angle_beta 90.000000
_cell_angle_gamma 90.000000
_cell_volume 2938.435283
_symmetry_space_group_name_H-M "P N M A"
_symmetry_group_IT_number 62
_symmetry_cell_setting 'orthorhombic'
loop_
_space_group_symop_operation_xyz
x,y,z
1/2-x,-y,1/2+z
1/2+x,1/2-y,1/2-z
-x,1/2+y,-z
-x,-y,-z
1/2+x,y,1/2-z
1/2-x,1/2+y,1/2+z
x,1/2-y,z
loop_
_atom_site_type_symbol
_atom_site_label
_atom_site_fract_x
_atom_site_fract_y
_atom_site_fract_z
Si Si1 0.733171 0.945743 0.105605
Si Si2 0.590494 0.841919 0.933038
Si Si3 0.637058 0.471247 0.917507
Si Si4 0.596010 0.341875 0.515574
Si Si5 0.157405 0.345106 0.792085
Si Si6 0.276151 0.344825 0.670881
Si Si7 0.254277 0.094999 0.466696
O O1 0.545029 0.925827 0.083022
O O2 0.742194 0.915610 0.171004
O O3 0.768429 0.045082 0.093671
O O4 0.881486 0.899861 0.070477
O O5 0.604320 0.750000 0.899757
O O6 0.734043 0.842456 0.980027
O O7 0.403674 0.841157 0.961709
O O8 0.619133 0.929495 0.897089
O O9 0.756508 0.416487 0.876944
O O10 0.713623 0.470271 0.981337
O O11 0.561955 0.250000 0.541838
O O12 0.434039 0.362653 0.476901
O O13 0.234270 0.250000 0.801468
O O14 0.163837 0.369426 0.725628
O O15 0.965715 0.346769 0.809105
O O16 0.228591 0.250000 0.648304
#
# Coordination Sequence:
#
# PCOD8253768 Si02
#       7
#     8   8   8   8   8   8   8
#     4  11  20  34  53  77 110 144 185 228 277 333
#     4  10  21  37  52  77 111 143 185 231 272 328
#     4  11  21  36  55  79 110 152 185 229 284 327
#     4  11  21  32  51  77 107 150 185 222 276 325
#     4  10  21  37  54  80 112 146 184 228 274 334
#     4  10  22  37  56  81 112 147 187 228 277 331
#     4  11  21  36  52  79 113 147 187 232 278 334
#
# _framework density 19.057762
#
# number of rings (size 3 to 8) (size 9 to 14) (size 15 to 20)
#    0.000    1.429    2.857    3.857    2.000    4.571 
#    0.000    0.000    0.000    0.000    0.000   10.000 
#    0.000    0.000    0.000    0.000    0.000    0.000 
#
# Total GULP energy -693754.928305 kJ/mol
# GULP energy per Si atom -12388.480863 kJ/mol
# Density = 1.901439 g / cm^3
# Si number density = 19.057762 Si / 1000 Ang^3
#
#
#
# Elastic Constant Matrix: (Units=GPa)
#
#
# Indices 1 2 3 4 5 6 
#
# 1 64.6008 25.4286 -0.6701 0.0000 0.0000 0.0000
# 2 25.4286 120.9961 35.2585 0.0000 0.0000 0.0000
# 3 -0.6701 35.2585 54.0785 0.0000 0.0000 0.0000
# 4 0.0000 0.0000 0.0000 29.1006 0.0000 0.0000
# 5 0.0000 0.0000 0.0000 0.0000 25.5787 0.0000
# 6 0.0000 0.0000 0.0000 0.0000 0.0000 10.0030
#
#
#
# Elastic Compliance Matrix: (Units=1/GPa)
#
#
# Indices 1 2 3 4 5 6 
#
# 1 0.017311 -0.004569 0.003193 0.000000 0.000000 0.000000
# 2 -0.004569 0.011409 -0.007495 0.000000 0.000000 0.000000
# 3 0.003193 -0.007495 0.023418 0.000000 0.000000 0.000000
# 4 0.000000 0.000000 0.000000 0.034364 0.000000 0.000000
# 5 0.000000 0.000000 0.000000 0.000000 0.039095 0.000000
# 6 0.000000 0.000000 0.000000 0.000000 0.000000 0.099970
#
#
# Mechanical properties :
#
#
# Convention : Reuss Voigt Hill
#
# Bulk Modulus (GPa) = 29.07238 39.96771 34.52004
# Shear Modulus (GPa) = 19.62527 24.91367 22.26947
#
# Velocity S-wave (km/s) = 3.21250 3.61954 3.42208
# Velocity P-wave (km/s) = 5.38964 6.20367 5.81093
#
# Compressibility (1/GPa) = 0.03439691
#
# Stress axis : x y z
#
# Youngs Moduli (GPa) = 57.76632 87.65042 42.70237
#
# Poissons Ratio (x) = 0.40044 -0.13636
# Poissons Ratio (y) = 0.26391 0.32006
# Poissons Ratio (z) = -0.18446 0.65695
#
# Static dielectric constant tensor:
#      x y z
#    x 3.691790 0.000000 0.000000 
#    y 0.000000 3.833550 0.000000 
#    z 0.000000 0.000000 3.404570 
# 
# 
# High freq. dielectric constant tensor:
#      x y z
#    x 1.765900 0.000000 0.000000 
#    y 0.000000 1.736690 0.000000 
#    z 0.000000 0.000000 1.690380 
# 
# From -- ./inp_files/25996.got.cif
#   From: 2010.03.12/outbox.cif.g09.slc.cpg/sg62_13_cif.got.tgz:25996.got - 2010.04.10 19:12:36.
