data_PCOD8253893
_publ_section_title
;
Structure prediction by ZEFSAII (Michael W. Deem and Ramdas Pophale) SiO2 
 PCOD8253893
Probable space group: P N M A
;
_chemical_formula_sum "Si O2"
_cell_formula_units_Z 48
_cell_length_a 20.022883
_cell_length_b 8.392567
_cell_length_c 14.354106
_cell_angle_alpha 90.000000
_cell_angle_beta 90.000000
_cell_angle_gamma 90.000000
_cell_volume 2412.112591
_symmetry_space_group_name_H-M "P N M A"
_symmetry_group_IT_number 62
_symmetry_cell_setting 'orthorhombic'
loop_
_space_group_symop_operation_xyz
x,y,z
1/2-x,-y,1/2+z
1/2+x,1/2-y,1/2-z
-x,1/2+y,-z
-x,-y,-z
1/2+x,y,1/2-z
1/2-x,1/2+y,1/2+z
x,1/2-y,z
loop_
_atom_site_type_symbol
_atom_site_label
_atom_site_fract_x
_atom_site_fract_y
_atom_site_fract_z
Si Si1 0.928224 0.566569 0.706379
Si Si2 0.568186 0.433275 0.816543
Si Si3 0.631254 0.435831 0.009120
Si Si4 0.684788 0.935200 0.324483
Si Si5 0.308208 0.066174 0.288243
Si Si6 0.723998 0.065806 0.516788
O O1 0.911089 0.750000 0.725670
O O2 0.907915 0.516173 0.602047
O O3 0.887881 0.459293 0.779530
O O4 0.006753 0.538160 0.720045
O O5 0.547214 0.250000 0.810215
O O6 0.584409 0.481737 0.922619
O O7 0.632070 0.461555 0.752124
O O8 0.651031 0.250000 0.007086
O O9 0.697835 0.538666 0.999924
O O10 0.702238 0.750000 0.333534
O O11 0.738618 0.018124 0.258239
O O12 0.683429 0.015015 0.425551
O O13 0.322801 0.250000 0.267406
O O14 0.303035 0.039027 0.398274
O O15 0.711151 0.250000 0.539091
#
# Coordination Sequence:
#
# PCOD8253893 Si02
#       6
#     8   8   8   8   8   8
#     4  11  23  40  62  92 129 169 211 256 313 374
#     4  11  23  40  62  92 129 169 211 256 313 374
#     4  10  21  37  61  91 129 166 205 255 309 369
#     4  12  24  41  64  92 126 165 210 259 311 370
#     4  12  24  41  64  92 126 165 210 259 311 370
#     4  12  24  39  64  95 125 162 209 259 315 369
#
# _framework density 19.899569
#
# number of rings (size 3 to 8) (size 9 to 14) (size 15 to 20)
#    0.000    0.667    3.333    6.000    0.000    1.333 
#    0.000    0.833    0.000    0.000    0.000    0.000 
#    0.000    0.000    0.000    0.000    0.000    0.000 
#
# Total GULP energy -595639.637369 kJ/mol
# GULP energy per Si atom -12409.159112 kJ/mol
# Density = 1.985428 g / cm^3
# Si number density = 19.899569 Si / 1000 Ang^3
#
#
#
# Elastic Constant Matrix: (Units=GPa)
#
#
# Indices 1 2 3 4 5 6 
#
# 1 66.8398 5.1821 15.2398 0.0000 0.0000 0.0000
# 2 5.1821 69.3497 8.4870 0.0000 0.0000 0.0000
# 3 15.2398 8.4870 78.0462 0.0000 0.0000 0.0000
# 4 0.0000 0.0000 0.0000 29.1475 0.0000 0.0000
# 5 0.0000 0.0000 0.0000 0.0000 27.7718 0.0000
# 6 0.0000 0.0000 0.0000 0.0000 0.0000 33.3642
#
#
#
# Elastic Compliance Matrix: (Units=1/GPa)
#
#
# Indices 1 2 3 4 5 6 
#
# 1 0.015703 -0.000809 -0.002978 0.000000 0.000000 0.000000
# 2 -0.000809 0.014656 -0.001436 0.000000 0.000000 0.000000
# 3 -0.002978 -0.001436 0.013551 0.000000 0.000000 0.000000
# 4 0.000000 0.000000 0.000000 0.034308 0.000000 0.000000
# 5 0.000000 0.000000 0.000000 0.000000 0.036008 0.000000
# 6 0.000000 0.000000 0.000000 0.000000 0.000000 0.029972
#
#
# Mechanical properties :
#
#
# Convention : Reuss Voigt Hill
#
# Bulk Modulus (GPa) = 29.88335 30.22814 30.05575
# Shear Modulus (GPa) = 30.15717 30.41182 30.28449
#
# Velocity S-wave (km/s) = 3.89713 3.91354 3.90534
# Velocity P-wave (km/s) = 5.94136 5.97030 5.95585
#
# Compressibility (1/GPa) = 0.03346345
#
# Stress axis : x y z
#
# Youngs Moduli (GPa) = 63.68244 68.23230 73.79738
#
# Poissons Ratio (x) = 0.05519 0.21979
# Poissons Ratio (y) = 0.05151 0.10596
# Poissons Ratio (z) = 0.18966 0.09797
#
# Static dielectric constant tensor:
#      x y z
#    x 3.441890 0.000000 0.000000 
#    y 0.000000 3.681530 0.000000 
#    z 0.000000 0.000000 3.756690 
# 
# 
# High freq. dielectric constant tensor:
#      x y z
#    x 1.768610 0.000000 0.000000 
#    y 0.000000 1.786330 0.000000 
#    z 0.000000 0.000000 1.780930 
# 
# From -- ./inp_files/19649.got.cif
#   From: 2010.03.12/outbox.cif.g09.slc.cpg/sg62_10_cif.got.tgz:19649.got - 2010.04.10 19:12:36.
