data_PCOD8253540
_publ_section_title
;
Structure prediction by ZEFSAII (Michael W. Deem and Ramdas Pophale) SiO2 
 PCOD8253540
Probable space group: P N M A
;
_chemical_formula_sum "Si O2"
_cell_formula_units_Z 56
_cell_length_a 15.393429
_cell_length_b 9.043723
_cell_length_c 19.776683
_cell_angle_alpha 90.000000
_cell_angle_beta 90.000000
_cell_angle_gamma 90.000000
_cell_volume 2753.189326
_symmetry_space_group_name_H-M "P N M A"
_symmetry_group_IT_number 62
_symmetry_cell_setting 'orthorhombic'
loop_
_space_group_symop_operation_xyz
x,y,z
1/2-x,-y,1/2+z
1/2+x,1/2-y,1/2-z
-x,1/2+y,-z
-x,-y,-z
1/2+x,y,1/2-z
1/2-x,1/2+y,1/2+z
x,1/2-y,z
loop_
_atom_site_type_symbol
_atom_site_label
_atom_site_fract_x
_atom_site_fract_y
_atom_site_fract_z
Si Si1 0.329346 0.573411 0.427081
Si Si2 0.413843 0.088317 0.008379
Si Si3 0.495806 0.927141 0.217583
Si Si4 0.510324 0.922232 0.638833
Si Si5 0.834358 0.575357 0.373165
Si Si6 0.840372 0.089496 0.638378
Si Si7 0.321423 0.580131 0.582827
O O1 0.342285 0.750000 0.419092
O O2 0.416184 0.486712 0.409460
O O3 0.254518 0.514584 0.373614
O O4 0.305620 0.534454 0.504566
O O5 0.430010 0.250000 0.041850
O O6 0.374055 0.115112 0.936196
O O7 0.500000 0.000000 0.000000
O O8 0.351278 0.989012 0.052912
O O9 0.498876 0.750000 0.216578
O O10 0.408868 0.981343 0.178218
O O11 0.584624 0.993102 0.182468
O O12 0.489606 0.988168 0.292005
O O13 0.526677 0.750000 0.653519
O O14 0.420969 0.949828 0.600193
O O15 0.831868 0.750000 0.373711
O O16 0.736747 0.512199 0.362123
O O17 0.825171 0.250000 0.672655
O O18 0.295578 0.750000 0.593022
#
# Coordination Sequence:
#
# PCOD8253540 Si02
#       7
#     8   8   8   8   8   8   8
#     4  10  20  39  66  90 115 156 197 241 304 360
#     4  11  19  33  56  87 125 159 193 242 300 355
#     4  10  22  41  60  84 121 163 201 236 288 367
#     4  11  25  42  59  85 119 158 204 253 300 347
#     4  11  22  36  60  93 122 155 201 246 296 360
#     4   9  18  35  60  87 117 152 194 237 290 356
#     4  10  22  41  64  89 121 156 193 248 312 357
#
# _framework density 20.340047999999999
#
# number of rings (size 3 to 8) (size 9 to 14) (size 15 to 20)
#    0.000    1.714    2.857    1.714    0.000    4.000 
#    0.000    5.000    0.000    0.000    0.000    0.000 
#    0.000    0.000    0.000    0.000    0.000    0.000 
#
# Total GULP energy -693804.297676 kJ/mol
# GULP energy per Si atom -12389.362458 kJ/mol
# Density = 2.029375 g / cm^3
# Si number density = 20.340048 Si / 1000 Ang^3
#
#
#
# Elastic Constant Matrix: (Units=GPa)
#
#
# Indices 1 2 3 4 5 6 
#
# 1 136.6314 43.7701 29.5170 0.0000 0.0000 0.0000
# 2 43.7701 40.6290 17.0155 0.0000 0.0000 0.0000
# 3 29.5170 17.0155 65.1367 0.0000 0.0000 0.0000
# 4 0.0000 0.0000 0.0000 24.6143 0.0000 0.0000
# 5 0.0000 0.0000 0.0000 0.0000 57.8021 0.0000
# 6 0.0000 0.0000 0.0000 0.0000 0.0000 20.6496
#
#
#
# Elastic Compliance Matrix: (Units=1/GPa)
#
#
# Indices 1 2 3 4 5 6 
#
# 1 0.011452 -0.011413 -0.002208 0.000000 0.000000 0.000000
# 2 -0.011413 0.039010 -0.005019 0.000000 0.000000 0.000000
# 3 -0.002208 -0.005019 0.017664 0.000000 0.000000 0.000000
# 4 0.000000 0.000000 0.000000 0.040627 0.000000 0.000000
# 5 0.000000 0.000000 0.000000 0.000000 0.017300 0.000000
# 6 0.000000 0.000000 0.000000 0.000000 0.000000 0.048427
#
#
# Mechanical properties :
#
#
# Convention : Reuss Voigt Hill
#
# Bulk Modulus (GPa) = 32.41843 47.00024 39.70933
# Shear Modulus (GPa) = 22.51830 30.75285 26.63558
#
# Velocity S-wave (km/s) = 3.33091 3.89258 3.62265
# Velocity P-wave (km/s) = 5.54672 6.58485 6.08796
#
# Compressibility (1/GPa) = 0.03084665
#
# Stress axis : x y z
#
# Youngs Moduli (GPa) = 87.32038 25.63459 56.61216
#
# Poissons Ratio (x) = 0.29256 0.12502
# Poissons Ratio (y) = 0.99656 0.28412
# Poissons Ratio (z) = 0.19283 0.12865
#
# Static dielectric constant tensor:
#      x y z
#    x 3.995770 0.000000 0.000000 
#    y 0.000000 3.520950 0.000000 
#    z 0.000000 0.000000 3.539050 
# 
# 
# High freq. dielectric constant tensor:
#      x y z
#    x 1.821350 0.000000 0.000000 
#    y 0.000000 1.772960 0.000000 
#    z 0.000000 0.000000 1.780160 
# 
# From -- ./inp_files/27204.got.cif
#   From: 2010.03.12/outbox.cif.g09.slc.cpg/sg62_14_cif.got.tgz:27204.got - 2010.04.10 19:12:36.
