data_PCOD8253593
_publ_section_title
;
Structure prediction by ZEFSAII (Michael W. Deem and Ramdas Pophale) SiO2 
 PCOD8253593
Probable space group: P N M A
;
_chemical_formula_sum "Si O2"
_cell_formula_units_Z 28
_cell_length_a 7.720975
_cell_length_b 10.241594
_cell_length_c 15.973964
_cell_angle_alpha 90.000000
_cell_angle_beta 90.000000
_cell_angle_gamma 90.000000
_cell_volume 1263.142661
_symmetry_space_group_name_H-M "P N M A"
_symmetry_group_IT_number 62
_symmetry_cell_setting 'orthorhombic'
loop_
_space_group_symop_operation_xyz
x,y,z
1/2-x,-y,1/2+z
1/2+x,1/2-y,1/2-z
-x,1/2+y,-z
-x,-y,-z
1/2+x,y,1/2-z
1/2-x,1/2+y,1/2+z
x,1/2-y,z
loop_
_atom_site_type_symbol
_atom_site_label
_atom_site_fract_x
_atom_site_fract_y
_atom_site_fract_z
Si Si1 0.547878 0.985036 0.163335
Si Si2 0.679839 0.605110 0.334825
Si Si3 0.477615 0.250000 0.524688
Si Si4 0.857932 0.250000 0.550746
Si Si5 0.344540 0.750000 0.913897
O O1 0.343698 0.984988 0.142770
O O2 0.566716 0.958907 0.261953
O O3 0.645568 0.877448 0.108498
O O4 0.626217 0.125040 0.143362
O O5 0.748789 0.750000 0.307133
O O6 0.562065 0.620992 0.418114
O O7 0.679039 0.250000 0.497287
O O8 0.354760 0.250000 0.443843
O O9 0.027328 0.250000 0.493183
#
# Coordination Sequence:
#
# PCOD8253593 Si02
#       5
#     8   8   4   4   4
#     4  12  23  43  71 101 137 178 225 286 331 401
#     4  10  20  41  69  99 124 176 240 272 309 402
#     4  10  23  43  73 102 128 180 237 273 321 416
#     4  12  21  43  73  94 129 185 227 271 331 403
#     4  12  28  44  62 106 153 165 214 294 360 383
#
# _framework density 22.166933
#
# number of rings (size 3 to 8) (size 9 to 14) (size 15 to 20)
#    0.857    0.000    5.714    2.571    0.000    2.286 
#    5.143    0.000    0.000    0.000    0.000    0.000 
#    0.000    0.000    0.000    0.000    0.000    0.000 
#
# Total GULP energy -347223.236515 kJ/mol
# GULP energy per Si atom -12400.829876 kJ/mol
# Density = 2.211648 g / cm^3
# Si number density = 22.166933 Si / 1000 Ang^3
#
#
#
# Elastic Constant Matrix: (Units=GPa)
#
#
# Indices 1 2 3 4 5 6 
#
# 1 93.3869 -12.6287 -19.1776 0.0000 0.0000 0.0000
# 2 -12.6287 106.9666 11.7210 0.0000 0.0000 0.0000
# 3 -19.1776 11.7210 40.0808 0.0000 0.0000 0.0000
# 4 0.0000 0.0000 0.0000 15.9823 0.0000 0.0000
# 5 0.0000 0.0000 0.0000 0.0000 36.8291 0.0000
# 6 0.0000 0.0000 0.0000 0.0000 0.0000 12.6465
#
#
#
# Elastic Compliance Matrix: (Units=1/GPa)
#
#
# Indices 1 2 3 4 5 6 
#
# 1 0.011942 0.000810 0.005477 0.000000 0.000000 0.000000
# 2 0.000810 0.009713 -0.002453 0.000000 0.000000 0.000000
# 3 0.005477 -0.002453 0.028288 0.000000 0.000000 0.000000
# 4 0.000000 0.000000 0.000000 0.062569 0.000000 0.000000
# 5 0.000000 0.000000 0.000000 0.000000 0.027152 0.000000
# 6 0.000000 0.000000 0.000000 0.000000 0.000000 0.079073
#
#
# Mechanical properties :
#
#
# Convention : Reuss Voigt Hill
#
# Bulk Modulus (GPa) = 17.35765 22.25152 19.80459
# Shear Modulus (GPa) = 21.71330 30.45956 26.08643
#
# Velocity S-wave (km/s) = 3.13315 3.71091 3.43420
# Velocity P-wave (km/s) = 4.57561 5.33114 4.96776
#
# Compressibility (1/GPa) = 0.05761148
#
# Stress axis : x y z
#
# Youngs Moduli (GPa) = 83.73494 102.95368 35.35107
#
# Poissons Ratio (x) = -0.08337 -0.19363
# Poissons Ratio (y) = -0.06781 0.08672
# Poissons Ratio (z) = -0.45864 0.25254
#
# Static dielectric constant tensor:
#      x y z
#    x 3.850640 0.000000 0.000000 
#    y 0.000000 3.788140 0.000000 
#    z 0.000000 0.000000 3.717210 
# 
# 
# High freq. dielectric constant tensor:
#      x y z
#    x 1.877770 0.000000 0.000000 
#    y 0.000000 1.852000 0.000000 
#    z 0.000000 0.000000 1.856390 
# 
# From -- ./inp_files/21810.got.cif
#   From: 2010.03.12/outbox.cif.g09.slc.cpg/sg62_11_cif.got.tgz:21810.got - 2010.04.10 19:12:36.
