data_PCOD8253637
_publ_section_title
;
Structure prediction by ZEFSAII (Michael W. Deem and Ramdas Pophale) SiO2 
 PCOD8253637
Probable space group: P N M A
;
_chemical_formula_sum "Si O2"
_cell_formula_units_Z 64
_cell_length_a 22.719503
_cell_length_b 9.165001
_cell_length_c 15.491394
_cell_angle_alpha 90.000000
_cell_angle_beta 90.000000
_cell_angle_gamma 90.000000
_cell_volume 3225.684172
_symmetry_space_group_name_H-M "P N M A"
_symmetry_group_IT_number 62
_symmetry_cell_setting 'orthorhombic'
loop_
_space_group_symop_operation_xyz
x,y,z
1/2-x,-y,1/2+z
1/2+x,1/2-y,1/2-z
-x,1/2+y,-z
-x,-y,-z
1/2+x,y,1/2-z
1/2-x,1/2+y,1/2+z
x,1/2-y,z
loop_
_atom_site_type_symbol
_atom_site_label
_atom_site_fract_x
_atom_site_fract_y
_atom_site_fract_z
Si Si1 0.923402 0.578030 0.669993
Si Si2 0.442262 0.411019 0.176055
Si Si3 0.381155 0.588571 0.314411
Si Si4 0.559475 0.586065 0.013175
Si Si5 0.736950 0.076522 0.604084
Si Si6 0.819206 0.422339 0.952441
Si Si7 0.826741 0.419087 0.755598
Si Si8 0.061533 0.417850 0.988807
O O1 0.916376 0.750000 0.661169
O O2 0.899733 0.500294 0.581622
O O3 0.886097 0.515711 0.749580
O O4 0.991105 0.527637 0.679522
O O5 0.444617 0.250000 0.216021
O O6 0.398597 0.506005 0.229756
O O7 0.412116 0.408692 0.081587
O O8 0.365953 0.750000 0.283356
O O9 0.322706 0.518824 0.352970
O O10 0.431987 0.585064 0.385680
O O11 0.547705 0.750000 0.047204
O O12 0.500000 0.500000 0.000000
O O13 0.738052 0.250000 0.585503
O O14 0.786110 0.030787 0.674415
O O15 0.733893 0.992249 0.511212
O O16 0.825218 0.250000 0.972449
O O17 0.800477 0.446769 0.851492
O O18 0.882891 0.499345 0.967734
O O19 0.842823 0.250000 0.744624
O O20 0.058977 0.250000 0.024053
O O21 0.000000 0.500000 0.000000
#
# Coordination Sequence:
#
# PCOD8253637 Si02
#       8
#     8   8   8   8   8   8   8   8
#     4  10  21  35  53  82 114 147 190 236 286 341
#     4   9  19  33  51  79 114 146 182 229 278 335
#     4   9  19  34  54  78 106 145 188 227 278 339
#     4   9  17  32  51  73 107 147 184 224 277 333
#     4   9  20  42  62  80 112 152 191 238 291 343
#     4  10  21  38  61  89 117 152 195 242 294 351
#     4  10  22  40  62  85 117 154 192 241 296 352
#     4  10  21  36  55  83 118 155 191 234 287 348
#
# _framework density 19.840751999999998
#
# number of rings (size 3 to 8) (size 9 to 14) (size 15 to 20)
#    0.000    2.500    0.000    3.000    1.750    7.000 
#    2.250    0.000    0.000    0.000    0.000    0.000 
#    0.000    0.000    0.000    0.000    0.000    0.000 
#
# Total GULP energy -792873.829522 kJ/mol
# GULP energy per Si atom -12388.653586 kJ/mol
# Density = 1.979559 g / cm^3
# Si number density = 19.840752 Si / 1000 Ang^3
#
#
#
# Elastic Constant Matrix: (Units=GPa)
#
#
# Indices 1 2 3 4 5 6 
#
# 1 35.8233 17.1268 21.8376 0.0000 0.0000 0.0000
# 2 17.1268 94.5485 47.2357 0.0000 0.0000 0.0000
# 3 21.8376 47.2357 106.8548 0.0000 0.0000 0.0000
# 4 0.0000 0.0000 0.0000 38.1147 0.0000 0.0000
# 5 0.0000 0.0000 0.0000 0.0000 27.1972 0.0000
# 6 0.0000 0.0000 0.0000 0.0000 0.0000 26.3964
#
#
#
# Elastic Compliance Matrix: (Units=1/GPa)
#
#
# Indices 1 2 3 4 5 6 
#
# 1 0.032677 -0.003315 -0.005213 0.000000 0.000000 0.000000
# 2 -0.003315 0.013911 -0.005472 0.000000 0.000000 0.000000
# 3 -0.005213 -0.005472 0.012843 0.000000 0.000000 0.000000
# 4 0.000000 0.000000 0.000000 0.026237 0.000000 0.000000
# 5 0.000000 0.000000 0.000000 0.000000 0.036768 0.000000
# 6 0.000000 0.000000 0.000000 0.000000 0.000000 0.037884
#
#
# Mechanical properties :
#
#
# Convention : Reuss Voigt Hill
#
# Bulk Modulus (GPa) = 31.81519 45.51408 38.66463
# Shear Modulus (GPa) = 25.15140 28.41010 26.78075
#
# Velocity S-wave (km/s) = 3.56429 3.78816 3.67793
# Velocity P-wave (km/s) = 5.74534 6.49023 6.12911
#
# Compressibility (1/GPa) = 0.03143153
#
# Stress axis : x y z
#
# Youngs Moduli (GPa) = 30.60227 71.88680 77.86553
#
# Poissons Ratio (x) = 0.23831 0.40589
# Poissons Ratio (y) = 0.10145 0.42607
# Poissons Ratio (z) = 0.15952 0.39335
#
# Static dielectric constant tensor:
#      x y z
#    x 3.845930 0.000000 0.000000 
#    y 0.000000 -1.053270 0.000000 
#    z 0.000000 0.000000 4.698320 
# 
# 
# High freq. dielectric constant tensor:
#      x y z
#    x 1.745580 0.000000 0.000000 
#    y 0.000000 1.778410 0.000000 
#    z 0.000000 0.000000 1.781110 
# 
# From -- ./inp_files/20910.got.cif
#   From: 2010.03.12/outbox.cif.g09.slc.cpg/sg62_11_cif.got.tgz:20910.got - 2010.04.10 19:12:36.
