data_PCOD8253243
_publ_section_title
;
Structure prediction by ZEFSAII (Michael W. Deem and Ramdas Pophale) SiO2 
 PCOD8253243
Probable space group: P N M A
;
_chemical_formula_sum "Si O2"
_cell_formula_units_Z 40
_cell_length_a 9.285919
_cell_length_b 15.431426
_cell_length_c 14.090451
_cell_angle_alpha 90.000000
_cell_angle_beta 90.000000
_cell_angle_gamma 90.000000
_cell_volume 2019.090780
_symmetry_space_group_name_H-M "P N M A"
_symmetry_group_IT_number 62
_symmetry_cell_setting 'orthorhombic'
loop_
_space_group_symop_operation_xyz
x,y,z
1/2-x,-y,1/2+z
1/2+x,1/2-y,1/2-z
-x,1/2+y,-z
-x,-y,-z
1/2+x,y,1/2-z
1/2-x,1/2+y,1/2+z
x,1/2-y,z
loop_
_atom_site_type_symbol
_atom_site_label
_atom_site_fract_x
_atom_site_fract_y
_atom_site_fract_z
Si Si1 0.371493 0.653783 0.384212
Si Si2 0.951936 0.151792 0.066642
Si Si3 0.555592 0.501424 0.311370
Si Si4 0.092652 0.935723 0.387780
Si Si5 0.710483 0.439982 0.955091
O O1 0.417229 0.750000 0.351207
O O2 0.415396 0.639618 0.494197
O O3 0.450974 0.583690 0.320115
O O4 0.199832 0.644439 0.368361
O O5 0.943756 0.250000 0.105958
O O6 0.803944 0.131357 0.010729
O O7 0.975685 0.086152 0.154155
O O8 0.589911 0.495832 0.199768
O O9 0.700472 0.516538 0.370158
O O10 0.934446 0.897642 0.411481
O O11 0.163142 0.983942 0.476018
#
# Coordination Sequence:
#
# PCOD8253243 Si02
#       5
#     8   8   8   8   8
#     4  10  20  37  60  87 119 157 198 246 301 357
#     4  10  20  39  64  85 116 163 206 243 295 361
#     4  11  20  39  62  87 121 160 201 241 296 363
#     4  11  21  35  61  89 121 154 195 251 300 348
#     4  10  21  37  59  88 117 156 198 245 301 349
#
# _framework density 19.810896
#
# number of rings (size 3 to 8) (size 9 to 14) (size 15 to 20)
#    0.000    1.600    4.000    2.400    0.000    1.600 
#    0.000    5.000    0.000    1.200    0.000    0.000 
#    0.000    0.000    0.000    0.000    0.000    0.000 
#
# Total GULP energy -495911.478126 kJ/mol
# GULP energy per Si atom -12397.786953 kJ/mol
# Density = 1.976581 g / cm^3
# Si number density = 19.810896 Si / 1000 Ang^3
#
#
#
# Elastic Constant Matrix: (Units=GPa)
#
#
# Indices 1 2 3 4 5 6 
#
# 1 149.2609 49.7194 45.2674 0.0000 0.0000 0.0000
# 2 49.7194 98.2267 17.2698 0.0000 0.0000 0.0000
# 3 45.2674 17.2698 70.2293 0.0000 0.0000 0.0000
# 4 0.0000 0.0000 0.0000 11.9984 0.0000 0.0000
# 5 0.0000 0.0000 0.0000 0.0000 18.6995 0.0000
# 6 0.0000 0.0000 0.0000 0.0000 0.0000 20.5704
#
#
#
# Elastic Compliance Matrix: (Units=1/GPa)
#
#
# Indices 1 2 3 4 5 6 
#
# 1 0.009593 -0.003939 -0.005215 0.000000 0.000000 0.000000
# 2 -0.003939 0.012258 -0.000475 0.000000 0.000000 0.000000
# 3 -0.005215 -0.000475 0.017717 0.000000 0.000000 0.000000
# 4 0.000000 0.000000 0.000000 0.083344 0.000000 0.000000
# 5 0.000000 0.000000 0.000000 0.000000 0.053477 0.000000
# 6 0.000000 0.000000 0.000000 0.000000 0.000000 0.048614
#
#
# Mechanical properties :
#
#
# Convention : Reuss Voigt Hill
#
# Bulk Modulus (GPa) = 49.23673 60.24777 54.74225
# Shear Modulus (GPa) = 19.91777 23.95103 21.93440
#
# Velocity S-wave (km/s) = 3.17424 3.48081 3.33105
# Velocity P-wave (km/s) = 6.19207 6.82878 6.51820
#
# Compressibility (1/GPa) = 0.02031004
#
# Stress axis : x y z
#
# Youngs Moduli (GPa) = 104.23907 81.58004 56.44199
#
# Poissons Ratio (x) = 0.32134 0.29434
# Poissons Ratio (y) = 0.41060 0.02683
# Poissons Ratio (z) = 0.54360 0.03878
#
# Static dielectric constant tensor:
#      x y z
#    x 4.014220 0.000000 0.000000 
#    y 0.000000 3.365800 0.000000 
#    z 0.000000 0.000000 3.531760 
# 
# 
# High freq. dielectric constant tensor:
#      x y z
#    x 1.788300 0.000000 0.000000 
#    y 0.000000 1.746300 0.000000 
#    z 0.000000 0.000000 1.762850 
# 
# From -- ./inp_files/16644.got.cif
#   From: 2010.03.12/outbox.cif.g09.slc.cpg/sg62_9_cif.got.tgz:16644.got - 2010.04.10 19:12:36.
