data_PCOD8253534
_publ_section_title
;
Structure prediction by ZEFSAII (Michael W. Deem and Ramdas Pophale) SiO2 
 PCOD8253534
Probable space group: P N M A
;
_chemical_formula_sum "Si O2"
_cell_formula_units_Z 32
_cell_length_a 5.226607
_cell_length_b 18.462602
_cell_length_c 14.943709
_cell_angle_alpha 90.000000
_cell_angle_beta 90.000000
_cell_angle_gamma 90.000000
_cell_volume 1442.019573
_symmetry_space_group_name_H-M "P N M A"
_symmetry_group_IT_number 62
_symmetry_cell_setting 'orthorhombic'
loop_
_space_group_symop_operation_xyz
x,y,z
1/2-x,-y,1/2+z
1/2+x,1/2-y,1/2-z
-x,1/2+y,-z
-x,-y,-z
1/2+x,y,1/2-z
1/2-x,1/2+y,1/2+z
x,1/2-y,z
loop_
_atom_site_type_symbol
_atom_site_label
_atom_site_fract_x
_atom_site_fract_y
_atom_site_fract_z
Si Si1 0.158592 0.330913 0.864733
Si Si2 0.346741 0.593735 0.117045
Si Si3 0.427552 0.331488 0.038873
Si Si4 0.882363 0.060382 0.308960
O O1 0.138217 0.250000 0.824747
O O2 0.415923 0.370412 0.827489
O O3 0.911576 0.377092 0.837447
O O4 0.180359 0.327960 0.973521
O O5 0.355652 0.507372 0.123884
O O6 0.358687 0.619417 0.012894
O O7 0.532794 0.250000 0.055801
O O8 0.353761 0.366905 0.133058
O O9 0.160784 0.059137 0.264415
#
# Coordination Sequence:
#
# PCOD8253534 Si02
#       4
#     8   8   8   8
#     4   9  18  34  66  94 113 146 204 266 300 339
#     4  10  20  39  65  89 122 161 212 257 294 362
#     4   9  22  41  68  93 118 161 215 260 300 357
#     4  12  27  41  59  92 134 169 196 246 320 380
#
# _framework density 22.191099999999999
#
# number of rings (size 3 to 8) (size 9 to 14) (size 15 to 20)
#    1.500    0.500    0.000    3.750    3.500    2.000 
#    0.000    0.000    0.000   25.500    0.000    0.000 
#    0.000    0.000    0.000    0.000    0.000    0.000 
#
# Total GULP energy -396563.012507 kJ/mol
# GULP energy per Si atom -12392.594141 kJ/mol
# Density = 2.214059 g / cm^3
# Si number density = 22.191100 Si / 1000 Ang^3
#
#
#
# Elastic Constant Matrix: (Units=GPa)
#
#
# Indices 1 2 3 4 5 6 
#
# 1 129.6070 14.8558 0.6674 0.0000 0.0000 0.0000
# 2 14.8558 148.9634 55.4539 0.0000 0.0000 0.0000
# 3 0.6674 55.4539 61.1615 0.0000 0.0000 0.0000
# 4 0.0000 0.0000 0.0000 10.1553 0.0000 0.0000
# 5 0.0000 0.0000 0.0000 0.0000 30.3464 0.0000
# 6 0.0000 0.0000 0.0000 0.0000 0.0000 28.5676
#
#
#
# Elastic Compliance Matrix: (Units=1/GPa)
#
#
# Indices 1 2 3 4 5 6 
#
# 1 0.007841 -0.001132 0.000941 0.000000 0.000000 0.000000
# 2 -0.001132 0.010297 -0.009324 0.000000 0.000000 0.000000
# 3 0.000941 -0.009324 0.024793 0.000000 0.000000 0.000000
# 4 0.000000 0.000000 0.000000 0.098471 0.000000 0.000000
# 5 0.000000 0.000000 0.000000 0.000000 0.032953 0.000000
# 6 0.000000 0.000000 0.000000 0.000000 0.000000 0.035005
#
#
# Mechanical properties :
#
#
# Convention : Reuss Voigt Hill
#
# Bulk Modulus (GPa) = 41.83892 53.52070 47.67981
# Shear Modulus (GPa) = 21.15452 31.73084 26.44268
#
# Velocity S-wave (km/s) = 3.09089 3.78549 3.45569
# Velocity P-wave (km/s) = 5.62432 6.57853 6.12005
#
# Compressibility (1/GPa) = 0.02390119
#
# Stress axis : x y z
#
# Youngs Moduli (GPa) = 127.54186 97.11744 40.33336
#
# Poissons Ratio (x) = 0.10996 -0.03795
# Poissons Ratio (y) = 0.14441 0.37605
# Poissons Ratio (z) = -0.12002 0.90548
#
# Static dielectric constant tensor:
#      x y z
#    x 3.779110 0.000000 0.000000 
#    y 0.000000 3.880850 0.000000 
#    z 0.000000 0.000000 3.565170 
# 
# 
# High freq. dielectric constant tensor:
#      x y z
#    x 1.863260 0.000000 0.000000 
#    y 0.000000 1.875490 0.000000 
#    z 0.000000 0.000000 1.854840 
# 
# From -- ./inp_files/16080.got.cif
#   From: 2010.03.12/outbox.cif.g09.slc.cpg/sg62_9_cif.got.tgz:16080.got - 2010.04.10 19:12:36.
