data_PCOD8253670
_publ_section_title
;
Structure prediction by ZEFSAII (Michael W. Deem and Ramdas Pophale) SiO2 
 PCOD8253670
Probable space group: P N M A
;
_chemical_formula_sum "Si O2"
_cell_formula_units_Z 48
_cell_length_a 16.746479
_cell_length_b 17.680905
_cell_length_c 8.253420
_cell_angle_alpha 90.000000
_cell_angle_beta 90.000000
_cell_angle_gamma 90.000000
_cell_volume 2443.779098
_symmetry_space_group_name_H-M "P N M A"
_symmetry_group_IT_number 62
_symmetry_cell_setting 'orthorhombic'
loop_
_space_group_symop_operation_xyz
x,y,z
1/2-x,-y,1/2+z
1/2+x,1/2-y,1/2-z
-x,1/2+y,-z
-x,-y,-z
1/2+x,y,1/2-z
1/2-x,1/2+y,1/2+z
x,1/2-y,z
loop_
_atom_site_type_symbol
_atom_site_label
_atom_site_fract_x
_atom_site_fract_y
_atom_site_fract_z
Si Si1 0.606984 0.662940 0.352167
Si Si2 0.543677 0.425789 0.559899
Si Si3 0.300734 0.422099 0.909556
Si Si4 0.236409 0.163567 0.462786
Si Si5 0.331068 0.961267 0.179589
Si Si6 0.820604 0.837346 0.892712
O O1 0.606363 0.750000 0.299708
O O2 0.519605 0.640366 0.410496
O O3 0.628228 0.612191 0.196442
O O4 0.670098 0.648192 0.498046
O O5 0.500000 0.500000 0.500000
O O6 0.587067 0.450608 0.724575
O O7 0.604856 0.392998 0.426058
O O8 0.243402 0.476522 0.801574
O O9 0.338772 0.468955 0.056602
O O10 0.247259 0.352325 0.973445
O O11 0.213997 0.250000 0.496578
O O12 0.181728 0.116323 0.583468
O O13 0.217369 0.141149 0.279363
O O14 0.847435 0.750000 0.902610
#
# Coordination Sequence:
#
# PCOD8253670 Si02
#       6
#     8   8   8   8   8   8
#     4  10  22  41  61  87 123 159 198 247 301 357
#     4  11  26  39  58  88 125 162 194 243 307 358
#     4  10  21  35  65  90 117 154 206 245 293 346
#     4   9  20  38  65  90 115 155 205 249 293 350
#     4  10  22  37  61  88 121 155 198 251 289 356
#     4  10  21  40  64  88 117 157 201 245 294 358
#
# _framework density 19.641711000000001
#
# number of rings (size 3 to 8) (size 9 to 14) (size 15 to 20)
#    0.000    2.000    0.000    2.000   14.000    5.333 
#    0.000    0.000    0.000    0.000    0.000    0.000 
#    0.000    0.000    0.000    0.000    0.000    0.000 
#
# Total GULP energy -595299.693706 kJ/mol
# GULP energy per Si atom -12402.076952 kJ/mol
# Density = 1.959701 g / cm^3
# Si number density = 19.641711 Si / 1000 Ang^3
#
#
#
# Elastic Constant Matrix: (Units=GPa)
#
#
# Indices 1 2 3 4 5 6 
#
# 1 102.3689 49.9415 54.6462 0.0000 0.0000 0.0000
# 2 49.9415 94.5816 50.4854 0.0000 0.0000 0.0000
# 3 54.6462 50.4854 121.3573 0.0000 0.0000 0.0000
# 4 0.0000 0.0000 0.0000 39.0814 0.0000 0.0000
# 5 0.0000 0.0000 0.0000 0.0000 31.3655 0.0000
# 6 0.0000 0.0000 0.0000 0.0000 0.0000 29.0603
#
#
#
# Elastic Compliance Matrix: (Units=1/GPa)
#
#
# Indices 1 2 3 4 5 6 
#
# 1 0.014771 -0.005462 -0.004379 0.000000 0.000000 0.000000
# 2 -0.005462 0.015611 -0.004035 0.000000 0.000000 0.000000
# 3 -0.004379 -0.004035 0.011890 0.000000 0.000000 0.000000
# 4 0.000000 0.000000 0.000000 0.025588 0.000000 0.000000
# 5 0.000000 0.000000 0.000000 0.000000 0.031882 0.000000
# 6 0.000000 0.000000 0.000000 0.000000 0.000000 0.034411
#
#
# Mechanical properties :
#
#
# Convention : Reuss Voigt Hill
#
# Bulk Modulus (GPa) = 68.86752 69.82820 69.34786
# Shear Modulus (GPa) = 29.98609 30.78374 30.38492
#
# Velocity S-wave (km/s) = 3.91148 3.96316 3.93741
# Velocity P-wave (km/s) = 7.45235 7.52133 7.48692
#
# Compressibility (1/GPa) = 0.01452063
#
# Stress axis : x y z
#
# Youngs Moduli (GPa) = 67.70110 64.05943 84.10188
#
# Poissons Ratio (x) = 0.34989 0.36828
# Poissons Ratio (y) = 0.36978 0.33932
# Poissons Ratio (z) = 0.29646 0.25845
#
# Static dielectric constant tensor:
#      x y z
#    x 3.521620 0.000000 0.000000 
#    y 0.000000 3.598590 0.000000 
#    z 0.000000 0.000000 3.772390 
# 
# 
# High freq. dielectric constant tensor:
#      x y z
#    x 1.750100 0.000000 0.000000 
#    y 0.000000 1.779010 0.000000 
#    z 0.000000 0.000000 1.771310 
# 
# From -- ./inp_files/6428.got.cif
#   From: 2010.03.12/outbox.cif.g09.slc.cpg/sg62_4_cif.got.tgz:6428.got - 2010.04.10 19:12:36.
