data_PCOD8253113
_publ_section_title
;
Structure prediction by ZEFSAII (Michael W. Deem and Ramdas Pophale) SiO2 
 PCOD8253113
Probable space group: P N M A
;
_chemical_formula_sum "Si O2"
_cell_formula_units_Z 48
_cell_length_a 14.546480
_cell_length_b 8.719710
_cell_length_c 20.232736
_cell_angle_alpha 90.000000
_cell_angle_beta 90.000000
_cell_angle_gamma 90.000000
_cell_volume 2566.342230
_symmetry_space_group_name_H-M "P N M A"
_symmetry_group_IT_number 62
_symmetry_cell_setting 'orthorhombic'
loop_
_space_group_symop_operation_xyz
x,y,z
1/2-x,-y,1/2+z
1/2+x,1/2-y,1/2-z
-x,1/2+y,-z
-x,-y,-z
1/2+x,y,1/2-z
1/2-x,1/2+y,1/2+z
x,1/2-y,z
loop_
_atom_site_type_symbol
_atom_site_label
_atom_site_fract_x
_atom_site_fract_y
_atom_site_fract_z
Si Si1 0.926000 0.071062 0.547980
Si Si2 0.442523 0.572729 0.558757
Si Si3 0.780158 0.924548 0.030305
Si Si4 0.889200 0.569367 0.684741
Si Si5 0.817562 0.428677 0.163093
Si Si6 0.501784 0.569972 0.304712
O O1 0.943336 0.250000 0.551642
O O2 0.825655 0.029499 0.518577
O O3 0.937870 0.004846 0.621375
O O4 0.000000 0.000000 0.500000
O O5 0.500000 0.500000 0.500000
O O6 0.470650 0.750000 0.570002
O O7 0.334969 0.558605 0.538478
O O8 0.458129 0.477295 0.624627
O O9 0.786937 0.750000 0.057069
O O10 0.826257 0.033615 0.085260
O O11 0.897089 0.750000 0.677058
O O12 0.782322 0.518849 0.689091
O O13 0.938754 0.515371 0.750251
O O14 0.835015 0.250000 0.174240
O O15 0.895426 0.520878 0.202945
O O16 0.511136 0.750000 0.294776
#
# Coordination Sequence:
#
# PCOD8253113 Si02
#       6
#     8   8   8   8   8   8
#     4  10  20  38  62  88 116 153 194 238 289 344
#     4  11  21  35  57  87 118 152 192 237 287 340
#     4   9  19  35  57  83 114 149 188 235 286 341
#     4  10  22  41  62  86 114 151 196 242 292 346
#     4  10  20  36  61  85 110 149 192 236 287 345
#     4  12  24  38  58  85 119 157 193 238 290 348
#
# _framework density 18.703662000000001
#
# number of rings (size 3 to 8) (size 9 to 14) (size 15 to 20)
#    0.000    1.667    1.667    3.500    0.000    3.333 
#    3.000    0.000    0.000    0.000    0.000    0.000 
#    0.000    0.000    0.000    0.000    0.000    0.000 
#
# Total GULP energy -595331.145160 kJ/mol
# GULP energy per Si atom -12402.732191 kJ/mol
# Density = 1.866109 g / cm^3
# Si number density = 18.703662 Si / 1000 Ang^3
#
#
#
# Elastic Constant Matrix: (Units=GPa)
#
#
# Indices 1 2 3 4 5 6 
#
# 1 99.0591 19.6184 53.3550 0.0000 0.0000 0.0000
# 2 19.6184 52.4543 9.4072 0.0000 0.0000 0.0000
# 3 53.3550 9.4072 96.3720 0.0000 0.0000 0.0000
# 4 0.0000 0.0000 0.0000 36.0163 0.0000 0.0000
# 5 0.0000 0.0000 0.0000 0.0000 32.4414 0.0000
# 6 0.0000 0.0000 0.0000 0.0000 0.0000 30.8831
#
#
#
# Elastic Compliance Matrix: (Units=1/GPa)
#
#
# Indices 1 2 3 4 5 6 
#
# 1 0.015269 -0.004270 -0.008037 0.000000 0.000000 0.000000
# 2 -0.004270 0.020598 0.000353 0.000000 0.000000 0.000000
# 3 -0.008037 0.000353 0.014792 0.000000 0.000000 0.000000
# 4 0.000000 0.000000 0.000000 0.027765 0.000000 0.000000
# 5 0.000000 0.000000 0.000000 0.000000 0.030825 0.000000
# 6 0.000000 0.000000 0.000000 0.000000 0.000000 0.032380
#
#
# Mechanical properties :
#
#
# Convention : Reuss Voigt Hill
#
# Bulk Modulus (GPa) = 37.38034 45.84961 41.61497
# Shear Modulus (GPa) = 28.66104 30.90180 29.78142
#
# Velocity S-wave (km/s) = 3.91880 4.06911 3.99466
# Velocity P-wave (km/s) = 6.36435 6.82963 6.60109
#
# Compressibility (1/GPa) = 0.02675203
#
# Stress axis : x y z
#
# Youngs Moduli (GPa) = 65.49050 48.54904 67.60633
#
# Poissons Ratio (x) = 0.20728 0.54335
# Poissons Ratio (y) = 0.27962 -0.02388
# Poissons Ratio (z) = 0.52634 -0.01715
#
# Static dielectric constant tensor:
#      x y z
#    x 2.846280 0.000000 0.000000 
#    y 0.000000 3.249450 0.000000 
#    z 0.000000 0.000000 5.255760 
# 
# 
# High freq. dielectric constant tensor:
#      x y z
#    x 1.736890 0.000000 0.000000 
#    y 0.000000 1.740940 0.000000 
#    z 0.000000 0.000000 1.708610 
# 
# From -- ./inp_files/23759.got.cif
#   From: 2010.03.12/outbox.cif.g09.slc.cpg/sg62_12_cif.got.tgz:23759.got - 2010.04.10 19:12:36.
