data_PCOD8253136
_publ_section_title
;
Structure prediction by ZEFSAII (Michael W. Deem and Ramdas Pophale) SiO2 
 PCOD8253136
Probable space group: P N M A
;
_chemical_formula_sum "Si O2"
_cell_formula_units_Z 56
_cell_length_a 9.432264
_cell_length_b 18.215654
_cell_length_c 14.397485
_cell_angle_alpha 90.000000
_cell_angle_beta 90.000000
_cell_angle_gamma 90.000000
_cell_volume 2473.701833
_symmetry_space_group_name_H-M "P N M A"
_symmetry_group_IT_number 62
_symmetry_cell_setting 'orthorhombic'
loop_
_space_group_symop_operation_xyz
x,y,z
1/2-x,-y,1/2+z
1/2+x,1/2-y,1/2-z
-x,1/2+y,-z
-x,-y,-z
1/2+x,y,1/2-z
1/2-x,1/2+y,1/2+z
x,1/2-y,z
loop_
_atom_site_type_symbol
_atom_site_label
_atom_site_fract_x
_atom_site_fract_y
_atom_site_fract_z
Si Si1 0.722828 0.750000 0.284440
Si Si2 0.306074 0.897086 0.112518
Si Si3 0.003480 0.164804 0.458766
Si Si4 0.502719 0.097276 0.559007
Si Si5 0.902721 0.002605 0.223347
Si Si6 0.320613 0.665215 0.584683
Si Si7 0.351724 0.602932 0.779248
Si Si8 0.559786 0.250000 0.642401
O O1 0.775729 0.679068 0.337794
O O2 0.552895 0.750000 0.271968
O O3 0.780888 0.750000 0.180030
O O4 0.343275 0.956820 0.189593
O O5 0.163983 0.922142 0.056514
O O6 0.435062 0.886638 0.040741
O O7 0.025744 0.250000 0.483644
O O8 0.088365 0.148411 0.364955
O O9 0.838942 0.145015 0.446241
O O10 0.585464 0.046677 0.631404
O O11 0.577071 0.099679 0.457330
O O12 0.530187 0.181067 0.580891
O O13 0.802922 0.070862 0.197579
O O14 0.054272 0.032357 0.254277
O O15 0.355143 0.750000 0.555574
O O16 0.337273 0.660064 0.694960
#
# Coordination Sequence:
#
# PCOD8253136 Si02
#       8
#     4   8   8   8   8   8   8   4
#     4  10  20  36  62  97 134 171 218 273 336 390
#     4  11  24  42  68 104 137 176 226 276 342 405
#     4  11  26  47  73 101 131 177 233 289 339 395
#     4  11  24  42  68 103 138 175 224 280 342 403
#     4  12  26  45  69 101 143 186 221 271 344 415
#     4  11  26  47  73 102 131 176 235 289 338 394
#     4  12  27  50  66  98 139 185 231 274 339 407
#     4  10  20  36  62  97 132 173 216 277 334 390
#
# _framework density 22.638137
#
# number of rings (size 3 to 8) (size 9 to 14) (size 15 to 20)
#    0.000    0.857    5.714    0.429    4.000    3.429 
#    0.000    0.000    0.000    0.000    0.000    0.000 
#    0.000    0.000    0.000    0.000    0.000    0.000 
#
# Total GULP energy -694296.697985 kJ/mol
# GULP energy per Si atom -12398.155321 kJ/mol
# Density = 2.258661 g / cm^3
# Si number density = 22.638137 Si / 1000 Ang^3
#
#
#
# Elastic Constant Matrix: (Units=GPa)
#
#
# Indices 1 2 3 4 5 6 
#
# 1 65.6140 20.7253 0.1296 0.0000 0.0000 0.0000
# 2 20.7253 53.3045 17.7776 0.0000 0.0000 0.0000
# 3 0.1296 17.7776 34.6987 0.0000 0.0000 0.0000
# 4 0.0000 0.0000 0.0000 -10.7832 0.0000 0.0000
# 5 0.0000 0.0000 0.0000 0.0000 38.8488 0.0000
# 6 0.0000 0.0000 0.0000 0.0000 0.0000 106.5148
#
#
#
# Elastic Compliance Matrix: (Units=1/GPa)
#
#
# Indices 1 2 3 4 5 6 
#
# 1 0.017871 -0.008353 0.004213 0.000000 0.000000 0.000000
# 2 -0.008353 0.026531 -0.013562 0.000000 0.000000 0.000000
# 3 0.004213 -0.013562 0.035752 0.000000 0.000000 0.000000
# 4 0.000000 0.000000 0.000000 -0.092737 0.000000 0.000000
# 5 0.000000 0.000000 0.000000 0.000000 0.025741 0.000000
# 6 0.000000 0.000000 0.000000 0.000000 0.000000 0.009388
#
#
# Mechanical properties :
#
#
# Convention : Reuss Voigt Hill
#
# Bulk Modulus (GPa) = 22.34651 25.65355 24.00003
# Shear Modulus (GPa) = 68.61773 34.58173 51.59973
#
# Velocity S-wave (km/s) = 5.51149 3.91268 4.77941
# Velocity P-wave (km/s) = 7.09891 5.63637 6.40949
#
# Compressibility (1/GPa) = 0.04474972
#
# Stress axis : x y z
#
# Youngs Moduli (GPa) = 55.95683 37.69169 27.97045
#
# Poissons Ratio (x) = 0.31486 -0.11784
# Poissons Ratio (y) = 0.46743 0.37933
# Poissons Ratio (z) = -0.23575 0.51117
#
# Static dielectric constant tensor:
#      x y z
#    x 4.474210 0.000000 0.000000 
#    y 0.000000 2.247300 0.000000 
#    z 0.000000 0.000000 4.096360 
# 
# 
# High freq. dielectric constant tensor:
#      x y z
#    x 1.903100 0.000000 0.000000 
#    y 0.000000 1.898410 0.000000 
#    z 0.000000 0.000000 1.896720 
# 
# From -- ./inp_files/17247.got.cif
#   From: 2010.03.12/outbox.cif.g09.slc.cpg/sg62_9_cif.got.tgz:17247.got - 2010.04.10 19:12:36.
