data_PCOD8253568
_publ_section_title
;
Structure prediction by ZEFSAII (Michael W. Deem and Ramdas Pophale) SiO2 
 PCOD8253568
Probable space group: P N M A
;
_chemical_formula_sum "Si O2"
_cell_formula_units_Z 48
_cell_length_a 13.937523
_cell_length_b 9.367727
_cell_length_c 18.122956
_cell_angle_alpha 90.000000
_cell_angle_beta 90.000000
_cell_angle_gamma 90.000000
_cell_volume 2366.185883
_symmetry_space_group_name_H-M "P N M A"
_symmetry_group_IT_number 62
_symmetry_cell_setting 'orthorhombic'
loop_
_space_group_symop_operation_xyz
x,y,z
1/2-x,-y,1/2+z
1/2+x,1/2-y,1/2-z
-x,1/2+y,-z
-x,-y,-z
1/2+x,y,1/2-z
1/2-x,1/2+y,1/2+z
x,1/2-y,z
loop_
_atom_site_type_symbol
_atom_site_label
_atom_site_fract_x
_atom_site_fract_y
_atom_site_fract_z
Si Si1 0.168763 0.084303 0.488867
Si Si2 0.683833 0.582838 0.272418
Si Si3 0.531204 0.908561 0.392348
Si Si4 0.127369 0.909634 0.948983
Si Si5 0.881927 0.582068 0.350073
Si Si6 0.930426 0.916703 0.659174
O O1 0.191628 0.250000 0.502878
O O2 0.268538 0.016068 0.459540
O O3 0.137472 0.020075 0.567563
O O4 0.086085 0.060459 0.428378
O O5 0.672081 0.750000 0.254286
O O6 0.611065 0.532789 0.336495
O O7 0.791602 0.549120 0.298178
O O8 0.659737 0.487466 0.201236
O O9 0.499954 0.750000 0.368794
O O10 0.575280 0.908517 0.473029
O O11 0.435155 0.003425 0.389452
O O12 0.137790 0.750000 0.917163
O O13 0.906311 0.750000 0.351831
O O14 0.972412 0.497143 0.317020
O O15 0.937191 0.750000 0.679161
#
# Coordination Sequence:
#
# PCOD8253568 Si02
#       6
#     8   8   8   8   8   8
#     4   9  18  36  60  84 112 151 193 234 283 339
#     4  10  21  39  61  82 110 154 200 238 281 341
#     4   9  17  31  52  80 110 142 185 231 275 329
#     4   9  16  30  54  82 110 143 181 226 282 334
#     4  10  20  40  66  84 107 151 200 240 280 336
#     4  11  24  38  56  87 122 150 184 236 296 350
#
# _framework density 20.285810999999999
#
# number of rings (size 3 to 8) (size 9 to 14) (size 15 to 20)
#    0.000    2.333    1.667    1.000    0.000    2.667 
#    0.000    6.667    0.000    0.000    0.000    0.000 
#    0.000    0.000    0.000    0.000    0.000    0.000 
#
# Total GULP energy -595173.979108 kJ/mol
# GULP energy per Si atom -12399.457898 kJ/mol
# Density = 2.023964 g / cm^3
# Si number density = 20.285811 Si / 1000 Ang^3
#
#
#
# Elastic Constant Matrix: (Units=GPa)
#
#
# Indices 1 2 3 4 5 6 
#
# 1 121.8260 51.7538 28.6686 0.0000 0.0000 0.0000
# 2 51.7538 74.1034 35.6771 0.0000 0.0000 0.0000
# 3 28.6686 35.6771 63.7610 0.0000 0.0000 0.0000
# 4 0.0000 0.0000 0.0000 24.3890 0.0000 0.0000
# 5 0.0000 0.0000 0.0000 0.0000 29.3559 0.0000
# 6 0.0000 0.0000 0.0000 0.0000 0.0000 28.1107
#
#
#
# Elastic Compliance Matrix: (Units=1/GPa)
#
#
# Indices 1 2 3 4 5 6 
#
# 1 0.011712 -0.007726 -0.000943 0.000000 0.000000 0.000000
# 2 -0.007726 0.023567 -0.009713 0.000000 0.000000 0.000000
# 3 -0.000943 -0.009713 0.021542 0.000000 0.000000 0.000000
# 4 0.000000 0.000000 0.000000 0.041002 0.000000 0.000000
# 5 0.000000 0.000000 0.000000 0.000000 0.034065 0.000000
# 6 0.000000 0.000000 0.000000 0.000000 0.000000 0.035574
#
#
# Mechanical properties :
#
#
# Convention : Reuss Voigt Hill
#
# Bulk Modulus (GPa) = 49.85632 54.65438 52.25535
# Shear Modulus (GPa) = 23.70657 25.94384 24.82520
#
# Velocity S-wave (km/s) = 3.42223 3.58007 3.50204
# Velocity P-wave (km/s) = 6.34396 6.64002 6.49368
#
# Compressibility (1/GPa) = 0.02005764
#
# Stress axis : x y z
#
# Youngs Moduli (GPa) = 85.37890 42.43279 46.41992
#
# Poissons Ratio (x) = 0.32783 0.04379
# Poissons Ratio (y) = 0.65963 0.45087
# Poissons Ratio (z) = 0.08053 0.41214
#
# Static dielectric constant tensor:
#      x y z
#    x 3.718370 0.000000 0.000000 
#    y 0.000000 3.533480 0.000000 
#    z 0.000000 0.000000 3.549520 
# 
# 
# High freq. dielectric constant tensor:
#      x y z
#    x 1.801900 0.000000 0.000000 
#    y 0.000000 1.762750 0.000000 
#    z 0.000000 0.000000 1.785540 
# 
# From -- ./inp_files/23718.got.cif
#   From: 2010.03.12/outbox.cif.g09.slc.cpg/sg62_12_cif.got.tgz:23718.got - 2010.04.10 19:12:36.
