data_PCOD8253026
_publ_section_title
;
Structure prediction by ZEFSAII (Michael W. Deem and Ramdas Pophale) SiO2 
 PCOD8253026
Probable space group: P N M A
;
_chemical_formula_sum "Si O2"
_cell_formula_units_Z 64
_cell_length_a 17.059284
_cell_length_b 8.551436
_cell_length_c 21.789210
_cell_angle_alpha 90.000000
_cell_angle_beta 90.000000
_cell_angle_gamma 90.000000
_cell_volume 3178.639922
_symmetry_space_group_name_H-M "P N M A"
_symmetry_group_IT_number 62
_symmetry_cell_setting 'orthorhombic'
loop_
_space_group_symop_operation_xyz
x,y,z
1/2-x,-y,1/2+z
1/2+x,1/2-y,1/2-z
-x,1/2+y,-z
-x,-y,-z
1/2+x,y,1/2-z
1/2-x,1/2+y,1/2+z
x,1/2-y,z
loop_
_atom_site_type_symbol
_atom_site_label
_atom_site_fract_x
_atom_site_fract_y
_atom_site_fract_z
Si Si1 0.845673 0.431126 0.283316
Si Si2 0.732027 0.933012 0.375942
Si Si3 0.707490 0.431409 0.658987
Si Si4 0.026433 0.433631 0.631957
Si Si5 0.431975 0.431759 0.573226
Si Si6 0.642012 0.066025 0.972049
Si Si7 0.407700 0.430814 0.433282
Si Si8 0.862672 0.934147 0.609598
O O1 0.865669 0.250000 0.290710
O O2 0.764974 0.471111 0.318545
O O3 0.834455 0.471567 0.212448
O O4 0.917677 0.530531 0.310419
O O5 0.746200 0.750000 0.363391
O O6 0.640418 0.972744 0.382430
O O7 0.777182 0.982162 0.438418
O O8 0.705131 0.250000 0.675755
O O9 0.659745 0.465682 0.597069
O O10 0.797068 0.483248 0.650629
O O11 0.008848 0.250000 0.630163
O O12 0.069028 0.492520 0.569386
O O13 0.946175 0.527972 0.639791
O O14 0.454149 0.250000 0.576464
O O15 0.407714 0.477948 0.504434
O O16 0.506900 0.530711 0.595416
O O17 0.636377 0.250000 0.978621
O O18 0.639422 0.993966 0.040329
O O19 0.387260 0.250000 0.423102
O O20 0.846907 0.750000 0.609955
#
# Coordination Sequence:
#
# PCOD8253026 Si02
#       8
#     8   8   8   8   8   8   8   8
#     4  11  23  41  61  82 110 147 194 244 290 337
#     4   9  17  34  58  84 115 153 192 231 281 341
#     4  12  25  42  60  81 112 153 197 241 294 350
#     4  10  20  38  60  86 119 156 192 230 282 344
#     4   9  18  34  58  88 120 152 189 232 285 346
#     4   8  16  31  56  87 122 157 187 226 280 336
#     4  10  20  36  58  85 118 152 188 236 289 342
#     4  11  21  36  59  90 121 151 190 237 283 336
#
# _framework density 20.134398999999998
#
# number of rings (size 3 to 8) (size 9 to 14) (size 15 to 20)
#    0.000    2.000    0.000    5.250    0.000    3.000 
#    2.250    8.125    0.000    0.000    0.000    0.000 
#    0.000    0.000    0.000    0.000    0.000    0.000 
#
# Total GULP energy -793806.915453 kJ/mol
# GULP energy per Si atom -12403.233054 kJ/mol
# Density = 2.008857 g / cm^3
# Si number density = 20.134399 Si / 1000 Ang^3
#
#
#
# Elastic Constant Matrix: (Units=GPa)
#
#
# Indices 1 2 3 4 5 6 
#
# 1 99.5615 15.8118 18.7105 0.0000 0.0000 0.0000
# 2 15.8118 58.4180 10.9300 0.0000 0.0000 0.0000
# 3 18.7105 10.9300 62.2543 0.0000 0.0000 0.0000
# 4 0.0000 0.0000 0.0000 26.4761 0.0000 0.0000
# 5 0.0000 0.0000 0.0000 0.0000 18.9464 0.0000
# 6 0.0000 0.0000 0.0000 0.0000 0.0000 34.7330
#
#
#
# Elastic Compliance Matrix: (Units=1/GPa)
#
#
# Indices 1 2 3 4 5 6 
#
# 1 0.010970 -0.002432 -0.002870 0.000000 0.000000 0.000000
# 2 -0.002432 0.018239 -0.002471 0.000000 0.000000 0.000000
# 3 -0.002870 -0.002471 0.017360 0.000000 0.000000 0.000000
# 4 0.000000 0.000000 0.000000 0.037770 0.000000 0.000000
# 5 0.000000 0.000000 0.000000 0.000000 0.052781 0.000000
# 6 0.000000 0.000000 0.000000 0.000000 0.000000 0.028791
#
#
# Mechanical properties :
#
#
# Convention : Reuss Voigt Hill
#
# Bulk Modulus (GPa) = 32.23582 34.57093 33.40338
# Shear Modulus (GPa) = 26.06932 27.68319 26.87626
#
# Velocity S-wave (km/s) = 3.60219 3.71201 3.65751
# Velocity P-wave (km/s) = 5.77461 5.96485 5.87050
#
# Compressibility (1/GPa) = 0.03102139
#
# Stress axis : x y z
#
# Youngs Moduli (GPa) = 91.16061 54.82859 57.60514
#
# Poissons Ratio (x) = 0.13335 0.16532
# Poissons Ratio (y) = 0.22172 0.14235
# Poissons Ratio (z) = 0.26162 0.13549
#
# Static dielectric constant tensor:
#      x y z
#    x 3.723430 0.000000 0.000000 
#    y 0.000000 3.487090 0.000000 
#    z 0.000000 0.000000 3.566170 
# 
# 
# High freq. dielectric constant tensor:
#      x y z
#    x 1.793780 0.000000 0.000000 
#    y 0.000000 1.774960 0.000000 
#    z 0.000000 0.000000 1.770730 
# 
# From -- ./inp_files/27708.got.cif
#   From: 2010.03.12/outbox.cif.g09.slc.cpg/sg62_14_cif.got.tgz:27708.got - 2010.04.10 19:12:36.
