data_PCOD8253541
_publ_section_title
;
Structure prediction by ZEFSAII (Michael W. Deem and Ramdas Pophale) SiO2 
 PCOD8253541
Probable space group: P N M A
;
_chemical_formula_sum "Si O2"
_cell_formula_units_Z 64
_cell_length_a 9.523489
_cell_length_b 16.519671
_cell_length_c 19.760964
_cell_angle_alpha 90.000000
_cell_angle_beta 90.000000
_cell_angle_gamma 90.000000
_cell_volume 3108.891785
_symmetry_space_group_name_H-M "P N M A"
_symmetry_group_IT_number 62
_symmetry_cell_setting 'orthorhombic'
loop_
_space_group_symop_operation_xyz
x,y,z
1/2-x,-y,1/2+z
1/2+x,1/2-y,1/2-z
-x,1/2+y,-z
-x,-y,-z
1/2+x,y,1/2-z
1/2-x,1/2+y,1/2+z
x,1/2-y,z
loop_
_atom_site_type_symbol
_atom_site_label
_atom_site_fract_x
_atom_site_fract_y
_atom_site_fract_z
Si Si1 0.006334 0.845286 0.885013
Si Si2 0.087096 0.042426 0.736193
Si Si3 0.864938 0.657368 0.490708
Si Si4 0.151145 0.065523 0.223755
Si Si5 0.447812 0.345252 0.534082
Si Si6 0.155369 0.342817 0.852706
Si Si7 0.426132 0.418074 0.893283
Si Si8 0.309106 0.593635 0.871109
O O1 0.034827 0.750000 0.875883
O O2 0.142594 0.895657 0.862438
O O3 0.876435 0.872305 0.837700
O O4 0.974192 0.867057 0.963336
O O5 0.162917 0.108458 0.782749
O O6 0.035761 0.086251 0.668366
O O7 0.192577 0.969685 0.717049
O O8 0.956650 0.008883 0.779189
O O9 0.887471 0.750000 0.467724
O O10 0.712939 0.622777 0.466320
O O11 0.870912 0.654617 0.572768
O O12 0.986190 0.600203 0.461058
O O13 0.126862 0.109939 0.296589
O O14 0.441561 0.250000 0.541412
O O15 0.537683 0.380594 0.596433
O O16 0.121042 0.250000 0.836308
O O17 0.308450 0.348774 0.886600
O O18 0.345208 0.503263 0.896272
#
# Coordination Sequence:
#
# PCOD8253541 Si02
#       8
#     8   8   8   8   8   8   8   8
#     4  10  20  39  66  92 120 159 206 253 305 363
#     4  11  23  42  59  85 123 159 200 253 302 359
#     4  10  21  39  62  90 121 159 208 257 304 366
#     4  11  21  42  62  85 124 158 202 251 297 367
#     4   8  19  38  59  87 119 153 201 255 299 356
#     4  11  22  40  63  88 121 159 203 256 306 356
#     4  11  23  40  61  89 125 161 204 251 312 366
#     4  10  20  40  62  85 126 162 199 249 311 367
#
# _framework density 20.586114999999999
#
# number of rings (size 3 to 8) (size 9 to 14) (size 15 to 20)
#    0.000    1.750    3.750    1.875    1.750    2.000 
#    6.750    1.875    0.000    0.000    0.000    0.000 
#    0.000    0.000    0.000    0.000    0.000    0.000 
#
# Total GULP energy -793488.645250 kJ/mol
# GULP energy per Si atom -12398.260082 kJ/mol
# Density = 2.053926 g / cm^3
# Si number density = 20.586115 Si / 1000 Ang^3
#
#
#
# Elastic Constant Matrix: (Units=GPa)
#
#
# Indices 1 2 3 4 5 6 
#
# 1 92.8070 31.5299 41.2368 0.0000 0.0000 0.0000
# 2 31.5299 58.1727 39.2996 0.0000 0.0000 0.0000
# 3 41.2368 39.2996 85.3114 0.0000 0.0000 0.0000
# 4 0.0000 0.0000 0.0000 30.9479 0.0000 0.0000
# 5 0.0000 0.0000 0.0000 0.0000 38.5026 0.0000
# 6 0.0000 0.0000 0.0000 0.0000 0.0000 33.2590
#
#
#
# Elastic Compliance Matrix: (Units=1/GPa)
#
#
# Indices 1 2 3 4 5 6 
#
# 1 0.014502 -0.004536 -0.004920 0.000000 0.000000 0.000000
# 2 -0.004536 0.026376 -0.009958 0.000000 0.000000 0.000000
# 3 -0.004920 -0.009958 0.018687 0.000000 0.000000 0.000000
# 4 0.000000 0.000000 0.000000 0.032312 0.000000 0.000000
# 5 0.000000 0.000000 0.000000 0.000000 0.025972 0.000000
# 6 0.000000 0.000000 0.000000 0.000000 0.000000 0.030067
#
#
# Mechanical properties :
#
#
# Convention : Reuss Voigt Hill
#
# Bulk Modulus (GPa) = 48.22305 51.15818 49.69062
# Shear Modulus (GPa) = 25.81867 28.82355 27.32111
#
# Velocity S-wave (km/s) = 3.54528 3.74591 3.64698
# Velocity P-wave (km/s) = 6.34307 6.60408 6.47489
#
# Compressibility (1/GPa) = 0.02073697
#
# Stress axis : x y z
#
# Youngs Moduli (GPa) = 68.95381 37.91326 53.51267
#
# Poissons Ratio (x) = 0.17199 0.26330
# Poissons Ratio (y) = 0.31280 0.53286
# Poissons Ratio (z) = 0.33927 0.37753
#
# Static dielectric constant tensor:
#      x y z
#    x 3.753460 0.000000 0.000000 
#    y 0.000000 3.451210 0.000000 
#    z 0.000000 0.000000 3.855540 
# 
# 
# High freq. dielectric constant tensor:
#      x y z
#    x 1.802930 0.000000 0.000000 
#    y 0.000000 1.786170 0.000000 
#    z 0.000000 0.000000 1.809370 
# 
# From -- ./inp_files/26185.got.cif
#   From: 2010.03.12/outbox.cif.g09.slc.cpg/sg62_14_cif.got.tgz:26185.got - 2010.04.10 19:12:36.
