data_PCOD8253760
_publ_section_title
;
Structure prediction by ZEFSAII (Michael W. Deem and Ramdas Pophale) SiO2 
 PCOD8253760
Probable space group: P N M A
;
_chemical_formula_sum "Si O2"
_cell_formula_units_Z 48
_cell_length_a 11.952894
_cell_length_b 17.217390
_cell_length_c 12.044198
_cell_angle_alpha 90.000000
_cell_angle_beta 90.000000
_cell_angle_gamma 90.000000
_cell_volume 2478.667496
_symmetry_space_group_name_H-M "P N M A"
_symmetry_group_IT_number 62
_symmetry_cell_setting 'orthorhombic'
loop_
_space_group_symop_operation_xyz
x,y,z
1/2-x,-y,1/2+z
1/2+x,1/2-y,1/2-z
-x,1/2+y,-z
-x,-y,-z
1/2+x,y,1/2-z
1/2-x,1/2+y,1/2+z
x,1/2-y,z
loop_
_atom_site_type_symbol
_atom_site_label
_atom_site_fract_x
_atom_site_fract_y
_atom_site_fract_z
Si Si1 0.922800 0.157392 0.411304
Si Si2 0.260748 0.658390 0.413222
Si Si3 0.996055 0.589864 0.026232
Si Si4 0.314489 0.340421 0.668491
Si Si5 0.664873 0.159058 0.032026
Si Si6 0.627390 0.658131 0.667323
O O1 0.927367 0.250000 0.410640
O O2 0.829574 0.129062 0.497448
O O3 0.892788 0.123793 0.289840
O O4 0.042921 0.121877 0.447766
O O5 0.284105 0.750000 0.421494
O O6 0.373184 0.612183 0.434911
O O7 0.213498 0.635288 0.293141
O O8 0.080591 0.610057 0.126002
O O9 0.025899 0.635909 0.913853
O O10 0.000000 0.500000 0.000000
O O11 0.347983 0.250000 0.659433
O O12 0.205290 0.358013 0.593277
O O13 0.656097 0.250000 0.053872
O O14 0.755897 0.124219 0.118700
O O15 0.632734 0.750000 0.673008
#
# Coordination Sequence:
#
# PCOD8253760 Si02
#       6
#     8   8   8   8   8   8
#     4   9  18  30  53  88 112 133 178 239 295 342
#     4  10  21  36  61  90 113 143 197 253 293 345
#     4  11  23  40  56  83 118 159 196 235 297 357
#     4   9  19  37  62  85 111 149 195 249 298 345
#     4   8  15  29  50  79 109 136 173 228 290 338
#     4   9  18  34  57  80 108 148 189 234 287 344
#
# _framework density 19.365245000000002
#
# number of rings (size 3 to 8) (size 9 to 14) (size 15 to 20)
#    0.000    2.667    0.000    2.500    4.667    0.000 
#    3.000    0.000    0.000    5.000    0.000    0.000 
#    0.000    0.000    0.000    0.000    0.000    0.000 
#
# Total GULP energy -595150.079180 kJ/mol
# GULP energy per Si atom -12398.959983 kJ/mol
# Density = 1.932117 g / cm^3
# Si number density = 19.365245 Si / 1000 Ang^3
#
#
#
# Elastic Constant Matrix: (Units=GPa)
#
#
# Indices 1 2 3 4 5 6 
#
# 1 161.0137 39.6874 89.8687 0.0000 0.0000 0.0000
# 2 39.6874 35.9136 29.1474 0.0000 0.0000 0.0000
# 3 89.8687 29.1474 183.2990 0.0000 0.0000 0.0000
# 4 0.0000 0.0000 0.0000 11.5566 0.0000 0.0000
# 5 0.0000 0.0000 0.0000 0.0000 28.5688 0.0000
# 6 0.0000 0.0000 0.0000 0.0000 0.0000 11.5291
#
#
#
# Elastic Compliance Matrix: (Units=1/GPa)
#
#
# Indices 1 2 3 4 5 6 
#
# 1 0.010381 -0.008429 -0.003749 0.000000 0.000000 0.000000
# 2 -0.008429 0.038814 -0.002040 0.000000 0.000000 0.000000
# 3 -0.003749 -0.002040 0.007618 0.000000 0.000000 0.000000
# 4 0.000000 0.000000 0.000000 0.086531 0.000000 0.000000
# 5 0.000000 0.000000 0.000000 0.000000 0.035003 0.000000
# 6 0.000000 0.000000 0.000000 0.000000 0.000000 0.086737
#
#
# Mechanical properties :
#
#
# Convention : Reuss Voigt Hill
#
# Bulk Modulus (GPa) = 35.23846 77.51484 56.37665
# Shear Modulus (GPa) = 16.50281 25.09908 20.80094
#
# Velocity S-wave (km/s) = 2.92239 3.60403 3.28096
# Velocity P-wave (km/s) = 5.44274 7.57848 6.59761
#
# Compressibility (1/GPa) = 0.02837808
#
# Stress axis : x y z
#
# Youngs Moduli (GPa) = 96.33133 25.76362 131.26632
#
# Poissons Ratio (x) = 0.21716 0.49215
# Poissons Ratio (y) = 0.81195 0.26773
# Poissons Ratio (z) = 0.36117 0.05255
#
# Static dielectric constant tensor:
#      x y z
#    x 3.770730 0.000000 0.000000 
#    y 0.000000 3.016520 0.000000 
#    z 0.000000 0.000000 3.984610 
# 
# 
# High freq. dielectric constant tensor:
#      x y z
#    x 1.763330 0.000000 0.000000 
#    y 0.000000 1.701310 0.000000 
#    z 0.000000 0.000000 1.766150 
# 
# From -- ./inp_files/12227.got.cif
#   From: 2010.03.12/outbox.cif.g09.slc.cpg/sg62_7_cif.got.tgz:12227.got - 2010.04.10 19:12:36.
