data_PCOD8253504
_publ_section_title
;
Structure prediction by ZEFSAII (Michael W. Deem and Ramdas Pophale) SiO2 
 PCOD8253504
Probable space group: P N M A
;
_chemical_formula_sum "Si O2"
_cell_formula_units_Z 48
_cell_length_a 10.250921
_cell_length_b 8.623656
_cell_length_c 29.214486
_cell_angle_alpha 90.000000
_cell_angle_beta 90.000000
_cell_angle_gamma 90.000000
_cell_volume 2582.572727
_symmetry_space_group_name_H-M "P N M A"
_symmetry_group_IT_number 62
_symmetry_cell_setting 'orthorhombic'
loop_
_space_group_symop_operation_xyz
x,y,z
1/2-x,-y,1/2+z
1/2+x,1/2-y,1/2-z
-x,1/2+y,-z
-x,-y,-z
1/2+x,y,1/2-z
1/2-x,1/2+y,1/2+z
x,1/2-y,z
loop_
_atom_site_type_symbol
_atom_site_label
_atom_site_fract_x
_atom_site_fract_y
_atom_site_fract_z
Si Si1 0.771830 0.931465 0.384199
Si Si2 0.127780 0.433259 0.522059
Si Si3 0.375592 0.568968 0.475061
Si Si4 0.009673 0.569046 0.783376
Si Si5 0.978162 0.571666 0.121889
Si Si6 0.773688 0.565666 0.282578
O O1 0.793507 0.750000 0.383208
O O2 0.857210 0.001140 0.426003
O O3 0.622365 0.972167 0.395540
O O4 0.809329 0.994982 0.333925
O O5 0.119282 0.250000 0.523517
O O6 0.248397 0.480720 0.491082
O O7 0.000000 0.500000 0.500000
O O8 0.500000 0.500000 0.500000
O O9 0.366404 0.750000 0.486578
O O10 0.381832 0.541280 0.420348
O O11 0.983773 0.750000 0.777585
O O12 0.125355 0.517251 0.750337
O O13 0.059384 0.533187 0.834759
O O14 0.875665 0.480024 0.771179
O O15 0.973935 0.750000 0.138290
O O16 0.786060 0.750000 0.277764
#
# Coordination Sequence:
#
# PCOD8253504 Si02
#       6
#     8   8   8   8   8   8
#     4   8  16  34  59  81 107 146 193 230 269 337
#     4  11  22  39  57  83 118 154 192 237 286 338
#     4  11  21  36  60  88 115 150 192 235 280 334
#     4  11  22  37  58  89 120 145 185 246 294 328
#     4   9  18  36  59  83 111 151 194 230 279 349
#     4  10  20  39  63  84 110 155 196 227 281 353
#
# _framework density 18.586117000000002
#
# number of rings (size 3 to 8) (size 9 to 14) (size 15 to 20)
#    0.000    2.000    1.667    4.000    0.000    1.333 
#    3.000    2.500    0.000    0.000    0.000    0.000 
#    0.000    0.000    0.000    0.000    0.000    0.000 
#
# Total GULP energy -595064.126358 kJ/mol
# GULP energy per Si atom -12397.169299 kJ/mol
# Density = 1.854381 g / cm^3
# Si number density = 18.586117 Si / 1000 Ang^3
#
#
#
# Elastic Constant Matrix: (Units=GPa)
#
#
# Indices 1 2 3 4 5 6 
#
# 1 96.0647 18.3750 71.2026 0.0000 0.0000 0.0000
# 2 18.3750 69.1939 35.4515 0.0000 0.0000 0.0000
# 3 71.2026 35.4515 105.0001 0.0000 0.0000 0.0000
# 4 0.0000 0.0000 0.0000 28.7617 0.0000 0.0000
# 5 0.0000 0.0000 0.0000 0.0000 5.8732 0.0000
# 6 0.0000 0.0000 0.0000 0.0000 0.0000 33.7265
#
#
#
# Elastic Compliance Matrix: (Units=1/GPa)
#
#
# Indices 1 2 3 4 5 6 
#
# 1 0.021177 0.002097 -0.015069 0.000000 0.000000 0.000000
# 2 0.002097 0.017683 -0.007392 0.000000 0.000000 0.000000
# 3 -0.015069 -0.007392 0.022238 0.000000 0.000000 0.000000
# 4 0.000000 0.000000 0.000000 0.034768 0.000000 0.000000
# 5 0.000000 0.000000 0.000000 0.000000 0.170265 0.000000
# 6 0.000000 0.000000 0.000000 0.000000 0.000000 0.029650
#
#
# Mechanical properties :
#
#
# Convention : Reuss Voigt Hill
#
# Bulk Modulus (GPa) = 49.09215 57.81299 53.45257
# Shear Modulus (GPa) = 14.56451 23.35425 18.95938
#
# Velocity S-wave (km/s) = 2.80236 3.54862 3.19734
# Velocity P-wave (km/s) = 6.07797 6.92555 6.51556
#
# Compressibility (1/GPa) = 0.02036986
#
# Stress axis : x y z
#
# Youngs Moduli (GPa) = 47.22005 56.55263 44.96820
#
# Poissons Ratio (x) = -0.11857 0.67761
# Poissons Ratio (y) = -0.09900 0.33240
# Poissons Ratio (z) = 0.71154 0.41804
#
# Static dielectric constant tensor:
#      x y z
#    x 2.375080 0.000000 0.000000 
#    y 0.000000 3.376320 0.000000 
#    z 0.000000 0.000000 3.498060 
# 
# 
# High freq. dielectric constant tensor:
#      x y z
#    x 1.706530 0.000000 0.000000 
#    y 0.000000 1.715390 0.000000 
#    z 0.000000 0.000000 1.736440 
# 
# From -- ./inp_files/31947.got.cif
#   From: 2010.03.12/outbox.cif.g09.slc.cpg/sg62_16_cif.got.tgz:31947.got - 2010.04.10 19:12:36.
