data_PCOD8253507
_publ_section_title
;
Structure prediction by ZEFSAII (Michael W. Deem and Ramdas Pophale) SiO2 
 PCOD8253507
Probable space group: P N M A
;
_chemical_formula_sum "Si O2"
_cell_formula_units_Z 64
_cell_length_a 24.025484
_cell_length_b 8.991007
_cell_length_c 15.247159
_cell_angle_alpha 90.000000
_cell_angle_beta 90.000000
_cell_angle_gamma 90.000000
_cell_volume 3293.589052
_symmetry_space_group_name_H-M "P N M A"
_symmetry_group_IT_number 62
_symmetry_cell_setting 'orthorhombic'
loop_
_space_group_symop_operation_xyz
x,y,z
1/2-x,-y,1/2+z
1/2+x,1/2-y,1/2-z
-x,1/2+y,-z
-x,-y,-z
1/2+x,y,1/2-z
1/2-x,1/2+y,1/2+z
x,1/2-y,z
loop_
_atom_site_type_symbol
_atom_site_label
_atom_site_fract_x
_atom_site_fract_y
_atom_site_fract_z
Si Si1 0.431952 0.073340 0.244719
Si Si2 0.262517 0.582282 0.580175
Si Si3 0.873132 0.422865 0.653460
Si Si4 0.507690 0.075584 0.407054
Si Si5 0.503910 0.926310 0.094632
Si Si6 0.231108 0.425076 0.409770
Si Si7 0.876376 0.583107 0.828004
Si Si8 0.195463 0.926157 0.749165
O O1 0.436667 0.250000 0.230404
O O2 0.462402 0.023941 0.334731
O O3 0.368219 0.018396 0.252198
O O4 0.458406 0.993676 0.160436
O O5 0.243481 0.750000 0.554620
O O6 0.258356 0.468308 0.501081
O O7 0.327351 0.583209 0.602343
O O8 0.224788 0.520514 0.659765
O O9 0.862911 0.250000 0.641585
O O10 0.935752 0.468805 0.631329
O O11 0.830599 0.506566 0.589762
O O12 0.859477 0.471162 0.751816
O O13 0.503728 0.250000 0.422265
O O14 0.567870 0.025133 0.373414
O O15 0.500000 0.000000 0.500000
O O16 0.495003 0.750000 0.087199
O O17 0.500000 0.000000 0.000000
O O18 0.225839 0.250000 0.401119
O O19 0.269698 0.490701 0.331503
O O20 0.885078 0.750000 0.789573
O O21 0.197409 0.750000 0.754628
#
# Coordination Sequence:
#
# PCOD8253507 Si02
#       8
#     8   8   8   8   8   8   8   8
#     4  10  21  40  63  87 119 160 201 244 294 353
#     4  10  21  39  60  85 120 156 195 246 298 348
#     4  11  23  40  63  89 118 153 199 252 302 351
#     4  10  22  37  59  88 120 158 201 245 297 353
#     4  11  25  42  62  90 120 156 198 247 301 356
#     4  11  23  40  62  89 121 159 201 243 293 357
#     4  10  20  39  63  86 116 158 202 246 298 352
#     4   9  20  39  61  84 118 159 194 237 296 350
#
# _framework density 19.431688999999999
#
# number of rings (size 3 to 8) (size 9 to 14) (size 15 to 20)
#    0.000    1.750    2.500    1.125    3.500    3.000 
#    0.000    1.250    0.000    0.000    0.000    0.000 
#    0.000    0.000    0.000    0.000    0.000    0.000 
#
# Total GULP energy -793740.282746 kJ/mol
# GULP energy per Si atom -12402.191918 kJ/mol
# Density = 1.938746 g / cm^3
# Si number density = 19.431689 Si / 1000 Ang^3
#
#
#
# Elastic Constant Matrix: (Units=GPa)
#
#
# Indices 1 2 3 4 5 6 
#
# 1 129.8898 32.7415 40.7928 0.0000 0.0000 0.0000
# 2 32.7415 51.4893 31.1827 0.0000 0.0000 0.0000
# 3 40.7928 31.1827 117.5174 0.0000 0.0000 0.0000
# 4 0.0000 0.0000 0.0000 39.3412 0.0000 0.0000
# 5 0.0000 0.0000 0.0000 0.0000 27.6958 0.0000
# 6 0.0000 0.0000 0.0000 0.0000 0.0000 21.9949
#
#
#
# Elastic Compliance Matrix: (Units=1/GPa)
#
#
# Indices 1 2 3 4 5 6 
#
# 1 0.009559 -0.004848 -0.002032 0.000000 0.000000 0.000000
# 2 -0.004848 0.025599 -0.005110 0.000000 0.000000 0.000000
# 3 -0.002032 -0.005110 0.010570 0.000000 0.000000 0.000000
# 4 0.000000 0.000000 0.000000 0.025419 0.000000 0.000000
# 5 0.000000 0.000000 0.000000 0.000000 0.036107 0.000000
# 6 0.000000 0.000000 0.000000 0.000000 0.000000 0.045465
#
#
# Mechanical properties :
#
#
# Convention : Reuss Voigt Hill
#
# Bulk Modulus (GPa) = 45.97826 56.48118 51.22972
# Shear Modulus (GPa) = 27.18174 30.75169 28.96671
#
# Velocity S-wave (km/s) = 3.74416 3.98245 3.86514
# Velocity P-wave (km/s) = 6.51187 7.09057 6.80737
#
# Compressibility (1/GPa) = 0.02174941
#
# Stress axis : x y z
#
# Youngs Moduli (GPa) = 104.61395 39.06434 94.60323
#
# Poissons Ratio (x) = 0.18938 0.19221
# Poissons Ratio (y) = 0.50717 0.48339
# Poissons Ratio (z) = 0.21255 0.19961
#
# Static dielectric constant tensor:
#      x y z
#    x 3.938230 0.000000 0.000000 
#    y 0.000000 3.407220 0.000000 
#    z 0.000000 0.000000 3.602120 
# 
# 
# High freq. dielectric constant tensor:
#      x y z
#    x 1.773400 0.000000 0.000000 
#    y 0.000000 1.739750 0.000000 
#    z 0.000000 0.000000 1.761330 
# 
# From -- ./inp_files/20786.got.cif
#   From: 2010.03.12/outbox.cif.g09.slc.cpg/sg62_11_cif.got.tgz:20786.got - 2010.04.10 19:12:36.
