data_PCOD8253538
_publ_section_title
;
Structure prediction by ZEFSAII (Michael W. Deem and Ramdas Pophale) SiO2 
 PCOD8253538
Probable space group: P N M A
;
_chemical_formula_sum "Si O2"
_cell_formula_units_Z 48
_cell_length_a 9.510970
_cell_length_b 8.741107
_cell_length_c 28.503648
_cell_angle_alpha 90.000000
_cell_angle_beta 90.000000
_cell_angle_gamma 90.000000
_cell_volume 2369.690865
_symmetry_space_group_name_H-M "P N M A"
_symmetry_group_IT_number 62
_symmetry_cell_setting 'orthorhombic'
loop_
_space_group_symop_operation_xyz
x,y,z
1/2-x,-y,1/2+z
1/2+x,1/2-y,1/2-z
-x,1/2+y,-z
-x,-y,-z
1/2+x,y,1/2-z
1/2-x,1/2+y,1/2+z
x,1/2-y,z
loop_
_atom_site_type_symbol
_atom_site_label
_atom_site_fract_x
_atom_site_fract_y
_atom_site_fract_z
Si Si1 0.294113 0.432216 0.712332
Si Si2 0.286911 0.430707 0.883842
Si Si3 0.497096 0.925407 0.637198
Si Si4 0.143686 0.429994 0.483935
Si Si5 0.023250 0.569343 0.299105
Si Si6 0.387243 0.575069 0.532915
O O1 0.293042 0.250000 0.709782
O O2 0.382144 0.495903 0.669363
O O3 0.368158 0.492706 0.759858
O O4 0.134002 0.497110 0.709063
O O5 0.279438 0.250000 0.890943
O O6 0.144306 0.486075 0.858897
O O7 0.304833 0.509185 0.933893
O O8 0.417459 0.477702 0.850266
O O9 0.520736 0.750000 0.652007
O O10 0.436818 0.938454 0.585521
O O11 0.132356 0.250000 0.480314
O O12 0.246728 0.478192 0.525734
O O13 0.000000 0.500000 0.500000
O O14 0.016586 0.750000 0.294507
O O15 0.500000 0.500000 0.500000
O O16 0.362184 0.750000 0.517849
#
# Coordination Sequence:
#
# PCOD8253538 Si02
#       6
#     8   8   8   8   8   8
#     4  10  20  39  65  92 122 159 203 253 306 370
#     4  11  22  40  65  93 124 163 210 259 314 373
#     4  11  24  40  60  91 126 162 206 255 312 372
#     4  12  26  43  63  91 128 168 213 261 315 375
#     4   9  20  38  64  95 122 155 204 255 308 371
#     4  11  23  41  64  91 125 166 213 259 308 368
#
# _framework density 20.255807999999998
#
# number of rings (size 3 to 8) (size 9 to 14) (size 15 to 20)
#    0.000    1.333    1.667    4.000    2.333    4.667 
#    0.000    5.000    0.000    0.000    0.000    0.000 
#    0.000    0.000    0.000    0.000    0.000    0.000 
#
# Total GULP energy -595274.189321 kJ/mol
# GULP energy per Si atom -12401.545611 kJ/mol
# Density = 2.020970 g / cm^3
# Si number density = 20.255808 Si / 1000 Ang^3
#
#
#
# Elastic Constant Matrix: (Units=GPa)
#
#
# Indices 1 2 3 4 5 6 
#
# 1 161.8316 46.2310 36.9366 0.0000 0.0000 0.0000
# 2 46.2310 96.9741 30.4269 0.0000 0.0000 0.0000
# 3 36.9366 30.4269 66.9029 0.0000 0.0000 0.0000
# 4 0.0000 0.0000 0.0000 27.0496 0.0000 0.0000
# 5 0.0000 0.0000 0.0000 0.0000 42.1851 0.0000
# 6 0.0000 0.0000 0.0000 0.0000 0.0000 28.4520
#
#
#
# Elastic Compliance Matrix: (Units=1/GPa)
#
#
# Indices 1 2 3 4 5 6 
#
# 1 0.007632 -0.002702 -0.002985 0.000000 0.000000 0.000000
# 2 -0.002702 0.012985 -0.004414 0.000000 0.000000 0.000000
# 3 -0.002985 -0.004414 0.018602 0.000000 0.000000 0.000000
# 4 0.000000 0.000000 0.000000 0.036969 0.000000 0.000000
# 5 0.000000 0.000000 0.000000 0.000000 0.023705 0.000000
# 6 0.000000 0.000000 0.000000 0.000000 0.000000 0.035147
#
#
# Mechanical properties :
#
#
# Convention : Reuss Voigt Hill
#
# Bulk Modulus (GPa) = 52.58071 61.43308 57.00689
# Shear Modulus (GPa) = 30.94405 33.67826 32.31116
#
# Velocity S-wave (km/s) = 3.91277 4.08198 3.99827
# Velocity P-wave (km/s) = 6.81379 7.25336 7.03701
#
# Compressibility (1/GPa) = 0.01901838
#
# Stress axis : x y z
#
# Youngs Moduli (GPa) = 131.01919 77.01149 53.75676
#
# Poissons Ratio (x) = 0.20809 0.16046
# Poissons Ratio (y) = 0.35403 0.23727
# Poissons Ratio (z) = 0.39108 0.33991
#
# Static dielectric constant tensor:
#      x y z
#    x 3.964250 0.000000 0.000000 
#    y 0.000000 3.685700 0.000000 
#    z 0.000000 0.000000 3.680450 
# 
# 
# High freq. dielectric constant tensor:
#      x y z
#    x 1.810350 0.000000 0.000000 
#    y 0.000000 1.781800 0.000000 
#    z 0.000000 0.000000 1.801020 
# 
# From -- ./inp_files/31906.got.cif
#   From: 2010.03.12/outbox.cif.g09.slc.cpg/sg62_16_cif.got.tgz:31906.got - 2010.04.10 19:12:36.
