data_PCOD8253333
_publ_section_title
;
Structure prediction by ZEFSAII (Michael W. Deem and Ramdas Pophale) SiO2 
 PCOD8253333
Probable space group: P N M A
;
_chemical_formula_sum "Si O2"
_cell_formula_units_Z 48
_cell_length_a 9.645627
_cell_length_b 16.708194
_cell_length_c 16.301177
_cell_angle_alpha 90.000000
_cell_angle_beta 90.000000
_cell_angle_gamma 90.000000
_cell_volume 2627.114103
_symmetry_space_group_name_H-M "P N M A"
_symmetry_group_IT_number 62
_symmetry_cell_setting 'orthorhombic'
loop_
_space_group_symop_operation_xyz
x,y,z
1/2-x,-y,1/2+z
1/2+x,1/2-y,1/2-z
-x,1/2+y,-z
-x,-y,-z
1/2+x,y,1/2-z
1/2-x,1/2+y,1/2+z
x,1/2-y,z
loop_
_atom_site_type_symbol
_atom_site_label
_atom_site_fract_x
_atom_site_fract_y
_atom_site_fract_z
Si Si1 0.253531 0.093195 0.920622
Si Si2 0.552347 0.842013 0.942699
Si Si3 0.368642 0.018562 0.162805
Si Si4 0.049519 0.655631 0.097016
Si Si5 0.376531 0.443923 0.751241
Si Si6 0.292719 0.928263 0.005258
O O1 0.358099 0.144211 0.975750
O O2 0.102830 0.131030 0.931558
O O3 0.302123 0.100048 0.826718
O O4 0.248084 0.000310 0.945910
O O5 0.553588 0.750000 0.917835
O O6 0.394179 0.869322 0.956609
O O7 0.616952 0.889824 0.865700
O O8 0.489798 0.994141 0.223968
O O9 0.222893 0.008507 0.208064
O O10 0.378305 0.962095 0.082782
O O11 0.066805 0.750000 0.096838
O O12 0.080895 0.625365 0.188446
O O13 0.156070 0.618881 0.031705
#
# Coordination Sequence:
#
# PCOD8253333 Si02
#       6
#     8   8   8   8   8   8
#     4  11  20  38  60  83 112 154 191 227 277 343
#     4  11  21  36  60  85 113 145 189 245 280 319
#     4  10  20  38  57  82 108 150 194 219 272 348
#     4  11  24  36  53  89 122 145 181 238 294 330
#     4  11  20  37  59  80 112 153 187 223 272 343
#     4  10  20  38  61  81 111 152 197 224 272 345
#
# _framework density 18.270999
#
# number of rings (size 3 to 8) (size 9 to 14) (size 15 to 20)
#    0.000    1.333    5.000    2.500    0.000    1.333 
#    0.000    0.833    0.000    0.000    0.000    0.000 
#    0.000    0.000    0.000    0.000    0.000    0.000 
#
# Total GULP energy -595447.716952 kJ/mol
# GULP energy per Si atom -12405.160770 kJ/mol
# Density = 1.822941 g / cm^3
# Si number density = 18.270999 Si / 1000 Ang^3
#
#
#
# Elastic Constant Matrix: (Units=GPa)
#
#
# Indices 1 2 3 4 5 6 
#
# 1 45.9856 7.9414 2.5630 0.0000 0.0000 0.0000
# 2 7.9414 104.5470 3.0400 0.0000 0.0000 0.0000
# 3 2.5630 3.0400 30.4905 0.0000 0.0000 0.0000
# 4 0.0000 0.0000 0.0000 18.9533 0.0000 0.0000
# 5 0.0000 0.0000 0.0000 0.0000 13.8368 0.0000
# 6 0.0000 0.0000 0.0000 0.0000 0.0000 27.6302
#
#
#
# Elastic Compliance Matrix: (Units=1/GPa)
#
#
# Indices 1 2 3 4 5 6 
#
# 1 0.022122 -0.001631 -0.001697 0.000000 0.000000 0.000000
# 2 -0.001631 0.009713 -0.000831 0.000000 0.000000 0.000000
# 3 -0.001697 -0.000831 0.033023 0.000000 0.000000 0.000000
# 4 0.000000 0.000000 0.000000 0.052761 0.000000 0.000000
# 5 0.000000 0.000000 0.000000 0.000000 0.072271 0.000000
# 6 0.000000 0.000000 0.000000 0.000000 0.000000 0.036192
#
#
# Mechanical properties :
#
#
# Convention : Reuss Voigt Hill
#
# Bulk Modulus (GPa) = 17.68681 23.12355 20.40518
# Shear Modulus (GPa) = 19.74353 23.24932 21.49642
#
# Velocity S-wave (km/s) = 3.29080 3.57104 3.43378
# Velocity P-wave (km/s) = 4.91330 5.44853 5.18782
#
# Compressibility (1/GPa) = 0.05653931
#
# Stress axis : x y z
#
# Youngs Moduli (GPa) = 45.20350 102.95332 30.28222
#
# Poissons Ratio (x) = 0.16792 0.05139
# Poissons Ratio (y) = 0.07373 0.02517
# Poissons Ratio (z) = 0.07671 0.08559
#
# Static dielectric constant tensor:
#      x y z
#    x 3.509930 0.000000 0.000000 
#    y 0.000000 3.225690 0.000000 
#    z 0.000000 0.000000 3.421670 
# 
# 
# High freq. dielectric constant tensor:
#      x y z
#    x 1.726720 0.000000 0.000000 
#    y 0.000000 1.694740 0.000000 
#    z 0.000000 0.000000 1.704870 
# 
# From -- ./inp_files/16924.got.cif
#   From: 2010.03.12/outbox.cif.g09.slc.cpg/sg62_9_cif.got.tgz:16924.got - 2010.04.10 19:12:36.
