data_PCOD8253114
_publ_section_title
;
Structure prediction by ZEFSAII (Michael W. Deem and Ramdas Pophale) SiO2 
 PCOD8253114
Probable space group: P N M A
;
_chemical_formula_sum "Si O2"
_cell_formula_units_Z 56
_cell_length_a 19.597300
_cell_length_b 8.621490
_cell_length_c 17.401473
_cell_angle_alpha 90.000000
_cell_angle_beta 90.000000
_cell_angle_gamma 90.000000
_cell_volume 2940.116787
_symmetry_space_group_name_H-M "P N M A"
_symmetry_group_IT_number 62
_symmetry_cell_setting 'orthorhombic'
loop_
_space_group_symop_operation_xyz
x,y,z
1/2-x,-y,1/2+z
1/2+x,1/2-y,1/2-z
-x,1/2+y,-z
-x,-y,-z
1/2+x,y,1/2-z
1/2-x,1/2+y,1/2+z
x,1/2-y,z
loop_
_atom_site_type_symbol
_atom_site_label
_atom_site_fract_x
_atom_site_fract_y
_atom_site_fract_z
Si Si1 0.186723 0.066984 0.074179
Si Si2 0.570805 0.929767 0.527551
Si Si3 0.115658 0.569256 0.215396
Si Si4 0.525861 0.571495 0.692205
Si Si5 0.898761 0.567639 0.622803
Si Si6 0.835662 0.433463 0.474362
Si Si7 0.448363 0.432776 0.140123
O O1 0.184159 0.250000 0.087678
O O2 0.260654 0.007593 0.047420
O O3 0.172056 0.981284 0.153973
O O4 0.133101 0.022783 0.008382
O O5 0.574927 0.750000 0.503117
O O6 0.576033 0.949723 0.619978
O O7 0.500000 0.000000 0.500000
O O8 0.121488 0.750000 0.232588
O O9 0.129688 0.476682 0.293682
O O10 0.041629 0.530847 0.179747
O O11 0.501206 0.750000 0.699645
O O12 0.564660 0.520807 0.770541
O O13 0.894169 0.750000 0.611614
O O14 0.852093 0.486655 0.559934
O O15 0.976830 0.506933 0.614704
O O16 0.838506 0.250000 0.470824
O O17 0.890349 0.507410 0.414168
O O18 0.445831 0.250000 0.130671
#
# Coordination Sequence:
#
# PCOD8253114 Si02
#       7
#     8   8   8   8   8   8   8
#     4  11  23  38  55  79 117 157 193 235 286 342
#     4  11  21  34  57  84 112 148 191 238 286 340
#     4  11  21  35  58  83 111 145 188 234 285 344
#     4   9  18  34  57  84 112 139 183 237 287 339
#     4  10  20  36  61  87 114 145 188 239 287 343
#     4  10  21  38  58  82 116 153 191 233 283 341
#     4   8  16  34  59  85 111 144 186 234 284 334
#
# _framework density 19.046861
#
# number of rings (size 3 to 8) (size 9 to 14) (size 15 to 20)
#    0.000    2.000    1.429    3.857    0.000    1.714 
#    2.571    2.857    0.000    0.000    0.000    0.000 
#    0.000    0.000    0.000    0.000    0.000    0.000 
#
# Total GULP energy -694457.251521 kJ/mol
# GULP energy per Si atom -12401.022349 kJ/mol
# Density = 1.900351 g / cm^3
# Si number density = 19.046861 Si / 1000 Ang^3
#
#
#
# Elastic Constant Matrix: (Units=GPa)
#
#
# Indices 1 2 3 4 5 6 
#
# 1 122.9729 18.2309 69.8095 0.0000 0.0000 0.0000
# 2 18.2309 27.1828 1.3518 0.0000 0.0000 0.0000
# 3 69.8095 1.3518 119.0412 0.0000 0.0000 0.0000
# 4 0.0000 0.0000 0.0000 28.7986 0.0000 0.0000
# 5 0.0000 0.0000 0.0000 0.0000 27.5134 0.0000
# 6 0.0000 0.0000 0.0000 0.0000 0.0000 21.7501
#
#
#
# Elastic Compliance Matrix: (Units=1/GPa)
#
#
# Indices 1 2 3 4 5 6 
#
# 1 0.014116 -0.009061 -0.008175 0.000000 0.000000 0.000000
# 2 -0.009061 0.042625 0.004829 0.000000 0.000000 0.000000
# 3 -0.008175 0.004829 0.013140 0.000000 0.000000 0.000000
# 4 0.000000 0.000000 0.000000 0.034724 0.000000 0.000000
# 5 0.000000 0.000000 0.000000 0.000000 0.036346 0.000000
# 6 0.000000 0.000000 0.000000 0.000000 0.000000 0.045977
#
#
# Mechanical properties :
#
#
# Convention : Reuss Voigt Hill
#
# Bulk Modulus (GPa) = 22.18895 49.77571 35.98233
# Shear Modulus (GPa) = 22.04949 27.59940 24.82444
#
# Velocity S-wave (km/s) = 3.40611 3.81074 3.61409
# Velocity P-wave (km/s) = 5.20996 6.74925 6.02893
#
# Compressibility (1/GPa) = 0.04506749
#
# Stress axis : x y z
#
# Youngs Moduli (GPa) = 70.84128 23.46063 76.10456
#
# Poissons Ratio (x) = 0.21257 0.62217
# Poissons Ratio (y) = 0.64188 -0.36754
# Poissons Ratio (z) = 0.57914 -0.11330
#
# Static dielectric constant tensor:
#      x y z
#    x 4.502290 0.000000 0.000000 
#    y 0.000000 3.363550 0.000000 
#    z 0.000000 0.000000 3.690090 
# 
# 
# High freq. dielectric constant tensor:
#      x y z
#    x 1.719140 0.000000 0.000000 
#    y 0.000000 1.730590 0.000000 
#    z 0.000000 0.000000 1.758330 
# 
# From -- ./inp_files/24575.got.cif
#   From: 2010.03.12/outbox.cif.g09.slc.cpg/sg62_13_cif.got.tgz:24575.got - 2010.04.10 19:12:36.
