data_PCOD8253476
_publ_section_title
;
Structure prediction by ZEFSAII (Michael W. Deem and Ramdas Pophale) SiO2 
 PCOD8253476
Probable space group: P N M A
;
_chemical_formula_sum "Si O2"
_cell_formula_units_Z 64
_cell_length_a 9.671073
_cell_length_b 13.860226
_cell_length_c 22.975030
_cell_angle_alpha 90.000000
_cell_angle_beta 90.000000
_cell_angle_gamma 90.000000
_cell_volume 3079.647861
_symmetry_space_group_name_H-M "P N M A"
_symmetry_group_IT_number 62
_symmetry_cell_setting 'orthorhombic'
loop_
_space_group_symop_operation_xyz
x,y,z
1/2-x,-y,1/2+z
1/2+x,1/2-y,1/2-z
-x,1/2+y,-z
-x,-y,-z
1/2+x,y,1/2-z
1/2-x,1/2+y,1/2+z
x,1/2-y,z
loop_
_atom_site_type_symbol
_atom_site_label
_atom_site_fract_x
_atom_site_fract_y
_atom_site_fract_z
Si Si1 0.056732 0.854647 0.904327
Si Si2 0.478794 0.397661 0.528082
Si Si3 0.988972 0.364868 0.785118
Si Si4 0.318640 0.944661 0.378575
Si Si5 0.479581 0.050303 0.843682
Si Si6 0.641574 0.139363 0.308354
Si Si7 0.552969 0.863475 0.795208
Si Si8 0.260161 0.362787 0.623420
O O1 0.106531 0.750000 0.877443
O O2 0.911201 0.885327 0.873455
O O3 0.164436 0.940772 0.892849
O O4 0.027287 0.829269 0.971995
O O5 0.500000 0.500000 0.500000
O O6 0.606383 0.378231 0.572253
O O7 0.336912 0.389168 0.563626
O O8 0.010909 0.250000 0.786125
O O9 0.119075 0.416714 0.815828
O O10 0.977498 0.401646 0.719819
O O11 0.851013 0.396119 0.820726
O O12 0.157025 0.918513 0.378878
O O13 0.613384 0.084611 0.878768
O O14 0.477031 0.932856 0.841528
O O15 0.674654 0.250000 0.299594
O O16 0.790248 0.093643 0.293330
O O17 0.516598 0.109311 0.266162
O O18 0.538074 0.750000 0.811955
O O19 0.232917 0.250000 0.627414
#
# Coordination Sequence:
#
# PCOD8253476 Si02
#       8
#     8   8   8   8   8   8   8   8
#     4  10  20  38  67  91 113 155 207 245 294 363
#     4   9  20  40  66  85 113 151 203 252 293 354
#     4  10  22  40  61  86 121 163 207 246 289 359
#     4  10  23  39  58  93 121 157 200 255 301 347
#     4  12  24  34  60  89 126 164 196 246 303 363
#     4   9  20  36  57  84 117 157 198 242 292 355
#     4  10  23  37  55  87 127 164 196 242 304 362
#     4  10  22  40  61  87 121 160 201 252 308 352
#
# _framework density 20.781597999999999
#
# number of rings (size 3 to 8) (size 9 to 14) (size 15 to 20)
#    0.000    2.000    0.000    2.250   10.500    3.000 
#    0.000    2.500    0.000    0.000    0.000    0.000 
#    0.000    0.000    0.000    0.000    0.000    0.000 
#
# Total GULP energy -793016.939338 kJ/mol
# GULP energy per Si atom -12390.889677 kJ/mol
# Density = 2.073430 g / cm^3
# Si number density = 20.781598 Si / 1000 Ang^3
#
#
#
# Elastic Constant Matrix: (Units=GPa)
#
#
# Indices 1 2 3 4 5 6 
#
# 1 159.7552 27.0498 61.6320 0.0000 0.0000 0.0000
# 2 27.0498 70.6818 10.2514 0.0000 0.0000 0.0000
# 3 61.6320 10.2514 92.4025 0.0000 0.0000 0.0000
# 4 0.0000 0.0000 0.0000 21.5981 0.0000 0.0000
# 5 0.0000 0.0000 0.0000 0.0000 10.2021 0.0000
# 6 0.0000 0.0000 0.0000 0.0000 0.0000 23.1459
#
#
#
# Elastic Compliance Matrix: (Units=1/GPa)
#
#
# Indices 1 2 3 4 5 6 
#
# 1 0.008867 -0.002577 -0.005629 0.000000 0.000000 0.000000
# 2 -0.002577 0.015128 0.000041 0.000000 0.000000 0.000000
# 3 -0.005629 0.000041 0.014572 0.000000 0.000000 0.000000
# 4 0.000000 0.000000 0.000000 0.046300 0.000000 0.000000
# 5 0.000000 0.000000 0.000000 0.000000 0.098019 0.000000
# 6 0.000000 0.000000 0.000000 0.000000 0.000000 0.043204
#
#
# Mechanical properties :
#
#
# Convention : Reuss Voigt Hill
#
# Bulk Modulus (GPa) = 44.96948 57.85620 51.41284
# Shear Modulus (GPa) = 20.01330 25.91632 22.96481
#
# Velocity S-wave (km/s) = 3.10664 3.53523 3.32784
# Velocity P-wave (km/s) = 5.87829 6.67566 6.28962
#
# Compressibility (1/GPa) = 0.02223731
#
# Stress axis : x y z
#
# Youngs Moduli (GPa) = 112.77253 66.10126 68.62490
#
# Poissons Ratio (x) = 0.17036 0.38626
# Poissons Ratio (y) = 0.29064 -0.00279
# Poissons Ratio (z) = 0.63475 -0.00268
#
# Static dielectric constant tensor:
#      x y z
#    x 3.758950 0.000000 0.000000 
#    y 0.000000 3.861300 0.000000 
#    z 0.000000 0.000000 3.923370 
# 
# 
# High freq. dielectric constant tensor:
#      x y z
#    x 1.800600 0.000000 0.000000 
#    y 0.000000 1.832160 0.000000 
#    z 0.000000 0.000000 1.794870 
# 
# From -- ./inp_files/28965.got.cif
#   From: 2010.03.12/outbox.cif.g09.slc.cpg/sg62_15_cif.got.tgz:28965.got - 2010.04.10 19:12:36.
