data_PCOD8253906
_publ_section_title
;
Structure prediction by ZEFSAII (Michael W. Deem and Ramdas Pophale) SiO2 
 PCOD8253906
Probable space group: P N M A
;
_chemical_formula_sum "Si O2"
_cell_formula_units_Z 48
_cell_length_a 28.072001
_cell_length_b 13.166912
_cell_length_c 6.676114
_cell_angle_alpha 90.000000
_cell_angle_beta 90.000000
_cell_angle_gamma 90.000000
_cell_volume 2467.635717
_symmetry_space_group_name_H-M "P N M A"
_symmetry_group_IT_number 62
_symmetry_cell_setting 'orthorhombic'
loop_
_space_group_symop_operation_xyz
x,y,z
1/2-x,-y,1/2+z
1/2+x,1/2-y,1/2-z
-x,1/2+y,-z
-x,-y,-z
1/2+x,y,1/2-z
1/2-x,1/2+y,1/2+z
x,1/2-y,z
loop_
_atom_site_type_symbol
_atom_site_label
_atom_site_fract_x
_atom_site_fract_y
_atom_site_fract_z
Si Si1 0.301785 0.514995 0.525165
Si Si2 0.289060 0.131216 0.180653
Si Si3 0.963140 0.632449 0.032871
Si Si4 0.967830 0.023134 0.691045
Si Si5 0.368494 0.868725 0.243275
Si Si6 0.362290 0.028852 0.915580
O O1 0.251244 0.561628 0.581788
O O2 0.295770 0.408710 0.406922
O O3 0.325672 0.600366 0.387703
O O4 0.333680 0.488293 0.713628
O O5 0.275610 0.250000 0.185640
O O6 0.337334 0.114760 0.052692
O O7 0.960443 0.750000 0.985454
O O8 0.917481 0.594388 0.156421
O O9 0.009438 0.608518 0.165891
O O10 0.963804 0.580334 0.816727
O O11 0.916098 0.064817 0.627804
O O12 0.000000 0.000000 0.500000
O O13 0.367244 0.750000 0.203044
O O14 0.363162 0.921301 0.028877
#
# Coordination Sequence:
#
# PCOD8253906 Si02
#       6
#     8   8   8   8   8   8
#     4  11  22  44  62  93 128 159 207 260 309 373
#     4  11  25  43  66  94 126 166 208 255 314 376
#     4  10  22  38  61  93 121 159 214 259 305 367
#     4  11  22  40  62  87 128 169 200 258 314 363
#     4  10  21  37  63  95 123 155 205 262 312 365
#     4  11  23  41  63  92 127 163 207 254 314 379
#
# _framework density 19.451816999999998
#
# number of rings (size 3 to 8) (size 9 to 14) (size 15 to 20)
#    0.000    1.333    5.000    0.500    0.000    4.000 
#    0.000    1.667    0.000    0.000    0.000    0.000 
#    0.000    0.000    0.000    0.000    0.000    0.000 
#
# Total GULP energy -595380.612027 kJ/mol
# GULP energy per Si atom -12403.762751 kJ/mol
# Density = 1.940754 g / cm^3
# Si number density = 19.451817 Si / 1000 Ang^3
#
#
#
# Elastic Constant Matrix: (Units=GPa)
#
#
# Indices 1 2 3 4 5 6 
#
# 1 127.7898 25.8321 51.8446 0.0000 0.0000 0.0000
# 2 25.8321 61.3478 32.6224 0.0000 0.0000 0.0000
# 3 51.8446 32.6224 122.5307 0.0000 0.0000 0.0000
# 4 0.0000 0.0000 0.0000 17.7972 0.0000 0.0000
# 5 0.0000 0.0000 0.0000 0.0000 47.5002 0.0000
# 6 0.0000 0.0000 0.0000 0.0000 0.0000 23.2936
#
#
#
# Elastic Compliance Matrix: (Units=1/GPa)
#
#
# Indices 1 2 3 4 5 6 
#
# 1 0.009699 -0.002215 -0.003514 0.000000 0.000000 0.000000
# 2 -0.002215 0.019495 -0.004253 0.000000 0.000000 0.000000
# 3 -0.003514 -0.004253 0.010780 0.000000 0.000000 0.000000
# 4 0.000000 0.000000 0.000000 0.056188 0.000000 0.000000
# 5 0.000000 0.000000 0.000000 0.000000 0.021053 0.000000
# 6 0.000000 0.000000 0.000000 0.000000 0.000000 0.042930
#
#
# Mechanical properties :
#
#
# Convention : Reuss Voigt Hill
#
# Bulk Modulus (GPa) = 49.97607 59.14072 54.55839
# Shear Modulus (GPa) = 26.76954 31.14283 28.95618
#
# Velocity S-wave (km/s) = 3.71374 4.00562 3.86244
# Velocity P-wave (km/s) = 6.64358 7.20160 6.92821
#
# Compressibility (1/GPa) = 0.02000958
#
# Stress axis : x y z
#
# Youngs Moduli (GPa) = 103.10588 51.29547 92.76191
#
# Poissons Ratio (x) = 0.11364 0.32595
# Poissons Ratio (y) = 0.22842 0.39451
# Poissons Ratio (z) = 0.36230 0.21816
#
# Static dielectric constant tensor:
#      x y z
#    x 3.889800 0.000000 0.000000 
#    y 0.000000 3.285510 0.000000 
#    z 0.000000 0.000000 3.710330 
# 
# 
# High freq. dielectric constant tensor:
#      x y z
#    x 1.774870 0.000000 0.000000 
#    y 0.000000 1.739110 0.000000 
#    z 0.000000 0.000000 1.775060 
# 
# From -- ./inp_files/3187.got.cif
#   From: 2010.03.12/outbox.cif.g09.slc.cpg/sg62_2_cif.got.tgz:3187.got - 2010.04.10 19:12:36.
