data_PCOD8253251
_publ_section_title
;
Structure prediction by ZEFSAII (Michael W. Deem and Ramdas Pophale) SiO2 
 PCOD8253251
Probable space group: P N M A
;
_chemical_formula_sum "Si O2"
_cell_formula_units_Z 64
_cell_length_a 14.714958
_cell_length_b 8.834369
_cell_length_c 24.729661
_cell_angle_alpha 90.000000
_cell_angle_beta 90.000000
_cell_angle_gamma 90.000000
_cell_volume 3214.790861
_symmetry_space_group_name_H-M "P N M A"
_symmetry_group_IT_number 62
_symmetry_cell_setting 'orthorhombic'
loop_
_space_group_symop_operation_xyz
x,y,z
1/2-x,-y,1/2+z
1/2+x,1/2-y,1/2-z
-x,1/2+y,-z
-x,-y,-z
1/2+x,y,1/2-z
1/2-x,1/2+y,1/2+z
x,1/2-y,z
loop_
_atom_site_type_symbol
_atom_site_label
_atom_site_fract_x
_atom_site_fract_y
_atom_site_fract_z
Si Si1 0.056236 0.919421 0.140879
Si Si2 0.137323 0.072887 0.238250
Si Si3 0.408731 0.426302 0.522215
Si Si4 0.987681 0.069898 0.671529
Si Si5 0.170553 0.430351 0.731143
Si Si6 0.352481 0.579877 0.349060
Si Si7 0.051104 0.926600 0.450169
Si Si8 0.741274 0.071735 0.548387
O O1 0.081045 0.750000 0.162111
O O2 0.108084 0.958800 0.085745
O O3 0.951102 0.925932 0.124278
O O4 0.071750 0.041276 0.187694
O O5 0.148525 0.250000 0.248395
O O6 0.094193 0.999636 0.292362
O O7 0.232285 0.001709 0.217148
O O8 0.500000 0.500000 0.500000
O O9 0.417034 0.250000 0.510056
O O10 0.317817 0.491073 0.496603
O O11 0.976540 0.250000 0.675833
O O12 0.978402 0.012952 0.609369
O O13 0.087493 0.016641 0.692339
O O14 0.177180 0.250000 0.728042
O O15 0.148454 0.498448 0.790579
O O16 0.319192 0.750000 0.338403
O O17 0.284317 0.504758 0.392285
O O18 0.031666 0.750000 0.451677
O O19 0.154971 0.966821 0.461744
O O20 0.000000 0.000000 0.500000
O O21 0.720189 0.250000 0.546713
#
# Coordination Sequence:
#
# PCOD8253251 Si02
#       8
#     8   8   8   8   8   8   8   8
#     4  10  20  38  60  82 114 159 203 242 287 351
#     4  12  25  38  57  91 130 159 189 244 310 364
#     4  11  22  36  58  87 120 157 198 246 295 355
#     4  10  21  42  69  91 114 159 214 252 291 355
#     4  10  20  37  64  89 115 156 205 249 288 353
#     4   9  16  33  61  87 111 149 201 246 287 342
#     4  10  23  42  66  91 120 158 204 256 303 353
#     4  10  20  37  60  88 122 160 201 248 302 357
#
# _framework density 19.907983000000002
#
# number of rings (size 3 to 8) (size 9 to 14) (size 15 to 20)
#    0.000    1.750    2.500    2.250    0.000    5.500 
#    0.000    5.625    0.000    0.000    0.000    0.000 
#    0.000    0.000    0.000    0.000    0.000    0.000 
#
# Total GULP energy -793309.969595 kJ/mol
# GULP energy per Si atom -12395.468275 kJ/mol
# Density = 1.986267 g / cm^3
# Si number density = 19.907983 Si / 1000 Ang^3
#
#
#
# Elastic Constant Matrix: (Units=GPa)
#
#
# Indices 1 2 3 4 5 6 
#
# 1 96.8845 42.6261 63.6801 0.0000 0.0000 0.0000
# 2 42.6261 56.7114 46.7238 0.0000 0.0000 0.0000
# 3 63.6801 46.7238 145.3100 0.0000 0.0000 0.0000
# 4 0.0000 0.0000 0.0000 30.1597 0.0000 0.0000
# 5 0.0000 0.0000 0.0000 0.0000 36.2615 0.0000
# 6 0.0000 0.0000 0.0000 0.0000 0.0000 27.1882
#
#
#
# Elastic Compliance Matrix: (Units=1/GPa)
#
#
# Indices 1 2 3 4 5 6 
#
# 1 0.017480 -0.009288 -0.004674 0.000000 0.000000 0.000000
# 2 -0.009288 0.028923 -0.005230 0.000000 0.000000 0.000000
# 3 -0.004674 -0.005230 0.010612 0.000000 0.000000 0.000000
# 4 0.000000 0.000000 0.000000 0.033157 0.000000 0.000000
# 5 0.000000 0.000000 0.000000 0.000000 0.027577 0.000000
# 6 0.000000 0.000000 0.000000 0.000000 0.000000 0.036781
#
#
# Mechanical properties :
#
#
# Convention : Reuss Voigt Hill
#
# Bulk Modulus (GPa) = 53.67209 67.21845 60.44527
# Shear Modulus (GPa) = 25.11013 28.44694 26.77853
#
# Velocity S-wave (km/s) = 3.55534 3.78421 3.67156
# Velocity P-wave (km/s) = 6.62364 7.27540 6.95716
#
# Compressibility (1/GPa) = 0.01863166
#
# Stress axis : x y z
#
# Youngs Moduli (GPa) = 57.20847 34.57478 94.23518
#
# Poissons Ratio (x) = 0.32112 0.44045
# Poissons Ratio (y) = 0.53133 0.49283
# Poissons Ratio (z) = 0.26739 0.18082
#
# Static dielectric constant tensor:
#      x y z
#    x 3.693660 0.000000 0.000000 
#    y 0.000000 3.344930 0.000000 
#    z 0.000000 0.000000 3.832470 
# 
# 
# High freq. dielectric constant tensor:
#      x y z
#    x 1.782790 0.000000 0.000000 
#    y 0.000000 1.745130 0.000000 
#    z 0.000000 0.000000 1.788270 
# 
# From -- ./inp_files/29888.got.cif
#   From: 2010.03.12/outbox.cif.g09.slc.cpg/sg62_15_cif.got.tgz:29888.got - 2010.04.10 19:12:36.
