data_PCOD8253762
_publ_section_title
;
Structure prediction by ZEFSAII (Michael W. Deem and Ramdas Pophale) SiO2 
 PCOD8253762
Probable space group: P N M A
;
_chemical_formula_sum "Si O2"
_cell_formula_units_Z 64
_cell_length_a 8.665100
_cell_length_b 21.592373
_cell_length_c 18.259303
_cell_angle_alpha 90.000000
_cell_angle_beta 90.000000
_cell_angle_gamma 90.000000
_cell_volume 3416.316893
_symmetry_space_group_name_H-M "P N M A"
_symmetry_group_IT_number 62
_symmetry_cell_setting 'orthorhombic'
loop_
_space_group_symop_operation_xyz
x,y,z
1/2-x,-y,1/2+z
1/2+x,1/2-y,1/2-z
-x,1/2+y,-z
-x,-y,-z
1/2+x,y,1/2-z
1/2-x,1/2+y,1/2+z
x,1/2-y,z
loop_
_atom_site_type_symbol
_atom_site_label
_atom_site_fract_x
_atom_site_fract_y
_atom_site_fract_z
Si Si1 0.686099 0.500141 0.701824
Si Si2 0.282201 0.860981 0.808743
Si Si3 0.680174 0.428508 0.971468
Si Si4 0.349739 0.180212 0.453321
Si Si5 0.323421 0.881805 0.556730
Si Si6 0.848062 0.497272 0.849670
Si Si7 0.844396 0.452663 0.567702
Si Si8 0.616957 0.679056 0.832398
O O1 0.718992 0.570447 0.679889
O O2 0.717755 0.490723 0.787596
O O3 0.509936 0.482171 0.687427
O O4 0.788223 0.454417 0.651505
O O5 0.200816 0.817892 0.868762
O O6 0.244714 0.833363 0.729410
O O7 0.467176 0.863014 0.817754
O O8 0.811294 0.449348 0.914282
O O9 0.515371 0.424136 0.931760
O O10 0.728995 0.361966 0.002141
O O11 0.662756 0.477161 0.037530
O O12 0.342768 0.250000 0.484581
O O13 0.522388 0.155285 0.460808
O O14 0.267144 0.909921 0.480372
O O15 0.191658 0.836817 0.589031
O O16 0.352449 0.933938 0.617836
O O17 0.564089 0.750000 0.832828
#
# Coordination Sequence:
#
# PCOD8253762 Si02
#       8
#     8   8   8   8   8   8   8   8
#     4  12  21  37  56  87 111 155 180 242 291 353
#     4  12  23  37  52  78 112 155 201 234 280 341
#     4  10  21  38  58  88 109 153 188 244 291 344
#     4  12  23  39  58  82 118 157 199 237 284 343
#     4  11  22  37  56  83 109 155 191 242 284 338
#     4  11  22  35  59  82 119 144 193 236 295 345
#     4  10  21  36  62  81 118 143 194 242 298 344
#     4  12  24  37  51  74 112 157 202 237 275 330
#
# _framework density 18.733625
#
# number of rings (size 3 to 8) (size 9 to 14) (size 15 to 20)
#    0.000    0.750    3.750    5.250    3.500    2.000 
#    0.000    0.625    0.000    0.000    0.000    8.750 
#    0.000    0.000    0.000    0.000    0.000    0.000 
#
# Total GULP energy -793931.566517 kJ/mol
# GULP energy per Si atom -12405.180727 kJ/mol
# Density = 1.869099 g / cm^3
# Si number density = 18.733625 Si / 1000 Ang^3
#
#
#
# Elastic Constant Matrix: (Units=GPa)
#
#
# Indices 1 2 3 4 5 6 
#
# 1 92.1517 30.5955 5.7661 0.0000 0.0000 0.0000
# 2 30.5955 87.5308 37.5370 0.0000 0.0000 0.0000
# 3 5.7661 37.5370 53.7216 0.0000 0.0000 0.0000
# 4 0.0000 0.0000 0.0000 22.6564 0.0000 0.0000
# 5 0.0000 0.0000 0.0000 0.0000 31.7398 0.0000
# 6 0.0000 0.0000 0.0000 0.0000 0.0000 16.7030
#
#
#
# Elastic Compliance Matrix: (Units=1/GPa)
#
#
# Indices 1 2 3 4 5 6 
#
# 1 0.012497 -0.005416 0.002443 0.000000 0.000000 0.000000
# 2 -0.005416 0.018660 -0.012457 0.000000 0.000000 0.000000
# 3 0.002443 -0.012457 0.027056 0.000000 0.000000 0.000000
# 4 0.000000 0.000000 0.000000 0.044138 0.000000 0.000000
# 5 0.000000 0.000000 0.000000 0.000000 0.031506 0.000000
# 6 0.000000 0.000000 0.000000 0.000000 0.000000 0.059869
#
#
# Mechanical properties :
#
#
# Convention : Reuss Voigt Hill
#
# Bulk Modulus (GPa) = 36.55857 42.35568 39.45712
# Shear Modulus (GPa) = 21.39467 24.85355 23.12411
#
# Velocity S-wave (km/s) = 3.38308 3.64631 3.51716
# Velocity P-wave (km/s) = 5.90065 6.35500 6.13203
#
# Compressibility (1/GPa) = 0.02735337
#
# Stress axis : x y z
#
# Youngs Moduli (GPa) = 80.01975 53.59187 36.96008
#
# Poissons Ratio (x) = 0.29024 -0.09029
# Poissons Ratio (y) = 0.43337 0.46040
# Poissons Ratio (z) = -0.19547 0.66758
#
# Static dielectric constant tensor:
#      x y z
#    x 3.531480 0.000000 0.000000 
#    y 0.000000 3.238590 0.000000 
#    z 0.000000 0.000000 3.405030 
# 
# 
# High freq. dielectric constant tensor:
#      x y z
#    x 1.747690 0.000000 0.000000 
#    y 0.000000 1.695220 0.000000 
#    z 0.000000 0.000000 1.718680 
# 
# From -- ./inp_files/22572.got.cif
#   From: 2010.03.12/outbox.cif.g09.slc.cpg/sg62_12_cif.got.tgz:22572.got - 2010.04.10 19:12:36.
