data_PCOD8253836
_publ_section_title
;
Structure prediction by ZEFSAII (Michael W. Deem and Ramdas Pophale) SiO2 
 PCOD8253836
Probable space group: P N M A
;
_chemical_formula_sum "Si O2"
_cell_formula_units_Z 56
_cell_length_a 16.335651
_cell_length_b 8.980162
_cell_length_c 19.654789
_cell_angle_alpha 90.000000
_cell_angle_beta 90.000000
_cell_angle_gamma 90.000000
_cell_volume 2883.294501
_symmetry_space_group_name_H-M "P N M A"
_symmetry_group_IT_number 62
_symmetry_cell_setting 'orthorhombic'
loop_
_space_group_symop_operation_xyz
x,y,z
1/2-x,-y,1/2+z
1/2+x,1/2-y,1/2-z
-x,1/2+y,-z
-x,-y,-z
1/2+x,y,1/2-z
1/2-x,1/2+y,1/2+z
x,1/2-y,z
loop_
_atom_site_type_symbol
_atom_site_label
_atom_site_fract_x
_atom_site_fract_y
_atom_site_fract_z
Si Si1 0.496492 0.574871 0.821916
Si Si2 0.749584 0.421920 0.978669
Si Si3 0.977795 0.075583 0.166925
Si Si4 0.563864 0.074972 0.949627
Si Si5 0.679596 0.424942 0.607469
Si Si6 0.330758 0.077113 0.802083
Si Si7 0.642188 0.920948 0.351371
O O1 0.498987 0.750000 0.835312
O O2 0.526509 0.531667 0.746454
O O3 0.556181 0.492918 0.874345
O O4 0.404071 0.519108 0.833740
O O5 0.763698 0.250000 0.998131
O O6 0.793857 0.525323 0.032890
O O7 0.654031 0.461067 0.976881
O O8 0.787898 0.459450 0.905410
O O9 0.971689 0.250000 0.156332
O O10 0.905032 0.000438 0.126445
O O11 0.062762 0.020761 0.134516
O O12 0.547058 0.250000 0.946211
O O13 0.500000 0.000000 0.000000
O O14 0.666302 0.250000 0.608093
O O15 0.747845 0.475017 0.661740
O O16 0.349854 0.250000 0.816342
O O17 0.319735 0.043422 0.722351
O O18 0.614113 0.750000 0.356000
#
# Coordination Sequence:
#
# PCOD8253836 Si02
#       7
#     8   8   8   8   8   8   8
#     4  10  21  37  58  86 118 152 192 237 291 350
#     4  10  23  40  59  84 116 155 194 240 295 348
#     4  10  22  39  59  86 117 151 192 240 293 347
#     4  11  23  38  60  87 121 159 196 240 291 350
#     4  11  23  37  59  87 116 152 195 241 290 349
#     4   9  19  36  60  86 113 148 194 244 290 341
#     4   9  19  39  62  84 111 147 195 245 292 343
#
# _framework density 19.422228
#
# number of rings (size 3 to 8) (size 9 to 14) (size 15 to 20)
#    0.000    2.000    0.000    2.571    2.000    7.429 
#    0.000    0.000    0.000    0.000    0.000    0.000 
#    0.000    0.000    0.000    0.000    0.000    0.000 
#
# Total GULP energy -694705.319979 kJ/mol
# GULP energy per Si atom -12405.452142 kJ/mol
# Density = 1.937802 g / cm^3
# Si number density = 19.422228 Si / 1000 Ang^3
#
#
#
# Elastic Constant Matrix: (Units=GPa)
#
#
# Indices 1 2 3 4 5 6 
#
# 1 77.5853 32.9690 38.9109 0.0000 0.0000 0.0000
# 2 32.9690 69.7707 33.1585 0.0000 0.0000 0.0000
# 3 38.9109 33.1585 84.5505 0.0000 0.0000 0.0000
# 4 0.0000 0.0000 0.0000 35.5530 0.0000 0.0000
# 5 0.0000 0.0000 0.0000 0.0000 35.9077 0.0000
# 6 0.0000 0.0000 0.0000 0.0000 0.0000 29.2761
#
#
#
# Elastic Compliance Matrix: (Units=1/GPa)
#
#
# Indices 1 2 3 4 5 6 
#
# 1 0.018466 -0.005761 -0.006239 0.000000 0.000000 0.000000
# 2 -0.005761 0.019413 -0.004962 0.000000 0.000000 0.000000
# 3 -0.006239 -0.004962 0.016645 0.000000 0.000000 0.000000
# 4 0.000000 0.000000 0.000000 0.028127 0.000000 0.000000
# 5 0.000000 0.000000 0.000000 0.000000 0.027849 0.000000
# 6 0.000000 0.000000 0.000000 0.000000 0.000000 0.034158
#
#
# Mechanical properties :
#
#
# Convention : Reuss Voigt Hill
#
# Bulk Modulus (GPa) = 48.54414 49.10925 48.82670
# Shear Modulus (GPa) = 26.96175 28.60522 27.78348
#
# Velocity S-wave (km/s) = 3.72988 3.84188 3.78630
# Velocity P-wave (km/s) = 6.60286 6.70970 6.65649
#
# Compressibility (1/GPa) = 0.02059981
#
# Stress axis : x y z
#
# Youngs Moduli (GPa) = 54.15347 51.51165 60.07981
#
# Poissons Ratio (x) = 0.29675 0.37484
# Poissons Ratio (y) = 0.31196 0.29813
# Poissons Ratio (z) = 0.33786 0.25561
#
# Static dielectric constant tensor:
#      x y z
#    x 3.533540 0.000000 0.000000 
#    y 0.000000 3.573960 0.000000 
#    z 0.000000 0.000000 3.652560 
# 
# 
# High freq. dielectric constant tensor:
#      x y z
#    x 1.758960 0.000000 0.000000 
#    y 0.000000 1.760340 0.000000 
#    z 0.000000 0.000000 1.762880 
# 
# From -- ./inp_files/27120.got.cif
#   From: 2010.03.12/outbox.cif.g09.slc.cpg/sg62_14_cif.got.tgz:27120.got - 2010.04.10 19:12:36.
