data_PCOD8253794
_publ_section_title
;
Structure prediction by ZEFSAII (Michael W. Deem and Ramdas Pophale) SiO2 
 PCOD8253794
Probable space group: P N M A
;
_chemical_formula_sum "Si O2"
_cell_formula_units_Z 64
_cell_length_a 17.972099
_cell_length_b 9.075471
_cell_length_c 20.391175
_cell_angle_alpha 90.000000
_cell_angle_beta 90.000000
_cell_angle_gamma 90.000000
_cell_volume 3325.907967
_symmetry_space_group_name_H-M "P N M A"
_symmetry_group_IT_number 62
_symmetry_cell_setting 'orthorhombic'
loop_
_space_group_symop_operation_xyz
x,y,z
1/2-x,-y,1/2+z
1/2+x,1/2-y,1/2-z
-x,1/2+y,-z
-x,-y,-z
1/2+x,y,1/2-z
1/2-x,1/2+y,1/2+z
x,1/2-y,z
loop_
_atom_site_type_symbol
_atom_site_label
_atom_site_fract_x
_atom_site_fract_y
_atom_site_fract_z
Si Si1 0.968582 0.920977 0.821613
Si Si2 0.957173 0.420708 0.690333
Si Si3 0.785644 0.080650 0.700338
Si Si4 0.289748 0.576640 0.052120
Si Si5 0.541886 0.421634 0.558867
Si Si6 0.205221 0.079403 0.168562
Si Si7 0.960609 0.922556 0.440226
Si Si8 0.284981 0.919934 0.434657
O O1 0.989585 0.750000 0.825178
O O2 0.882449 0.948208 0.837513
O O3 0.987968 0.982371 0.750007
O O4 0.018124 0.009482 0.872622
O O5 0.973250 0.250000 0.705961
O O6 0.870108 0.449437 0.678240
O O7 0.000786 0.475695 0.626566
O O8 0.774075 0.250000 0.720567
O O9 0.732130 0.035525 0.640433
O O10 0.763465 0.983363 0.763019
O O11 0.277537 0.750000 0.055933
O O12 0.241370 0.502379 0.108041
O O13 0.374859 0.531380 0.062857
O O14 0.264616 0.520719 0.981214
O O15 0.500000 0.500000 0.500000
O O16 0.521345 0.250000 0.558324
O O17 0.629202 0.447170 0.549288
O O18 0.225800 0.250000 0.164982
O O19 0.970911 0.750000 0.450161
O O20 0.000000 0.000000 0.500000
O O21 0.262669 0.750000 0.446310
#
# Coordination Sequence:
#
# PCOD8253794 Si02
#       8
#     8   8   8   8   8   8   8   8
#     4  10  21  37  57  82 111 143 182 226 272 325
#     4   9  18  35  58  81 108 144 182 220 267 323
#     4   9  18  35  59  82 106 141 182 223 269 322
#     4  11  23  37  56  83 113 145 184 229 273 322
#     4  11  23  38  57  81 110 144 183 228 276 327
#     4  10  21  37  57  81 111 146 182 223 272 326
#     4  10  22  38  57  83 113 146 185 228 273 323
#     4  10  22  39  58  81 110 145 184 227 276 328
#
# _framework density 19.242865999999999
#
# number of rings (size 3 to 8) (size 9 to 14) (size 15 to 20)
#    0.000    2.000    0.000    3.000    0.000    9.500 
#    0.000    7.500    0.000    0.000    0.000    0.000 
#    0.000    0.000    0.000    0.000    0.000    0.000 
#
# Total GULP energy -793940.172780 kJ/mol
# GULP energy per Si atom -12405.315200 kJ/mol
# Density = 1.919907 g / cm^3
# Si number density = 19.242866 Si / 1000 Ang^3
#
#
#
# Elastic Constant Matrix: (Units=GPa)
#
#
# Indices 1 2 3 4 5 6 
#
# 1 37.6993 33.0391 26.0215 0.0000 0.0000 0.0000
# 2 33.0391 87.5562 49.8516 0.0000 0.0000 0.0000
# 3 26.0215 49.8516 107.7282 0.0000 0.0000 0.0000
# 4 0.0000 0.0000 0.0000 44.0820 0.0000 0.0000
# 5 0.0000 0.0000 0.0000 0.0000 40.5228 0.0000
# 6 0.0000 0.0000 0.0000 0.0000 0.0000 25.7228
#
#
#
# Elastic Compliance Matrix: (Units=1/GPa)
#
#
# Indices 1 2 3 4 5 6 
#
# 1 0.040689 -0.013249 -0.003697 0.000000 0.000000 0.000000
# 2 -0.013249 0.019821 -0.005972 0.000000 0.000000 0.000000
# 3 -0.003697 -0.005972 0.012939 0.000000 0.000000 0.000000
# 4 0.000000 0.000000 0.000000 0.022685 0.000000 0.000000
# 5 0.000000 0.000000 0.000000 0.000000 0.024677 0.000000
# 6 0.000000 0.000000 0.000000 0.000000 0.000000 0.038876
#
#
# Mechanical properties :
#
#
# Convention : Reuss Voigt Hill
#
# Bulk Modulus (GPa) = 36.21513 50.08979 43.15246
# Shear Modulus (GPa) = 23.28533 30.33694 26.81113
#
# Velocity S-wave (km/s) = 3.48239 3.97486 3.73675
# Velocity P-wave (km/s) = 5.91864 6.86679 6.41027
#
# Compressibility (1/GPa) = 0.02761277
#
# Stress axis : x y z
#
# Youngs Moduli (GPa) = 24.57687 50.45210 77.28404
#
# Poissons Ratio (x) = 0.66842 0.28575
# Poissons Ratio (y) = 0.32561 0.46154
# Poissons Ratio (z) = 0.09087 0.30130
#
# Static dielectric constant tensor:
#      x y z
#    x 3.556550 0.000000 0.000000 
#    y 0.000000 3.576170 0.000000 
#    z 0.000000 0.000000 3.714770 
# 
# 
# High freq. dielectric constant tensor:
#      x y z
#    x 1.747620 0.000000 0.000000 
#    y 0.000000 1.751770 0.000000 
#    z 0.000000 0.000000 1.763270 
# 
# From -- ./inp_files/27676.got.cif
#   From: 2010.03.12/outbox.cif.g09.slc.cpg/sg62_14_cif.got.tgz:27676.got - 2010.04.10 19:12:36.
