data_PCOD8253305
_publ_section_title
;
Structure prediction by ZEFSAII (Michael W. Deem and Ramdas Pophale) SiO2 
 PCOD8253305
Probable space group: P N M A
;
_chemical_formula_sum "Si O2"
_cell_formula_units_Z 48
_cell_length_a 14.553287
_cell_length_b 17.441137
_cell_length_c 9.685764
_cell_angle_alpha 90.000000
_cell_angle_beta 90.000000
_cell_angle_gamma 90.000000
_cell_volume 2458.497497
_symmetry_space_group_name_H-M "P N M A"
_symmetry_group_IT_number 62
_symmetry_cell_setting 'orthorhombic'
loop_
_space_group_symop_operation_xyz
x,y,z
1/2-x,-y,1/2+z
1/2+x,1/2-y,1/2-z
-x,1/2+y,-z
-x,-y,-z
1/2+x,y,1/2-z
1/2-x,1/2+y,1/2+z
x,1/2-y,z
loop_
_atom_site_type_symbol
_atom_site_label
_atom_site_fract_x
_atom_site_fract_y
_atom_site_fract_z
Si Si1 0.793984 0.085539 0.220369
Si Si2 0.096683 0.056855 0.357410
Si Si3 0.543641 0.609661 0.216672
Si Si4 0.071664 0.838205 0.584580
Si Si5 0.847617 0.927774 0.336944
Si Si6 0.322719 0.338154 0.561083
O O1 0.683896 0.096503 0.216008
O O2 0.832974 0.135133 0.346540
O O3 0.816280 0.995757 0.236661
O O4 0.838685 0.113464 0.077445
O O5 0.119514 0.036423 0.516713
O O6 0.011966 0.114864 0.347912
O O7 0.070727 0.979595 0.278536
O O8 0.433435 0.617518 0.229289
O O9 0.586828 0.653136 0.346243
O O10 0.580405 0.649754 0.078490
O O11 0.053677 0.750000 0.618226
O O12 0.765449 0.867888 0.354559
O O13 0.306483 0.250000 0.521836
#
# Coordination Sequence:
#
# PCOD8253305 Si02
#       6
#     8   8   8   8   8   8
#     4  11  21  38  63  87 118 158 193 246 298 354
#     4  10  20  37  63  86 115 152 205 242 285 350
#     4  11  20  39  63  84 114 160 204 237 289 358
#     4  11  22  38  62  90 118 152 202 250 295 351
#     4  10  20  38  64  86 112 158 206 235 285 358
#     4  11  25  39  57  91 127 151 190 253 310 346
#
# _framework density 19.524121000000001
#
# number of rings (size 3 to 8) (size 9 to 14) (size 15 to 20)
#    0.000    1.333    5.000    2.000    0.000    8.000 
#    0.000    0.000    0.000    4.000    0.000    0.000 
#    0.000    0.000    0.000    0.000    0.000    0.000 
#
# Total GULP energy -595463.999820 kJ/mol
# GULP energy per Si atom -12405.499996 kJ/mol
# Density = 1.947968 g / cm^3
# Si number density = 19.524121 Si / 1000 Ang^3
#
#
#
# Elastic Constant Matrix: (Units=GPa)
#
#
# Indices 1 2 3 4 5 6 
#
# 1 61.4523 24.8461 21.8548 0.0000 0.0000 0.0000
# 2 24.8461 106.2086 30.0177 0.0000 0.0000 0.0000
# 3 21.8548 30.0177 53.2942 0.0000 0.0000 0.0000
# 4 0.0000 0.0000 0.0000 17.8890 0.0000 0.0000
# 5 0.0000 0.0000 0.0000 0.0000 34.0385 0.0000
# 6 0.0000 0.0000 0.0000 0.0000 0.0000 23.9784
#
#
#
# Elastic Compliance Matrix: (Units=1/GPa)
#
#
# Indices 1 2 3 4 5 6 
#
# 1 0.019712 -0.002767 -0.006525 0.000000 0.000000 0.000000
# 2 -0.002767 0.011587 -0.005391 0.000000 0.000000 0.000000
# 3 -0.006525 -0.005391 0.024476 0.000000 0.000000 0.000000
# 4 0.000000 0.000000 0.000000 0.055900 0.000000 0.000000
# 5 0.000000 0.000000 0.000000 0.000000 0.029378 0.000000
# 6 0.000000 0.000000 0.000000 0.000000 0.000000 0.041704
#
#
# Mechanical properties :
#
#
# Convention : Reuss Voigt Hill
#
# Bulk Modulus (GPa) = 37.86741 41.59915 39.73328
# Shear Modulus (GPa) = 22.63190 24.79696 23.71443
#
# Velocity S-wave (km/s) = 3.40836 3.56767 3.48892
# Velocity P-wave (km/s) = 5.90987 6.19062 6.05187
#
# Compressibility (1/GPa) = 0.02640793
#
# Stress axis : x y z
#
# Youngs Moduli (GPa) = 50.73016 86.30717 40.85624
#
# Poissons Ratio (x) = 0.23884 0.26658
# Poissons Ratio (y) = 0.14038 0.22027
# Poissons Ratio (z) = 0.33101 0.46530
#
# Static dielectric constant tensor:
#      x y z
#    x 3.750530 0.000000 0.000000 
#    y 0.000000 3.456780 0.000000 
#    z 0.000000 0.000000 3.428830 
# 
# 
# High freq. dielectric constant tensor:
#      x y z
#    x 1.769130 0.000000 0.000000 
#    y 0.000000 1.758510 0.000000 
#    z 0.000000 0.000000 1.743120 
# 
# From -- ./inp_files/6465.got.cif
#   From: 2010.03.12/outbox.cif.g09.slc.cpg/sg62_4_cif.got.tgz:6465.got - 2010.04.10 19:12:36.
