data_PCOD8253480
_publ_section_title
;
Structure prediction by ZEFSAII (Michael W. Deem and Ramdas Pophale) SiO2 
 PCOD8253480
Probable space group: P N M A
;
_chemical_formula_sum "Si O2"
_cell_formula_units_Z 40
_cell_length_a 15.090454
_cell_length_b 12.427460
_cell_length_c 7.873588
_cell_angle_alpha 90.000000
_cell_angle_beta 90.000000
_cell_angle_gamma 90.000000
_cell_volume 1476.581305
_symmetry_space_group_name_H-M "P N M A"
_symmetry_group_IT_number 62
_symmetry_cell_setting 'orthorhombic'
loop_
_space_group_symop_operation_xyz
x,y,z
1/2-x,-y,1/2+z
1/2+x,1/2-y,1/2-z
-x,1/2+y,-z
-x,-y,-z
1/2+x,y,1/2-z
1/2-x,1/2+y,1/2+z
x,1/2-y,z
loop_
_atom_site_type_symbol
_atom_site_label
_atom_site_fract_x
_atom_site_fract_y
_atom_site_fract_z
Si Si1 0.282243 0.071568 0.530814
Si Si2 0.022236 0.875625 0.089401
Si Si3 0.489396 0.121533 0.211896
Si Si4 0.206072 0.628652 0.648788
Si Si5 0.905926 0.873715 0.394030
O O1 0.372587 0.109524 0.618545
O O2 0.269290 0.122783 0.346829
O O3 0.198183 0.110927 0.643057
O O4 0.273726 0.941170 0.533977
O O5 0.999921 0.750000 0.088181
O O6 0.966032 0.930527 0.244952
O O7 0.992078 0.924777 0.904425
O O8 0.479508 0.250000 0.233375
O O9 0.394500 0.082223 0.131997
O O10 0.566280 0.084896 0.082877
O O11 0.215847 0.750000 0.583275
O O12 0.932767 0.750000 0.388369
#
# Coordination Sequence:
#
# PCOD8253480 Si02
#       5
#     8   8   8   8   8
#     4  11  23  43  70 100 137 189 239 285 356 429
#     4   9  19  39  65 100 146 185 230 295 355 415
#     4   8  17  37  61  89 133 179 218 285 356 401
#     4  10  23  45  67  98 142 183 234 298 355 413
#     4  10  20  38  69 104 137 183 239 291 350 427
#
# _framework density 27.089601999999999
#
# number of rings (size 3 to 8) (size 9 to 14) (size 15 to 20)
#    0.000    2.400    0.000    3.000    2.800    0.800 
#    3.600    4.000    0.000    0.000    0.000    1.400 
#    0.000    0.000    0.000    0.000    0.000    0.000 
#
# Total GULP energy -496169.463473 kJ/mol
# GULP energy per Si atom -12404.236587 kJ/mol
# Density = 2.702794 g / cm^3
# Si number density = 27.089602 Si / 1000 Ang^3
#
#
#
# Elastic Constant Matrix: (Units=GPa)
#
#
# Indices 1 2 3 4 5 6 
#
# 1 155.2578 15.1206 85.5550 0.0000 0.0000 0.0000
# 2 15.1206 63.9809 44.2888 0.0000 0.0000 0.0000
# 3 85.5550 44.2888 140.9413 0.0000 0.0000 0.0000
# 4 0.0000 0.0000 0.0000 45.8724 0.0000 0.0000
# 5 0.0000 0.0000 0.0000 0.0000 41.0685 0.0000
# 6 0.0000 0.0000 0.0000 0.0000 0.0000 35.7128
#
#
#
# Elastic Compliance Matrix: (Units=1/GPa)
#
#
# Indices 1 2 3 4 5 6 
#
# 1 0.009944 0.002337 -0.006771 0.000000 0.000000 0.000000
# 2 0.002337 0.020524 -0.007868 0.000000 0.000000 0.000000
# 3 -0.006771 -0.007868 0.013677 0.000000 0.000000 0.000000
# 4 0.000000 0.000000 0.000000 0.021800 0.000000 0.000000
# 5 0.000000 0.000000 0.000000 0.000000 0.024350 0.000000
# 6 0.000000 0.000000 0.000000 0.000000 0.000000 0.028001
#
#
# Mechanical properties :
#
#
# Convention : Reuss Voigt Hill
#
# Bulk Modulus (GPa) = 51.17198 72.23430 61.70314
# Shear Modulus (GPa) = 33.46424 38.87846 36.17135
#
# Velocity S-wave (km/s) = 3.51852 3.79249 3.65807
# Velocity P-wave (km/s) = 5.95294 6.77496 6.37721
#
# Compressibility (1/GPa) = 0.01954195
#
# Stress axis : x y z
#
# Youngs Moduli (GPa) = 100.55948 48.72443 73.11284
#
# Poissons Ratio (x) = -0.11385 0.49503
# Poissons Ratio (y) = -0.23498 0.57523
# Poissons Ratio (z) = 0.68086 0.38335
#
# Static dielectric constant tensor:
#      x y z
#    x 4.693760 0.000000 0.000000 
#    y 0.000000 5.368100 0.000000 
#    z 0.000000 0.000000 4.924720 
# 
# 
# High freq. dielectric constant tensor:
#      x y z
#    x 2.077920 0.000000 0.000000 
#    y 0.000000 2.146330 0.000000 
#    z 0.000000 0.000000 2.078150 
# 
# From -- ./inp_files/6129.got.cif
#   From: 2010.03.12/outbox.cif.g09.slc.cpg/sg62_4_cif.got.tgz:6129.got - 2010.04.10 19:12:36.
