data_PCOD8253376
_publ_section_title
;
Structure prediction by ZEFSAII (Michael W. Deem and Ramdas Pophale) SiO2 
 PCOD8253376
Probable space group: P N M A
;
_chemical_formula_sum "Si O2"
_cell_formula_units_Z 32
_cell_length_a 15.398430
_cell_length_b 8.676427
_cell_length_c 12.938810
_cell_angle_alpha 90.000000
_cell_angle_beta 90.000000
_cell_angle_gamma 90.000000
_cell_volume 1728.668410
_symmetry_space_group_name_H-M "P N M A"
_symmetry_group_IT_number 62
_symmetry_cell_setting 'orthorhombic'
loop_
_space_group_symop_operation_xyz
x,y,z
1/2-x,-y,1/2+z
1/2+x,1/2-y,1/2-z
-x,1/2+y,-z
-x,-y,-z
1/2+x,y,1/2-z
1/2-x,1/2+y,1/2+z
x,1/2-y,z
loop_
_atom_site_type_symbol
_atom_site_label
_atom_site_fract_x
_atom_site_fract_y
_atom_site_fract_z
Si Si1 0.907086 0.931226 0.523920
Si Si2 0.852431 0.075668 0.733953
Si Si3 0.248961 0.568091 0.599129
Si Si4 0.917605 0.423969 0.948278
O O1 0.908502 0.750000 0.507031
O O2 0.881024 0.968239 0.640833
O O3 0.840851 0.006029 0.443881
O O4 0.000000 0.000000 0.500000
O O5 0.834965 0.250000 0.694475
O O6 0.927629 0.074452 0.822779
O O7 0.764967 0.006467 0.787017
O O8 0.245503 0.750000 0.608390
O O9 0.328896 0.516832 0.523323
O O10 0.908106 0.250000 0.989712
O O11 0.000000 0.500000 0.000000
#
# Coordination Sequence:
#
# PCOD8253376 Si02
#       4
#     8   8   8   8
#     4  12  24  41  63  89 123 162 203 251 305 364
#     4   9  20  39  59  85 119 153 197 247 295 354
#     4  10  20  38  61  87 120 158 199 246 298 356
#     4   9  18  34  58  86 120 154 196 246 297 354
#
# _framework density 18.511357
#
# number of rings (size 3 to 8) (size 9 to 14) (size 15 to 20)
#    1.500    0.500    0.000    5.250    0.000    0.000 
#    4.500    0.000    0.000    0.000    0.000    0.000 
#    0.000    0.000    0.000    0.000    0.000    0.000 
#
# Total GULP energy -396542.652380 kJ/mol
# GULP energy per Si atom -12391.957887 kJ/mol
# Density = 1.846922 g / cm^3
# Si number density = 18.511357 Si / 1000 Ang^3
#
#
#
# Elastic Constant Matrix: (Units=GPa)
#
#
# Indices 1 2 3 4 5 6 
#
# 1 127.9896 38.7134 39.1330 0.0000 0.0000 0.0000
# 2 38.7134 136.6249 16.9613 0.0000 0.0000 0.0000
# 3 39.1330 16.9613 71.9608 0.0000 0.0000 0.0000
# 4 0.0000 0.0000 0.0000 33.2675 0.0000 0.0000
# 5 0.0000 0.0000 0.0000 0.0000 29.2070 0.0000
# 6 0.0000 0.0000 0.0000 0.0000 0.0000 36.9483
#
#
#
# Elastic Compliance Matrix: (Units=1/GPa)
#
#
# Indices 1 2 3 4 5 6 
#
# 1 0.009985 -0.002220 -0.004907 0.000000 0.000000 0.000000
# 2 -0.002220 0.008034 -0.000686 0.000000 0.000000 0.000000
# 3 -0.004907 -0.000686 0.016726 0.000000 0.000000 0.000000
# 4 0.000000 0.000000 0.000000 0.030059 0.000000 0.000000
# 5 0.000000 0.000000 0.000000 0.000000 0.034238 0.000000
# 6 0.000000 0.000000 0.000000 0.000000 0.000000 0.027065
#
#
# Mechanical properties :
#
#
# Convention : Reuss Voigt Hill
#
# Bulk Modulus (GPa) = 52.30383 58.46563 55.38473
# Shear Modulus (GPa) = 33.75952 36.00238 34.88095
#
# Velocity S-wave (km/s) = 4.27514 4.41486 4.34556
# Velocity P-wave (km/s) = 7.25847 7.59212 7.42717
#
# Compressibility (1/GPa) = 0.01911906
#
# Stress axis : x y z
#
# Youngs Moduli (GPa) = 100.15165 124.47739 59.78560
#
# Poissons Ratio (x) = 0.27636 0.29334
# Poissons Ratio (y) = 0.22235 0.04103
# Poissons Ratio (z) = 0.49140 0.08542
#
# Static dielectric constant tensor:
#      x y z
#    x 3.268570 0.000000 0.000000 
#    y 0.000000 2.879010 0.000000 
#    z 0.000000 0.000000 3.198010 
# 
# 
# High freq. dielectric constant tensor:
#      x y z
#    x 1.704010 0.000000 0.000000 
#    y 0.000000 1.742250 0.000000 
#    z 0.000000 0.000000 1.701360 
# 
# From -- ./inp_files/12763.got.cif
#   From: 2010.03.12/outbox.cif.g09.slc.cpg/sg62_7_cif.got.tgz:12763.got - 2010.04.10 19:12:36.
