data_PCOD8253270
_publ_section_title
;
Structure prediction by ZEFSAII (Michael W. Deem and Ramdas Pophale) SiO2 
 PCOD8253270
Probable space group: P N M A
;
_chemical_formula_sum "Si O2"
_cell_formula_units_Z 56
_cell_length_a 21.592412
_cell_length_b 8.855438
_cell_length_c 14.564507
_cell_angle_alpha 90.000000
_cell_angle_beta 90.000000
_cell_angle_gamma 90.000000
_cell_volume 2784.883254
_symmetry_space_group_name_H-M "P N M A"
_symmetry_group_IT_number 62
_symmetry_cell_setting 'orthorhombic'
loop_
_space_group_symop_operation_xyz
x,y,z
1/2-x,-y,1/2+z
1/2+x,1/2-y,1/2-z
-x,1/2+y,-z
-x,-y,-z
1/2+x,y,1/2-z
1/2-x,1/2+y,1/2+z
x,1/2-y,z
loop_
_atom_site_type_symbol
_atom_site_label
_atom_site_fract_x
_atom_site_fract_y
_atom_site_fract_z
Si Si1 0.756206 0.928573 0.386607
Si Si2 0.963082 0.571175 0.583363
Si Si3 0.396610 0.572980 0.398852
Si Si4 0.011499 0.575073 0.229012
Si Si5 0.717584 0.928257 0.699267
Si Si6 0.384570 0.073245 0.586569
Si Si7 0.323732 0.928929 0.932574
O O1 0.760911 0.750000 0.379397
O O2 0.685089 0.980949 0.392843
O O3 0.793366 0.992651 0.474072
O O4 0.789286 0.997985 0.298359
O O5 0.965113 0.750000 0.574042
O O6 0.993665 0.523078 0.679166
O O7 0.892865 0.507691 0.579631
O O8 0.000000 0.500000 0.500000
O O9 0.382528 0.750000 0.396548
O O10 0.454321 0.530584 0.335179
O O11 0.337155 0.481557 0.366143
O O12 0.412304 0.520943 0.501906
O O13 0.009083 0.750000 0.256881
O O14 0.074865 0.536013 0.176042
O O15 0.714117 0.750000 0.708755
O O16 0.782348 0.981145 0.653744
O O17 0.387637 0.250000 0.561676
O O18 0.324458 0.750000 0.938547
#
# Coordination Sequence:
#
# PCOD8253270 Si02
#       7
#     8   8   8   8   8   8   8
#     4  10  20  37  61  88 119 156 191 238 303 356
#     4  11  24  42  64  89 120 159 204 251 300 357
#     4  11  23  38  59  89 125 160 198 247 301 354
#     4  10  23  41  61  88 122 161 201 246 300 355
#     4  11  22  39  61  89 120 156 203 247 295 358
#     4  10  20  39  65  91 122 159 198 244 298 361
#     4   9  20  40  62  84 119 158 190 240 304 352
#
# _framework density 20.108561999999999
#
# number of rings (size 3 to 8) (size 9 to 14) (size 15 to 20)
#    0.000    1.714    1.429    2.571    2.000    2.286 
#    0.000    2.857    0.000    0.000    0.000    0.000 
#    0.000    0.000    0.000    0.000    0.000    0.000 
#
# Total GULP energy -694679.358350 kJ/mol
# GULP energy per Si atom -12404.988542 kJ/mol
# Density = 2.006279 g / cm^3
# Si number density = 20.108562 Si / 1000 Ang^3
#
#
#
# Elastic Constant Matrix: (Units=GPa)
#
#
# Indices 1 2 3 4 5 6 
#
# 1 81.0268 20.7862 16.4941 0.0000 0.0000 0.0000
# 2 20.7862 45.3392 32.3966 0.0000 0.0000 0.0000
# 3 16.4941 32.3966 117.9799 0.0000 0.0000 0.0000
# 4 0.0000 0.0000 0.0000 36.5395 0.0000 0.0000
# 5 0.0000 0.0000 0.0000 0.0000 33.1049 0.0000
# 6 0.0000 0.0000 0.0000 0.0000 0.0000 25.7313
#
#
#
# Elastic Compliance Matrix: (Units=1/GPa)
#
#
# Indices 1 2 3 4 5 6 
#
# 1 0.013992 -0.006242 -0.000242 0.000000 0.000000 0.000000
# 2 -0.006242 0.030224 -0.007427 0.000000 0.000000 0.000000
# 3 -0.000242 -0.007427 0.010549 0.000000 0.000000 0.000000
# 4 0.000000 0.000000 0.000000 0.027368 0.000000 0.000000
# 5 0.000000 0.000000 0.000000 0.000000 0.030207 0.000000
# 6 0.000000 0.000000 0.000000 0.000000 0.000000 0.038863
#
#
# Mechanical properties :
#
#
# Convention : Reuss Voigt Hill
#
# Bulk Modulus (GPa) = 37.11383 42.63330 39.87357
# Shear Modulus (GPa) = 26.59486 30.71974 28.65730
#
# Velocity S-wave (km/s) = 3.64065 3.91281 3.77918
# Velocity P-wave (km/s) = 6.01409 6.45454 6.23820
#
# Compressibility (1/GPa) = 0.02694413
#
# Stress axis : x y z
#
# Youngs Moduli (GPa) = 71.46872 33.08601 94.79362
#
# Poissons Ratio (x) = 0.20651 0.02296
# Poissons Ratio (y) = 0.44609 0.70401
# Poissons Ratio (z) = 0.01731 0.24572
#
# Static dielectric constant tensor:
#      x y z
#    x 3.873290 0.000000 0.000000 
#    y 0.000000 3.420220 0.000000 
#    z 0.000000 0.000000 3.708880 
# 
# 
# High freq. dielectric constant tensor:
#      x y z
#    x 1.794990 0.000000 0.000000 
#    y 0.000000 1.768120 0.000000 
#    z 0.000000 0.000000 1.798930 
# 
# From -- ./inp_files/20297.got.cif
#   From: 2010.03.12/outbox.cif.g09.slc.cpg/sg62_11_cif.got.tgz:20297.got - 2010.04.10 19:12:36.
