data_PCOD8253881
_publ_section_title
;
Structure prediction by ZEFSAII (Michael W. Deem and Ramdas Pophale) SiO2 
 PCOD8253881
Probable space group: P N M A
;
_chemical_formula_sum "Si O2"
_cell_formula_units_Z 64
_cell_length_a 14.445387
_cell_length_b 24.871479
_cell_length_c 8.855317
_cell_angle_alpha 90.000000
_cell_angle_beta 90.000000
_cell_angle_gamma 90.000000
_cell_volume 3181.521816
_symmetry_space_group_name_H-M "P N M A"
_symmetry_group_IT_number 62
_symmetry_cell_setting 'orthorhombic'
loop_
_space_group_symop_operation_xyz
x,y,z
1/2-x,-y,1/2+z
1/2+x,1/2-y,1/2-z
-x,1/2+y,-z
-x,-y,-z
1/2+x,y,1/2-z
1/2-x,1/2+y,1/2+z
x,1/2-y,z
loop_
_atom_site_type_symbol
_atom_site_label
_atom_site_fract_x
_atom_site_fract_y
_atom_site_fract_z
Si Si1 0.240700 0.424726 0.798991
Si Si2 0.444946 0.639198 0.758120
Si Si3 0.452757 0.403628 0.801001
Si Si4 0.467133 0.438905 0.477304
Si Si5 0.374879 0.578734 0.033486
Si Si6 0.276238 0.457147 0.341341
Si Si7 0.417401 0.311506 0.030918
Si Si8 0.730486 0.133032 0.401354
O O1 0.351217 0.428537 0.806893
O O2 0.194974 0.393920 0.656782
O O3 0.199829 0.484776 0.773715
O O4 0.199548 0.397465 0.947360
O O5 0.483046 0.587169 0.668025
O O6 0.527141 0.678920 0.810442
O O7 0.360983 0.664646 0.659320
O O8 0.397977 0.624765 0.915566
O O9 0.485341 0.402105 0.626163
O O10 0.528259 0.441033 0.889846
O O11 0.451892 0.345732 0.885339
O O12 0.500000 0.500000 0.500000
O O13 0.357477 0.438001 0.451523
O O14 0.317192 0.533704 0.941427
O O15 0.264644 0.413294 0.211438
O O16 0.427064 0.250000 0.982575
O O17 0.310635 0.324310 0.066938
#
# Coordination Sequence:
#
# PCOD8253881 Si02
#       8
#     8   8   8   8   8   8   8   8
#     4  11  21  36  56  88 129 173 206 254 310 375
#     4  10  22  39  62  91 127 162 207 268 314 383
#     4  10  23  39  61  88 125 167 213 264 310 384
#     4  12  23  38  58  93 132 174 205 249 312 384
#     4  10  21  38  55  84 120 167 210 255 305 367
#     4  11  21  35  55  86 130 165 209 252 305 381
#     4  10  22  44  66  87 120 165 218 278 324 365
#     4  10  21  37  60  90 124 161 211 263 314 379
#
# _framework density 20.116161000000002
#
# number of rings (size 3 to 8) (size 9 to 14) (size 15 to 20)
#    0.000    1.500    2.500    3.000    3.500    1.000 
#    0.000    0.625    0.000   18.000    0.000    0.000 
#    0.000    0.000    0.000    0.000    0.000    0.000 
#
# Total GULP energy -792890.774660 kJ/mol
# GULP energy per Si atom -12388.918354 kJ/mol
# Density = 2.007038 g / cm^3
# Si number density = 20.116161 Si / 1000 Ang^3
#
#
#
# Elastic Constant Matrix: (Units=GPa)
#
#
# Indices 1 2 3 4 5 6 
#
# 1 105.6675 26.1633 40.4228 0.0000 0.0000 0.0000
# 2 26.1633 88.3537 44.5614 0.0000 0.0000 0.0000
# 3 40.4228 44.5614 119.9094 0.0000 0.0000 0.0000
# 4 0.0000 0.0000 0.0000 19.7473 0.0000 0.0000
# 5 0.0000 0.0000 0.0000 0.0000 42.6751 0.0000
# 6 0.0000 0.0000 0.0000 0.0000 0.0000 15.8612
#
#
#
# Elastic Compliance Matrix: (Units=1/GPa)
#
#
# Indices 1 2 3 4 5 6 
#
# 1 0.011073 -0.001718 -0.003094 0.000000 0.000000 0.000000
# 2 -0.001718 0.014195 -0.004696 0.000000 0.000000 0.000000
# 3 -0.003094 -0.004696 0.011128 0.000000 0.000000 0.000000
# 4 0.000000 0.000000 0.000000 0.050640 0.000000 0.000000
# 5 0.000000 0.000000 0.000000 0.000000 0.023433 0.000000
# 6 0.000000 0.000000 0.000000 0.000000 0.000000 0.063047
#
#
# Mechanical properties :
#
#
# Convention : Reuss Voigt Hill
#
# Bulk Modulus (GPa) = 57.54105 59.58062 58.56084
# Shear Modulus (GPa) = 25.21102 29.17560 27.19331
#
# Velocity S-wave (km/s) = 3.54400 3.81249 3.68069
# Velocity P-wave (km/s) = 6.73892 7.00447 6.87298
#
# Compressibility (1/GPa) = 0.01737890
#
# Stress axis : x y z
#
# Youngs Moduli (GPa) = 90.31158 70.44491 89.86401
#
# Poissons Ratio (x) = 0.12105 0.27806
# Poissons Ratio (y) = 0.15518 0.42201
# Poissons Ratio (z) = 0.27944 0.33082
#
# Static dielectric constant tensor:
#      x y z
#    x 4.115540 0.000000 0.000000 
#    y 0.000000 3.022290 0.000000 
#    z 0.000000 0.000000 4.069830 
# 
# 
# High freq. dielectric constant tensor:
#      x y z
#    x 1.814730 0.000000 0.000000 
#    y 0.000000 1.713400 0.000000 
#    z 0.000000 0.000000 1.807320 
# 
# From -- ./inp_files/6963.got.cif
#   From: 2010.03.12/outbox.cif.g09.slc.cpg/sg62_4_cif.got.tgz:6963.got - 2010.04.10 19:12:36.
