data_PCOD8253331
_publ_section_title
;
Structure prediction by ZEFSAII (Michael W. Deem and Ramdas Pophale) SiO2 
 PCOD8253331
Probable space group: P N M A
;
_chemical_formula_sum "Si O2"
_cell_formula_units_Z 32
_cell_length_a 16.108703
_cell_length_b 17.966485
_cell_length_c 5.128061
_cell_angle_alpha 90.000000
_cell_angle_beta 90.000000
_cell_angle_gamma 90.000000
_cell_volume 1484.146855
_symmetry_space_group_name_H-M "P N M A"
_symmetry_group_IT_number 62
_symmetry_cell_setting 'orthorhombic'
loop_
_space_group_symop_operation_xyz
x,y,z
1/2-x,-y,1/2+z
1/2+x,1/2-y,1/2-z
-x,1/2+y,-z
-x,-y,-z
1/2+x,y,1/2-z
1/2-x,1/2+y,1/2+z
x,1/2-y,z
loop_
_atom_site_type_symbol
_atom_site_label
_atom_site_fract_x
_atom_site_fract_y
_atom_site_fract_z
Si Si1 0.648741 0.029813 0.808084
Si Si2 0.784837 0.390248 0.538522
Si Si3 0.885331 0.610017 0.819819
Si Si4 0.110003 0.750000 0.383545
Si Si5 0.002177 0.750000 0.883598
O O1 0.744451 0.059449 0.771926
O O2 0.596704 0.047707 0.544926
O O3 0.602502 0.073022 0.039781
O O4 0.652611 0.941974 0.869406
O O5 0.709307 0.359926 0.357286
O O6 0.834138 0.322498 0.664648
O O7 0.947863 0.677409 0.841876
O O8 0.077152 0.750000 0.678641
O O9 0.035706 0.750000 0.177533
#
# Coordination Sequence:
#
# PCOD8253331 Si02
#       5
#     8   8   8   4   4
#     4  10  20  37  74  92 119 150 226 267 303 360
#     4  10  22  42  68 100 116 161 215 271 310 358
#     4  10  21  40  68  88 122 171 207 256 305 378
#     4  12  29  39  64  90 140 162 206 262 319 366
#     4  12  27  45  54  96 138 174 206 246 311 398
#
# _framework density 21.561207
#
# number of rings (size 3 to 8) (size 9 to 14) (size 15 to 20)
#    1.500    0.000    2.500    2.250    3.500    1.000 
#    0.000    7.500    0.000    0.000    0.000    0.000 
#    0.000    0.000    0.000    0.000    0.000    0.000 
#
# Total GULP energy -396669.910511 kJ/mol
# GULP energy per Si atom -12395.934703 kJ/mol
# Density = 2.151213 g / cm^3
# Si number density = 21.561207 Si / 1000 Ang^3
#
#
#
# Elastic Constant Matrix: (Units=GPa)
#
#
# Indices 1 2 3 4 5 6 
#
# 1 41.2678 27.3792 1.7666 0.0000 0.0000 0.0000
# 2 27.3792 115.4693 13.6927 0.0000 0.0000 0.0000
# 3 1.7666 13.6927 107.6555 0.0000 0.0000 0.0000
# 4 0.0000 0.0000 0.0000 30.5719 0.0000 0.0000
# 5 0.0000 0.0000 0.0000 0.0000 33.7602 0.0000
# 6 0.0000 0.0000 0.0000 0.0000 0.0000 -176.8732
#
#
#
# Elastic Compliance Matrix: (Units=1/GPa)
#
#
# Indices 1 2 3 4 5 6 
#
# 1 0.028773 -0.006870 0.000402 0.000000 0.000000 0.000000
# 2 -0.006870 0.010433 -0.001214 0.000000 0.000000 0.000000
# 3 0.000402 -0.001214 0.009437 0.000000 0.000000 0.000000
# 4 0.000000 0.000000 0.000000 0.032710 0.000000 0.000000
# 5 0.000000 0.000000 0.000000 0.000000 0.029621 0.000000
# 6 0.000000 0.000000 0.000000 0.000000 0.000000 -0.005654
#
#
# Mechanical properties :
#
#
# Convention : Reuss Voigt Hill
#
# Bulk Modulus (GPa) = 30.05038 38.89663 34.47350
# Shear Modulus (GPa) = 37.94285 -7.73794 15.10245
#
# Velocity S-wave (km/s) = 4.19952 -1.89648 2.64946
# Velocity P-wave (km/s) = 6.12226 3.64469 5.03815
#
# Compressibility (1/GPa) = 0.03327745
#
# Stress axis : x y z
#
# Youngs Moduli (GPa) = 34.75516 95.84733 105.96882
#
# Poissons Ratio (x) = 0.65847 -0.04256
# Poissons Ratio (y) = 0.23877 0.12867
# Poissons Ratio (z) = -0.01396 0.11638
#
# Static dielectric constant tensor:
#      x y z
#    x 3.557690 0.000000 0.000000 
#    y 0.000000 3.649720 0.000000 
#    z 0.000000 0.000000 3.850500 
# 
# 
# High freq. dielectric constant tensor:
#      x y z
#    x 1.821610 0.000000 0.000000 
#    y 0.000000 1.842540 0.000000 
#    z 0.000000 0.000000 1.851300 
# 
# From -- ./inp_files/897.got.cif
#   From: 2010.03.12/outbox.cif.g09.slc.cpg/sg62_1_cif.got.tgz:897.got - 2010.04.10 19:12:36.
