data_PCOD8253978
_publ_section_title
;
Structure prediction by ZEFSAII (Michael W. Deem and Ramdas Pophale) SiO2 
 PCOD8253978
Probable space group: P N M A
;
_chemical_formula_sum "Si O2"
_cell_formula_units_Z 56
_cell_length_a 18.252093
_cell_length_b 8.803914
_cell_length_c 17.249015
_cell_angle_alpha 90.000000
_cell_angle_beta 90.000000
_cell_angle_gamma 90.000000
_cell_volume 2771.741755
_symmetry_space_group_name_H-M "P N M A"
_symmetry_group_IT_number 62
_symmetry_cell_setting 'orthorhombic'
loop_
_space_group_symop_operation_xyz
x,y,z
1/2-x,-y,1/2+z
1/2+x,1/2-y,1/2-z
-x,1/2+y,-z
-x,-y,-z
1/2+x,y,1/2-z
1/2-x,1/2+y,1/2+z
x,1/2-y,z
loop_
_atom_site_type_symbol
_atom_site_label
_atom_site_fract_x
_atom_site_fract_y
_atom_site_fract_z
Si Si1 0.083524 0.570085 0.790542
Si Si2 0.327635 0.928896 0.416625
Si Si3 0.191716 0.424794 0.093248
Si Si4 0.921533 0.430064 0.489862
Si Si5 0.417442 0.923875 0.725996
Si Si6 0.168984 0.928386 0.364194
Si Si7 0.836675 0.929270 0.350401
O O1 0.090637 0.750000 0.780464
O O2 0.105868 0.521137 0.877592
O O3 0.139405 0.483050 0.734473
O O4 0.000455 0.514037 0.774822
O O5 0.343035 0.750000 0.411305
O O6 0.321780 0.981024 0.505867
O O7 0.253650 0.975460 0.370986
O O8 0.219067 0.250000 0.092737
O O9 0.116293 0.443978 0.140325
O O10 0.252809 0.526817 0.134495
O O11 0.926455 0.250000 0.488134
O O12 0.871809 0.491808 0.559876
O O13 0.889379 0.486542 0.409623
O O14 0.000000 0.500000 0.500000
O O15 0.417615 0.750000 0.751816
O O16 0.366893 0.009999 0.786625
O O17 0.160511 0.750000 0.362100
O O18 0.846035 0.750000 0.357436
#
# Coordination Sequence:
#
# PCOD8253978 Si02
#       7
#     8   8   8   8   8   8   8
#     4  11  24  41  60  88 124 161 203 253 306 363
#     4  10  21  40  64  90 120 158 201 248 307 367
#     4  10  21  42  66  89 121 161 200 252 311 362
#     4  11  22  38  59  88 124 164 201 248 307 363
#     4  10  23  40  61  88 120 160 203 248 304 361
#     4  10  21  38  60  86 119 156 197 243 300 361
#     4  12  24  39  61  91 122 160 208 252 303 369
#
# _framework density 20.203903
#
# number of rings (size 3 to 8) (size 9 to 14) (size 15 to 20)
#    0.000    1.429    1.429    3.857    0.000    9.143 
#    0.000    0.000    0.000    0.000    0.000    0.000 
#    0.000    0.000    0.000    0.000    0.000    0.000 
#
# Total GULP energy -694641.056097 kJ/mol
# GULP energy per Si atom -12404.304573 kJ/mol
# Density = 2.015792 g / cm^3
# Si number density = 20.203903 Si / 1000 Ang^3
#
#
#
# Elastic Constant Matrix: (Units=GPa)
#
#
# Indices 1 2 3 4 5 6 
#
# 1 72.9987 23.5184 40.9112 0.0000 0.0000 0.0000
# 2 23.5184 44.2220 22.7479 0.0000 0.0000 0.0000
# 3 40.9112 22.7479 112.5021 0.0000 0.0000 0.0000
# 4 0.0000 0.0000 0.0000 31.4679 0.0000 0.0000
# 5 0.0000 0.0000 0.0000 0.0000 24.8254 0.0000
# 6 0.0000 0.0000 0.0000 0.0000 0.0000 25.0347
#
#
#
# Elastic Compliance Matrix: (Units=1/GPa)
#
#
# Indices 1 2 3 4 5 6 
#
# 1 0.019137 -0.007364 -0.005470 0.000000 0.000000 0.000000
# 2 -0.007364 0.028072 -0.002998 0.000000 0.000000 0.000000
# 3 -0.005470 -0.002998 0.011484 0.000000 0.000000 0.000000
# 4 0.000000 0.000000 0.000000 0.031778 0.000000 0.000000
# 5 0.000000 0.000000 0.000000 0.000000 0.040281 0.000000
# 6 0.000000 0.000000 0.000000 0.000000 0.000000 0.039945
#
#
# Mechanical properties :
#
#
# Convention : Reuss Voigt Hill
#
# Bulk Modulus (GPa) = 36.99790 44.89752 40.94771
# Shear Modulus (GPa) = 23.65509 25.76862 24.71185
#
# Velocity S-wave (km/s) = 3.42543 3.57519 3.50111
# Velocity P-wave (km/s) = 5.83068 6.27001 6.05433
#
# Compressibility (1/GPa) = 0.02702856
#
# Stress axis : x y z
#
# Youngs Moduli (GPa) = 52.25483 35.62307 87.07606
#
# Poissons Ratio (x) = 0.26232 0.47632
# Poissons Ratio (y) = 0.38479 0.26108
# Poissons Ratio (z) = 0.28584 0.10681
#
# Static dielectric constant tensor:
#      x y z
#    x 3.728580 0.000000 0.000000 
#    y 0.000000 3.554230 0.000000 
#    z 0.000000 0.000000 3.793190 
# 
# 
# High freq. dielectric constant tensor:
#      x y z
#    x 1.796530 0.000000 0.000000 
#    y 0.000000 1.781330 0.000000 
#    z 0.000000 0.000000 1.802660 
# 
# From -- ./inp_files/20414.got.cif
#   From: 2010.03.12/outbox.cif.g09.slc.cpg/sg62_11_cif.got.tgz:20414.got - 2010.04.10 19:12:36.
