data_PCOD8253683
_publ_section_title
;
Structure prediction by ZEFSAII (Michael W. Deem and Ramdas Pophale) SiO2 
 PCOD8253683
Probable space group: P N M A
;
_chemical_formula_sum "Si O2"
_cell_formula_units_Z 48
_cell_length_a 15.143723
_cell_length_b 9.103075
_cell_length_c 18.808320
_cell_angle_alpha 90.000000
_cell_angle_beta 90.000000
_cell_angle_gamma 90.000000
_cell_volume 2592.810538
_symmetry_space_group_name_H-M "P N M A"
_symmetry_group_IT_number 62
_symmetry_cell_setting 'orthorhombic'
loop_
_space_group_symop_operation_xyz
x,y,z
1/2-x,-y,1/2+z
1/2+x,1/2-y,1/2-z
-x,1/2+y,-z
-x,-y,-z
1/2+x,y,1/2-z
1/2-x,1/2+y,1/2+z
x,1/2-y,z
loop_
_atom_site_type_symbol
_atom_site_label
_atom_site_fract_x
_atom_site_fract_y
_atom_site_fract_z
Si Si1 0.837062 0.421638 0.329737
Si Si2 0.995666 0.922743 0.075530
Si Si3 0.000004 0.077608 0.425476
Si Si4 0.341990 0.077351 0.675680
Si Si5 0.146528 0.918339 0.832189
Si Si6 0.847914 0.920133 0.678391
O O1 0.814176 0.250000 0.334854
O O2 0.913429 0.471436 0.382782
O O3 0.749960 0.510277 0.351527
O O4 0.869444 0.459186 0.250171
O O5 0.987219 0.750000 0.063729
O O6 0.083565 0.964220 0.118702
O O7 0.910251 0.976027 0.118526
O O8 0.000000 0.000000 0.000000
O O9 0.001163 0.250000 0.438005
O O10 0.086294 0.025876 0.382762
O O11 0.000000 0.000000 0.500000
O O12 0.330766 0.250000 0.684253
O O13 0.369466 0.011425 0.751307
O O14 0.119681 0.750000 0.847455
O O15 0.249201 0.945791 0.850211
O O16 0.863600 0.750000 0.697931
#
# Coordination Sequence:
#
# PCOD8253683 Si02
#       6
#     8   8   8   8   8   8
#     4   9  19  36  58  82 107 140 179 216 262 319
#     4  11  24  38  53  77 109 144 179 218 267 318
#     4  10  21  36  54  79 111 145 179 215 260 315
#     4  10  21  36  56  82 107 134 176 226 268 309
#     4   9  18  35  59  82 104 135 177 221 263 313
#     4   9  19  37  59  80 106 142 178 214 263 320
#
# _framework density 18.512730000000001
#
# number of rings (size 3 to 8) (size 9 to 14) (size 15 to 20)
#    0.000    2.333    0.000    3.000    0.000    9.333 
#    0.000    5.000    0.000    0.000    0.000    0.000 
#    0.000    0.000    0.000    0.000    0.000    0.000 
#
# Total GULP energy -595355.224879 kJ/mol
# GULP energy per Si atom -12403.233852 kJ/mol
# Density = 1.847059 g / cm^3
# Si number density = 18.512730 Si / 1000 Ang^3
#
#
#
# Elastic Constant Matrix: (Units=GPa)
#
#
# Indices 1 2 3 4 5 6 
#
# 1 144.9500 67.9435 107.7580 0.0000 0.0000 0.0000
# 2 67.9435 73.2441 64.1160 0.0000 0.0000 0.0000
# 3 107.7580 64.1160 150.1309 0.0000 0.0000 0.0000
# 4 0.0000 0.0000 0.0000 36.7164 0.0000 0.0000
# 5 0.0000 0.0000 0.0000 0.0000 10.8203 0.0000
# 6 0.0000 0.0000 0.0000 0.0000 0.0000 32.5517
#
#
#
# Elastic Compliance Matrix: (Units=1/GPa)
#
#
# Indices 1 2 3 4 5 6 
#
# 1 0.017505 -0.008368 -0.008991 0.000000 0.000000 0.000000
# 2 -0.008368 0.025805 -0.005014 0.000000 0.000000 0.000000
# 3 -0.008991 -0.005014 0.015255 0.000000 0.000000 0.000000
# 4 0.000000 0.000000 0.000000 0.027236 0.000000 0.000000
# 5 0.000000 0.000000 0.000000 0.000000 0.092419 0.000000
# 6 0.000000 0.000000 0.000000 0.000000 0.000000 0.030720
#
#
# Mechanical properties :
#
#
# Convention : Reuss Voigt Hill
#
# Bulk Modulus (GPa) = 72.36190 94.21780 83.28985
# Shear Modulus (GPa) = 19.35788 24.58485 21.97137
#
# Velocity S-wave (km/s) = 3.23716 3.64812 3.44877
# Velocity P-wave (km/s) = 7.29005 8.29151 7.80685
#
# Compressibility (1/GPa) = 0.01381943
#
# Stress axis : x y z
#
# Youngs Moduli (GPa) = 57.12543 38.75266 65.55018
#
# Poissons Ratio (x) = 0.32429 0.58935
# Poissons Ratio (y) = 0.47803 0.32867
# Poissons Ratio (z) = 0.51361 0.19431
#
# Static dielectric constant tensor:
#      x y z
#    x 3.593770 0.000000 0.000000 
#    y 0.000000 3.351800 0.000000 
#    z 0.000000 0.000000 3.341510 
# 
# 
# High freq. dielectric constant tensor:
#      x y z
#    x 1.732140 0.000000 0.000000 
#    y 0.000000 1.715390 0.000000 
#    z 0.000000 0.000000 1.715630 
# 
# From -- ./inp_files/23715.got.cif
#   From: 2010.03.12/outbox.cif.g09.slc.cpg/sg62_12_cif.got.tgz:23715.got - 2010.04.10 19:12:36.
