data_PCOD8253770
_publ_section_title
;
Structure prediction by ZEFSAII (Michael W. Deem and Ramdas Pophale) SiO2 
 PCOD8253770
Probable space group: P N M A
;
_chemical_formula_sum "Si O2"
_cell_formula_units_Z 48
_cell_length_a 29.206382
_cell_length_b 9.326725
_cell_length_c 10.048136
_cell_angle_alpha 90.000000
_cell_angle_beta 90.000000
_cell_angle_gamma 90.000000
_cell_volume 2737.111173
_symmetry_space_group_name_H-M "P N M A"
_symmetry_group_IT_number 62
_symmetry_cell_setting 'orthorhombic'
loop_
_space_group_symop_operation_xyz
x,y,z
1/2-x,-y,1/2+z
1/2+x,1/2-y,1/2-z
-x,1/2+y,-z
-x,-y,-z
1/2+x,y,1/2-z
1/2-x,1/2+y,1/2+z
x,1/2-y,z
loop_
_atom_site_type_symbol
_atom_site_label
_atom_site_fract_x
_atom_site_fract_y
_atom_site_fract_z
Si Si1 0.111860 0.916194 0.533673
Si Si2 0.217012 0.580652 0.230898
Si Si3 0.615885 0.579828 0.265281
Si Si4 0.028618 0.083534 0.610206
Si Si5 0.976326 0.414603 0.884188
Si Si6 0.283098 0.085208 0.036685
O O1 0.097227 0.750000 0.546519
O O2 0.105649 0.974498 0.383548
O O3 0.164207 0.936965 0.578534
O O4 0.079051 0.013810 0.624579
O O5 0.221580 0.750000 0.214952
O O6 0.166051 0.528073 0.186774
O O7 0.225380 0.536177 0.384429
O O8 0.253350 0.508151 0.135839
O O9 0.616073 0.750000 0.255935
O O10 0.575690 0.526343 0.363461
O O11 0.032269 0.250000 0.570463
O O12 0.004335 0.063809 0.750317
O O13 0.000000 0.000000 0.500000
O O14 0.974788 0.250000 0.927584
O O15 0.000000 0.500000 0.000000
O O16 0.268881 0.250000 0.053370
#
# Coordination Sequence:
#
# PCOD8253770 Si02
#       6
#     8   8   8   8   8   8
#     4   9  17  34  57  78 103 136 177 220 260 308
#     4   9  18  34  57  78 102 138 176 215 259 312
#     4   8  15  33  56  74  99 139 177 209 255 309
#     4  11  21  34  56  82 107 136 173 218 262 308
#     4  10  21  37  54  75 107 141 174 214 259 310
#     4   9  19  35  55  79 107 138 173 217 265 311
#
# _framework density 17.536738
#
# number of rings (size 3 to 8) (size 9 to 14) (size 15 to 20)
#    0.000    2.667    1.667    2.500    0.000    2.667 
#    3.000    3.333    0.000    0.000    0.000    0.000 
#    0.000    0.000    0.000    0.000    0.000    0.000 
#
# Total GULP energy -595017.558948 kJ/mol
# GULP energy per Si atom -12396.199145 kJ/mol
# Density = 1.749682 g / cm^3
# Si number density = 17.536738 Si / 1000 Ang^3
#
#
#
# Elastic Constant Matrix: (Units=GPa)
#
#
# Indices 1 2 3 4 5 6 
#
# 1 127.2958 59.4311 55.7989 0.0000 0.0000 0.0000
# 2 59.4311 74.7276 50.3153 0.0000 0.0000 0.0000
# 3 55.7989 50.3153 66.9397 0.0000 0.0000 0.0000
# 4 0.0000 0.0000 0.0000 33.0911 0.0000 0.0000
# 5 0.0000 0.0000 0.0000 0.0000 30.3673 0.0000
# 6 0.0000 0.0000 0.0000 0.0000 0.0000 34.1442
#
#
#
# Elastic Compliance Matrix: (Units=1/GPa)
#
#
# Indices 1 2 3 4 5 6 
#
# 1 0.013794 -0.006537 -0.006585 0.000000 0.000000 0.000000
# 2 -0.006537 0.030192 -0.017245 0.000000 0.000000 0.000000
# 3 -0.006585 -0.017245 0.033390 0.000000 0.000000 0.000000
# 4 0.000000 0.000000 0.000000 0.030220 0.000000 0.000000
# 5 0.000000 0.000000 0.000000 0.000000 0.032930 0.000000
# 6 0.000000 0.000000 0.000000 0.000000 0.000000 0.029288
#
#
# Mechanical properties :
#
#
# Convention : Reuss Voigt Hill
#
# Bulk Modulus (GPa) = 60.08642 66.67262 63.37952
# Shear Modulus (GPa) = 21.17800 26.41503 23.79651
#
# Velocity S-wave (km/s) = 3.47888 3.88528 3.68768
# Velocity P-wave (km/s) = 7.10453 7.63076 7.37234
#
# Compressibility (1/GPa) = 0.01664269
#
# Stress axis : x y z
#
# Youngs Moduli (GPa) = 72.49558 33.12150 29.94899
#
# Poissons Ratio (x) = 0.21650 0.19721
# Poissons Ratio (y) = 0.47387 0.51647
# Poissons Ratio (z) = 0.47738 0.57118
#
# Static dielectric constant tensor:
#      x y z
#    x 3.614450 0.000000 0.000000 
#    y 0.000000 3.105460 0.000000 
#    z 0.000000 0.000000 2.962250 
# 
# 
# High freq. dielectric constant tensor:
#      x y z
#    x 1.694640 0.000000 0.000000 
#    y 0.000000 1.660190 0.000000 
#    z 0.000000 0.000000 1.660270 
# 
# From -- ./inp_files/10248.got.cif
#   From: 2010.03.12/outbox.cif.g09.slc.cpg/sg62_6_cif.got.tgz:10248.got - 2010.04.10 19:12:36.
