data_PCOD8253020
_publ_section_title
;
Structure prediction by ZEFSAII (Michael W. Deem and Ramdas Pophale) SiO2 
 PCOD8253020
Probable space group: P N M A
;
_chemical_formula_sum "Si O2"
_cell_formula_units_Z 48
_cell_length_a 18.817268
_cell_length_b 8.788375
_cell_length_c 14.993238
_cell_angle_alpha 90.000000
_cell_angle_beta 90.000000
_cell_angle_gamma 90.000000
_cell_volume 2479.479861
_symmetry_space_group_name_H-M "P N M A"
_symmetry_group_IT_number 62
_symmetry_cell_setting 'orthorhombic'
loop_
_space_group_symop_operation_xyz
x,y,z
1/2-x,-y,1/2+z
1/2+x,1/2-y,1/2-z
-x,1/2+y,-z
-x,-y,-z
1/2+x,y,1/2-z
1/2-x,1/2+y,1/2+z
x,1/2-y,z
loop_
_atom_site_type_symbol
_atom_site_label
_atom_site_fract_x
_atom_site_fract_y
_atom_site_fract_z
Si Si1 0.286719 0.570047 0.511109
Si Si2 0.262825 0.428621 0.199705
Si Si3 0.581712 0.931137 0.748991
Si Si4 0.561912 0.431142 0.559446
Si Si5 0.979102 0.928712 0.593028
Si Si6 0.819000 0.572227 0.626275
O O1 0.289971 0.750000 0.516728
O O2 0.265400 0.499541 0.607239
O O3 0.363323 0.507940 0.480313
O O4 0.226688 0.523232 0.442318
O O5 0.271923 0.250000 0.187005
O O6 0.339645 0.493893 0.228040
O O7 0.205180 0.469620 0.274223
O O8 0.579969 0.750000 0.735233
O O9 0.531280 0.985508 0.829293
O O10 0.553313 0.009728 0.659818
O O11 0.500000 0.500000 0.500000
O O12 0.557330 0.250000 0.557847
O O13 0.985070 0.750000 0.582572
O O14 0.900017 0.979777 0.618412
O O15 0.000000 0.000000 0.500000
O O16 0.808052 0.750000 0.606080
#
# Coordination Sequence:
#
# PCOD8253020 Si02
#       6
#     8   8   8   8   8   8
#     4  10  21  38  61  86 113 149 192 238 287 345
#     4   9  18  34  58  83 109 145 188 233 285 343
#     4  10  20  38  62  84 114 157 197 235 290 351
#     4  11  24  39  59  86 118 155 196 243 291 346
#     4  10  22  37  59  87 117 156 197 240 289 347
#     4  10  20  36  58  85 114 146 189 238 287 342
#
# _framework density 19.358899000000001
#
# number of rings (size 3 to 8) (size 9 to 14) (size 15 to 20)
#    0.000    2.000    1.667    1.500    2.333    3.333 
#    0.000    1.667    0.000    0.000    0.000    0.000 
#    0.000    0.000    0.000    0.000    0.000    0.000 
#
# Total GULP energy -595313.299332 kJ/mol
# GULP energy per Si atom -12402.360403 kJ/mol
# Density = 1.931484 g / cm^3
# Si number density = 19.358899 Si / 1000 Ang^3
#
#
#
# Elastic Constant Matrix: (Units=GPa)
#
#
# Indices 1 2 3 4 5 6 
#
# 1 152.5111 24.4365 61.6473 0.0000 0.0000 0.0000
# 2 24.4365 23.7946 24.7193 0.0000 0.0000 0.0000
# 3 61.6473 24.7193 139.1485 0.0000 0.0000 0.0000
# 4 0.0000 0.0000 0.0000 32.5608 0.0000 0.0000
# 5 0.0000 0.0000 0.0000 0.0000 44.9779 0.0000
# 6 0.0000 0.0000 0.0000 0.0000 0.0000 24.7491
#
#
#
# Elastic Compliance Matrix: (Units=1/GPa)
#
#
# Indices 1 2 3 4 5 6 
#
# 1 0.008634 -0.006000 -0.002759 0.000000 0.000000 0.000000
# 2 -0.006000 0.055708 -0.007238 0.000000 0.000000 0.000000
# 3 -0.002759 -0.007238 0.009695 0.000000 0.000000 0.000000
# 4 0.000000 0.000000 0.000000 0.030712 0.000000 0.000000
# 5 0.000000 0.000000 0.000000 0.000000 0.022233 0.000000
# 6 0.000000 0.000000 0.000000 0.000000 0.000000 0.040405
#
#
# Mechanical properties :
#
#
# Convention : Reuss Voigt Hill
#
# Bulk Modulus (GPa) = 23.78598 59.67337 41.72968
# Shear Modulus (GPa) = 23.43075 34.10098 28.76586
#
# Velocity S-wave (km/s) = 3.48276 4.20159 3.85895
# Velocity P-wave (km/s) = 5.33726 7.37764 6.43878
#
# Compressibility (1/GPa) = 0.04204157
#
# Stress axis : x y z
#
# Youngs Moduli (GPa) = 115.82741 17.95080 103.14891
#
# Poissons Ratio (x) = 0.10771 0.28459
# Poissons Ratio (y) = 0.69499 0.74660
# Poissons Ratio (z) = 0.31957 0.12993
#
# Static dielectric constant tensor:
#      x y z
#    x 3.815610 0.000000 0.000000 
#    y 0.000000 3.246200 0.000000 
#    z 0.000000 0.000000 4.261850 
# 
# 
# High freq. dielectric constant tensor:
#      x y z
#    x 1.769730 0.000000 0.000000 
#    y 0.000000 1.724180 0.000000 
#    z 0.000000 0.000000 1.771540 
# 
# From -- ./inp_files/19595.got.cif
#   From: 2010.03.12/outbox.cif.g09.slc.cpg/sg62_10_cif.got.tgz:19595.got - 2010.04.10 19:12:36.
