data_PCOD8253109
_publ_section_title
;
Structure prediction by ZEFSAII (Michael W. Deem and Ramdas Pophale) SiO2 
 PCOD8253109
Probable space group: P N M A
;
_chemical_formula_sum "Si O2"
_cell_formula_units_Z 48
_cell_length_a 12.006502
_cell_length_b 8.547171
_cell_length_c 23.807959
_cell_angle_alpha 90.000000
_cell_angle_beta 90.000000
_cell_angle_gamma 90.000000
_cell_volume 2443.211457
_symmetry_space_group_name_H-M "P N M A"
_symmetry_group_IT_number 62
_symmetry_cell_setting 'orthorhombic'
loop_
_space_group_symop_operation_xyz
x,y,z
1/2-x,-y,1/2+z
1/2+x,1/2-y,1/2-z
-x,1/2+y,-z
-x,-y,-z
1/2+x,y,1/2-z
1/2-x,1/2+y,1/2+z
x,1/2-y,z
loop_
_atom_site_type_symbol
_atom_site_label
_atom_site_fract_x
_atom_site_fract_y
_atom_site_fract_z
Si Si1 0.213746 0.435719 0.452099
Si Si2 0.100348 0.066500 0.160747
Si Si3 0.161065 0.064427 0.285097
Si Si4 0.719649 0.065612 0.920799
Si Si5 0.480839 0.063919 0.880823
Si Si6 0.857708 0.934400 0.144153
O O1 0.225236 0.250000 0.446841
O O2 0.225354 0.497232 0.515583
O O3 0.311355 0.516255 0.416474
O O4 0.093802 0.487974 0.429451
O O5 0.109090 0.250000 0.154845
O O6 0.145877 0.011327 0.221062
O O7 0.172942 0.991351 0.111992
O O8 0.974332 0.015762 0.153928
O O9 0.165976 0.250000 0.292487
O O10 0.275212 0.989705 0.306794
O O11 0.056557 0.998161 0.320060
O O12 0.719499 0.250000 0.922121
O O13 0.606973 0.006634 0.890716
O O14 0.467446 0.250000 0.883432
O O15 0.872382 0.750000 0.146923
#
# Coordination Sequence:
#
# PCOD8253109 Si02
#       6
#     8   8   8   8   8   8
#     4  10  20  38  62  87 120 158 196 243 291 347
#     4  11  25  41  60  86 118 157 199 243 293 351
#     4  10  22  40  61  86 117 153 197 242 291 350
#     4  10  23  39  58  89 123 155 198 244 292 347
#     4  10  20  36  60  91 121 154 196 242 294 348
#     4  11  23  40  63  87 116 154 196 242 294 351
#
# _framework density 19.646272
#
# number of rings (size 3 to 8) (size 9 to 14) (size 15 to 20)
#    0.000    1.667    0.000    6.000    2.333    6.000 
#    0.000    0.000    0.000    0.000    0.000    0.000 
#    0.000    0.000    0.000    0.000    0.000    0.000 
#
# Total GULP energy -595390.581796 kJ/mol
# GULP energy per Si atom -12403.970454 kJ/mol
# Density = 1.960156 g / cm^3
# Si number density = 19.646272 Si / 1000 Ang^3
#
#
#
# Elastic Constant Matrix: (Units=GPa)
#
#
# Indices 1 2 3 4 5 6 
#
# 1 250.8677 228.7583 82.5558 0.0000 0.0000 0.0000
# 2 228.7583 476.3525 90.7222 0.0000 0.0000 0.0000
# 3 82.5558 90.7222 114.0912 0.0000 0.0000 0.0000
# 4 0.0000 0.0000 0.0000 30.3047 0.0000 0.0000
# 5 0.0000 0.0000 0.0000 0.0000 36.9655 0.0000
# 6 0.0000 0.0000 0.0000 0.0000 0.0000 35.1708
#
#
#
# Elastic Compliance Matrix: (Units=1/GPa)
#
#
# Indices 1 2 3 4 5 6 
#
# 1 0.007980 -0.003220 -0.003214 0.000000 0.000000 0.000000
# 2 -0.003220 0.003773 -0.000670 0.000000 0.000000 0.000000
# 3 -0.003214 -0.000670 0.011623 0.000000 0.000000 0.000000
# 4 0.000000 0.000000 0.000000 0.032998 0.000000 0.000000
# 5 0.000000 0.000000 0.000000 0.000000 0.027052 0.000000
# 6 0.000000 0.000000 0.000000 0.000000 0.000000 0.028433
#
#
# Mechanical properties :
#
#
# Convention : Reuss Voigt Hill
#
# Bulk Modulus (GPa) = 109.07165 182.82044 145.94605
# Shear Modulus (GPa) = 38.72217 49.77322 44.24769
#
# Velocity S-wave (km/s) = 4.44437 5.03882 4.75090
# Velocity P-wave (km/s) = 9.05400 11.27435 10.22462
#
# Compressibility (1/GPa) = 0.00916829
#
# Stress axis : x y z
#
# Youngs Moduli (GPa) = 125.30995 265.01165 86.03306
#
# Poissons Ratio (x) = 0.85341 0.27649
# Poissons Ratio (y) = 0.40353 0.05767
# Poissons Ratio (z) = 0.40272 0.17765
#
# Static dielectric constant tensor:
#      x y z
#    x 3.646310 0.000000 0.000000 
#    y 0.000000 3.634640 0.000000 
#    z 0.000000 0.000000 3.758550 
# 
# 
# High freq. dielectric constant tensor:
#      x y z
#    x 1.771120 0.000000 0.000000 
#    y 0.000000 1.775670 0.000000 
#    z 0.000000 0.000000 1.775420 
# 
# From -- ./inp_files/29260.got.cif
#   From: 2010.03.12/outbox.cif.g09.slc.cpg/sg62_15_cif.got.tgz:29260.got - 2010.04.10 19:12:36.
