data_PCOD8253471
_publ_section_title
;
Structure prediction by ZEFSAII (Michael W. Deem and Ramdas Pophale) SiO2 
 PCOD8253471
Probable space group: P N M A
;
_chemical_formula_sum "Si O2"
_cell_formula_units_Z 40
_cell_length_a 9.043034
_cell_length_b 23.387339
_cell_length_c 7.293755
_cell_angle_alpha 90.000000
_cell_angle_beta 90.000000
_cell_angle_gamma 90.000000
_cell_volume 1542.574492
_symmetry_space_group_name_H-M "P N M A"
_symmetry_group_IT_number 62
_symmetry_cell_setting 'orthorhombic'
loop_
_space_group_symop_operation_xyz
x,y,z
1/2-x,-y,1/2+z
1/2+x,1/2-y,1/2-z
-x,1/2+y,-z
-x,-y,-z
1/2+x,y,1/2-z
1/2-x,1/2+y,1/2+z
x,1/2-y,z
loop_
_atom_site_type_symbol
_atom_site_label
_atom_site_fract_x
_atom_site_fract_y
_atom_site_fract_z
Si Si1 0.611119 0.625142 0.202534
Si Si2 0.161103 0.933825 0.710917
Si Si3 0.028113 0.250000 0.004869
Si Si4 0.150513 0.438823 0.575902
Si Si5 0.694575 0.750000 0.217914
Si Si6 0.925694 0.871752 0.929947
O O1 0.517837 0.587552 0.051497
O O2 0.764432 0.597113 0.267942
O O3 0.633010 0.690480 0.132031
O O4 0.500511 0.622193 0.374648
O O5 0.252656 0.893622 0.563066
O O6 0.005474 0.908004 0.773426
O O7 0.130157 0.996631 0.638939
O O8 0.266444 0.936178 0.886086
O O9 0.856484 0.250000 0.933402
O O10 0.129166 0.250000 0.817056
O O11 0.066600 0.304952 0.128316
#
# Coordination Sequence:
#
# PCOD8253471 Si02
#       6
#     8   8   4   8   4   8
#     4  10  21  39  61  91 122 158 206 260 307 367
#     4  11  24  41  61  89 124 166 209 259 313 371
#     4  10  22  42  66  94 128 162 202 256 306 366
#     4  11  23  38  61  89 123 162 210 258 311 371
#     4  10  20  38  66  92 122 160 200 244 304 366
#     4  10  23  41  61  89 126 162 206 256 310 366
#
# _framework density 25.930676999999999
#
# number of rings (size 3 to 8) (size 9 to 14) (size 15 to 20)
#    0.000    1.600    0.000    4.800    0.000   10.400 
#    0.000    2.000    0.000    0.000    0.000    0.000 
#    0.000    0.000    0.000    0.000    0.000    0.000 
#
# Total GULP energy -495986.092074 kJ/mol
# GULP energy per Si atom -12399.652302 kJ/mol
# Density = 2.587166 g / cm^3
# Si number density = 25.930677 Si / 1000 Ang^3
#
#
#
# Elastic Constant Matrix: (Units=GPa)
#
#
# Indices 1 2 3 4 5 6 
#
# 1 143.6962 56.6681 10.6784 0.0000 0.0000 0.0000
# 2 56.6681 231.8526 20.0580 0.0000 0.0000 0.0000
# 3 10.6784 20.0580 54.3448 0.0000 0.0000 0.0000
# 4 0.0000 0.0000 0.0000 -9.8624 0.0000 0.0000
# 5 0.0000 0.0000 0.0000 0.0000 16.7445 0.0000
# 6 0.0000 0.0000 0.0000 0.0000 0.0000 40.2733
#
#
#
# Elastic Compliance Matrix: (Units=1/GPa)
#
#
# Indices 1 2 3 4 5 6 
#
# 1 0.007739 -0.001818 -0.000850 0.000000 0.000000 0.000000
# 2 -0.001818 0.004882 -0.001445 0.000000 0.000000 0.000000
# 3 -0.000850 -0.001445 0.019101 0.000000 0.000000 0.000000
# 4 0.000000 0.000000 0.000000 -0.101396 0.000000 0.000000
# 5 0.000000 0.000000 0.000000 0.000000 0.059721 0.000000
# 6 0.000000 0.000000 0.000000 0.000000 0.000000 0.024830
#
#
# Mechanical properties :
#
#
# Convention : Reuss Voigt Hill
#
# Bulk Modulus (GPa) = 42.55718 67.18916 54.87317
# Shear Modulus (GPa) = 161.62174 32.26370 96.94272
#
# Velocity S-wave (km/s) = 7.90340 3.53119 6.12099
# Velocity P-wave (km/s) = 9.98661 6.52634 8.43580
#
# Compressibility (1/GPa) = 0.02349780
#
# Stress axis : x y z
#
# Youngs Moduli (GPa) = 129.21155 204.81555 52.35262
#
# Poissons Ratio (x) = 0.37237 0.04448
# Poissons Ratio (y) = 0.23492 0.07564
# Poissons Ratio (z) = 0.10979 0.29592
#
# Static dielectric constant tensor:
#      x y z
#    x 5.247660 0.000000 0.000000 
#    y 0.000000 5.016720 0.000000 
#    z 0.000000 0.000000 4.835810 
# 
# 
# High freq. dielectric constant tensor:
#      x y z
#    x 2.079420 0.000000 0.000000 
#    y 0.000000 2.047240 0.000000 
#    z 0.000000 0.000000 2.046740 
# 
# From -- ./inp_files/4313.got.cif
#   From: 2010.03.12/outbox.cif.g09.slc.cpg/sg62_3_cif.got.tgz:4313.got - 2010.04.10 19:12:36.
