data_PCOD8253807
_publ_section_title
;
Structure prediction by ZEFSAII (Michael W. Deem and Ramdas Pophale) SiO2 
 PCOD8253807
Probable space group: P N M A
;
_chemical_formula_sum "Si O2"
_cell_formula_units_Z 56
_cell_length_a 21.088627
_cell_length_b 9.094102
_cell_length_c 14.795610
_cell_angle_alpha 90.000000
_cell_angle_beta 90.000000
_cell_angle_gamma 90.000000
_cell_volume 2837.533526
_symmetry_space_group_name_H-M "P N M A"
_symmetry_group_IT_number 62
_symmetry_cell_setting 'orthorhombic'
loop_
_space_group_symop_operation_xyz
x,y,z
1/2-x,-y,1/2+z
1/2+x,1/2-y,1/2-z
-x,1/2+y,-z
-x,-y,-z
1/2+x,y,1/2-z
1/2-x,1/2+y,1/2+z
x,1/2-y,z
loop_
_atom_site_type_symbol
_atom_site_label
_atom_site_fract_x
_atom_site_fract_y
_atom_site_fract_z
Si Si1 0.283305 0.418949 0.569816
Si Si2 0.896220 0.423725 0.277101
Si Si3 0.193128 0.919932 0.443200
Si Si4 0.564080 0.581453 0.976034
Si Si5 0.515882 0.081180 0.640549
Si Si6 0.732386 0.418290 0.735474
Si Si7 0.409925 0.581544 0.544119
O O1 0.296666 0.250000 0.544765
O O2 0.220682 0.474712 0.520051
O O3 0.274870 0.440230 0.676308
O O4 0.339830 0.519646 0.534750
O O5 0.896573 0.250000 0.263500
O O6 0.905608 0.471112 0.381053
O O7 0.954533 0.493171 0.223215
O O8 0.829987 0.482549 0.237952
O O9 0.208703 0.750000 0.466488
O O10 0.116937 0.944345 0.445723
O O11 0.222035 0.965628 0.346804
O O12 0.544818 0.750000 0.968106
O O13 0.500000 0.500000 0.000000
O O14 0.506090 0.250000 0.668620
O O15 0.560478 0.064634 0.554263
O O16 0.447546 0.012161 0.618643
O O17 0.709558 0.250000 0.725378
O O18 0.408810 0.750000 0.575759
#
# Coordination Sequence:
#
# PCOD8253807 Si02
#       7
#     8   8   8   8   8   8   8
#     4  11  22  36  57  88 120 151 193 245 298 355
#     4  11  22  38  60  88 120 156 201 249 304 364
#     4  10  21  41  62  84 118 159 201 249 306 362
#     4  10  23  41  62  87 118 158 203 252 307 365
#     4  10  21  37  58  84 116 156 198 242 295 355
#     4  10  22  38  60  87 116 154 202 248 300 363
#     4  10  21  37  57  84 119 156 195 243 298 354
#
# _framework density 19.735448999999999
#
# number of rings (size 3 to 8) (size 9 to 14) (size 15 to 20)
#    0.000    1.714    1.429    2.571    0.000    9.143 
#    0.000    1.429    0.000    0.000    0.000    0.000 
#    0.000    0.000    0.000    0.000    0.000    0.000 
#
# Total GULP energy -694614.362459 kJ/mol
# GULP energy per Si atom -12403.827901 kJ/mol
# Density = 1.969053 g / cm^3
# Si number density = 19.735449 Si / 1000 Ang^3
#
#
#
# Elastic Constant Matrix: (Units=GPa)
#
#
# Indices 1 2 3 4 5 6 
#
# 1 112.8077 48.5449 42.4467 0.0000 0.0000 0.0000
# 2 48.5449 94.8521 50.6997 0.0000 0.0000 0.0000
# 3 42.4467 50.6997 94.8689 0.0000 0.0000 0.0000
# 4 0.0000 0.0000 0.0000 30.2437 0.0000 0.0000
# 5 0.0000 0.0000 0.0000 0.0000 31.9845 0.0000
# 6 0.0000 0.0000 0.0000 0.0000 0.0000 39.3799
#
#
#
# Elastic Compliance Matrix: (Units=1/GPa)
#
#
# Indices 1 2 3 4 5 6 
#
# 1 0.011912 -0.004547 -0.002900 0.000000 0.000000 0.000000
# 2 -0.004547 0.016494 -0.006780 0.000000 0.000000 0.000000
# 3 -0.002900 -0.006780 0.015462 0.000000 0.000000 0.000000
# 4 0.000000 0.000000 0.000000 0.033065 0.000000 0.000000
# 5 0.000000 0.000000 0.000000 0.000000 0.031265 0.000000
# 6 0.000000 0.000000 0.000000 0.000000 0.000000 0.025394
#
#
# Mechanical properties :
#
#
# Convention : Reuss Voigt Hill
#
# Bulk Modulus (GPa) = 64.87560 65.10128 64.98844
# Shear Modulus (GPa) = 29.90717 31.04412 30.47564
#
# Velocity S-wave (km/s) = 3.89704 3.97043 3.93390
# Velocity P-wave (km/s) = 7.29337 7.35375 7.32362
#
# Compressibility (1/GPa) = 0.01541412
#
# Stress axis : x y z
#
# Youngs Moduli (GPa) = 83.94589 60.62871 64.67458
#
# Poissons Ratio (x) = 0.27565 0.18757
# Poissons Ratio (y) = 0.38167 0.43852
# Poissons Ratio (z) = 0.24346 0.41109
#
# Static dielectric constant tensor:
#      x y z
#    x 3.544730 0.000000 0.000000 
#    y 0.000000 3.668390 0.000000 
#    z 0.000000 0.000000 3.678110 
# 
# 
# High freq. dielectric constant tensor:
#      x y z
#    x 1.774170 0.000000 0.000000 
#    y 0.000000 1.774360 0.000000 
#    z 0.000000 0.000000 1.767800 
# 
# From -- ./inp_files/20249.got.cif
#   From: 2010.03.12/outbox.cif.g09.slc.cpg/sg62_11_cif.got.tgz:20249.got - 2010.04.10 19:12:36.
