data_PCOD8253450
_publ_section_title
;
Structure prediction by ZEFSAII (Michael W. Deem and Ramdas Pophale) SiO2 
 PCOD8253450
Probable space group: P N M A
;
_chemical_formula_sum "Si O2"
_cell_formula_units_Z 64
_cell_length_a 15.132252
_cell_length_b 18.199244
_cell_length_c 11.332773
_cell_angle_alpha 90.000000
_cell_angle_beta 90.000000
_cell_angle_gamma 90.000000
_cell_volume 3120.995213
_symmetry_space_group_name_H-M "P N M A"
_symmetry_group_IT_number 62
_symmetry_cell_setting 'orthorhombic'
loop_
_space_group_symop_operation_xyz
x,y,z
1/2-x,-y,1/2+z
1/2+x,1/2-y,1/2-z
-x,1/2+y,-z
-x,-y,-z
1/2+x,y,1/2-z
1/2-x,1/2+y,1/2+z
x,1/2-y,z
loop_
_atom_site_type_symbol
_atom_site_label
_atom_site_fract_x
_atom_site_fract_y
_atom_site_fract_z
Si Si1 0.313940 0.529975 0.224611
Si Si2 0.870006 0.668981 0.393290
Si Si3 0.577003 0.832180 0.137462
Si Si4 0.623348 0.942956 0.324901
Si Si5 0.535243 0.410304 0.271646
Si Si6 0.630982 0.583671 0.599008
Si Si7 0.692451 0.163532 0.151317
Si Si8 0.070724 0.555518 0.553780
O O1 0.333069 0.616754 0.209686
O O2 0.209201 0.520983 0.235655
O O3 0.361543 0.497162 0.340476
O O4 0.347942 0.489730 0.106695
O O5 0.829196 0.750000 0.372189
O O6 0.845076 0.640404 0.523714
O O7 0.973993 0.671819 0.384823
O O8 0.618284 0.750000 0.127954
O O9 0.597030 0.865659 0.265832
O O10 0.615012 0.888326 0.039506
O O11 0.642942 0.924405 0.460280
O O12 0.548316 0.003482 0.302606
O O13 0.466972 0.381809 0.373748
O O14 0.628153 0.367409 0.256210
O O15 0.480012 0.398353 0.152689
O O16 0.708001 0.632301 0.660018
O O17 0.696368 0.250000 0.169179
O O18 0.000000 0.500000 0.500000
#
# Coordination Sequence:
#
# PCOD8253450 Si02
#       8
#     8   8   8   8   8   8   8   8
#     4  11  22  37  66  94 123 171 224 274 327 389
#     4  10  20  38  64  93 124 160 212 277 331 385
#     4  11  23  38  64  99 130 162 210 280 343 392
#     4  12  24  39  64  91 138 172 221 271 333 401
#     4  11  22  40  65  95 129 172 217 274 333 393
#     4  11  25  41  64  97 130 179 222 276 332 407
#     4  11  22  40  65  96 126 167 225 274 329 404
#     4  11  19  37  68  94 122 160 220 271 328 387
#
# _framework density 20.506278999999999
#
# number of rings (size 3 to 8) (size 9 to 14) (size 15 to 20)
#    0.000    1.000    6.250    1.125    1.750    1.500 
#    0.000    1.875    0.000    0.750    0.000    0.000 
#    0.000    0.000    0.000    0.000    0.000    0.000 
#
# Total GULP energy -793364.434584 kJ/mol
# GULP energy per Si atom -12396.319290 kJ/mol
# Density = 2.045961 g / cm^3
# Si number density = 20.506279 Si / 1000 Ang^3
#
#
#
# Elastic Constant Matrix: (Units=GPa)
#
#
# Indices 1 2 3 4 5 6 
#
# 1 89.1422 31.2831 17.2239 0.0000 0.0000 0.0000
# 2 31.2831 115.2519 36.2486 0.0000 0.0000 0.0000
# 3 17.2239 36.2486 76.4090 0.0000 0.0000 0.0000
# 4 0.0000 0.0000 0.0000 21.8140 0.0000 0.0000
# 5 0.0000 0.0000 0.0000 0.0000 26.2554 0.0000
# 6 0.0000 0.0000 0.0000 0.0000 0.0000 21.8562
#
#
#
# Elastic Compliance Matrix: (Units=1/GPa)
#
#
# Indices 1 2 3 4 5 6 
#
# 1 0.012529 -0.002953 -0.001423 0.000000 0.000000 0.000000
# 2 -0.002953 0.010894 -0.004503 0.000000 0.000000 0.000000
# 3 -0.001423 -0.004503 0.015544 0.000000 0.000000 0.000000
# 4 0.000000 0.000000 0.000000 0.045842 0.000000 0.000000
# 5 0.000000 0.000000 0.000000 0.000000 0.038087 0.000000
# 6 0.000000 0.000000 0.000000 0.000000 0.000000 0.045754
#
#
# Mechanical properties :
#
#
# Convention : Reuss Voigt Hill
#
# Bulk Modulus (GPa) = 47.14793 50.03491 48.59142
# Shear Modulus (GPa) = 25.84249 27.05494 26.44871
#
# Velocity S-wave (km/s) = 3.55381 3.63622 3.59526
# Velocity P-wave (km/s) = 6.31517 6.48709 6.40170
#
# Compressibility (1/GPa) = 0.02120984
#
# Stress axis : x y z
#
# Youngs Moduli (GPa) = 79.81198 91.79026 64.33201
#
# Poissons Ratio (x) = 0.27108 0.09157
# Poissons Ratio (y) = 0.23570 0.28966
# Poissons Ratio (z) = 0.11360 0.41330
#
# Static dielectric constant tensor:
#      x y z
#    x 3.813300 0.000000 0.000000 
#    y 0.000000 3.997260 0.000000 
#    z 0.000000 0.000000 3.718520 
# 
# 
# High freq. dielectric constant tensor:
#      x y z
#    x 1.806880 0.000000 0.000000 
#    y 0.000000 1.793070 0.000000 
#    z 0.000000 0.000000 1.785430 
# 
# From -- ./inp_files/13606.got.cif
#   From: 2010.03.12/outbox.cif.g09.slc.cpg/sg62_7_cif.got.tgz:13606.got - 2010.04.10 19:12:36.
