data_PCOD8253482
_publ_section_title
;
Structure prediction by ZEFSAII (Michael W. Deem and Ramdas Pophale) SiO2 
 PCOD8253482
Probable space group: P N M A
;
_chemical_formula_sum "Si O2"
_cell_formula_units_Z 40
_cell_length_a 13.597920
_cell_length_b 28.256361
_cell_length_c 4.985091
_cell_angle_alpha 90.000000
_cell_angle_beta 90.000000
_cell_angle_gamma 90.000000
_cell_volume 1915.410231
_symmetry_space_group_name_H-M "P N M A"
_symmetry_group_IT_number 62
_symmetry_cell_setting 'orthorhombic'
loop_
_space_group_symop_operation_xyz
x,y,z
1/2-x,-y,1/2+z
1/2+x,1/2-y,1/2-z
-x,1/2+y,-z
-x,-y,-z
1/2+x,y,1/2-z
1/2-x,1/2+y,1/2+z
x,1/2-y,z
loop_
_atom_site_type_symbol
_atom_site_label
_atom_site_fract_x
_atom_site_fract_y
_atom_site_fract_z
Si Si1 0.843252 0.839010 0.899104
Si Si2 0.395612 0.250000 0.715659
Si Si3 0.224503 0.750000 0.709150
Si Si4 0.434929 0.802948 0.072560
Si Si5 0.883789 0.509746 0.511739
Si Si6 0.706396 0.056532 0.506007
O O1 0.778225 0.799902 0.741411
O O2 0.789262 0.888943 0.919361
O O3 0.936325 0.837912 0.689384
O O4 0.866573 0.824526 0.198960
O O5 0.372013 0.250000 0.399435
O O6 0.456717 0.297385 0.796425
O O7 0.298211 0.250000 0.892095
O O8 0.396240 0.750000 0.991385
O O9 0.865535 0.529383 0.806129
O O10 0.818854 0.461845 0.481583
O O11 0.000000 0.500000 0.500000
O O12 0.844231 0.548080 0.295452
#
# Coordination Sequence:
#
# PCOD8253482 Si02
#       6
#     8   4   4   8   8   8
#     4  12  21  39  62  87 120 171 206 248 319 375
#     4  10  22  36  54  82 116 170 208 258 294 350
#     4  12  20  36  58  86 128 160 210 262 300 360
#     4  10  20  39  56  76 121 169 204 245 307 360
#     4  10  21  45  68  93 128 164 201 272 333 382
#     4  10  23  40  67  96 128 160 214 262 321 395
#
# _framework density 20.883255999999999
#
# number of rings (size 3 to 8) (size 9 to 14) (size 15 to 20)
#    0.600    0.800    2.000    4.200    0.000    0.000 
#   10.800    0.000    0.000    0.000    0.000    0.000 
#    0.000    0.000    0.000    0.000    0.000    0.000 
#
# Total GULP energy -495595.196267 kJ/mol
# GULP energy per Si atom -12389.879907 kJ/mol
# Density = 2.083573 g / cm^3
# Si number density = 20.883256 Si / 1000 Ang^3
#
#
#
# Elastic Constant Matrix: (Units=GPa)
#
#
# Indices 1 2 3 4 5 6 
#
# 1 105.3801 35.6625 8.5506 0.0000 0.0000 0.0000
# 2 35.6625 104.2654 12.5388 0.0000 0.0000 0.0000
# 3 8.5506 12.5388 89.9953 0.0000 0.0000 0.0000
# 4 0.0000 0.0000 0.0000 26.7609 0.0000 0.0000
# 5 0.0000 0.0000 0.0000 0.0000 32.2380 0.0000
# 6 0.0000 0.0000 0.0000 0.0000 0.0000 14.4800
#
#
#
# Elastic Compliance Matrix: (Units=1/GPa)
#
#
# Indices 1 2 3 4 5 6 
#
# 1 0.010755 -0.003616 -0.000518 0.000000 0.000000 0.000000
# 2 -0.003616 0.010970 -0.001185 0.000000 0.000000 0.000000
# 3 -0.000518 -0.001185 0.011326 0.000000 0.000000 0.000000
# 4 0.000000 0.000000 0.000000 0.037368 0.000000 0.000000
# 5 0.000000 0.000000 0.000000 0.000000 0.031019 0.000000
# 6 0.000000 0.000000 0.000000 0.000000 0.000000 0.069061
#
#
# Mechanical properties :
#
#
# Convention : Reuss Voigt Hill
#
# Bulk Modulus (GPa) = 44.61681 45.90497 45.26089
# Shear Modulus (GPa) = 26.50985 30.88838 28.69912
#
# Velocity S-wave (km/s) = 3.56677 3.85008 3.71113
# Velocity P-wave (km/s) = 6.19465 6.46479 6.33116
#
# Compressibility (1/GPa) = 0.02241308
#
# Stress axis : x y z
#
# Youngs Moduli (GPa) = 92.97695 91.15482 88.29247
#
# Poissons Ratio (x) = 0.32965 0.04574
# Poissons Ratio (y) = 0.33624 0.10461
# Poissons Ratio (z) = 0.04816 0.10801
#
# Static dielectric constant tensor:
#      x y z
#    x 3.593400 0.000000 0.000000 
#    y 0.000000 3.616280 0.000000 
#    z 0.000000 0.000000 3.959630 
# 
# 
# High freq. dielectric constant tensor:
#      x y z
#    x 1.802930 0.000000 0.000000 
#    y 0.000000 1.793540 0.000000 
#    z 0.000000 0.000000 1.845650 
# 
# From -- ./inp_files/1057.got.cif
#   From: 2010.03.12/outbox.cif.g09.slc.cpg/sg62_1_cif.got.tgz:1057.got - 2010.04.10 19:12:36.
