data_PCOD8253528
_publ_section_title
;
Structure prediction by ZEFSAII (Michael W. Deem and Ramdas Pophale) SiO2 
 PCOD8253528
Probable space group: P N M A
;
_chemical_formula_sum "Si O2"
_cell_formula_units_Z 56
_cell_length_a 14.490234
_cell_length_b 8.969970
_cell_length_c 21.583919
_cell_angle_alpha 90.000000
_cell_angle_beta 90.000000
_cell_angle_gamma 90.000000
_cell_volume 2805.412269
_symmetry_space_group_name_H-M "P N M A"
_symmetry_group_IT_number 62
_symmetry_cell_setting 'orthorhombic'
loop_
_space_group_symop_operation_xyz
x,y,z
1/2-x,-y,1/2+z
1/2+x,1/2-y,1/2-z
-x,1/2+y,-z
-x,-y,-z
1/2+x,y,1/2-z
1/2-x,1/2+y,1/2+z
x,1/2-y,z
loop_
_atom_site_type_symbol
_atom_site_label
_atom_site_fract_x
_atom_site_fract_y
_atom_site_fract_z
Si Si1 0.599360 0.421735 0.745874
Si Si2 0.731090 0.077380 0.986758
Si Si3 0.192226 0.576046 0.276226
Si Si4 0.921261 0.923224 0.389257
Si Si5 0.392301 0.923526 0.894952
Si Si6 0.932248 0.574699 0.819407
Si Si7 0.919495 0.925538 0.961458
O O1 0.571663 0.250000 0.735323
O O2 0.699570 0.456935 0.717979
O O3 0.599606 0.460911 0.818204
O O4 0.528695 0.526311 0.710339
O O5 0.759707 0.250000 0.982748
O O6 0.668512 0.031008 0.928363
O O7 0.821741 0.977587 0.987920
O O8 0.676793 0.042424 0.049515
O O9 0.170868 0.750000 0.272500
O O10 0.139432 0.511297 0.334668
O O11 0.153884 0.503003 0.213748
O O12 0.944675 0.750000 0.399812
O O13 0.006601 0.019932 0.414124
O O14 0.396535 0.750000 0.878842
O O15 0.921349 0.750000 0.811859
O O16 0.930383 0.524338 0.890494
O O17 0.927429 0.750000 0.969259
O O18 0.000000 0.000000 0.000000
#
# Coordination Sequence:
#
# PCOD8253528 Si02
#       7
#     8   8   8   8   8   8   8
#     4  10  22  38  62  92 121 161 208 252 305 368
#     4  10  23  42  64  91 127 168 209 259 312 368
#     4  11  23  40  63  92 126 166 212 257 308 372
#     4  10  20  39  64  92 125 164 210 255 309 375
#     4  11  23  38  60  93 129 165 207 259 316 365
#     4  11  24  42  64  93 126 161 203 257 316 369
#     4  11  26  45  66  93 125 165 212 259 312 374
#
# _framework density 19.961414000000001
#
# number of rings (size 3 to 8) (size 9 to 14) (size 15 to 20)
#    0.000    1.429    1.429    3.000    2.000    6.286 
#    0.000    0.000    0.000    0.000    0.000    0.000 
#    0.000    0.000    0.000    0.000    0.000    0.000 
#
# Total GULP energy -694783.270214 kJ/mol
# GULP energy per Si atom -12406.844111 kJ/mol
# Density = 1.991598 g / cm^3
# Si number density = 19.961414 Si / 1000 Ang^3
#
#
#
# Elastic Constant Matrix: (Units=GPa)
#
#
# Indices 1 2 3 4 5 6 
#
# 1 104.9593 36.9745 29.7844 0.0000 0.0000 0.0000
# 2 36.9745 68.2144 35.6801 0.0000 0.0000 0.0000
# 3 29.7844 35.6801 90.5401 0.0000 0.0000 0.0000
# 4 0.0000 0.0000 0.0000 28.0140 0.0000 0.0000
# 5 0.0000 0.0000 0.0000 0.0000 28.1104 0.0000
# 6 0.0000 0.0000 0.0000 0.0000 0.0000 35.6901
#
#
#
# Elastic Compliance Matrix: (Units=1/GPa)
#
#
# Indices 1 2 3 4 5 6 
#
# 1 0.011990 -0.005588 -0.001742 0.000000 0.000000 0.000000
# 2 -0.005588 0.021070 -0.006465 0.000000 0.000000 0.000000
# 3 -0.001742 -0.006465 0.014166 0.000000 0.000000 0.000000
# 4 0.000000 0.000000 0.000000 0.035696 0.000000 0.000000
# 5 0.000000 0.000000 0.000000 0.000000 0.035574 0.000000
# 6 0.000000 0.000000 0.000000 0.000000 0.000000 0.028019
#
#
# Mechanical properties :
#
#
# Convention : Reuss Voigt Hill
#
# Bulk Modulus (GPa) = 50.92780 52.06577 51.49678
# Shear Modulus (GPa) = 27.67760 29.11456 28.39608
#
# Velocity S-wave (km/s) = 3.72769 3.82323 3.77576
# Velocity P-wave (km/s) = 6.64048 6.75494 6.69796
#
# Compressibility (1/GPa) = 0.01963564
#
# Stress axis : x y z
#
# Youngs Moduli (GPa) = 83.40013 47.46056 70.59263
#
# Poissons Ratio (x) = 0.26520 0.12300
# Poissons Ratio (y) = 0.46603 0.45639
# Poissons Ratio (z) = 0.14531 0.30684
#
# Static dielectric constant tensor:
#      x y z
#    x 3.736400 0.000000 0.000000 
#    y 0.000000 3.582370 0.000000 
#    z 0.000000 0.000000 3.798680 
# 
# 
# High freq. dielectric constant tensor:
#      x y z
#    x 1.792550 0.000000 0.000000 
#    y 0.000000 1.781320 0.000000 
#    z 0.000000 0.000000 1.790170 
# 
# From -- ./inp_files/27151.got.cif
#   From: 2010.03.12/outbox.cif.g09.slc.cpg/sg62_14_cif.got.tgz:27151.got - 2010.04.10 19:12:36.
