data_PCOD8253908
_publ_section_title
;
Structure prediction by ZEFSAII (Michael W. Deem and Ramdas Pophale) SiO2 
 PCOD8253908
Probable space group: P N M A
;
_chemical_formula_sum "Si O2"
_cell_formula_units_Z 32
_cell_length_a 17.175898
_cell_length_b 17.196008
_cell_length_c 4.955516
_cell_angle_alpha 90.000000
_cell_angle_beta 90.000000
_cell_angle_gamma 90.000000
_cell_volume 1463.645742
_symmetry_space_group_name_H-M "P N M A"
_symmetry_group_IT_number 62
_symmetry_cell_setting 'orthorhombic'
loop_
_space_group_symop_operation_xyz
x,y,z
1/2-x,-y,1/2+z
1/2+x,1/2-y,1/2-z
-x,1/2+y,-z
-x,-y,-z
1/2+x,y,1/2-z
1/2-x,1/2+y,1/2+z
x,1/2-y,z
loop_
_atom_site_type_symbol
_atom_site_label
_atom_site_fract_x
_atom_site_fract_y
_atom_site_fract_z
Si Si1 0.318539 0.578819 0.793356
Si Si2 0.508017 0.412627 0.107871
Si Si3 0.436240 0.337777 0.608498
Si Si4 0.220988 0.599128 0.289752
O O1 0.290730 0.609042 0.080792
O O2 0.316398 0.486031 0.774035
O O3 0.407802 0.604552 0.761085
O O4 0.260805 0.617528 0.575771
O O5 0.494970 0.357763 0.850905
O O6 0.500000 0.500000 0.000000
O O7 0.553327 0.605406 0.651280
O O8 0.452616 0.250000 0.512940
O O9 0.348687 0.342311 0.724695
#
# Coordination Sequence:
#
# PCOD8253908 Si02
#       4
#     8   8   8   8
#     4  10  21  37  64  98 125 161 224 281 323 376
#     4  12  24  42  71 101 132 177 230 285 330 399
#     4  12  26  44  65  98 140 183 221 276 350 410
#     4  10  21  38  63  94 130 166 215 280 327 397
#
# _framework density 21.863216999999999
#
# number of rings (size 3 to 8) (size 9 to 14) (size 15 to 20)
#    0.000    1.000    2.500    4.500    7.000    0.000 
#    0.000    7.500    0.000    0.000    0.000    0.000 
#    0.000    0.000    0.000    0.000    0.000    0.000 
#
# Total GULP energy -396887.180767 kJ/mol
# GULP energy per Si atom -12402.724399 kJ/mol
# Density = 2.181346 g / cm^3
# Si number density = 21.863217 Si / 1000 Ang^3
#
#
#
# Elastic Constant Matrix: (Units=GPa)
#
#
# Indices 1 2 3 4 5 6 
#
# 1 111.9773 35.5526 20.5957 0.0000 0.0000 0.0000
# 2 35.5526 83.5856 34.8199 0.0000 0.0000 0.0000
# 3 20.5957 34.8199 108.8269 0.0000 0.0000 0.0000
# 4 0.0000 0.0000 0.0000 26.5936 0.0000 0.0000
# 5 0.0000 0.0000 0.0000 0.0000 25.4791 0.0000
# 6 0.0000 0.0000 0.0000 0.0000 0.0000 20.1955
#
#
#
# Elastic Compliance Matrix: (Units=1/GPa)
#
#
# Indices 1 2 3 4 5 6 
#
# 1 0.010363 -0.004143 -0.000636 0.000000 0.000000 0.000000
# 2 -0.004143 0.015460 -0.004162 0.000000 0.000000 0.000000
# 3 -0.000636 -0.004162 0.010641 0.000000 0.000000 0.000000
# 4 0.000000 0.000000 0.000000 0.037603 0.000000 0.000000
# 5 0.000000 0.000000 0.000000 0.000000 0.039248 0.000000
# 6 0.000000 0.000000 0.000000 0.000000 0.000000 0.049516
#
#
# Mechanical properties :
#
#
# Convention : Reuss Voigt Hill
#
# Bulk Modulus (GPa) = 53.81657 54.03628 53.92642
# Shear Modulus (GPa) = 26.75137 28.68174 27.71655
#
# Velocity S-wave (km/s) = 3.50176 3.62591 3.56438
# Velocity P-wave (km/s) = 6.40456 6.50376 6.45435
#
# Compressibility (1/GPa) = 0.01858164
#
# Stress axis : x y z
#
# Youngs Moduli (GPa) = 96.50041 64.68335 93.97616
#
# Poissons Ratio (x) = 0.26798 0.05973
# Poissons Ratio (y) = 0.39979 0.39117
# Poissons Ratio (z) = 0.06134 0.26924
#
# Static dielectric constant tensor:
#      x y z
#    x 4.033370 0.000000 0.000000 
#    y 0.000000 3.589760 0.000000 
#    z 0.000000 0.000000 4.128370 
# 
# 
# High freq. dielectric constant tensor:
#      x y z
#    x 1.869420 0.000000 0.000000 
#    y 0.000000 1.821280 0.000000 
#    z 0.000000 0.000000 1.877760 
# 
# From -- ./inp_files/1534.got.cif
#   From: 2010.03.12/outbox.cif.g09.slc.cpg/sg62_1_cif.got.tgz:1534.got - 2010.04.10 19:12:36.
