data_PCOD8253452
_publ_section_title
;
Structure prediction by ZEFSAII (Michael W. Deem and Ramdas Pophale) SiO2 
 PCOD8253452
Probable space group: P N M A
;
_chemical_formula_sum "Si O2"
_cell_formula_units_Z 64
_cell_length_a 23.557613
_cell_length_b 8.558270
_cell_length_c 15.262425
_cell_angle_alpha 90.000000
_cell_angle_beta 90.000000
_cell_angle_gamma 90.000000
_cell_volume 3077.094327
_symmetry_space_group_name_H-M "P N M A"
_symmetry_group_IT_number 62
_symmetry_cell_setting 'orthorhombic'
loop_
_space_group_symop_operation_xyz
x,y,z
1/2-x,-y,1/2+z
1/2+x,1/2-y,1/2-z
-x,1/2+y,-z
-x,-y,-z
1/2+x,y,1/2-z
1/2-x,1/2+y,1/2+z
x,1/2-y,z
loop_
_atom_site_type_symbol
_atom_site_label
_atom_site_fract_x
_atom_site_fract_y
_atom_site_fract_z
Si Si1 0.863353 0.068395 0.908498
Si Si2 0.246684 0.430450 0.837752
Si Si3 0.374932 0.568234 0.411365
Si Si4 0.750511 0.430135 0.347593
Si Si5 0.367220 0.570302 0.103318
Si Si6 0.559435 0.569705 0.745887
Si Si7 0.562019 0.932841 0.243657
Si Si8 0.863415 0.070371 0.577546
O O1 0.848337 0.250000 0.899287
O O2 0.907624 0.018658 0.833760
O O3 0.806040 0.968911 0.901162
O O4 0.891248 0.029742 0.002268
O O5 0.244850 0.250000 0.807050
O O6 0.187496 0.483181 0.879673
O O7 0.259831 0.536968 0.754406
O O8 0.296308 0.457403 0.908140
O O9 0.377198 0.750000 0.434397
O O10 0.420347 0.532323 0.336343
O O11 0.766182 0.250000 0.362828
O O12 0.801049 0.535875 0.383970
O O13 0.380068 0.750000 0.124198
O O14 0.403525 0.465637 0.168811
O O15 0.384822 0.532924 0.003598
O O16 0.566700 0.750000 0.721601
O O17 0.494639 0.531824 0.766911
O O18 0.547316 0.750000 0.241934
O O19 0.603014 0.980563 0.164123
O O20 0.875434 0.250000 0.554682
#
# Coordination Sequence:
#
# PCOD8253452 Si02
#       8
#     8   8   8   8   8   8   8   8
#     4  11  23  42  67  96 130 168 211 258 315 378
#     4  10  20  38  64  93 128 168 203 253 318 377
#     4  11  23  40  66  97 131 167 208 260 318 376
#     4  12  23  37  63  96 131 168 209 256 314 379
#     4  12  25  42  65  94 129 167 211 261 318 381
#     4  12  26  44  66  92 124 166 216 267 316 375
#     4  10  23  44  68  92 124 168 212 263 317 370
#     4  10  21  41  67  96 129 164 208 258 316 378
#
# _framework density 20.798843000000002
#
# number of rings (size 3 to 8) (size 9 to 14) (size 15 to 20)
#    0.000    1.000    2.500    4.875    0.000    4.500 
#    0.000    0.000    0.000    0.000    0.000    0.000 
#    0.000    0.000    0.000    0.000    0.000    0.000 
#
# Total GULP energy -794132.352116 kJ/mol
# GULP energy per Si atom -12408.318002 kJ/mol
# Density = 2.075150 g / cm^3
# Si number density = 20.798843 Si / 1000 Ang^3
#
#
#
# Elastic Constant Matrix: (Units=GPa)
#
#
# Indices 1 2 3 4 5 6 
#
# 1 83.6255 18.7205 23.0122 0.0000 0.0000 0.0000
# 2 18.7205 64.3815 17.5595 0.0000 0.0000 0.0000
# 3 23.0122 17.5595 118.3585 0.0000 0.0000 0.0000
# 4 0.0000 0.0000 0.0000 36.3865 0.0000 0.0000
# 5 0.0000 0.0000 0.0000 0.0000 7.2546 0.0000
# 6 0.0000 0.0000 0.0000 0.0000 0.0000 20.6048
#
#
#
# Elastic Compliance Matrix: (Units=1/GPa)
#
#
# Indices 1 2 3 4 5 6 
#
# 1 0.013270 -0.003288 -0.002092 0.000000 0.000000 0.000000
# 2 -0.003288 0.017002 -0.001883 0.000000 0.000000 0.000000
# 3 -0.002092 -0.001883 0.009135 0.000000 0.000000 0.000000
# 4 0.000000 0.000000 0.000000 0.027483 0.000000 0.000000
# 5 0.000000 0.000000 0.000000 0.000000 0.137844 0.000000
# 6 0.000000 0.000000 0.000000 0.000000 0.000000 0.048532
#
#
# Mechanical properties :
#
#
# Convention : Reuss Voigt Hill
#
# Bulk Modulus (GPa) = 40.19223 42.77221 41.48222
# Shear Modulus (GPa) = 18.11032 26.65407 22.38219
#
# Velocity S-wave (km/s) = 2.95403 3.58371 3.28400
# Velocity P-wave (km/s) = 5.56788 6.14275 5.86236
#
# Compressibility (1/GPa) = 0.02488043
#
# Stress axis : x y z
#
# Youngs Moduli (GPa) = 75.35879 58.81645 109.46818
#
# Poissons Ratio (x) = 0.19338 0.22903
# Poissons Ratio (y) = 0.24777 0.20614
# Poissons Ratio (z) = 0.15767 0.11076
#
# Static dielectric constant tensor:
#      x y z
#    x 3.683320 0.000000 0.000000 
#    y 0.000000 3.677570 0.000000 
#    z 0.000000 0.000000 3.827530 
# 
# 
# High freq. dielectric constant tensor:
#      x y z
#    x 1.809190 0.000000 0.000000 
#    y 0.000000 1.810720 0.000000 
#    z 0.000000 0.000000 1.827290 
# 
# From -- ./inp_files/20797.got.cif
#   From: 2010.03.12/outbox.cif.g09.slc.cpg/sg62_11_cif.got.tgz:20797.got - 2010.04.10 19:12:36.
