data_PCOD8253413
_publ_section_title
;
Structure prediction by ZEFSAII (Michael W. Deem and Ramdas Pophale) SiO2 
 PCOD8253413
Probable space group: P N M A
;
_chemical_formula_sum "Si O2"
_cell_formula_units_Z 56
_cell_length_a 15.294115
_cell_length_b 8.511013
_cell_length_c 19.661697
_cell_angle_alpha 90.000000
_cell_angle_beta 90.000000
_cell_angle_gamma 90.000000
_cell_volume 2559.331868
_symmetry_space_group_name_H-M "P N M A"
_symmetry_group_IT_number 62
_symmetry_cell_setting 'orthorhombic'
loop_
_space_group_symop_operation_xyz
x,y,z
1/2-x,-y,1/2+z
1/2+x,1/2-y,1/2-z
-x,1/2+y,-z
-x,-y,-z
1/2+x,y,1/2-z
1/2-x,1/2+y,1/2+z
x,1/2-y,z
loop_
_atom_site_type_symbol
_atom_site_label
_atom_site_fract_x
_atom_site_fract_y
_atom_site_fract_z
Si Si1 0.836254 0.576494 0.135942
Si Si2 0.171353 0.930736 0.135256
Si Si3 0.673327 0.567425 0.929328
Si Si4 0.090931 0.077049 0.011604
Si Si5 0.495875 0.063529 0.715994
Si Si6 0.325217 0.932614 0.924780
Si Si7 0.001320 0.433068 0.628320
O O1 0.813314 0.750000 0.166506
O O2 0.862646 0.598586 0.059044
O O3 0.749468 0.468833 0.132346
O O4 0.916419 0.497829 0.178548
O O5 0.186858 0.750000 0.153429
O O6 0.095089 0.003280 0.183761
O O7 0.266256 0.016423 0.136018
O O8 0.142378 0.954497 0.057822
O O9 0.687376 0.750000 0.943575
O O10 0.573400 0.532588 0.911448
O O11 0.701814 0.477093 0.998225
O O12 0.083262 0.250000 0.046351
O O13 0.000000 0.000000 0.000000
O O14 0.494941 0.250000 0.705367
O O15 0.498665 0.010546 0.793713
O O16 0.348538 0.750000 0.920621
O O17 0.409046 0.036260 0.906412
O O18 0.024965 0.250000 0.623081
#
# Coordination Sequence:
#
# PCOD8253413 Si02
#       7
#     8   8   8   8   8   8   8
#     4  10  20  38  62  92 127 163 206 253 304 367
#     4  11  21  38  63  94 127 162 207 254 306 371
#     4  12  25  43  65  94 126 160 205 261 317 369
#     4  11  20  32  56  89 128 165 203 253 311 365
#     4   9  21  41  65  92 126 168 210 247 298 372
#     4  12  25  42  65  95 125 160 206 260 316 369
#     4  11  24  45  68  89 119 166 214 258 306 364
#
# _framework density 21.880711000000002
#
# number of rings (size 3 to 8) (size 9 to 14) (size 15 to 20)
#    0.000    1.143    2.857    4.286    0.000    1.714 
#    0.000   10.000    0.000    0.000    0.000    0.000 
#    0.000    0.000    0.000    0.000    0.000    0.000 
#
# Total GULP energy -694143.035652 kJ/mol
# GULP energy per Si atom -12395.411351 kJ/mol
# Density = 2.183091 g / cm^3
# Si number density = 21.880711 Si / 1000 Ang^3
#
#
#
# Elastic Constant Matrix: (Units=GPa)
#
#
# Indices 1 2 3 4 5 6 
#
# 1 136.1931 13.2313 23.7415 0.0000 0.0000 0.0000
# 2 13.2313 67.1267 10.8114 0.0000 0.0000 0.0000
# 3 23.7415 10.8114 73.3113 0.0000 0.0000 0.0000
# 4 0.0000 0.0000 0.0000 20.8934 0.0000 0.0000
# 5 0.0000 0.0000 0.0000 0.0000 17.4036 0.0000
# 6 0.0000 0.0000 0.0000 0.0000 0.0000 27.8574
#
#
#
# Elastic Compliance Matrix: (Units=1/GPa)
#
#
# Indices 1 2 3 4 5 6 
#
# 1 0.007870 -0.001169 -0.002376 0.000000 0.000000 0.000000
# 2 -0.001169 0.015433 -0.001898 0.000000 0.000000 0.000000
# 3 -0.002376 -0.001898 0.014690 0.000000 0.000000 0.000000
# 4 0.000000 0.000000 0.000000 0.047862 0.000000 0.000000
# 5 0.000000 0.000000 0.000000 0.000000 0.057459 0.000000
# 6 0.000000 0.000000 0.000000 0.000000 0.000000 0.035897
#
#
# Mechanical properties :
#
#
# Convention : Reuss Voigt Hill
#
# Bulk Modulus (GPa) = 36.88908 41.35550 39.12229
# Shear Modulus (GPa) = 25.10886 28.48735 26.79810
#
# Velocity S-wave (km/s) = 3.39120 3.61215 3.50342
# Velocity P-wave (km/s) = 5.67710 6.02813 5.85524
#
# Compressibility (1/GPa) = 0.02710829
#
# Stress axis : x y z
#
# Youngs Moduli (GPa) = 127.05978 64.79557 68.07405
#
# Poissons Ratio (x) = 0.07572 0.16177
# Poissons Ratio (y) = 0.14848 0.12917
# Poissons Ratio (z) = 0.30195 0.12295
#
# Static dielectric constant tensor:
#      x y z
#    x 4.129540 0.000000 0.000000 
#    y 0.000000 3.861360 0.000000 
#    z 0.000000 0.000000 3.811530 
# 
# 
# High freq. dielectric constant tensor:
#      x y z
#    x 1.882960 0.000000 0.000000 
#    y 0.000000 1.840690 0.000000 
#    z 0.000000 0.000000 1.842030 
# 
# From -- ./inp_files/27173.got.cif
#   From: 2010.03.12/outbox.cif.g09.slc.cpg/sg62_14_cif.got.tgz:27173.got - 2010.04.10 19:12:36.
