data_PCOD8253329
_publ_section_title
;
Structure prediction by ZEFSAII (Michael W. Deem and Ramdas Pophale) SiO2 
 PCOD8253329
Probable space group: P N M A
;
_chemical_formula_sum "Si O2"
_cell_formula_units_Z 48
_cell_length_a 9.745252
_cell_length_b 14.402361
_cell_length_c 16.863422
_cell_angle_alpha 90.000000
_cell_angle_beta 90.000000
_cell_angle_gamma 90.000000
_cell_volume 2366.859479
_symmetry_space_group_name_H-M "P N M A"
_symmetry_group_IT_number 62
_symmetry_cell_setting 'orthorhombic'
loop_
_space_group_symop_operation_xyz
x,y,z
1/2-x,-y,1/2+z
1/2+x,1/2-y,1/2-z
-x,1/2+y,-z
-x,-y,-z
1/2+x,y,1/2-z
1/2-x,1/2+y,1/2+z
x,1/2-y,z
loop_
_atom_site_type_symbol
_atom_site_label
_atom_site_fract_x
_atom_site_fract_y
_atom_site_fract_z
Si Si1 0.474611 0.147074 0.588599
Si Si2 0.294692 0.352569 0.917461
Si Si3 0.841291 0.973341 0.846657
Si Si4 0.667657 0.041562 0.162539
Si Si5 0.574410 0.567014 0.938858
Si Si6 0.078834 0.643747 0.911169
O O1 0.449070 0.250000 0.623600
O O2 0.633901 0.129275 0.573135
O O3 0.414997 0.073287 0.650175
O O4 0.397043 0.135577 0.505032
O O5 0.323976 0.250000 0.881119
O O6 0.354001 0.432677 0.860035
O O7 0.361100 0.352789 0.005942
O O8 0.827812 0.944621 0.755809
O O9 0.693709 0.982484 0.888155
O O10 0.928634 0.894006 0.889871
O O11 0.541487 0.100678 0.124143
O O12 0.809865 0.079533 0.130086
O O13 0.500000 0.500000 0.000000
O O14 0.091150 0.750000 0.882371
#
# Coordination Sequence:
#
# PCOD8253329 Si02
#       6
#     8   8   8   8   8   8
#     4  10  20  37  66  93 115 159 212 255 300 370
#     4  10  20  39  66  91 121 162 209 255 311 379
#     4  12  22  40  65  88 130 166 204 261 316 378
#     4  11  24  40  61  95 130 165 202 261 328 376
#     4  10  22  38  60  91 124 166 210 252 308 367
#     4  11  23  41  65  90 118 165 218 257 301 370
#
# _framework density 20.280038000000001
#
# number of rings (size 3 to 8) (size 9 to 14) (size 15 to 20)
#    0.000    1.333    3.333    3.500    0.000    2.000 
#    0.000    6.667    0.000    0.000    0.000    0.000 
#    0.000    0.000    0.000    0.000    0.000    0.000 
#
# Total GULP energy -595084.381696 kJ/mol
# GULP energy per Si atom -12397.591285 kJ/mol
# Density = 2.023388 g / cm^3
# Si number density = 20.280038 Si / 1000 Ang^3
#
#
#
# Elastic Constant Matrix: (Units=GPa)
#
#
# Indices 1 2 3 4 5 6 
#
# 1 98.3546 10.4524 23.8260 0.0000 0.0000 0.0000
# 2 10.4524 77.0272 0.2695 0.0000 0.0000 0.0000
# 3 23.8260 0.2695 55.1498 0.0000 0.0000 0.0000
# 4 0.0000 0.0000 0.0000 15.8029 0.0000 0.0000
# 5 0.0000 0.0000 0.0000 0.0000 22.9127 0.0000
# 6 0.0000 0.0000 0.0000 0.0000 0.0000 16.4624
#
#
#
# Elastic Compliance Matrix: (Units=1/GPa)
#
#
# Indices 1 2 3 4 5 6 
#
# 1 0.011537 -0.001548 -0.004977 0.000000 0.000000 0.000000
# 2 -0.001548 0.013190 0.000604 0.000000 0.000000 0.000000
# 3 -0.004977 0.000604 0.020280 0.000000 0.000000 0.000000
# 4 0.000000 0.000000 0.000000 0.063279 0.000000 0.000000
# 5 0.000000 0.000000 0.000000 0.000000 0.043644 0.000000
# 6 0.000000 0.000000 0.000000 0.000000 0.000000 0.060744
#
#
# Mechanical properties :
#
#
# Convention : Reuss Voigt Hill
#
# Bulk Modulus (GPa) = 30.15125 33.29192 31.72158
# Shear Modulus (GPa) = 21.22495 24.10120 22.66307
#
# Velocity S-wave (km/s) = 3.23862 3.45109 3.34654
# Velocity P-wave (km/s) = 5.37444 5.68610 5.53246
#
# Compressibility (1/GPa) = 0.03316612
#
# Stress axis : x y z
#
# Youngs Moduli (GPa) = 86.67424 75.81273 49.31060
#
# Poissons Ratio (x) = 0.11737 0.24541
# Poissons Ratio (y) = 0.13419 -0.02980
# Poissons Ratio (z) = 0.43137 -0.04582
#
# Static dielectric constant tensor:
#      x y z
#    x 3.864400 0.000000 0.000000 
#    y 0.000000 3.669870 0.000000 
#    z 0.000000 0.000000 3.627510 
# 
# 
# High freq. dielectric constant tensor:
#      x y z
#    x 1.802120 0.000000 0.000000 
#    y 0.000000 1.782340 0.000000 
#    z 0.000000 0.000000 1.783460 
# 
# From -- ./inp_files/22189.got.cif
#   From: 2010.03.12/outbox.cif.g09.slc.cpg/sg62_12_cif.got.tgz:22189.got - 2010.04.10 19:12:36.
