data_PCOD8253137
_publ_section_title
;
Structure prediction by ZEFSAII (Michael W. Deem and Ramdas Pophale) SiO2 
 PCOD8253137
Probable space group: P N M A
;
_chemical_formula_sum "Si O2"
_cell_formula_units_Z 56
_cell_length_a 17.643923
_cell_length_b 20.948016
_cell_length_c 7.812635
_cell_angle_alpha 90.000000
_cell_angle_beta 90.000000
_cell_angle_gamma 90.000000
_cell_volume 2887.590376
_symmetry_space_group_name_H-M "P N M A"
_symmetry_group_IT_number 62
_symmetry_cell_setting 'orthorhombic'
loop_
_space_group_symop_operation_xyz
x,y,z
1/2-x,-y,1/2+z
1/2+x,1/2-y,1/2-z
-x,1/2+y,-z
-x,-y,-z
1/2+x,y,1/2-z
1/2-x,1/2+y,1/2+z
x,1/2-y,z
loop_
_atom_site_type_symbol
_atom_site_label
_atom_site_fract_x
_atom_site_fract_y
_atom_site_fract_z
Si Si1 0.288738 0.427995 0.373178
Si Si2 0.425891 0.824260 0.253845
Si Si3 0.332194 0.490962 0.705023
Si Si4 0.086242 0.116585 0.109949
Si Si5 0.950240 0.056370 0.266689
Si Si6 0.022156 0.568281 0.350516
Si Si7 0.833660 0.823797 0.583104
O O1 0.312161 0.437603 0.568034
O O2 0.239563 0.489421 0.318459
O O3 0.362727 0.423740 0.252040
O O4 0.241968 0.362559 0.367629
O O5 0.445548 0.750000 0.247352
O O6 0.394067 0.843457 0.439788
O O7 0.504943 0.862135 0.226593
O O8 0.365823 0.842934 0.104788
O O9 0.362595 0.553451 0.608824
O O10 0.393394 0.457848 0.826758
O O11 0.103668 0.161351 0.273079
O O12 0.998316 0.093715 0.120903
O O13 0.988667 0.075098 0.446627
O O14 0.961527 0.979385 0.257353
O O15 0.811348 0.750000 0.586304
#
# Coordination Sequence:
#
# PCOD8253137 Si02
#       7
#     8   8   8   8   8   8   8
#     4  11  22  36  56  88 122 160 192 240 304 363
#     4  11  22  37  63  87 113 156 201 246 294 351
#     4  10  22  34  57  90 121 154 192 244 306 354
#     4  10  20  39  64  90 111 153 201 251 294 348
#     4  10  20  36  63  91 118 153 194 254 309 345
#     4  10  20  38  61  90 122 149 200 254 297 355
#     4  10  23  42  58  83 120 160 202 242 293 357
#
# _framework density 19.393333999999999
#
# number of rings (size 3 to 8) (size 9 to 14) (size 15 to 20)
#    0.000    1.714    1.429    3.000    6.000    2.286 
#    0.000    4.286    0.000    0.000    0.000    0.000 
#    0.000    0.000    0.000    0.000    0.000    0.000 
#
# Total GULP energy -694336.267453 kJ/mol
# GULP energy per Si atom -12398.861919 kJ/mol
# Density = 1.934919 g / cm^3
# Si number density = 19.393334 Si / 1000 Ang^3
#
#
#
# Elastic Constant Matrix: (Units=GPa)
#
#
# Indices 1 2 3 4 5 6 
#
# 1 111.0025 42.0266 34.4842 0.0000 0.0000 0.0000
# 2 42.0266 95.4234 36.2019 0.0000 0.0000 0.0000
# 3 34.4842 36.2019 90.8767 0.0000 0.0000 0.0000
# 4 0.0000 0.0000 0.0000 29.2009 0.0000 0.0000
# 5 0.0000 0.0000 0.0000 0.0000 22.9402 0.0000
# 6 0.0000 0.0000 0.0000 0.0000 0.0000 16.3436
#
#
#
# Elastic Compliance Matrix: (Units=1/GPa)
#
#
# Indices 1 2 3 4 5 6 
#
# 1 0.011359 -0.003967 -0.002730 0.000000 0.000000 0.000000
# 2 -0.003967 0.013731 -0.003965 0.000000 0.000000 0.000000
# 3 -0.002730 -0.003965 0.013619 0.000000 0.000000 0.000000
# 4 0.000000 0.000000 0.000000 0.034245 0.000000 0.000000
# 5 0.000000 0.000000 0.000000 0.000000 0.043592 0.000000
# 6 0.000000 0.000000 0.000000 0.000000 0.000000 0.061186
#
#
# Mechanical properties :
#
#
# Convention : Reuss Voigt Hill
#
# Bulk Modulus (GPa) = 57.51792 58.08090 57.79941
# Shear Modulus (GPa) = 24.40810 26.00294 25.20552
#
# Velocity S-wave (km/s) = 3.55150 3.66569 3.60905
# Velocity P-wave (km/s) = 6.82206 6.92317 6.87280
#
# Compressibility (1/GPa) = 0.01738589
#
# Stress axis : x y z
#
# Youngs Moduli (GPa) = 88.03722 72.82873 73.42598
#
# Poissons Ratio (x) = 0.28891 0.20045
# Poissons Ratio (y) = 0.34924 0.29110
# Poissons Ratio (z) = 0.24034 0.28873
#
# Static dielectric constant tensor:
#      x y z
#    x 3.424530 0.000000 0.000000 
#    y 0.000000 3.427800 0.000000 
#    z 0.000000 0.000000 3.600000 
# 
# 
# High freq. dielectric constant tensor:
#      x y z
#    x 1.742620 0.000000 0.000000 
#    y 0.000000 1.741210 0.000000 
#    z 0.000000 0.000000 1.770750 
# 
# From -- ./inp_files/6781.got.cif
#   From: 2010.03.12/outbox.cif.g09.slc.cpg/sg62_4_cif.got.tgz:6781.got - 2010.04.10 19:12:36.
