data_PCOD8253076
_publ_section_title
;
Structure prediction by ZEFSAII (Michael W. Deem and Ramdas Pophale) SiO2 
 PCOD8253076
Probable space group: P N M A
;
_chemical_formula_sum "Si O2"
_cell_formula_units_Z 48
_cell_length_a 13.191296
_cell_length_b 14.163017
_cell_length_c 13.117387
_cell_angle_alpha 90.000000
_cell_angle_beta 90.000000
_cell_angle_gamma 90.000000
_cell_volume 2450.702386
_symmetry_space_group_name_H-M "P N M A"
_symmetry_group_IT_number 62
_symmetry_cell_setting 'orthorhombic'
loop_
_space_group_symop_operation_xyz
x,y,z
1/2-x,-y,1/2+z
1/2+x,1/2-y,1/2-z
-x,1/2+y,-z
-x,-y,-z
1/2+x,y,1/2-z
1/2-x,1/2+y,1/2+z
x,1/2-y,z
loop_
_atom_site_type_symbol
_atom_site_label
_atom_site_fract_x
_atom_site_fract_y
_atom_site_fract_z
Si Si1 0.049579 0.441628 0.589528
Si Si2 0.775771 0.250000 0.185249
Si Si3 0.526063 0.750000 0.549106
Si Si4 0.013614 0.052183 0.104217
Si Si5 0.632538 0.562827 0.243526
Si Si6 0.846687 0.250000 0.861201
Si Si7 0.322390 0.047788 0.252982
Si Si8 0.148817 0.250000 0.507887
O O1 0.138403 0.502998 0.645242
O O2 0.088788 0.343727 0.541769
O O3 0.000000 0.500000 0.500000
O O4 0.959095 0.420215 0.667088
O O5 0.782962 0.343455 0.257177
O O6 0.868955 0.250000 0.108538
O O7 0.672428 0.250000 0.114912
O O8 0.458999 0.839531 0.580434
O O9 0.549575 0.750000 0.427466
O O10 0.910690 0.042479 0.165798
O O11 0.106160 0.008511 0.165169
O O12 0.000000 0.000000 0.000000
O O13 0.662298 0.662333 0.287835
O O14 0.733180 0.515598 0.196335
O O15 0.754825 0.250000 0.937541
#
# Coordination Sequence:
#
# PCOD8253076 Si02
#       8
#     8   4   4   8   8   4   8   4
#     4  11  24  40  62  91 129 171 209 262 315 382
#     4   9  20  37  64  83 119 167 203 259 309 369
#     4   9  18  34  56  89 114 153 200 245 309 363
#     4  10  20  36  59  87 119 157 201 258 303 366
#     4  11  22  37  61  87 123 163 204 257 315 363
#     4  11  19  35  62  86 120 156 194 253 309 376
#     4  10  22  39  59  92 122 160 216 254 310 376
#     4  11  21  40  64  92 123 166 211 253 323 382
#
# _framework density 19.586221999999999
#
# number of rings (size 3 to 8) (size 9 to 14) (size 15 to 20)
#    0.000    1.667    3.333    1.500    0.000    2.667 
#    0.000    4.167    0.000    2.000    0.000    0.000 
#    0.000    0.000    0.000    0.000    0.000    0.000 
#
# Total GULP energy -594970.741472 kJ/mol
# GULP energy per Si atom -12395.223781 kJ/mol
# Density = 1.954164 g / cm^3
# Si number density = 19.586222 Si / 1000 Ang^3
#
#
#
# Elastic Constant Matrix: (Units=GPa)
#
#
# Indices 1 2 3 4 5 6 
#
# 1 62.4315 46.2094 16.3203 0.0000 0.0000 0.0000
# 2 46.2094 189.7643 50.5678 0.0000 0.0000 0.0000
# 3 16.3203 50.5678 70.1859 0.0000 0.0000 0.0000
# 4 0.0000 0.0000 0.0000 32.2832 0.0000 0.0000
# 5 0.0000 0.0000 0.0000 0.0000 21.2112 0.0000
# 6 0.0000 0.0000 0.0000 0.0000 0.0000 108.6306
#
#
#
# Elastic Compliance Matrix: (Units=1/GPa)
#
#
# Indices 1 2 3 4 5 6 
#
# 1 0.019648 -0.004415 -0.001388 0.000000 0.000000 0.000000
# 2 -0.004415 0.007514 -0.004387 0.000000 0.000000 0.000000
# 3 -0.001388 -0.004387 0.017731 0.000000 0.000000 0.000000
# 4 0.000000 0.000000 0.000000 0.030976 0.000000 0.000000
# 5 0.000000 0.000000 0.000000 0.000000 0.047145 0.000000
# 6 0.000000 0.000000 0.000000 0.000000 0.000000 0.009206
#
#
# Mechanical properties :
#
#
# Convention : Reuss Voigt Hill
#
# Bulk Modulus (GPa) = 40.79345 60.95296 50.87320
# Shear Modulus (GPa) = 31.10036 46.37728 38.73882
#
# Velocity S-wave (km/s) = 3.98913 4.87134 4.45214
# Velocity P-wave (km/s) = 6.48771 7.92640 7.24286
#
# Compressibility (1/GPa) = 0.02451374
#
# Stress axis : x y z
#
# Youngs Moduli (GPa) = 50.89602 133.08994 56.39708
#
# Poissons Ratio (x) = 0.58753 0.07828
# Poissons Ratio (y) = 0.22468 0.24741
# Poissons Ratio (z) = 0.07065 0.58387
#
# Static dielectric constant tensor:
#      x y z
#    x 3.461370 0.000000 0.000000 
#    y 0.000000 3.833240 0.000000 
#    z 0.000000 0.000000 3.725160 
# 
# 
# High freq. dielectric constant tensor:
#      x y z
#    x 1.758270 0.000000 0.000000 
#    y 0.000000 1.782460 0.000000 
#    z 0.000000 0.000000 1.754580 
# 
# From -- ./inp_files/18045.got.cif
#   From: 2010.03.12/outbox.cif.g09.slc.cpg/sg62_10_cif.got.tgz:18045.got - 2010.04.10 19:12:36.
