data_PCOD8253837
_publ_section_title
;
Structure prediction by ZEFSAII (Michael W. Deem and Ramdas Pophale) SiO2 
 PCOD8253837
Probable space group: P N M A
;
_chemical_formula_sum "Si O2"
_cell_formula_units_Z 64
_cell_length_a 18.846436
_cell_length_b 8.758053
_cell_length_c 19.248010
_cell_angle_alpha 90.000000
_cell_angle_beta 90.000000
_cell_angle_gamma 90.000000
_cell_volume 3177.039677
_symmetry_space_group_name_H-M "P N M A"
_symmetry_group_IT_number 62
_symmetry_cell_setting 'orthorhombic'
loop_
_space_group_symop_operation_xyz
x,y,z
1/2-x,-y,1/2+z
1/2+x,1/2-y,1/2-z
-x,1/2+y,-z
-x,-y,-z
1/2+x,y,1/2-z
1/2-x,1/2+y,1/2+z
x,1/2-y,z
loop_
_atom_site_type_symbol
_atom_site_label
_atom_site_fract_x
_atom_site_fract_y
_atom_site_fract_z
Si Si1 0.393025 0.575756 0.035744
Si Si2 0.475867 0.070813 0.629676
Si Si3 0.727886 0.928665 0.882938
Si Si4 0.607008 0.569634 0.238590
Si Si5 0.767565 0.568530 0.239190
Si Si6 0.865677 0.568689 0.112282
Si Si7 0.148578 0.571617 0.033679
Si Si8 0.044440 0.925545 0.405956
O O1 0.366108 0.750000 0.038474
O O2 0.332028 0.462640 0.060414
O O3 0.460802 0.551458 0.084859
O O4 0.411899 0.533775 0.957075
O O5 0.483185 0.250000 0.642595
O O6 0.433813 0.997781 0.695200
O O7 0.554982 0.001179 0.623906
O O8 0.431805 0.037085 0.559248
O O9 0.741019 0.750000 0.877072
O O10 0.701406 0.996162 0.809517
O O11 0.800346 0.009084 0.906250
O O12 0.611343 0.750000 0.247329
O O13 0.687126 0.507350 0.230766
O O14 0.562633 0.521372 0.171328
O O15 0.771966 0.750000 0.245096
O O16 0.814539 0.511047 0.174079
O O17 0.866346 0.750000 0.108434
O O18 0.835518 0.508157 0.039442
O O19 0.162431 0.750000 0.025300
O O20 0.066416 0.750000 0.419839
#
# Coordination Sequence:
#
# PCOD8253837 Si02
#       8
#     8   8   8   8   8   8   8   8
#     4  10  21  37  58  86 119 155 196 243 297 357
#     4   9  18  35  60  88 119 156 199 243 293 352
#     4  12  25  40  60  84 117 156 200 250 299 355
#     4   9  17  33  58  85 115 155 198 238 285 350
#     4  10  21  39  61  86 118 154 197 240 294 357
#     4  10  22  37  62  95 122 154 197 245 295 358
#     4  11  22  40  63  86 118 160 200 248 303 357
#     4   9  19  35  60  88 117 154 198 244 291 352
#
# _framework density 20.144539000000002
#
# number of rings (size 3 to 8) (size 9 to 14) (size 15 to 20)
#    0.000    2.000    1.250    2.250    3.500    1.000 
#    0.000    1.250    0.000    0.000    0.000    0.000 
#    0.000    0.000    0.000    0.000    0.000    0.000 
#
# Total GULP energy -793733.552506 kJ/mol
# GULP energy per Si atom -12402.086758 kJ/mol
# Density = 2.009869 g / cm^3
# Si number density = 20.144539 Si / 1000 Ang^3
#
#
#
# Elastic Constant Matrix: (Units=GPa)
#
#
# Indices 1 2 3 4 5 6 
#
# 1 79.2193 23.6606 42.7003 0.0000 0.0000 0.0000
# 2 23.6606 36.4262 28.1575 0.0000 0.0000 0.0000
# 3 42.7003 28.1575 122.1664 0.0000 0.0000 0.0000
# 4 0.0000 0.0000 0.0000 29.3871 0.0000 0.0000
# 5 0.0000 0.0000 0.0000 0.0000 30.9243 0.0000
# 6 0.0000 0.0000 0.0000 0.0000 0.0000 20.4197
#
#
#
# Elastic Compliance Matrix: (Units=1/GPa)
#
#
# Indices 1 2 3 4 5 6 
#
# 1 0.017267 -0.007970 -0.004198 0.000000 0.000000 0.000000
# 2 -0.007970 0.037083 -0.005761 0.000000 0.000000 0.000000
# 3 -0.004198 -0.005761 0.010981 0.000000 0.000000 0.000000
# 4 0.000000 0.000000 0.000000 0.034029 0.000000 0.000000
# 5 0.000000 0.000000 0.000000 0.000000 0.032337 0.000000
# 6 0.000000 0.000000 0.000000 0.000000 0.000000 0.048972
#
#
# Mechanical properties :
#
#
# Convention : Reuss Voigt Hill
#
# Bulk Modulus (GPa) = 33.93138 47.42763 40.67950
# Shear Modulus (GPa) = 22.08952 25.69912 23.89432
#
# Velocity S-wave (km/s) = 3.31501 3.57562 3.44778
# Velocity P-wave (km/s) = 5.61542 6.37507 6.00726
#
# Compressibility (1/GPa) = 0.02947125
#
# Stress axis : x y z
#
# Youngs Moduli (GPa) = 57.91559 26.96627 91.06820
#
# Poissons Ratio (x) = 0.21493 0.38231
# Poissons Ratio (y) = 0.46161 0.52467
# Poissons Ratio (z) = 0.24313 0.15536
#
# Static dielectric constant tensor:
#      x y z
#    x 3.813600 0.000000 0.000000 
#    y 0.000000 3.288090 0.000000 
#    z 0.000000 0.000000 3.703560 
# 
# 
# High freq. dielectric constant tensor:
#      x y z
#    x 1.793870 0.000000 0.000000 
#    y 0.000000 1.752990 0.000000 
#    z 0.000000 0.000000 1.796520 
# 
# From -- ./inp_files/24781.got.cif
#   From: 2010.03.12/outbox.cif.g09.slc.cpg/sg62_13_cif.got.tgz:24781.got - 2010.04.10 19:12:36.
