data_PCOD8253059
_publ_section_title
;
Structure prediction by ZEFSAII (Michael W. Deem and Ramdas Pophale) SiO2 
 PCOD8253059
Probable space group: P N M A
;
_chemical_formula_sum "Si O2"
_cell_formula_units_Z 48
_cell_length_a 19.081577
_cell_length_b 8.821205
_cell_length_c 15.053830
_cell_angle_alpha 90.000000
_cell_angle_beta 90.000000
_cell_angle_gamma 90.000000
_cell_volume 2533.898337
_symmetry_space_group_name_H-M "P N M A"
_symmetry_group_IT_number 62
_symmetry_cell_setting 'orthorhombic'
loop_
_space_group_symop_operation_xyz
x,y,z
1/2-x,-y,1/2+z
1/2+x,1/2-y,1/2-z
-x,1/2+y,-z
-x,-y,-z
1/2+x,y,1/2-z
1/2-x,1/2+y,1/2+z
x,1/2-y,z
loop_
_atom_site_type_symbol
_atom_site_label
_atom_site_fract_x
_atom_site_fract_y
_atom_site_fract_z
Si Si1 0.069799 0.072854 0.769617
Si Si2 0.170223 0.927220 0.633487
Si Si3 0.575387 0.429597 0.215253
Si Si4 0.072075 0.072651 0.971755
Si Si5 0.427968 0.073485 0.969097
Si Si6 0.328470 0.929773 0.624034
O O1 0.053605 0.250000 0.757286
O O2 0.090086 0.032387 0.870506
O O3 0.135487 0.024399 0.711008
O O4 0.002749 0.978434 0.739709
O O5 0.167328 0.750000 0.658560
O O6 0.131992 0.958513 0.540715
O O7 0.249216 0.989804 0.625469
O O8 0.576583 0.250000 0.205980
O O9 0.598965 0.501858 0.122454
O O10 0.629213 0.488959 0.289963
O O11 0.063527 0.250000 0.986466
O O12 0.133836 0.008582 0.034875
O O13 0.000000 0.000000 0.000000
O O14 0.441895 0.250000 0.955243
O O15 0.500000 0.000000 0.000000
O O16 0.328092 0.750000 0.623353
#
# Coordination Sequence:
#
# PCOD8253059 Si02
#       6
#     8   8   8   8   8   8
#     4  11  22  35  58  89 118 148 191 242 288 341
#     4  10  22  40  60  82 114 157 194 234 291 346
#     4  11  21  36  61  86 114 154 195 238 287 342
#     4  10  20  36  59  86 115 149 189 235 284 341
#     4  11  22  36  59  87 117 152 197 241 285 343
#     4   9  20  39  60  84 116 153 193 235 288 348
#
# _framework density 18.943142999999999
#
# number of rings (size 3 to 8) (size 9 to 14) (size 15 to 20)
#    0.000    1.667    3.333    1.500    0.000    2.667 
#    0.000    4.167    0.000    0.000    0.000    0.000 
#    0.000    0.000    0.000    0.000    0.000    0.000 
#
# Total GULP energy -595351.064921 kJ/mol
# GULP energy per Si atom -12403.147186 kJ/mol
# Density = 1.890003 g / cm^3
# Si number density = 18.943143 Si / 1000 Ang^3
#
#
#
# Elastic Constant Matrix: (Units=GPa)
#
#
# Indices 1 2 3 4 5 6 
#
# 1 147.8185 28.8143 74.5010 0.0000 0.0000 0.0000
# 2 28.8143 57.3679 52.5924 0.0000 0.0000 0.0000
# 3 74.5010 52.5924 172.7983 0.0000 0.0000 0.0000
# 4 0.0000 0.0000 0.0000 30.9917 0.0000 0.0000
# 5 0.0000 0.0000 0.0000 0.0000 34.6648 0.0000
# 6 0.0000 0.0000 0.0000 0.0000 0.0000 21.0739
#
#
#
# Elastic Compliance Matrix: (Units=1/GPa)
#
#
# Indices 1 2 3 4 5 6 
#
# 1 0.008712 -0.001293 -0.003362 0.000000 0.000000 0.000000
# 2 -0.001293 0.024369 -0.006859 0.000000 0.000000 0.000000
# 3 -0.003362 -0.006859 0.009325 0.000000 0.000000 0.000000
# 4 0.000000 0.000000 0.000000 0.032267 0.000000 0.000000
# 5 0.000000 0.000000 0.000000 0.000000 0.028848 0.000000
# 6 0.000000 0.000000 0.000000 0.000000 0.000000 0.047452
#
#
# Mechanical properties :
#
#
# Convention : Reuss Voigt Hill
#
# Bulk Modulus (GPa) = 51.61146 76.64444 64.12795
# Shear Modulus (GPa) = 27.70687 32.15123 29.92905
#
# Velocity S-wave (km/s) = 3.82859 4.12424 3.97916
# Velocity P-wave (km/s) = 6.84461 7.95155 7.41876
#
# Compressibility (1/GPa) = 0.01937554
#
# Stress axis : x y z
#
# Youngs Moduli (GPa) = 114.78655 41.03524 107.24409
#
# Poissons Ratio (x) = 0.05306 0.36061
# Poissons Ratio (y) = 0.14844 0.73563
# Poissons Ratio (z) = 0.38597 0.28148
#
# Static dielectric constant tensor:
#      x y z
#    x 3.554910 0.000000 0.000000 
#    y 0.000000 3.371890 0.000000 
#    z 0.000000 0.000000 4.089790 
# 
# 
# High freq. dielectric constant tensor:
#      x y z
#    x 1.734420 0.000000 0.000000 
#    y 0.000000 1.725130 0.000000 
#    z 0.000000 0.000000 1.755550 
# 
# From -- ./inp_files/19593.got.cif
#   From: 2010.03.12/outbox.cif.g09.slc.cpg/sg62_10_cif.got.tgz:19593.got - 2010.04.10 19:12:36.
