data_PCOD8253338
_publ_section_title
;
Structure prediction by ZEFSAII (Michael W. Deem and Ramdas Pophale) SiO2 
 PCOD8253338
Probable space group: P N M A
;
_chemical_formula_sum "Si O2"
_cell_formula_units_Z 56
_cell_length_a 14.974846
_cell_length_b 15.710091
_cell_length_c 12.156145
_cell_angle_alpha 90.000000
_cell_angle_beta 90.000000
_cell_angle_gamma 90.000000
_cell_volume 2859.808399
_symmetry_space_group_name_H-M "P N M A"
_symmetry_group_IT_number 62
_symmetry_cell_setting 'orthorhombic'
loop_
_space_group_symop_operation_xyz
x,y,z
1/2-x,-y,1/2+z
1/2+x,1/2-y,1/2-z
-x,1/2+y,-z
-x,-y,-z
1/2+x,y,1/2-z
1/2-x,1/2+y,1/2+z
x,1/2-y,z
loop_
_atom_site_type_symbol
_atom_site_label
_atom_site_fract_x
_atom_site_fract_y
_atom_site_fract_z
Si Si1 0.648438 0.545328 0.903266
Si Si2 0.995073 0.652866 0.693929
Si Si3 0.255064 0.440533 0.756041
Si Si4 0.798609 0.649631 0.030125
Si Si5 0.012107 0.149196 0.059650
Si Si6 0.333586 0.574305 0.909493
Si Si7 0.826592 0.351059 0.958727
O O1 0.564727 0.604595 0.882454
O O2 0.676057 0.499347 0.790510
O O3 0.730455 0.599886 0.951736
O O4 0.619449 0.471452 0.987341
O O5 0.025603 0.750000 0.697761
O O6 0.897814 0.647079 0.637826
O O7 0.992929 0.613264 0.816242
O O8 0.216078 0.372076 0.841951
O O9 0.323577 0.503084 0.815970
O O10 0.305351 0.390690 0.659339
O O11 0.786279 0.750000 0.011228
O O12 0.897616 0.616935 0.998578
O O13 0.014227 0.250000 0.065173
O O14 0.925998 0.118469 0.991111
O O15 0.239843 0.615441 0.946434
O O16 0.818425 0.250000 0.951086
#
# Coordination Sequence:
#
# PCOD8253338 Si02
#       7
#     8   8   8   8   8   8   8
#     4  10  21  36  54  80 113 146 185 234 282 330
#     4  11  21  36  57  81 109 150 191 229 277 333
#     4  10  21  36  57  82 112 148 182 228 289 332
#     4  10  20  38  59  83 113 149 189 230 273 332
#     4   9  20  34  55  83 108 136 182 231 271 319
#     4  10  21  36  54  80 113 146 185 234 282 330
#     4  10  20  38  59  83 113 149 189 230 273 332
#
# _framework density 19.581731999999999
#
# number of rings (size 3 to 8) (size 9 to 14) (size 15 to 20)
#    0.000    2.000    0.000    3.429    0.000    1.143 
#    0.000   15.000    0.000    6.857    0.000    0.000 
#    0.000    0.000    0.000    0.000    0.000    0.000 
#
# Total GULP energy -694446.102847 kJ/mol
# GULP energy per Si atom -12400.823265 kJ/mol
# Density = 1.953716 g / cm^3
# Si number density = 19.581732 Si / 1000 Ang^3
#
#
#
# Elastic Constant Matrix: (Units=GPa)
#
#
# Indices 1 2 3 4 5 6 
#
# 1 114.3124 14.5479 46.1428 0.0000 0.0000 0.0000
# 2 14.5479 54.9316 16.6756 0.0000 0.0000 0.0000
# 3 46.1428 16.6756 102.1205 0.0000 0.0000 0.0000
# 4 0.0000 0.0000 0.0000 23.1225 0.0000 0.0000
# 5 0.0000 0.0000 0.0000 0.0000 26.0817 0.0000
# 6 0.0000 0.0000 0.0000 0.0000 0.0000 29.1599
#
#
#
# Elastic Compliance Matrix: (Units=1/GPa)
#
#
# Indices 1 2 3 4 5 6 
#
# 1 0.010808 -0.001452 -0.004647 0.000000 0.000000 0.000000
# 2 -0.001452 0.019349 -0.002504 0.000000 0.000000 0.000000
# 3 -0.004647 -0.002504 0.012301 0.000000 0.000000 0.000000
# 4 0.000000 0.000000 0.000000 0.043248 0.000000 0.000000
# 5 0.000000 0.000000 0.000000 0.000000 0.038341 0.000000
# 6 0.000000 0.000000 0.000000 0.000000 0.000000 0.034294
#
#
# Mechanical properties :
#
#
# Convention : Reuss Voigt Hill
#
# Bulk Modulus (GPa) = 39.59774 47.34413 43.47093
# Shear Modulus (GPa) = 27.17941 28.60603 27.89272
#
# Velocity S-wave (km/s) = 3.72963 3.82626 3.77825
# Velocity P-wave (km/s) = 6.22997 6.61442 6.42507
#
# Compressibility (1/GPa) = 0.02525397
#
# Stress axis : x y z
#
# Youngs Moduli (GPa) = 92.52084 51.68236 81.29591
#
# Poissons Ratio (x) = 0.07504 0.37775
# Poissons Ratio (y) = 0.13433 0.20353
# Poissons Ratio (z) = 0.42991 0.12939
#
# Static dielectric constant tensor:
#      x y z
#    x 3.517830 0.000000 0.000000 
#    y 0.000000 3.523280 0.000000 
#    z 0.000000 0.000000 3.793680 
# 
# 
# High freq. dielectric constant tensor:
#      x y z
#    x 1.760210 0.000000 0.000000 
#    y 0.000000 1.764590 0.000000 
#    z 0.000000 0.000000 1.774740 
# 
# From -- ./inp_files/13376.got.cif
#   From: 2010.03.12/outbox.cif.g09.slc.cpg/sg62_7_cif.got.tgz:13376.got - 2010.04.10 19:12:36.
