data_PCOD8253735
_publ_section_title
;
Structure prediction by ZEFSAII (Michael W. Deem and Ramdas Pophale) SiO2 
 PCOD8253735
Probable space group: P N M A
;
_chemical_formula_sum "Si O2"
_cell_formula_units_Z 40
_cell_length_a 14.116824
_cell_length_b 9.693985
_cell_length_c 11.259217
_cell_angle_alpha 90.000000
_cell_angle_beta 90.000000
_cell_angle_gamma 90.000000
_cell_volume 1540.804482
_symmetry_space_group_name_H-M "P N M A"
_symmetry_group_IT_number 62
_symmetry_cell_setting 'orthorhombic'
loop_
_space_group_symop_operation_xyz
x,y,z
1/2-x,-y,1/2+z
1/2+x,1/2-y,1/2-z
-x,1/2+y,-z
-x,-y,-z
1/2+x,y,1/2-z
1/2-x,1/2+y,1/2+z
x,1/2-y,z
loop_
_atom_site_type_symbol
_atom_site_label
_atom_site_fract_x
_atom_site_fract_y
_atom_site_fract_z
Si Si1 0.857108 0.250000 0.871149
Si Si2 0.360203 0.250000 0.247076
Si Si3 0.358110 0.455211 0.835851
Si Si4 0.357108 0.750000 0.128851
Si Si5 0.959722 0.750000 0.999693
Si Si6 0.360203 0.750000 0.747075
Si Si7 0.540278 0.750000 0.999693
Si Si8 0.641889 0.044789 0.664149
O O1 0.877324 0.115297 0.791348
O O2 0.750000 0.250000 0.922024
O O3 0.926608 0.250000 0.983634
O O4 0.250000 0.250000 0.204163
O O5 0.382957 0.383828 0.326307
O O6 0.432407 0.250000 0.137395
O O7 0.382956 0.616172 0.826307
O O8 0.420208 0.388307 0.938897
O O9 0.250000 0.430804 0.873596
O O10 0.426608 0.750000 0.016367
O O11 0.377324 0.615297 0.208652
O O12 0.920209 0.888307 0.061104
O O13 0.932407 0.750000 0.862606
#
# Coordination Sequence:
#
# PCOD8253735 Si02
#       8
#     4   4   8   4   4   4   4   8
#     4   9  19  37  59  83 118 160 201 256 307 344
#     4  10  21  36  58  90 125 158 193 242 302 362
#     4   9  18  35  58  87 122 154 194 247 297 359
#     4   9  19  37  59  83 118 160 201 256 307 344
#     4  11  20  37  64  85 115 166 206 238 302 368
#     4  10  21  36  58  90 125 158 193 242 302 362
#     4  11  20  37  64  85 115 166 206 238 302 368
#     4   9  18  35  58  87 122 154 194 247 297 359
#
# _framework density 25.960464000000002
#
# number of rings (size 3 to 8) (size 9 to 14) (size 15 to 20)
#    0.000    2.400    0.000    5.400    0.000    1.600 
#    0.000    8.000    0.000   14.400    0.000    0.000 
#    0.000    0.000    0.000    0.000    0.000    0.000 
#
# Total GULP energy -496226.220524 kJ/mol
# GULP energy per Si atom -12405.655513 kJ/mol
# Density = 2.590138 g / cm^3
# Si number density = 25.960464 Si / 1000 Ang^3
#
#
#
# Elastic Constant Matrix: (Units=GPa)
#
#
# Indices 1 2 3 4 5 6 
#
# 1 88.6598 41.9195 43.1447 0.0000 0.0000 0.0000
# 2 41.9195 205.8839 46.5495 0.0000 0.0000 0.0000
# 3 43.1447 46.5495 85.6344 0.0000 0.0000 0.0000
# 4 0.0000 0.0000 0.0000 8.0195 0.0000 0.0000
# 5 0.0000 0.0000 0.0000 0.0000 15.9680 0.0000
# 6 0.0000 0.0000 0.0000 0.0000 0.0000 11.9185
#
#
#
# Elastic Compliance Matrix: (Units=1/GPa)
#
#
# Indices 1 2 3 4 5 6 
#
# 1 0.015377 -0.001572 -0.006892 0.000000 0.000000 0.000000
# 2 -0.001572 0.005699 -0.002305 0.000000 0.000000 0.000000
# 3 -0.006892 -0.002305 0.016403 0.000000 0.000000 0.000000
# 4 0.000000 0.000000 0.000000 0.124696 0.000000 0.000000
# 5 0.000000 0.000000 0.000000 0.000000 0.062625 0.000000
# 6 0.000000 0.000000 0.000000 0.000000 0.000000 0.083903
#
#
# Mechanical properties :
#
#
# Convention : Reuss Voigt Hill
#
# Bulk Modulus (GPa) = 62.74315 71.48950 67.11633
# Shear Modulus (GPa) = 14.90065 23.75215 19.32640
#
# Velocity S-wave (km/s) = 2.39838 3.02807 2.73143
# Velocity P-wave (km/s) = 5.64719 6.31057 5.98807
#
# Compressibility (1/GPa) = 0.01593799
#
# Stress axis : x y z
#
# Youngs Moduli (GPa) = 65.03396 175.48454 60.96351
#
# Poissons Ratio (x) = 0.27594 0.42018
# Poissons Ratio (y) = 0.10226 0.14054
# Poissons Ratio (z) = 0.44824 0.40456
#
# Static dielectric constant tensor:
#      x y z
#    x 4.856080 0.000000 0.000000 
#    y 0.000000 5.931030 0.000000 
#    z 0.000000 0.000000 4.087790 
# 
# 
# High freq. dielectric constant tensor:
#      x y z
#    x 2.054170 0.000000 0.000000 
#    y 0.000000 2.052380 0.000000 
#    z 0.000000 0.000000 2.019000 
# 
# From -- ./inp_files/18720.got.cif
#   From: 2010.03.12/outbox.cif.g09.slc.cpg/sg62_10_cif.got.tgz:18720.got - 2010.04.10 19:12:36.
