data_PCOD8253400
_publ_section_title
;
Structure prediction by ZEFSAII (Michael W. Deem and Ramdas Pophale) SiO2 
 PCOD8253400
Probable space group: P N M A
;
_chemical_formula_sum "Si O2"
_cell_formula_units_Z 48
_cell_length_a 9.997033
_cell_length_b 8.522754
_cell_length_c 27.589308
_cell_angle_alpha 90.000000
_cell_angle_beta 90.000000
_cell_angle_gamma 90.000000
_cell_volume 2350.671200
_symmetry_space_group_name_H-M "P N M A"
_symmetry_group_IT_number 62
_symmetry_cell_setting 'orthorhombic'
loop_
_space_group_symop_operation_xyz
x,y,z
1/2-x,-y,1/2+z
1/2+x,1/2-y,1/2-z
-x,1/2+y,-z
-x,-y,-z
1/2+x,y,1/2-z
1/2-x,1/2+y,1/2+z
x,1/2-y,z
loop_
_atom_site_type_symbol
_atom_site_label
_atom_site_fract_x
_atom_site_fract_y
_atom_site_fract_z
Si Si1 0.899789 0.934731 0.289263
Si Si2 0.100191 0.936899 0.208237
Si Si3 0.962542 0.066656 0.391438
Si Si4 0.237617 0.432291 0.441251
Si Si5 0.711432 0.067622 0.455579
Si Si6 0.014473 0.066778 0.893989
O O1 0.893792 0.750000 0.282775
O O2 0.749810 0.004361 0.282702
O O3 0.999036 0.006040 0.248590
O O4 0.958605 0.973118 0.341571
O O5 0.103411 0.750000 0.209967
O O6 0.051544 0.994721 0.155675
O O7 0.959072 0.250000 0.379685
O O8 0.095948 0.017741 0.419409
O O9 0.839761 0.014006 0.424947
O O10 0.240691 0.250000 0.455381
O O11 0.262853 0.536600 0.488310
O O12 0.349280 0.470875 0.401252
O O13 0.679372 0.250000 0.447913
O O14 0.585264 0.966369 0.438404
O O15 0.048118 0.250000 0.891698
#
# Coordination Sequence:
#
# PCOD8253400 Si02
#       6
#     8   8   8   8   8   8
#     4  10  20  38  62  88 118 153 195 243 291 345
#     4   9  20  36  60  90 117 149 193 243 290 342
#     4  10  23  41  60  87 122 156 196 244 297 352
#     4  11  24  40  59  87 121 157 198 245 293 349
#     4  11  22  40  63  87 117 156 199 246 297 350
#     4  11  22  39  61  89 121 157 199 241 294 351
#
# _framework density 20.419699000000001
#
# number of rings (size 3 to 8) (size 9 to 14) (size 15 to 20)
#    0.000    1.667    1.667    2.500    2.333    2.000 
#    0.000    2.500    0.000    0.000    0.000    0.000 
#    0.000    0.000    0.000    0.000    0.000    0.000 
#
# Total GULP energy -595455.870783 kJ/mol
# GULP energy per Si atom -12405.330641 kJ/mol
# Density = 2.037322 g / cm^3
# Si number density = 20.419699 Si / 1000 Ang^3
#
#
#
# Elastic Constant Matrix: (Units=GPa)
#
#
# Indices 1 2 3 4 5 6 
#
# 1 88.9261 20.7154 24.5819 0.0000 0.0000 0.0000
# 2 20.7154 24.0526 11.8630 0.0000 0.0000 0.0000
# 3 24.5819 11.8630 104.9081 0.0000 0.0000 0.0000
# 4 0.0000 0.0000 0.0000 27.8687 0.0000 0.0000
# 5 0.0000 0.0000 0.0000 0.0000 42.7661 0.0000
# 6 0.0000 0.0000 0.0000 0.0000 0.0000 26.7720
#
#
#
# Elastic Compliance Matrix: (Units=1/GPa)
#
#
# Indices 1 2 3 4 5 6 
#
# 1 0.014492 -0.011445 -0.002102 0.000000 0.000000 0.000000
# 2 -0.011445 0.053070 -0.003319 0.000000 0.000000 0.000000
# 3 -0.002102 -0.003319 0.010400 0.000000 0.000000 0.000000
# 4 0.000000 0.000000 0.000000 0.035882 0.000000 0.000000
# 5 0.000000 0.000000 0.000000 0.000000 0.023383 0.000000
# 6 0.000000 0.000000 0.000000 0.000000 0.000000 0.037352
#
#
# Mechanical properties :
#
#
# Convention : Reuss Voigt Hill
#
# Bulk Modulus (GPa) = 22.60903 36.91194 29.76049
# Shear Modulus (GPa) = 22.41593 30.19647 26.30620
#
# Velocity S-wave (km/s) = 3.31684 3.84968 3.59315
# Velocity P-wave (km/s) = 5.07590 6.15434 5.64095
#
# Compressibility (1/GPa) = 0.04423011
#
# Stress axis : x y z
#
# Youngs Moduli (GPa) = 69.00180 18.84309 96.15429
#
# Poissons Ratio (x) = 0.21566 0.20208
# Poissons Ratio (y) = 0.78973 0.31917
# Poissons Ratio (z) = 0.14502 0.06255
#
# Static dielectric constant tensor:
#      x y z
#    x 4.054350 0.000000 0.000000 
#    y 0.000000 3.379320 0.000000 
#    z 0.000000 0.000000 3.707800 
# 
# 
# High freq. dielectric constant tensor:
#      x y z
#    x 1.816570 0.000000 0.000000 
#    y 0.000000 1.775080 0.000000 
#    z 0.000000 0.000000 1.804670 
# 
# From -- ./inp_files/31941.got.cif
#   From: 2010.03.12/outbox.cif.g09.slc.cpg/sg62_16_cif.got.tgz:31941.got - 2010.04.10 19:12:36.
