data_PCOD8253119
_publ_section_title
;
Structure prediction by ZEFSAII (Michael W. Deem and Ramdas Pophale) SiO2 
 PCOD8253119
Probable space group: P N M A
;
_chemical_formula_sum "Si O2"
_cell_formula_units_Z 56
_cell_length_a 21.931129
_cell_length_b 13.540614
_cell_length_c 9.444694
_cell_angle_alpha 90.000000
_cell_angle_beta 90.000000
_cell_angle_gamma 90.000000
_cell_volume 2804.705325
_symmetry_space_group_name_H-M "P N M A"
_symmetry_group_IT_number 62
_symmetry_cell_setting 'orthorhombic'
loop_
_space_group_symop_operation_xyz
x,y,z
1/2-x,-y,1/2+z
1/2+x,1/2-y,1/2-z
-x,1/2+y,-z
-x,-y,-z
1/2+x,y,1/2-z
1/2-x,1/2+y,1/2+z
x,1/2-y,z
loop_
_atom_site_type_symbol
_atom_site_label
_atom_site_fract_x
_atom_site_fract_y
_atom_site_fract_z
Si Si1 0.668270 0.506505 0.502900
Si Si2 0.718514 0.361192 0.011617
Si Si3 0.634142 0.364476 0.755600
Si Si4 0.561611 0.636550 0.379399
Si Si5 0.854059 0.861502 0.781834
Si Si6 0.016684 0.467387 0.657440
Si Si7 0.993584 0.638980 0.840766
O O1 0.728372 0.563323 0.552982
O O2 0.640399 0.438031 0.624764
O O3 0.620643 0.586828 0.447010
O O4 0.687632 0.433614 0.375643
O O5 0.744146 0.250000 0.027262
O O6 0.693260 0.378144 0.854227
O O7 0.661997 0.377861 0.118027
O O8 0.628166 0.250000 0.705955
O O9 0.573698 0.393014 0.843816
O O10 0.577822 0.750000 0.348994
O O11 0.540846 0.586301 0.232842
O O12 0.506167 0.625967 0.492081
O O13 0.840921 0.750000 0.830073
O O14 0.923947 0.889941 0.810974
O O15 0.000000 0.500000 0.500000
O O16 0.034631 0.565735 0.746519
O O17 0.008608 0.750000 0.791250
#
# Coordination Sequence:
#
# PCOD8253119 Si02
#       7
#     8   8   8   8   8   8   8
#     4  12  21  39  65  91 123 162 207 256 309 370
#     4  10  23  41  60  88 123 165 208 255 310 363
#     4  11  24  41  63  93 128 164 214 262 304 366
#     4  11  23  39  62  93 126 160 204 258 318 373
#     4  10  20  36  61  88 117 158 208 252 299 364
#     4  12  23  39  62  92 128 165 205 255 317 380
#     4  10  20  38  62  91 124 160 204 253 304 372
#
# _framework density 19.966446000000001
#
# number of rings (size 3 to 8) (size 9 to 14) (size 15 to 20)
#    0.000    1.143    2.857    4.286    0.000    3.429 
#    0.000    0.000    0.000    0.857    0.000    0.000 
#    0.000    0.000    0.000    0.000    0.000    0.000 
#
# Total GULP energy -694449.395491 kJ/mol
# GULP energy per Si atom -12400.882062 kJ/mol
# Density = 1.992100 g / cm^3
# Si number density = 19.966446 Si / 1000 Ang^3
#
#
#
# Elastic Constant Matrix: (Units=GPa)
#
#
# Indices 1 2 3 4 5 6 
#
# 1 83.6103 39.9398 25.8353 0.0000 0.0000 0.0000
# 2 39.9398 129.9386 56.4569 0.0000 0.0000 0.0000
# 3 25.8353 56.4569 109.8638 0.0000 0.0000 0.0000
# 4 0.0000 0.0000 0.0000 31.5649 0.0000 0.0000
# 5 0.0000 0.0000 0.0000 0.0000 23.9867 0.0000
# 6 0.0000 0.0000 0.0000 0.0000 0.0000 34.8207
#
#
#
# Elastic Compliance Matrix: (Units=1/GPa)
#
#
# Indices 1 2 3 4 5 6 
#
# 1 0.014186 -0.003748 -0.001410 0.000000 0.000000 0.000000
# 2 -0.003748 0.010898 -0.004719 0.000000 0.000000 0.000000
# 3 -0.001410 -0.004719 0.011859 0.000000 0.000000 0.000000
# 4 0.000000 0.000000 0.000000 0.031681 0.000000 0.000000
# 5 0.000000 0.000000 0.000000 0.000000 0.041690 0.000000
# 6 0.000000 0.000000 0.000000 0.000000 0.000000 0.028719
#
#
# Mechanical properties :
#
#
# Convention : Reuss Voigt Hill
#
# Bulk Modulus (GPa) = 58.17543 63.09743 60.63643
# Shear Modulus (GPa) = 30.39213 31.48651 30.93932
#
# Velocity S-wave (km/s) = 3.90572 3.97542 3.94072
# Velocity P-wave (km/s) = 7.03842 7.26239 7.15128
#
# Compressibility (1/GPa) = 0.01718939
#
# Stress axis : x y z
#
# Youngs Moduli (GPa) = 70.49078 91.75713 84.32532
#
# Poissons Ratio (x) = 0.34389 0.11890
# Poissons Ratio (y) = 0.26419 0.39794
# Poissons Ratio (z) = 0.09940 0.43301
#
# Static dielectric constant tensor:
#      x y z
#    x 3.367040 0.000000 0.000000 
#    y 0.000000 3.916120 0.000000 
#    z 0.000000 0.000000 3.575060 
# 
# 
# High freq. dielectric constant tensor:
#      x y z
#    x 1.757100 0.000000 0.000000 
#    y 0.000000 1.802920 0.000000 
#    z 0.000000 0.000000 1.776870 
# 
# From -- ./inp_files/8756.got.cif
#   From: 2010.03.12/outbox.cif.g09.slc.cpg/sg62_5_cif.got.tgz:8756.got - 2010.04.10 19:12:36.
