data_PCOD8253947
_publ_section_title
;
Structure prediction by ZEFSAII (Michael W. Deem and Ramdas Pophale) SiO2 
 PCOD8253947
Probable space group: P N M A
;
_chemical_formula_sum "Si O2"
_cell_formula_units_Z 56
_cell_length_a 20.679002
_cell_length_b 24.387678
_cell_length_c 5.171361
_cell_angle_alpha 90.000000
_cell_angle_beta 90.000000
_cell_angle_gamma 90.000000
_cell_volume 2607.983764
_symmetry_space_group_name_H-M "P N M A"
_symmetry_group_IT_number 62
_symmetry_cell_setting 'orthorhombic'
loop_
_space_group_symop_operation_xyz
x,y,z
1/2-x,-y,1/2+z
1/2+x,1/2-y,1/2-z
-x,1/2+y,-z
-x,-y,-z
1/2+x,y,1/2-z
1/2-x,1/2+y,1/2+z
x,1/2-y,z
loop_
_atom_site_type_symbol
_atom_site_label
_atom_site_fract_x
_atom_site_fract_y
_atom_site_fract_z
Si Si1 0.249702 0.687465 0.821030
Si Si2 0.332382 0.311332 0.829739
Si Si3 0.803448 0.919273 0.484407
Si Si4 0.496376 0.438531 0.287513
Si Si5 0.931938 0.401738 0.692986
Si Si6 0.401864 0.970007 0.357635
Si Si7 0.316945 0.472453 0.707610
O O1 0.278897 0.750000 0.811643
O O2 0.196617 0.683639 0.044296
O O3 0.303863 0.640738 0.881463
O O4 0.219090 0.669890 0.547560
O O5 0.352219 0.250000 0.898299
O O6 0.399624 0.342977 0.838504
O O7 0.871283 0.924218 0.329793
O O8 0.739718 0.926736 0.301271
O O9 0.793430 0.969779 0.680126
O O10 0.459214 0.407513 0.518952
O O11 0.572230 0.442996 0.369793
O O12 0.465698 0.499868 0.241316
O O13 0.489193 0.405749 0.019665
O O14 0.876366 0.447026 0.627741
O O15 0.345308 0.013933 0.420992
#
# Coordination Sequence:
#
# PCOD8253947 Si02
#       7
#     8   8   8   8   8   8   8
#     4  10  23  38  58  84 118 158 190 232 292 358
#     4  10  21  38  59  86 115 148 193 244 295 344
#     4  12  22  35  57  86 124 151 196 242 300 357
#     4  10  23  38  57  79 120 153 200 228 292 351
#     4  11  21  38  59  84 114 154 189 244 287 352
#     4  10  23  37  52  84 116 161 189 239 286 357
#     4  11  23  32  56  89 120 154 188 244 303 352
#
# _framework density 21.472525000000001
#
# number of rings (size 3 to 8) (size 9 to 14) (size 15 to 20)
#    0.000    1.429    4.286    0.857    8.000    1.714 
#    0.000    0.000    0.000    1.714    0.000    0.000 
#    0.000    0.000    0.000    0.000    0.000    0.000 
#
# Total GULP energy -694091.192423 kJ/mol
# GULP energy per Si atom -12394.485579 kJ/mol
# Density = 2.142365 g / cm^3
# Si number density = 21.472525 Si / 1000 Ang^3
#
#
#
# Elastic Constant Matrix: (Units=GPa)
#
#
# Indices 1 2 3 4 5 6 
#
# 1 57.3017 19.8554 2.3690 0.0000 0.0000 0.0000
# 2 19.8554 102.4979 11.0852 0.0000 0.0000 0.0000
# 3 2.3690 11.0852 70.7489 0.0000 0.0000 0.0000
# 4 0.0000 0.0000 0.0000 29.1781 0.0000 0.0000
# 5 0.0000 0.0000 0.0000 0.0000 28.7642 0.0000
# 6 0.0000 0.0000 0.0000 0.0000 0.0000 26.8400
#
#
#
# Elastic Compliance Matrix: (Units=1/GPa)
#
#
# Indices 1 2 3 4 5 6 
#
# 1 0.018707 -0.003617 -0.000060 0.000000 0.000000 0.000000
# 2 -0.003617 0.010624 -0.001543 0.000000 0.000000 0.000000
# 3 -0.000060 -0.001543 0.014378 0.000000 0.000000 0.000000
# 4 0.000000 0.000000 0.000000 0.034272 0.000000 0.000000
# 5 0.000000 0.000000 0.000000 0.000000 0.034765 0.000000
# 6 0.000000 0.000000 0.000000 0.000000 0.000000 0.037258
#
#
# Mechanical properties :
#
#
# Convention : Reuss Voigt Hill
#
# Bulk Modulus (GPa) = 30.05838 33.01867 31.53852
# Shear Modulus (GPa) = 29.14841 30.10572 29.62707
#
# Velocity S-wave (km/s) = 3.68839 3.74847 3.71855
# Velocity P-wave (km/s) = 5.67167 5.84339 5.75817
#
# Compressibility (1/GPa) = 0.03326859
#
# Stress axis : x y z
#
# Youngs Moduli (GPa) = 53.45472 94.12666 69.54915
#
# Poissons Ratio (x) = 0.34050 0.00415
# Poissons Ratio (y) = 0.19337 0.10735
# Poissons Ratio (z) = 0.00319 0.14528
#
# Static dielectric constant tensor:
#      x y z
#    x 3.930150 0.000000 0.000000 
#    y 0.000000 3.899580 0.000000 
#    z 0.000000 0.000000 3.907730 
# 
# 
# High freq. dielectric constant tensor:
#      x y z
#    x 1.826310 0.000000 0.000000 
#    y 0.000000 1.813680 0.000000 
#    z 0.000000 0.000000 1.856840 
# 
# From -- ./inp_files/2287.got.cif
#   From: 2010.03.12/outbox.cif.g09.slc.cpg/sg62_2_cif.got.tgz:2287.got - 2010.04.10 19:12:36.
