data_PCOD8253967
_publ_section_title
;
Structure prediction by ZEFSAII (Michael W. Deem and Ramdas Pophale) SiO2 
 PCOD8253967
Probable space group: P N M A
;
_chemical_formula_sum "Si O2"
_cell_formula_units_Z 64
_cell_length_a 24.424472
_cell_length_b 9.111373
_cell_length_c 14.979870
_cell_angle_alpha 90.000000
_cell_angle_beta 90.000000
_cell_angle_gamma 90.000000
_cell_volume 3333.627381
_symmetry_space_group_name_H-M "P N M A"
_symmetry_group_IT_number 62
_symmetry_cell_setting 'orthorhombic'
loop_
_space_group_symop_operation_xyz
x,y,z
1/2-x,-y,1/2+z
1/2+x,1/2-y,1/2-z
-x,1/2+y,-z
-x,-y,-z
1/2+x,y,1/2-z
1/2-x,1/2+y,1/2+z
x,1/2-y,z
loop_
_atom_site_type_symbol
_atom_site_label
_atom_site_fract_x
_atom_site_fract_y
_atom_site_fract_z
Si Si1 0.441528 0.081720 0.837238
Si Si2 0.363797 0.078903 0.337958
Si Si3 0.257167 0.081509 0.231778
Si Si4 0.660214 0.078255 0.488560
Si Si5 0.349572 0.422136 0.696099
Si Si6 0.284634 0.082576 0.033182
Si Si7 0.609944 0.422347 0.002177
Si Si8 0.933306 0.919878 0.309248
O O1 0.433713 0.250000 0.865883
O O2 0.400869 0.038906 0.757665
O O3 0.502242 0.051770 0.802197
O O4 0.430859 0.984820 0.924065
O O5 0.375592 0.250000 0.351246
O O6 0.301279 0.050729 0.308161
O O7 0.373347 0.995529 0.431113
O O8 0.405803 0.018014 0.265956
O O9 0.236778 0.250000 0.230732
O O10 0.285940 0.044246 0.137941
O O11 0.204983 0.977550 0.246860
O O12 0.646778 0.250000 0.484322
O O13 0.724534 0.049467 0.505018
O O14 0.641171 0.005932 0.396474
O O15 0.343922 0.250000 0.677134
O O16 0.301638 0.250000 0.016051
O O17 0.328571 0.981990 0.982555
O O18 0.611139 0.250000 0.012976
O O19 0.587870 0.471672 0.905797
O O20 0.918361 0.750000 0.292706
#
# Coordination Sequence:
#
# PCOD8253967 Si02
#       8
#     8   8   8   8   8   8   8   8
#     4  10  23  41  60  82 115 157 198 242 293 348
#     4  11  22  37  60  89 118 152 196 243 291 348
#     4   9  19  35  55  82 116 152 184 231 290 342
#     4  10  22  39  59  84 119 157 191 238 296 349
#     4  10  21  38  60  85 113 151 197 243 289 343
#     4   9  18  35  55  79 115 154 186 223 283 345
#     4  11  22  34  56  88 117 151 194 238 286 344
#     4  10  22  41  60  84 118 155 197 243 292 347
#
# _framework density 19.198305999999999
#
# number of rings (size 3 to 8) (size 9 to 14) (size 15 to 20)
#    0.000    2.000    1.250    2.625    1.750    5.500 
#    0.000    0.625    0.000    0.000    0.000    0.000 
#    0.000    0.000    0.000    0.000    0.000    0.000 
#
# Total GULP energy -793879.209153 kJ/mol
# GULP energy per Si atom -12404.362643 kJ/mol
# Density = 1.915461 g / cm^3
# Si number density = 19.198306 Si / 1000 Ang^3
#
#
#
# Elastic Constant Matrix: (Units=GPa)
#
#
# Indices 1 2 3 4 5 6 
#
# 1 92.6351 54.1152 51.3699 0.0000 0.0000 0.0000
# 2 54.1152 90.7202 56.4673 0.0000 0.0000 0.0000
# 3 51.3699 56.4673 90.6103 0.0000 0.0000 0.0000
# 4 0.0000 0.0000 0.0000 32.1536 0.0000 0.0000
# 5 0.0000 0.0000 0.0000 0.0000 22.0556 0.0000
# 6 0.0000 0.0000 0.0000 0.0000 0.0000 28.8473
#
#
#
# Elastic Compliance Matrix: (Units=1/GPa)
#
#
# Indices 1 2 3 4 5 6 
#
# 1 0.018277 -0.007274 -0.005828 0.000000 0.000000 0.000000
# 2 -0.007274 0.020903 -0.008903 0.000000 0.000000 0.000000
# 3 -0.005828 -0.008903 0.019889 0.000000 0.000000 0.000000
# 4 0.000000 0.000000 0.000000 0.031101 0.000000 0.000000
# 5 0.000000 0.000000 0.000000 0.000000 0.045340 0.000000
# 6 0.000000 0.000000 0.000000 0.000000 0.000000 0.034665
#
#
# Mechanical properties :
#
#
# Convention : Reuss Voigt Hill
#
# Bulk Modulus (GPa) = 66.41043 66.43006 66.42025
# Shear Modulus (GPa) = 22.80975 24.07886 23.44430
#
# Velocity S-wave (km/s) = 3.45064 3.54534 3.49831
# Velocity P-wave (km/s) = 7.10935 7.17192 7.14070
#
# Compressibility (1/GPa) = 0.01505788
#
# Stress axis : x y z
#
# Youngs Moduli (GPa) = 54.71488 47.83897 50.28016
#
# Poissons Ratio (x) = 0.34800 0.29305
# Poissons Ratio (y) = 0.39802 0.44763
# Poissons Ratio (z) = 0.31889 0.42590
#
# Static dielectric constant tensor:
#      x y z
#    x 3.437240 0.000000 0.000000 
#    y 0.000000 3.506760 0.000000 
#    z 0.000000 0.000000 3.463030 
# 
# 
# High freq. dielectric constant tensor:
#      x y z
#    x 1.736710 0.000000 0.000000 
#    y 0.000000 1.752000 0.000000 
#    z 0.000000 0.000000 1.747650 
# 
# From -- ./inp_files/20941.got.cif
#   From: 2010.03.12/outbox.cif.g09.slc.cpg/sg62_11_cif.got.tgz:20941.got - 2010.04.10 19:12:36.
