data_PCOD8253441
_publ_section_title
;
Structure prediction by ZEFSAII (Michael W. Deem and Ramdas Pophale) SiO2 
 PCOD8253441
Probable space group: P N M A
;
_chemical_formula_sum "Si O2"
_cell_formula_units_Z 64
_cell_length_a 15.629862
_cell_length_b 23.052233
_cell_length_c 8.965284
_cell_angle_alpha 90.000000
_cell_angle_beta 90.000000
_cell_angle_gamma 90.000000
_cell_volume 3230.220699
_symmetry_space_group_name_H-M "P N M A"
_symmetry_group_IT_number 62
_symmetry_cell_setting 'orthorhombic'
loop_
_space_group_symop_operation_xyz
x,y,z
1/2-x,-y,1/2+z
1/2+x,1/2-y,1/2-z
-x,1/2+y,-z
-x,-y,-z
1/2+x,y,1/2-z
1/2-x,1/2+y,1/2+z
x,1/2-y,z
loop_
_atom_site_type_symbol
_atom_site_label
_atom_site_fract_x
_atom_site_fract_y
_atom_site_fract_z
Si Si1 0.847642 0.817383 0.100275
Si Si2 0.037324 0.623541 0.571947
Si Si3 0.334081 0.980615 0.715820
Si Si4 0.420416 0.592357 0.169931
Si Si5 0.579289 0.590857 0.360819
Si Si6 0.653411 0.815992 0.151850
Si Si7 0.539490 0.119932 0.371009
Si Si8 0.165305 0.516910 0.559179
O O1 0.866573 0.750000 0.131229
O O2 0.883665 0.854025 0.237505
O O3 0.747316 0.830709 0.089420
O O4 0.893868 0.835611 0.946313
O O5 0.089845 0.672629 0.485171
O O6 0.089603 0.563267 0.572549
O O7 0.945058 0.613747 0.494723
O O8 0.013185 0.648152 0.734575
O O9 0.410999 0.935678 0.693245
O O10 0.249456 0.955134 0.635478
O O11 0.354421 0.038599 0.621571
O O12 0.319603 0.997537 0.888438
O O13 0.508057 0.569731 0.243573
O O14 0.354906 0.539390 0.160212
O O15 0.629539 0.646817 0.297591
O O16 0.535747 0.602930 0.517285
O O17 0.646058 0.750000 0.204072
#
# Coordination Sequence:
#
# PCOD8253441 Si02
#       8
#     8   8   8   8   8   8   8   8
#     4  10  23  44  66  89 121 159 207 257 305 367
#     4  11  22  40  59  90 126 164 199 255 304 364
#     4  12  24  38  58  91 128 170 200 252 305 367
#     4  10  20  38  64  84 118 162 206 250 299 366
#     4  10  22  38  61  87 121 160 207 248 304 367
#     4  10  21  42  67  88 117 162 209 254 306 366
#     4  11  24  38  61  91 124 161 204 253 307 359
#     4  12  24  37  60  89 132 166 207 250 308 366
#
# _framework density 19.812888000000001
#
# number of rings (size 3 to 8) (size 9 to 14) (size 15 to 20)
#    0.000    1.250    3.750    3.000    5.250    5.000 
#    0.000    0.000    0.000    3.000    0.000    0.000 
#    0.000    0.000    0.000    0.000    0.000    0.000 
#
# Total GULP energy -793588.566338 kJ/mol
# GULP energy per Si atom -12399.821349 kJ/mol
# Density = 1.976779 g / cm^3
# Si number density = 19.812888 Si / 1000 Ang^3
#
#
#
# Elastic Constant Matrix: (Units=GPa)
#
#
# Indices 1 2 3 4 5 6 
#
# 1 85.8899 32.2990 34.4913 0.0000 0.0000 0.0000
# 2 32.2990 72.6176 18.0174 0.0000 0.0000 0.0000
# 3 34.4913 18.0174 100.6939 0.0000 0.0000 0.0000
# 4 0.0000 0.0000 0.0000 26.4905 0.0000 0.0000
# 5 0.0000 0.0000 0.0000 0.0000 27.0889 0.0000
# 6 0.0000 0.0000 0.0000 0.0000 0.0000 31.7170
#
#
#
# Elastic Compliance Matrix: (Units=1/GPa)
#
#
# Indices 1 2 3 4 5 6 
#
# 1 0.015567 -0.005861 -0.004284 0.000000 0.000000 0.000000
# 2 -0.005861 0.016617 -0.000966 0.000000 0.000000 0.000000
# 3 -0.004284 -0.000966 0.011571 0.000000 0.000000 0.000000
# 4 0.000000 0.000000 0.000000 0.037749 0.000000 0.000000
# 5 0.000000 0.000000 0.000000 0.000000 0.036915 0.000000
# 6 0.000000 0.000000 0.000000 0.000000 0.000000 0.031529
#
#
# Mechanical properties :
#
#
# Convention : Reuss Voigt Hill
#
# Bulk Modulus (GPa) = 46.43662 47.64630 47.04146
# Shear Modulus (GPa) = 27.87872 28.68553 28.28213
#
# Velocity S-wave (km/s) = 3.75520 3.80915 3.78227
# Velocity P-wave (km/s) = 6.50312 6.59140 6.54741
#
# Compressibility (1/GPa) = 0.02153473
#
# Stress axis : x y z
#
# Youngs Moduli (GPa) = 64.23816 60.17822 86.42179
#
# Poissons Ratio (x) = 0.35271 0.37019
# Poissons Ratio (y) = 0.37651 0.08346
# Poissons Ratio (z) = 0.27517 0.05811
#
# Static dielectric constant tensor:
#      x y z
#    x 3.762990 0.000000 0.000000 
#    y 0.000000 3.436490 0.000000 
#    z 0.000000 0.000000 3.690140 
# 
# 
# High freq. dielectric constant tensor:
#      x y z
#    x 1.785770 0.000000 0.000000 
#    y 0.000000 1.757990 0.000000 
#    z 0.000000 0.000000 1.774300 
# 
# From -- ./inp_files/6950.got.cif
#   From: 2010.03.12/outbox.cif.g09.slc.cpg/sg62_4_cif.got.tgz:6950.got - 2010.04.10 19:12:36.
