data_PCOD8253764
_publ_section_title
;
Structure prediction by ZEFSAII (Michael W. Deem and Ramdas Pophale) SiO2 
 PCOD8253764
Probable space group: P N M A
;
_chemical_formula_sum "Si O2"
_cell_formula_units_Z 64
_cell_length_a 18.616015
_cell_length_b 19.905304
_cell_length_c 8.928534
_cell_angle_alpha 90.000000
_cell_angle_beta 90.000000
_cell_angle_gamma 90.000000
_cell_volume 3308.534683
_symmetry_space_group_name_H-M "P N M A"
_symmetry_group_IT_number 62
_symmetry_cell_setting 'orthorhombic'
loop_
_space_group_symop_operation_xyz
x,y,z
1/2-x,-y,1/2+z
1/2+x,1/2-y,1/2-z
-x,1/2+y,-z
-x,-y,-z
1/2+x,y,1/2-z
1/2-x,1/2+y,1/2+z
x,1/2-y,z
loop_
_atom_site_type_symbol
_atom_site_label
_atom_site_fract_x
_atom_site_fract_y
_atom_site_fract_z
Si Si1 0.134042 0.424207 0.784334
Si Si2 0.848700 0.069880 0.265624
Si Si3 0.504296 0.592946 0.889841
Si Si4 0.839692 0.427157 0.908809
Si Si5 0.798764 0.925585 0.901934
Si Si6 0.126346 0.173981 0.300083
Si Si7 0.979949 0.448314 0.727859
Si Si8 0.786651 0.826853 0.407366
O O1 0.147654 0.491433 0.684739
O O2 0.147805 0.358281 0.686206
O O3 0.049814 0.428914 0.828993
O O4 0.189904 0.422234 0.920975
O O5 0.917115 0.110879 0.325668
O O6 0.778852 0.100906 0.346643
O O7 0.850164 0.073013 0.086477
O O8 0.451157 0.655276 0.866879
O O9 0.472777 0.528182 0.800858
O O10 0.512017 0.585072 0.066715
O O11 0.807666 0.497479 0.848864
O O12 0.914018 0.417161 0.820521
O O13 0.785989 0.366905 0.868962
O O14 0.858340 0.876318 0.834993
O O15 0.122520 0.250000 0.240252
O O16 0.190890 0.166804 0.419745
O O17 0.775098 0.750000 0.359394
#
# Coordination Sequence:
#
# PCOD8253764 Si02
#       8
#     8   8   8   8   8   8   8   8
#     4  10  22  37  61  91 123 152 199 251 304 360
#     4  10  22  35  60  96 120 149 199 256 304 350
#     4  10  21  37  60  91 121 152 198 248 307 356
#     4  11  22  37  62  92 124 152 204 253 308 357
#     4  11  22  37  64  92 122 155 202 257 304 358
#     4  11  23  42  63  85 121 169 206 242 307 376
#     4  10  21  36  62  92 120 151 197 256 300 357
#     4  11  23  41  61  84 123 165 202 248 305 366
#
# _framework density 19.343910000000001
#
# number of rings (size 3 to 8) (size 9 to 14) (size 15 to 20)
#    0.000    1.500    5.000    0.000    3.500    2.000 
#    0.000    2.500    0.000    0.000    0.000    0.000 
#    0.000    0.000    0.000    0.000    0.000    0.000 
#
# Total GULP energy -793462.591969 kJ/mol
# GULP energy per Si atom -12397.853000 kJ/mol
# Density = 1.929988 g / cm^3
# Si number density = 19.343910 Si / 1000 Ang^3
#
#
#
# Elastic Constant Matrix: (Units=GPa)
#
#
# Indices 1 2 3 4 5 6 
#
# 1 125.0042 32.3631 33.7913 0.0000 0.0000 0.0000
# 2 32.3631 103.5226 22.2915 0.0000 0.0000 0.0000
# 3 33.7913 22.2915 55.9906 0.0000 0.0000 0.0000
# 4 0.0000 0.0000 0.0000 18.6696 0.0000 0.0000
# 5 0.0000 0.0000 0.0000 0.0000 35.4503 0.0000
# 6 0.0000 0.0000 0.0000 0.0000 0.0000 27.0754
#
#
#
# Elastic Compliance Matrix: (Units=1/GPa)
#
#
# Indices 1 2 3 4 5 6 
#
# 1 0.009917 -0.001981 -0.005196 0.000000 0.000000 0.000000
# 2 -0.001981 0.010961 -0.003168 0.000000 0.000000 0.000000
# 3 -0.005196 -0.003168 0.022258 0.000000 0.000000 0.000000
# 4 0.000000 0.000000 0.000000 0.053563 0.000000 0.000000
# 5 0.000000 0.000000 0.000000 0.000000 0.028209 0.000000
# 6 0.000000 0.000000 0.000000 0.000000 0.000000 0.036934
#
#
# Mechanical properties :
#
#
# Convention : Reuss Voigt Hill
#
# Bulk Modulus (GPa) = 44.55489 51.26768 47.91129
# Shear Modulus (GPa) = 26.31365 29.31050 27.81208
#
# Velocity S-wave (km/s) = 3.69223 3.89682 3.79591
# Velocity P-wave (km/s) = 6.42338 6.84162 6.63580
#
# Compressibility (1/GPa) = 0.02244422
#
# Stress axis : x y z
#
# Youngs Moduli (GPa) = 100.83261 91.22952 44.92838
#
# Poissons Ratio (x) = 0.18076 0.23347
# Poissons Ratio (y) = 0.19979 0.14234
# Poissons Ratio (z) = 0.52397 0.28903
#
# Static dielectric constant tensor:
#      x y z
#    x 3.623980 0.000000 0.000000 
#    y 0.000000 3.324850 0.000000 
#    z 0.000000 0.000000 3.350480 
# 
# 
# High freq. dielectric constant tensor:
#      x y z
#    x 1.764510 0.000000 0.000000 
#    y 0.000000 1.721550 0.000000 
#    z 0.000000 0.000000 1.747660 
# 
# From -- ./inp_files/8095.got.cif
#   From: 2010.03.12/outbox.cif.g09.slc.cpg/sg62_5_cif.got.tgz:8095.got - 2010.04.10 19:12:36.
