data_PCOD8253817
_publ_section_title
;
Structure prediction by ZEFSAII (Michael W. Deem and Ramdas Pophale) SiO2 
 PCOD8253817
Probable space group: P N M A
;
_chemical_formula_sum "Si O2"
_cell_formula_units_Z 48
_cell_length_a 11.771590
_cell_length_b 16.661242
_cell_length_c 11.780571
_cell_angle_alpha 90.000000
_cell_angle_beta 90.000000
_cell_angle_gamma 90.000000
_cell_volume 2310.515258
_symmetry_space_group_name_H-M "P N M A"
_symmetry_group_IT_number 62
_symmetry_cell_setting 'orthorhombic'
loop_
_space_group_symop_operation_xyz
x,y,z
1/2-x,-y,1/2+z
1/2+x,1/2-y,1/2-z
-x,1/2+y,-z
-x,-y,-z
1/2+x,y,1/2-z
1/2-x,1/2+y,1/2+z
x,1/2-y,z
loop_
_atom_site_type_symbol
_atom_site_label
_atom_site_fract_x
_atom_site_fract_y
_atom_site_fract_z
Si Si1 0.725371 0.339104 0.118301
Si Si2 0.813443 0.339378 0.865190
Si Si3 0.427345 0.064581 0.327605
Si Si4 0.562040 0.016187 0.115544
Si Si5 0.539656 0.157446 0.520795
Si Si6 0.224469 0.081096 0.849284
O O1 0.688639 0.250000 0.157484
O O2 0.834122 0.365255 0.195173
O O3 0.619787 0.397518 0.131575
O O4 0.757117 0.340653 0.987175
O O5 0.812781 0.250000 0.812458
O O6 0.736864 0.395032 0.783363
O O7 0.944957 0.367551 0.883678
O O8 0.472710 0.019394 0.217063
O O9 0.525435 0.099519 0.410543
O O10 0.354080 0.993938 0.384468
O O11 0.647047 0.940681 0.118369
O O12 0.500000 0.000000 0.000000
O O13 0.519208 0.250000 0.483841
O O14 0.666374 0.150925 0.574662
#
# Coordination Sequence:
#
# PCOD8253817 Si02
#       6
#     8   8   8   8   8   8
#     4   9  20  38  60  84 113 154 198 238 289 352
#     4   9  18  35  57  82 113 147 188 240 293 345
#     4  10  21  37  58  82 114 154 196 244 292 349
#     4  11  24  39  56  84 119 150 189 244 302 354
#     4  10  21  38  60  86 116 154 202 246 291 355
#     4  11  21  35  59  86 115 151 193 238 293 351
#
# _framework density 20.774588999999999
#
# number of rings (size 3 to 8) (size 9 to 14) (size 15 to 20)
#    0.000    2.000    0.000    4.500    0.000    6.667 
#    0.000    3.333    0.000    0.000    0.000    0.000 
#    0.000    0.000    0.000    0.000    0.000    0.000 
#
# Total GULP energy -594690.465094 kJ/mol
# GULP energy per Si atom -12389.384689 kJ/mol
# Density = 2.072730 g / cm^3
# Si number density = 20.774589 Si / 1000 Ang^3
#
#
#
# Elastic Constant Matrix: (Units=GPa)
#
#
# Indices 1 2 3 4 5 6 
#
# 1 63.8203 10.5779 32.7218 0.0000 0.0000 0.0000
# 2 10.5779 57.6651 15.5661 0.0000 0.0000 0.0000
# 3 32.7218 15.5661 85.0820 0.0000 0.0000 0.0000
# 4 0.0000 0.0000 0.0000 31.1159 0.0000 0.0000
# 5 0.0000 0.0000 0.0000 0.0000 27.5478 0.0000
# 6 0.0000 0.0000 0.0000 0.0000 0.0000 30.5491
#
#
#
# Elastic Compliance Matrix: (Units=1/GPa)
#
#
# Indices 1 2 3 4 5 6 
#
# 1 0.019665 -0.001647 -0.007262 0.000000 0.000000 0.000000
# 2 -0.001647 0.018380 -0.002729 0.000000 0.000000 0.000000
# 3 -0.007262 -0.002729 0.015046 0.000000 0.000000 0.000000
# 4 0.000000 0.000000 0.000000 0.032138 0.000000 0.000000
# 5 0.000000 0.000000 0.000000 0.000000 0.036300 0.000000
# 6 0.000000 0.000000 0.000000 0.000000 0.000000 0.032734
#
#
# Mechanical properties :
#
#
# Convention : Reuss Voigt Hill
#
# Bulk Modulus (GPa) = 33.54032 36.03321 34.78677
# Shear Modulus (GPa) = 26.66976 27.68934 27.17955
#
# Velocity S-wave (km/s) = 3.58686 3.65478 3.62098
# Velocity P-wave (km/s) = 5.77356 5.93232 5.85348
#
# Compressibility (1/GPa) = 0.02981486
#
# Stress axis : x y z
#
# Youngs Moduli (GPa) = 50.85127 54.40576 66.46506
#
# Poissons Ratio (x) = 0.08961 0.48265
# Poissons Ratio (y) = 0.08376 0.18140
# Poissons Ratio (z) = 0.36927 0.14849
#
# Static dielectric constant tensor:
#      x y z
#    x 4.615750 0.000000 0.000000 
#    y 0.000000 4.217500 0.000000 
#    z 0.000000 0.000000 3.411250 
# 
# 
# High freq. dielectric constant tensor:
#      x y z
#    x 1.812400 0.000000 0.000000 
#    y 0.000000 1.822510 0.000000 
#    z 0.000000 0.000000 1.788650 
# 
# From -- ./inp_files/12225.got.cif
#   From: 2010.03.12/outbox.cif.g09.slc.cpg/sg62_7_cif.got.tgz:12225.got - 2010.04.10 19:12:36.
