data_PCOD8253933
_publ_section_title
;
Structure prediction by ZEFSAII (Michael W. Deem and Ramdas Pophale) SiO2 
 PCOD8253933
Probable space group: P N M A
;
_chemical_formula_sum "Si O2"
_cell_formula_units_Z 56
_cell_length_a 15.576489
_cell_length_b 8.862752
_cell_length_c 19.951317
_cell_angle_alpha 90.000000
_cell_angle_beta 90.000000
_cell_angle_gamma 90.000000
_cell_volume 2754.290465
_symmetry_space_group_name_H-M "P N M A"
_symmetry_group_IT_number 62
_symmetry_cell_setting 'orthorhombic'
loop_
_space_group_symop_operation_xyz
x,y,z
1/2-x,-y,1/2+z
1/2+x,1/2-y,1/2-z
-x,1/2+y,-z
-x,-y,-z
1/2+x,y,1/2-z
1/2-x,1/2+y,1/2+z
x,1/2-y,z
loop_
_atom_site_type_symbol
_atom_site_label
_atom_site_fract_x
_atom_site_fract_y
_atom_site_fract_z
Si Si1 0.842437 0.585751 0.135590
Si Si2 0.167837 0.572589 0.128377
Si Si3 0.671730 0.571613 0.918453
Si Si4 0.086718 0.084528 0.010016
Si Si5 0.494896 0.071500 0.711606
Si Si6 0.322703 0.070136 0.928362
Si Si7 0.001209 0.427799 0.633683
O O1 0.828033 0.750000 0.170289
O O2 0.871574 0.612393 0.060560
O O3 0.749697 0.503111 0.124316
O O4 0.917975 0.500082 0.177537
O O5 0.177707 0.750000 0.136993
O O6 0.262362 0.498768 0.136890
O O7 0.093343 0.508862 0.178008
O O8 0.144982 0.525731 0.053322
O O9 0.678819 0.750000 0.913648
O O10 0.576987 0.519938 0.899861
O O11 0.690822 0.516675 0.994801
O O12 0.074805 0.250000 0.044428
O O13 0.000000 0.000000 0.000000
O O14 0.496949 0.250000 0.698364
O O15 0.493808 0.027363 0.788706
O O16 0.315915 0.250000 0.924734
O O17 0.415176 0.016233 0.902817
O O18 0.017051 0.250000 0.624770
#
# Coordination Sequence:
#
# PCOD8253933 Si02
#       7
#     8   8   8   8   8   8   8
#     4   9  16  30  53  81 112 145 180 226 282 340
#     4  11  21  35  57  88 117 146 189 239 287 344
#     4  11  22  38  58  82 112 150 189 237 295 343
#     4  11  19  31  53  82 117 152 187 231 288 343
#     4   9  19  34  55  85 117 146 183 229 281 338
#     4   9  18  33  56  82 109 144 188 233 285 336
#     4  10  21  38  59  83 109 147 195 239 279 333
#
# _framework density 20.331916
#
# number of rings (size 3 to 8) (size 9 to 14) (size 15 to 20)
#    0.000    2.000    2.857    1.714    0.000    1.143 
#    0.000    6.429    0.000    0.000    0.000    0.000 
#    0.000    0.000    0.000    0.000    0.000    0.000 
#
# Total GULP energy -693735.639451 kJ/mol
# GULP energy per Si atom -12388.136419 kJ/mol
# Density = 2.028564 g / cm^3
# Si number density = 20.331916 Si / 1000 Ang^3
#
#
#
# Elastic Constant Matrix: (Units=GPa)
#
#
# Indices 1 2 3 4 5 6 
#
# 1 182.5761 31.5352 45.7449 0.0000 0.0000 0.0000
# 2 31.5352 40.1691 15.3431 0.0000 0.0000 0.0000
# 3 45.7449 15.3431 82.6781 0.0000 0.0000 0.0000
# 4 0.0000 0.0000 0.0000 17.6957 0.0000 0.0000
# 5 0.0000 0.0000 0.0000 0.0000 -43.6434 0.0000
# 6 0.0000 0.0000 0.0000 0.0000 0.0000 20.7071
#
#
#
# Elastic Compliance Matrix: (Units=1/GPa)
#
#
# Indices 1 2 3 4 5 6 
#
# 1 0.006991 -0.004317 -0.003067 0.000000 0.000000 0.000000
# 2 -0.004317 0.029460 -0.003078 0.000000 0.000000 0.000000
# 3 -0.003067 -0.003078 0.014363 0.000000 0.000000 0.000000
# 4 0.000000 0.000000 0.000000 0.056511 0.000000 0.000000
# 5 0.000000 0.000000 0.000000 0.000000 -0.022913 0.000000
# 6 0.000000 0.000000 0.000000 0.000000 0.000000 0.048293
#
#
# Mechanical properties :
#
#
# Convention : Reuss Voigt Hill
#
# Bulk Modulus (GPa) = 33.45682 54.51885 43.98784
# Shear Modulus (GPa) = 30.56362 13.13856 21.85109
#
# Velocity S-wave (km/s) = 3.88136 2.54481 3.28185
# Velocity P-wave (km/s) = 6.04795 5.95881 6.00354
#
# Compressibility (1/GPa) = 0.02988927
#
# Stress axis : x y z
#
# Youngs Moduli (GPa) = 143.03510 33.94456 69.62163
#
# Poissons Ratio (x) = 0.14654 0.21353
# Poissons Ratio (y) = 0.61750 0.21433
# Poissons Ratio (z) = 0.43870 0.10450
#
# Static dielectric constant tensor:
#      x y z
#    x 4.033910 0.000000 0.000000 
#    y 0.000000 3.187300 0.000000 
#    z 0.000000 0.000000 3.591420 
# 
# 
# High freq. dielectric constant tensor:
#      x y z
#    x 1.824160 0.000000 0.000000 
#    y 0.000000 1.742900 0.000000 
#    z 0.000000 0.000000 1.779580 
# 
# From -- ./inp_files/27174.got.cif
#   From: 2010.03.12/outbox.cif.g09.slc.cpg/sg62_14_cif.got.tgz:27174.got - 2010.04.10 19:12:36.
