data_PCOD8253867
_publ_section_title
;
Structure prediction by ZEFSAII (Michael W. Deem and Ramdas Pophale) SiO2 
 PCOD8253867
Probable space group: P N M A
;
_chemical_formula_sum "Si O2"
_cell_formula_units_Z 56
_cell_length_a 7.612483
_cell_length_b 15.539719
_cell_length_c 22.441182
_cell_angle_alpha 90.000000
_cell_angle_beta 90.000000
_cell_angle_gamma 90.000000
_cell_volume 2654.698626
_symmetry_space_group_name_H-M "P N M A"
_symmetry_group_IT_number 62
_symmetry_cell_setting 'orthorhombic'
loop_
_space_group_symop_operation_xyz
x,y,z
1/2-x,-y,1/2+z
1/2+x,1/2-y,1/2-z
-x,1/2+y,-z
-x,-y,-z
1/2+x,y,1/2-z
1/2-x,1/2+y,1/2+z
x,1/2-y,z
loop_
_atom_site_type_symbol
_atom_site_label
_atom_site_fract_x
_atom_site_fract_y
_atom_site_fract_z
Si Si1 0.104349 0.646800 0.192375
Si Si2 0.095445 0.844002 0.667727
Si Si3 0.878999 0.068893 0.563785
Si Si4 0.192254 0.951600 0.561641
Si Si5 0.993468 0.846194 0.794030
Si Si6 0.507874 0.151325 0.822296
Si Si7 0.556065 0.995421 0.621684
O O1 0.069961 0.750000 0.181215
O O2 0.296484 0.611677 0.172854
O O3 0.090334 0.621113 0.262247
O O4 0.970610 0.587937 0.154436
O O5 0.025963 0.750000 0.649314
O O6 0.074618 0.905959 0.612037
O O7 0.990328 0.878200 0.725329
O O8 0.298220 0.839722 0.683768
O O9 0.808618 0.105277 0.499870
O O10 0.892472 0.135725 0.618559
O O11 0.732015 0.998716 0.582360
O O12 0.077061 0.036708 0.550539
O O13 0.390766 0.972747 0.579688
O O14 0.082436 0.750000 0.798273
O O15 0.094745 0.917406 0.832658
O O16 0.545337 0.250000 0.814320
#
# Coordination Sequence:
#
# PCOD8253867 Si02
#       7
#     8   8   8   8   8   8   8
#     4  10  21  37  59  92 125 153 197 251 307 370
#     4   9  19  36  57  81 115 151 188 243 297 348
#     4  11  23  38  60  84 114 160 202 244 295 353
#     4  10  23  40  55  85 119 152 206 245 284 364
#     4   9  20  35  56  89 118 147 193 244 299 361
#     4  10  21  38  59  87 123 155 197 253 301 362
#     4  11  22  38  65  86 120 161 195 251 312 348
#
# _framework density 21.094671999999999
#
# number of rings (size 3 to 8) (size 9 to 14) (size 15 to 20)
#    0.000    2.000    1.429    1.286    4.000    3.429 
#    0.000    0.000    0.000    3.429    0.000    0.000 
#    0.000    0.000    0.000    0.000    0.000    0.000 
#
# Total GULP energy -693783.005877 kJ/mol
# GULP energy per Si atom -12388.982248 kJ/mol
# Density = 2.104666 g / cm^3
# Si number density = 21.094672 Si / 1000 Ang^3
#
#
#
# Elastic Constant Matrix: (Units=GPa)
#
#
# Indices 1 2 3 4 5 6 
#
# 1 62.2960 10.6884 20.0976 0.0000 0.0000 0.0000
# 2 10.6884 54.1180 27.3332 0.0000 0.0000 0.0000
# 3 20.0976 27.3332 133.1416 0.0000 0.0000 0.0000
# 4 0.0000 0.0000 0.0000 -165.1070 0.0000 0.0000
# 5 0.0000 0.0000 0.0000 0.0000 14.6794 0.0000
# 6 0.0000 0.0000 0.0000 0.0000 0.0000 16.9361
#
#
#
# Elastic Compliance Matrix: (Units=1/GPa)
#
#
# Indices 1 2 3 4 5 6 
#
# 1 0.017131 -0.002318 -0.002110 0.000000 0.000000 0.000000
# 2 -0.002318 0.020929 -0.003947 0.000000 0.000000 0.000000
# 3 -0.002110 -0.003947 0.008640 0.000000 0.000000 0.000000
# 4 0.000000 0.000000 0.000000 -0.006057 0.000000 0.000000
# 5 0.000000 0.000000 0.000000 0.000000 0.068123 0.000000
# 6 0.000000 0.000000 0.000000 0.000000 0.000000 0.059046
#
#
# Mechanical properties :
#
#
# Convention : Reuss Voigt Hill
#
# Bulk Modulus (GPa) = 33.38833 40.64378 37.01606
# Shear Modulus (GPa) = 25.70116 -13.93587 5.88265
#
# Velocity S-wave (km/s) = 3.49431 -2.57307 1.67175
# Velocity P-wave (km/s) = 5.66943 3.23752 4.61649
#
# Compressibility (1/GPa) = 0.02995058
#
# Stress axis : x y z
#
# Youngs Moduli (GPa) = 58.37448 47.77999 115.74643
#
# Poissons Ratio (x) = 0.11074 0.24423
# Poissons Ratio (y) = 0.13529 0.45683
# Poissons Ratio (z) = 0.12318 0.18858
#
# Static dielectric constant tensor:
#      x y z
#    x 3.761630 0.000000 0.000000 
#    y 0.000000 3.807270 0.000000 
#    z 0.000000 0.000000 4.231300 
# 
# 
# High freq. dielectric constant tensor:
#      x y z
#    x 1.831370 0.000000 0.000000 
#    y 0.000000 1.800090 0.000000 
#    z 0.000000 0.000000 1.831910 
# 
# From -- ./inp_files/26002.got.cif
#   From: 2010.03.12/outbox.cif.g09.slc.cpg/sg62_14_cif.got.tgz:26002.got - 2010.04.10 19:12:36.
