data_PCOD8253360
_publ_section_title
;
Structure prediction by ZEFSAII (Michael W. Deem and Ramdas Pophale) SiO2 
 PCOD8253360
Probable space group: P N M A
;
_chemical_formula_sum "Si O2"
_cell_formula_units_Z 64
_cell_length_a 25.227440
_cell_length_b 8.849964
_cell_length_c 14.548021
_cell_angle_alpha 90.000000
_cell_angle_beta 90.000000
_cell_angle_gamma 90.000000
_cell_volume 3248.019331
_symmetry_space_group_name_H-M "P N M A"
_symmetry_group_IT_number 62
_symmetry_cell_setting 'orthorhombic'
loop_
_space_group_symop_operation_xyz
x,y,z
1/2-x,-y,1/2+z
1/2+x,1/2-y,1/2-z
-x,1/2+y,-z
-x,-y,-z
1/2+x,y,1/2-z
1/2-x,1/2+y,1/2+z
x,1/2-y,z
loop_
_atom_site_type_symbol
_atom_site_label
_atom_site_fract_x
_atom_site_fract_y
_atom_site_fract_z
Si Si1 0.717143 0.571468 0.859738
Si Si2 0.452294 0.928400 0.554203
Si Si3 0.926182 0.072772 0.757067
Si Si4 0.195354 0.925115 0.262606
Si Si5 0.109297 0.070683 0.709154
Si Si6 0.367697 0.928990 0.409325
Si Si7 0.247623 0.425550 0.945544
Si Si8 0.493610 0.571614 0.099929
O O1 0.708004 0.750000 0.858055
O O2 0.767076 0.530627 0.797022
O O3 0.663940 0.490993 0.829462
O O4 0.730199 0.505583 0.960420
O O5 0.458616 0.750000 0.554818
O O6 0.399536 0.980312 0.499713
O O7 0.500000 0.000000 0.500000
O O8 0.452142 0.987341 0.657706
O O9 0.932893 0.250000 0.774391
O O10 0.865095 0.024518 0.750323
O O11 0.956457 0.025476 0.663693
O O12 0.204597 0.750000 0.236223
O O13 0.208475 0.954664 0.368727
O O14 0.110927 0.250000 0.704593
O O15 0.104094 0.014240 0.815183
O O16 0.059743 0.009898 0.649553
O O17 0.364268 0.750000 0.403662
O O18 0.308680 0.000075 0.416858
O O19 0.237043 0.250000 0.962102
O O20 0.490811 0.750000 0.087073
O O21 0.500000 0.500000 0.000000
#
# Coordination Sequence:
#
# PCOD8253360 Si02
#       8
#     8   8   8   8   8   8   8   8
#     4  11  22  35  57  90 121 150 194 248 295 346
#     4  11  22  37  61  89 118 155 195 245 300 355
#     4  10  22  40  62  88 118 156 201 247 297 361
#     4  10  20  38  62  84 115 158 196 233 288 358
#     4  10  20  38  61  82 112 156 200 239 290 357
#     4   9  17  34  60  83 109 149 193 231 282 354
#     4   9  18  33  56  82 109 149 191 228 283 351
#     4  10  23  41  62  87 118 159 206 252 302 358
#
# _framework density 19.704315999999999
#
# number of rings (size 3 to 8) (size 9 to 14) (size 15 to 20)
#    0.000    2.000    1.250    2.250    1.750    4.500 
#    0.000    3.750    0.000    0.000    0.000    0.000 
#    0.000    0.000    0.000    0.000    0.000    0.000 
#
# Total GULP energy -793577.093779 kJ/mol
# GULP energy per Si atom -12399.642090 kJ/mol
# Density = 1.965947 g / cm^3
# Si number density = 19.704316 Si / 1000 Ang^3
#
#
#
# Elastic Constant Matrix: (Units=GPa)
#
#
# Indices 1 2 3 4 5 6 
#
# 1 115.2167 20.9773 42.5718 0.0000 0.0000 0.0000
# 2 20.9773 25.0748 22.8631 0.0000 0.0000 0.0000
# 3 42.5718 22.8631 137.6055 0.0000 0.0000 0.0000
# 4 0.0000 0.0000 0.0000 30.4219 0.0000 0.0000
# 5 0.0000 0.0000 0.0000 0.0000 38.8222 0.0000
# 6 0.0000 0.0000 0.0000 0.0000 0.0000 18.8774
#
#
#
# Elastic Compliance Matrix: (Units=1/GPa)
#
#
# Indices 1 2 3 4 5 6 
#
# 1 0.010757 -0.007030 -0.002160 0.000000 0.000000 0.000000
# 2 -0.007030 0.051595 -0.006398 0.000000 0.000000 0.000000
# 3 -0.002160 -0.006398 0.008998 0.000000 0.000000 0.000000
# 4 0.000000 0.000000 0.000000 0.032871 0.000000 0.000000
# 5 0.000000 0.000000 0.000000 0.000000 0.025758 0.000000
# 6 0.000000 0.000000 0.000000 0.000000 0.000000 0.052974
#
#
# Mechanical properties :
#
#
# Convention : Reuss Voigt Hill
#
# Bulk Modulus (GPa) = 24.89066 50.08014 37.48540
# Shear Modulus (GPa) = 21.97597 30.38994 26.18296
#
# Velocity S-wave (km/s) = 3.34321 3.93147 3.64922
# Velocity P-wave (km/s) = 5.24998 6.78820 6.06803
#
# Compressibility (1/GPa) = 0.04017572
#
# Stress axis : x y z
#
# Youngs Moduli (GPa) = 92.95971 19.38162 111.13112
#
# Poissons Ratio (x) = 0.13625 0.24005
# Poissons Ratio (y) = 0.65350 0.71098
# Poissons Ratio (z) = 0.20080 0.12400
#
# Static dielectric constant tensor:
#      x y z
#    x 3.753530 0.000000 0.000000 
#    y 0.000000 3.271360 0.000000 
#    z 0.000000 0.000000 3.534230 
# 
# 
# High freq. dielectric constant tensor:
#      x y z
#    x 1.782230 0.000000 0.000000 
#    y 0.000000 1.734540 0.000000 
#    z 0.000000 0.000000 1.784510 
# 
# From -- ./inp_files/20880.got.cif
#   From: 2010.03.12/outbox.cif.g09.slc.cpg/sg62_11_cif.got.tgz:20880.got - 2010.04.10 19:12:36.
