data_PCOD8253783
_publ_section_title
;
Structure prediction by ZEFSAII (Michael W. Deem and Ramdas Pophale) SiO2 
 PCOD8253783
Probable space group: P N M A
;
_chemical_formula_sum "Si O2"
_cell_formula_units_Z 64
_cell_length_a 21.484979
_cell_length_b 17.164137
_cell_length_c 9.514384
_cell_angle_alpha 90.000000
_cell_angle_beta 90.000000
_cell_angle_gamma 90.000000
_cell_volume 3508.630072
_symmetry_space_group_name_H-M "P N M A"
_symmetry_group_IT_number 62
_symmetry_cell_setting 'orthorhombic'
loop_
_space_group_symop_operation_xyz
x,y,z
1/2-x,-y,1/2+z
1/2+x,1/2-y,1/2-z
-x,1/2+y,-z
-x,-y,-z
1/2+x,y,1/2-z
1/2-x,1/2+y,1/2+z
x,1/2-y,z
loop_
_atom_site_type_symbol
_atom_site_label
_atom_site_fract_x
_atom_site_fract_y
_atom_site_fract_z
Si Si1 0.545894 0.489041 0.373809
Si Si2 0.726760 0.113634 0.787093
Si Si3 0.117904 0.335970 0.531885
Si Si4 0.769292 0.609505 0.970798
Si Si5 0.383194 0.838882 0.709431
Si Si6 0.041185 0.477614 0.628274
Si Si7 0.164792 0.554714 0.713087
Si Si8 0.328538 0.057111 0.527301
O O1 0.500000 0.500000 0.500000
O O2 0.564349 0.398227 0.348799
O O3 0.508484 0.528189 0.249956
O O4 0.606637 0.540256 0.398018
O O5 0.736149 0.146058 0.627921
O O6 0.699505 0.027246 0.780356
O O7 0.680730 0.167394 0.877020
O O8 0.792247 0.116294 0.870370
O O9 0.088219 0.250000 0.531541
O O10 0.132149 0.362229 0.371118
O O11 0.069527 0.392604 0.606257
O O12 0.820014 0.656104 0.880276
O O13 0.702504 0.612825 0.890716
O O14 0.788443 0.520549 0.987306
O O15 0.408338 0.750000 0.698343
O O16 0.094762 0.541967 0.656227
O O17 0.000000 0.500000 0.500000
O O18 0.161832 0.591570 0.870102
#
# Coordination Sequence:
#
# PCOD8253783 Si02
#       8
#     8   8   8   8   8   8   8   8
#     4  11  21  36  55  84 116 148 192 237 274 331
#     4   9  18  30  50  78 104 133 172 223 275 320
#     4  10  21  37  56  79 110 147 186 233 289 343
#     4   9  18  30  50  78 104 131 174 223 272 323
#     4  10  21  37  57  79 109 148 186 231 288 345
#     4  11  21  34  55  84 113 149 193 235 275 328
#     4   9  17  30  49  76 106 136 173 219 269 320
#     4   9  17  30  50  75 106 137 170 220 271 318
#
# _framework density 18.240736999999999
#
# number of rings (size 3 to 8) (size 9 to 14) (size 15 to 20)
#    0.000    2.250    2.500    0.750    3.500    3.500 
#    0.000    0.000    0.000    3.000    0.000    0.000 
#    0.000    0.000    0.000    0.000    0.000    0.000 
#
# Total GULP energy -793249.395503 kJ/mol
# GULP energy per Si atom -12394.521805 kJ/mol
# Density = 1.819922 g / cm^3
# Si number density = 18.240737 Si / 1000 Ang^3
#
#
#
# Elastic Constant Matrix: (Units=GPa)
#
#
# Indices 1 2 3 4 5 6 
#
# 1 132.8920 35.3027 80.2409 0.0000 0.0000 0.0000
# 2 35.3027 57.8175 38.0058 0.0000 0.0000 0.0000
# 3 80.2409 38.0058 175.5767 0.0000 0.0000 0.0000
# 4 0.0000 0.0000 0.0000 18.4340 0.0000 0.0000
# 5 0.0000 0.0000 0.0000 0.0000 44.4473 0.0000
# 6 0.0000 0.0000 0.0000 0.0000 0.0000 14.9188
#
#
#
# Elastic Compliance Matrix: (Units=1/GPa)
#
#
# Indices 1 2 3 4 5 6 
#
# 1 0.011144 -0.004030 -0.004221 0.000000 0.000000 0.000000
# 2 -0.004030 0.021622 -0.002839 0.000000 0.000000 0.000000
# 3 -0.004221 -0.002839 0.008239 0.000000 0.000000 0.000000
# 4 0.000000 0.000000 0.000000 0.054248 0.000000 0.000000
# 5 0.000000 0.000000 0.000000 0.000000 0.022499 0.000000
# 6 0.000000 0.000000 0.000000 0.000000 0.000000 0.067029
#
#
# Mechanical properties :
#
#
# Convention : Reuss Voigt Hill
#
# Bulk Modulus (GPa) = 53.11608 74.82057 63.96833
# Shear Modulus (GPa) = 23.44833 29.74248 26.59540
#
# Velocity S-wave (km/s) = 3.58927 4.04239 3.82255
# Velocity P-wave (km/s) = 6.80880 7.93066 7.39105
#
# Compressibility (1/GPa) = 0.01882669
#
# Stress axis : x y z
#
# Youngs Moduli (GPa) = 89.73552 46.24824 121.37634
#
# Poissons Ratio (x) = 0.18638 0.51228
# Poissons Ratio (y) = 0.36163 0.34455
# Poissons Ratio (z) = 0.37873 0.13128
#
# Static dielectric constant tensor:
#      x y z
#    x -9.042460 0.000000 0.000000 
#    y 0.000000 2.966200 0.000000 
#    z 0.000000 0.000000 3.719840 
# 
# 
# High freq. dielectric constant tensor:
#      x y z
#    x 1.702610 0.000000 0.000000 
#    y 0.000000 1.659280 0.000000 
#    z 0.000000 0.000000 1.733120 
# 
# From -- ./inp_files/8922.got.cif
#   From: 2010.03.12/outbox.cif.g09.slc.cpg/sg62_5_cif.got.tgz:8922.got - 2010.04.10 19:12:36.
