data_PCOD8253831
_publ_section_title
;
Structure prediction by ZEFSAII (Michael W. Deem and Ramdas Pophale) SiO2 
 PCOD8253831
Probable space group: P N M A
;
_chemical_formula_sum "Si O2"
_cell_formula_units_Z 48
_cell_length_a 13.624759
_cell_length_b 15.568120
_cell_length_c 11.341845
_cell_angle_alpha 90.000000
_cell_angle_beta 90.000000
_cell_angle_gamma 90.000000
_cell_volume 2405.740101
_symmetry_space_group_name_H-M "P N M A"
_symmetry_group_IT_number 62
_symmetry_cell_setting 'orthorhombic'
loop_
_space_group_symop_operation_xyz
x,y,z
1/2-x,-y,1/2+z
1/2+x,1/2-y,1/2-z
-x,1/2+y,-z
-x,-y,-z
1/2+x,y,1/2-z
1/2-x,1/2+y,1/2+z
x,1/2-y,z
loop_
_atom_site_type_symbol
_atom_site_label
_atom_site_fract_x
_atom_site_fract_y
_atom_site_fract_z
Si Si1 0.306088 0.910643 0.275992
Si Si2 0.633599 0.851631 0.073755
Si Si3 0.744779 0.849730 0.596269
Si Si4 0.113827 0.003828 0.988558
Si Si5 0.084859 0.154283 0.567878
Si Si6 0.240402 0.921274 0.655372
O O1 0.193885 0.889368 0.314066
O O2 0.357279 0.840467 0.192737
O O3 0.365907 0.920399 0.395897
O O4 0.320663 0.998911 0.204786
O O5 0.635532 0.750000 0.088266
O O6 0.522409 0.890423 0.078318
O O7 0.680153 0.876398 0.948525
O O8 0.723077 0.750000 0.562176
O O9 0.657560 0.910967 0.549581
O O10 0.843657 0.886095 0.532331
O O11 0.759276 0.855322 0.737234
O O12 0.157443 0.038155 0.111247
O O13 0.000000 0.000000 0.000000
O O14 0.062611 0.250000 0.525231
#
# Coordination Sequence:
#
# PCOD8253831 Si02
#       6
#     8   8   8   8   8   8
#     4  10  21  37  58  85 117 152 193 248 293 352
#     4  10  22  39  59  85 119 156 198 246 299 358
#     4  10  21  39  61  87 120 158 203 256 305 361
#     4  10  22  39  58  87 120 159 203 246 302 363
#     4  10  21  37  61  90 116 156 201 245 304 359
#     4  10  21  39  57  85 118 156 198 246 298 353
#
# _framework density 19.952280999999999
#
# number of rings (size 3 to 8) (size 9 to 14) (size 15 to 20)
#    0.000    2.000    1.667    1.000    2.333    3.333 
#    0.000    6.667    0.000    0.000    0.000    0.000 
#    0.000    0.000    0.000    0.000    0.000    0.000 
#
# Total GULP energy -594825.152045 kJ/mol
# GULP energy per Si atom -12392.190668 kJ/mol
# Density = 1.990687 g / cm^3
# Si number density = 19.952281 Si / 1000 Ang^3
#
#
#
# Elastic Constant Matrix: (Units=GPa)
#
#
# Indices 1 2 3 4 5 6 
#
# 1 169.2430 25.9990 63.3609 0.0000 0.0000 0.0000
# 2 25.9990 59.3347 22.7363 0.0000 0.0000 0.0000
# 3 63.3609 22.7363 109.8713 0.0000 0.0000 0.0000
# 4 0.0000 0.0000 0.0000 25.5516 0.0000 0.0000
# 5 0.0000 0.0000 0.0000 0.0000 21.2929 0.0000
# 6 0.0000 0.0000 0.0000 0.0000 0.0000 26.3873
#
#
#
# Elastic Compliance Matrix: (Units=1/GPa)
#
#
# Indices 1 2 3 4 5 6 
#
# 1 0.007712 -0.001819 -0.004071 0.000000 0.000000 0.000000
# 2 -0.001819 0.018734 -0.002828 0.000000 0.000000 0.000000
# 3 -0.004071 -0.002828 0.012034 0.000000 0.000000 0.000000
# 4 0.000000 0.000000 0.000000 0.039137 0.000000 0.000000
# 5 0.000000 0.000000 0.000000 0.000000 0.046964 0.000000
# 6 0.000000 0.000000 0.000000 0.000000 0.000000 0.037897
#
#
# Mechanical properties :
#
#
# Convention : Reuss Voigt Hill
#
# Bulk Modulus (GPa) = 47.51741 62.51570 55.01656
# Shear Modulus (GPa) = 26.74806 29.73654 28.24230
#
# Velocity S-wave (km/s) = 3.66539 3.86474 3.76638
# Velocity P-wave (km/s) = 6.46380 7.16349 6.82262
#
# Compressibility (1/GPa) = 0.02104492
#
# Stress axis : x y z
#
# Youngs Moduli (GPa) = 129.66373 53.37823 83.09526
#
# Poissons Ratio (x) = 0.09711 0.33828
# Poissons Ratio (y) = 0.23590 0.23496
# Poissons Ratio (z) = 0.52787 0.15093
#
# Static dielectric constant tensor:
#      x y z
#    x 3.725700 0.000000 0.000000 
#    y 0.000000 3.582830 0.000000 
#    z 0.000000 0.000000 3.959860 
# 
# 
# High freq. dielectric constant tensor:
#      x y z
#    x 1.770030 0.000000 0.000000 
#    y 0.000000 1.772790 0.000000 
#    z 0.000000 0.000000 1.790010 
# 
# From -- ./inp_files/12248.got.cif
#   From: 2010.03.12/outbox.cif.g09.slc.cpg/sg62_7_cif.got.tgz:12248.got - 2010.04.10 19:12:36.
