data_PCOD8253368
_publ_section_title
;
Structure prediction by ZEFSAII (Michael W. Deem and Ramdas Pophale) SiO2 
 PCOD8253368
Probable space group: P N M A
;
_chemical_formula_sum "Si O2"
_cell_formula_units_Z 56
_cell_length_a 20.892555
_cell_length_b 9.070073
_cell_length_c 15.060525
_cell_angle_alpha 90.000000
_cell_angle_beta 90.000000
_cell_angle_gamma 90.000000
_cell_volume 2853.924291
_symmetry_space_group_name_H-M "P N M A"
_symmetry_group_IT_number 62
_symmetry_cell_setting 'orthorhombic'
loop_
_space_group_symop_operation_xyz
x,y,z
1/2-x,-y,1/2+z
1/2+x,1/2-y,1/2-z
-x,1/2+y,-z
-x,-y,-z
1/2+x,y,1/2-z
1/2-x,1/2+y,1/2+z
x,1/2-y,z
loop_
_atom_site_type_symbol
_atom_site_label
_atom_site_fract_x
_atom_site_fract_y
_atom_site_fract_z
Si Si1 0.022374 0.581930 0.263902
Si Si2 0.228083 0.914537 0.491169
Si Si3 0.131881 0.415129 0.942753
Si Si4 0.839069 0.073180 0.678971
Si Si5 0.261534 0.424605 0.188276
Si Si6 0.448671 0.081756 0.559244
Si Si7 0.100462 0.577290 0.767949
O O1 0.008039 0.750000 0.290965
O O2 0.087026 0.524207 0.311035
O O3 0.036040 0.564771 0.160851
O O4 0.959513 0.486179 0.289562
O O5 0.204294 0.750000 0.513364
O O6 0.292412 0.912042 0.432929
O O7 0.178718 0.986060 0.420467
O O8 0.237404 0.991190 0.587213
O O9 0.102866 0.250000 0.942224
O O10 0.097849 0.502282 0.863803
O O11 0.117371 0.497032 0.036062
O O12 0.831598 0.250000 0.687150
O O13 0.793585 0.002666 0.754260
O O14 0.247122 0.250000 0.189929
O O15 0.331999 0.462360 0.224034
O O16 0.442351 0.250000 0.529809
O O17 0.500000 0.000000 0.500000
O O18 0.090995 0.750000 0.778738
#
# Coordination Sequence:
#
# PCOD8253368 Si02
#       7
#     8   8   8   8   8   8   8
#     4  10  22  37  55  79 112 150 190 233 280 335
#     4   9  19  36  59  83 111 146 186 232 290 342
#     4  11  20  33  55  80 108 144 184 230 282 341
#     4  10  20  38  61  85 112 149 190 236 285 339
#     4  10  21  38  59  86 115 149 189 234 286 342
#     4  11  21  32  48  76 110 145 182 224 278 339
#     4  11  22  35  55  80 112 149 185 228 280 337
#
# _framework density 19.622105000000001
#
# number of rings (size 3 to 8) (size 9 to 14) (size 15 to 20)
#    0.000    1.714    2.857    2.143    0.000    1.714 
#    0.000    2.143    0.000    0.000    0.000    0.000 
#    0.000    0.000    0.000    0.000    0.000    0.000 
#
# Total GULP energy -693992.438158 kJ/mol
# GULP energy per Si atom -12392.722110 kJ/mol
# Density = 1.957744 g / cm^3
# Si number density = 19.622105 Si / 1000 Ang^3
#
#
#
# Elastic Constant Matrix: (Units=GPa)
#
#
# Indices 1 2 3 4 5 6 
#
# 1 98.8770 33.9822 13.9492 0.0000 0.0000 0.0000
# 2 33.9822 70.7241 16.8134 0.0000 0.0000 0.0000
# 3 13.9492 16.8134 65.6597 0.0000 0.0000 0.0000
# 4 0.0000 0.0000 0.0000 19.5889 0.0000 0.0000
# 5 0.0000 0.0000 0.0000 0.0000 31.4278 0.0000
# 6 0.0000 0.0000 0.0000 0.0000 0.0000 28.6165
#
#
#
# Elastic Compliance Matrix: (Units=1/GPa)
#
#
# Indices 1 2 3 4 5 6 
#
# 1 0.012197 -0.005584 -0.001161 0.000000 0.000000 0.000000
# 2 -0.005584 0.017613 -0.003324 0.000000 0.000000 0.000000
# 3 -0.001161 -0.003324 0.016328 0.000000 0.000000 0.000000
# 4 0.000000 0.000000 0.000000 0.051049 0.000000 0.000000
# 5 0.000000 0.000000 0.000000 0.000000 0.031819 0.000000
# 6 0.000000 0.000000 0.000000 0.000000 0.000000 0.034945
#
#
# Mechanical properties :
#
#
# Convention : Reuss Voigt Hill
#
# Bulk Modulus (GPa) = 38.46320 40.52781 39.49551
# Shear Modulus (GPa) = 25.93967 27.29437 26.61702
#
# Velocity S-wave (km/s) = 3.63982 3.73366 3.68704
# Velocity P-wave (km/s) = 6.10811 6.26785 6.18849
#
# Compressibility (1/GPa) = 0.02599887
#
# Stress axis : x y z
#
# Youngs Moduli (GPa) = 81.98999 56.77694 61.24513
#
# Poissons Ratio (x) = 0.31706 0.07112
# Poissons Ratio (y) = 0.45786 0.20356
# Poissons Ratio (z) = 0.09521 0.18871
#
# Static dielectric constant tensor:
#      x y z
#    x 3.851810 0.000000 0.000000 
#    y 0.000000 3.765230 0.000000 
#    z 0.000000 0.000000 4.123320 
# 
# 
# High freq. dielectric constant tensor:
#      x y z
#    x 1.777430 0.000000 0.000000 
#    y 0.000000 1.747980 0.000000 
#    z 0.000000 0.000000 1.751170 
# 
# From -- ./inp_files/20264.got.cif
#   From: 2010.03.12/outbox.cif.g09.slc.cpg/sg62_11_cif.got.tgz:20264.got - 2010.04.10 19:12:36.
