data_PCOD8253602
_publ_section_title
;
Structure prediction by ZEFSAII (Michael W. Deem and Ramdas Pophale) SiO2 
 PCOD8253602
Probable space group: P N M A
;
_chemical_formula_sum "Si O2"
_cell_formula_units_Z 48
_cell_length_a 10.207890
_cell_length_b 25.754328
_cell_length_c 8.673580
_cell_angle_alpha 90.000000
_cell_angle_beta 90.000000
_cell_angle_gamma 90.000000
_cell_volume 2280.261173
_symmetry_space_group_name_H-M "P N M A"
_symmetry_group_IT_number 62
_symmetry_cell_setting 'orthorhombic'
loop_
_space_group_symop_operation_xyz
x,y,z
1/2-x,-y,1/2+z
1/2+x,1/2-y,1/2-z
-x,1/2+y,-z
-x,-y,-z
1/2+x,y,1/2-z
1/2-x,1/2+y,1/2+z
x,1/2-y,z
loop_
_atom_site_type_symbol
_atom_site_label
_atom_site_fract_x
_atom_site_fract_y
_atom_site_fract_z
Si Si1 0.959387 0.360394 0.048834
Si Si2 0.651016 0.470675 0.154506
Si Si3 0.294073 0.750000 0.319888
Si Si4 0.231697 0.363208 0.917014
Si Si5 0.279788 0.066766 0.650998
Si Si6 0.420261 0.250000 0.583203
Si Si7 0.620221 0.585286 0.832892
O O1 0.111240 0.372367 0.029963
O O2 0.924448 0.301218 0.017823
O O3 0.891094 0.402697 0.940074
O O4 0.922222 0.367060 0.225870
O O5 0.659044 0.529129 0.218674
O O6 0.746661 0.437954 0.263054
O O7 0.498571 0.455642 0.164625
O O8 0.692664 0.465439 0.973501
O O9 0.243767 0.698419 0.406052
O O10 0.452964 0.750000 0.301325
O O11 0.222708 0.750000 0.157067
O O12 0.202190 0.389090 0.749193
O O13 0.356110 0.390847 0.997628
#
# Coordination Sequence:
#
# PCOD8253602 Si02
#       7
#     8   8   4   8   8   4   8
#     4  10  23  42  67  93 133 173 213 276 324 387
#     4  11  26  41  67  98 128 177 220 270 323 398
#     4  10  22  39  68  98 130 168 215 274 324 396
#     4  11  23  42  67  96 133 169 218 273 329 389
#     4  11  25  41  68  95 133 172 219 270 333 384
#     4  10  20  43  64 100 130 168 219 262 334 384
#     4  11  24  45  64  96 134 170 223 264 332 386
#
# _framework density 21.050221000000001
#
# number of rings (size 3 to 8) (size 9 to 14) (size 15 to 20)
#    0.000    1.333    3.333    1.000    4.667    3.333 
#    0.000    0.000    0.000    1.000    0.000    0.000 
#    0.000    0.000    0.000    0.000    0.000    0.000 
#
# Total GULP energy -594871.346091 kJ/mol
# GULP energy per Si atom -12393.153044 kJ/mol
# Density = 2.100231 g / cm^3
# Si number density = 21.050221 Si / 1000 Ang^3
#
#
#
# Elastic Constant Matrix: (Units=GPa)
#
#
# Indices 1 2 3 4 5 6 
#
# 1 51.2513 24.6362 22.3094 0.0000 0.0000 0.0000
# 2 24.6362 119.3997 55.7653 0.0000 0.0000 0.0000
# 3 22.3094 55.7653 110.8357 0.0000 0.0000 0.0000
# 4 0.0000 0.0000 0.0000 18.7320 0.0000 0.0000
# 5 0.0000 0.0000 0.0000 0.0000 29.2884 0.0000
# 6 0.0000 0.0000 0.0000 0.0000 0.0000 33.9984
#
#
#
# Elastic Compliance Matrix: (Units=1/GPa)
#
#
# Indices 1 2 3 4 5 6 
#
# 1 0.022326 -0.003278 -0.002845 0.000000 0.000000 0.000000
# 2 -0.003278 0.011429 -0.005091 0.000000 0.000000 0.000000
# 3 -0.002845 -0.005091 0.012156 0.000000 0.000000 0.000000
# 4 0.000000 0.000000 0.000000 0.053385 0.000000 0.000000
# 5 0.000000 0.000000 0.000000 0.000000 0.034143 0.000000
# 6 0.000000 0.000000 0.000000 0.000000 0.000000 0.029413
#
#
# Mechanical properties :
#
#
# Convention : Reuss Voigt Hill
#
# Bulk Modulus (GPa) = 42.58089 54.10097 48.34093
# Shear Modulus (GPa) = 25.89245 28.32214 27.10729
#
# Velocity S-wave (km/s) = 3.51099 3.67202 3.59241
# Velocity P-wave (km/s) = 6.05873 6.61325 6.34205
#
# Compressibility (1/GPa) = 0.02348471
#
# Stress axis : x y z
#
# Youngs Moduli (GPa) = 44.79161 87.49566 82.26274
#
# Poissons Ratio (x) = 0.28681 0.23400
# Poissons Ratio (y) = 0.14683 0.41877
# Poissons Ratio (z) = 0.12741 0.44540
#
# Static dielectric constant tensor:
#      x y z
#    x 3.806000 0.000000 0.000000 
#    y 0.000000 2.473800 0.000000 
#    z 0.000000 0.000000 3.878310 
# 
# 
# High freq. dielectric constant tensor:
#      x y z
#    x 1.822390 0.000000 0.000000 
#    y 0.000000 1.838480 0.000000 
#    z 0.000000 0.000000 1.822840 
# 
# From -- ./inp_files/5390.got.cif
#   From: 2010.03.12/outbox.cif.g09.slc.cpg/sg62_3_cif.got.tgz:5390.got - 2010.04.10 19:12:36.
