data_PCOD8253498
_publ_section_title
;
Structure prediction by ZEFSAII (Michael W. Deem and Ramdas Pophale) SiO2 
 PCOD8253498
Probable space group: P N M A
;
_chemical_formula_sum "Si O2"
_cell_formula_units_Z 64
_cell_length_a 30.491266
_cell_length_b 8.989242
_cell_length_c 11.897532
_cell_angle_alpha 90.000000
_cell_angle_beta 90.000000
_cell_angle_gamma 90.000000
_cell_volume 3261.034628
_symmetry_space_group_name_H-M "P N M A"
_symmetry_group_IT_number 62
_symmetry_cell_setting 'orthorhombic'
loop_
_space_group_symop_operation_xyz
x,y,z
1/2-x,-y,1/2+z
1/2+x,1/2-y,1/2-z
-x,1/2+y,-z
-x,-y,-z
1/2+x,y,1/2-z
1/2-x,1/2+y,1/2+z
x,1/2-y,z
loop_
_atom_site_type_symbol
_atom_site_label
_atom_site_fract_x
_atom_site_fract_y
_atom_site_fract_z
Si Si1 0.701944 0.075899 0.760179
Si Si2 0.132205 0.926868 0.891876
Si Si3 0.424519 0.425493 0.989681
Si Si4 0.042564 0.076183 0.276304
Si Si5 0.836007 0.919785 0.500070
Si Si6 0.290270 0.581460 0.775122
Si Si7 0.875482 0.923850 0.870020
Si Si8 0.945362 0.424309 0.263594
O O1 0.697847 0.250000 0.736461
O O2 0.682303 0.030523 0.880098
O O3 0.676613 0.987987 0.663127
O O4 0.752673 0.031092 0.761908
O O5 0.133992 0.750000 0.890901
O O6 0.089997 0.991010 0.823764
O O7 0.129263 0.981806 0.018229
O O8 0.429499 0.250000 0.983918
O O9 0.374872 0.471870 0.963604
O O10 0.437688 0.490578 0.111850
O O11 0.455920 0.495041 0.895972
O O12 0.048317 0.250000 0.300584
O O13 0.080212 0.020830 0.191741
O O14 0.994851 0.039861 0.222520
O O15 0.853347 0.750000 0.498461
O O16 0.797673 0.936757 0.591644
O O17 0.275929 0.750000 0.746447
O O18 0.334705 0.540323 0.710071
O O19 0.878343 0.750000 0.899883
O O20 0.937103 0.250000 0.270384
#
# Coordination Sequence:
#
# PCOD8253498 Si02
#       8
#     8   8   8   8   8   8   8   8
#     4  11  24  40  62  92 119 151 199 244 291 349
#     4  11  23  41  61  84 120 159 196 242 296 348
#     4  11  20  34  58  91 124 151 193 241 290 347
#     4  10  20  39  62  84 118 158 196 240 295 351
#     4  10  21  40  63  87 117 156 195 235 291 352
#     4  10  22  41  62  87 119 156 195 239 297 350
#     4  10  22  40  61  86 116 155 200 244 292 348
#     4   9  20  37  59  87 118 156 195 239 295 349
#
# _framework density 19.625674
#
# number of rings (size 3 to 8) (size 9 to 14) (size 15 to 20)
#    0.000    1.750    2.500    1.500    1.750    2.500 
#    0.000    1.875    0.000    0.000    0.000    0.000 
#    0.000    0.000    0.000    0.000    0.000    0.000 
#
# Total GULP energy -793798.552473 kJ/mol
# GULP energy per Si atom -12403.102382 kJ/mol
# Density = 1.958100 g / cm^3
# Si number density = 19.625674 Si / 1000 Ang^3
#
#
#
# Elastic Constant Matrix: (Units=GPa)
#
#
# Indices 1 2 3 4 5 6 
#
# 1 110.8841 31.0391 31.6097 0.0000 0.0000 0.0000
# 2 31.0391 55.1675 37.1632 0.0000 0.0000 0.0000
# 3 31.6097 37.1632 105.9213 0.0000 0.0000 0.0000
# 4 0.0000 0.0000 0.0000 30.0884 0.0000 0.0000
# 5 0.0000 0.0000 0.0000 0.0000 25.7829 0.0000
# 6 0.0000 0.0000 0.0000 0.0000 0.0000 24.0955
#
#
#
# Elastic Compliance Matrix: (Units=1/GPa)
#
#
# Indices 1 2 3 4 5 6 
#
# 1 0.010869 -0.005147 -0.001438 0.000000 0.000000 0.000000
# 2 -0.005147 0.026174 -0.007647 0.000000 0.000000 0.000000
# 3 -0.001438 -0.007647 0.012553 0.000000 0.000000 0.000000
# 4 0.000000 0.000000 0.000000 0.033235 0.000000 0.000000
# 5 0.000000 0.000000 0.000000 0.000000 0.038785 0.000000
# 6 0.000000 0.000000 0.000000 0.000000 0.000000 0.041501
#
#
# Mechanical properties :
#
#
# Convention : Reuss Voigt Hill
#
# Bulk Modulus (GPa) = 47.32093 52.39966 49.86029
# Shear Modulus (GPa) = 25.17289 27.47075 26.32182
#
# Velocity S-wave (km/s) = 3.58530 3.74536 3.66620
# Velocity P-wave (km/s) = 6.42676 6.74249 6.58652
#
# Compressibility (1/GPa) = 0.02113230
#
# Stress axis : x y z
#
# Youngs Moduli (GPa) = 92.00487 38.20594 79.66092
#
# Poissons Ratio (x) = 0.19663 0.11454
# Poissons Ratio (y) = 0.47352 0.60920
# Poissons Ratio (z) = 0.13229 0.29218
#
# Static dielectric constant tensor:
#      x y z
#    x 3.669180 0.000000 0.000000 
#    y 0.000000 3.395520 0.000000 
#    z 0.000000 0.000000 3.646420 
# 
# 
# High freq. dielectric constant tensor:
#      x y z
#    x 1.773700 0.000000 0.000000 
#    y 0.000000 1.749250 0.000000 
#    z 0.000000 0.000000 1.768570 
# 
# From -- ./inp_files/15786.got.cif
#   From: 2010.03.12/outbox.cif.g09.slc.cpg/sg62_8_cif.got.tgz:15786.got - 2010.04.10 19:12:36.
