data_PCOD8253907
_publ_section_title
;
Structure prediction by ZEFSAII (Michael W. Deem and Ramdas Pophale) SiO2 
 PCOD8253907
Probable space group: P N M A
;
_chemical_formula_sum "Si O2"
_cell_formula_units_Z 40
_cell_length_a 18.158702
_cell_length_b 17.729871
_cell_length_c 5.394095
_cell_angle_alpha 90.000000
_cell_angle_beta 90.000000
_cell_angle_gamma 90.000000
_cell_volume 1736.636674
_symmetry_space_group_name_H-M "P N M A"
_symmetry_group_IT_number 62
_symmetry_cell_setting 'orthorhombic'
loop_
_space_group_symop_operation_xyz
x,y,z
1/2-x,-y,1/2+z
1/2+x,1/2-y,1/2-z
-x,1/2+y,-z
-x,-y,-z
1/2+x,y,1/2-z
1/2-x,1/2+y,1/2+z
x,1/2-y,z
loop_
_atom_site_type_symbol
_atom_site_label
_atom_site_fract_x
_atom_site_fract_y
_atom_site_fract_z
Si Si1 0.263980 0.159968 0.510224
Si Si2 0.311901 0.838485 0.507261
Si Si3 0.540998 0.446770 0.812415
Si Si4 0.079837 0.589715 0.936557
Si Si5 0.449686 0.837338 0.792325
O O1 0.265676 0.250000 0.518522
O O2 0.229088 0.130215 0.253286
O O3 0.346010 0.128264 0.523265
O O4 0.220482 0.126991 0.752284
O O5 0.299841 0.750000 0.497443
O O6 0.399408 0.858374 0.546968
O O7 0.476584 0.407528 0.660699
O O8 0.593983 0.502877 0.651977
O O9 0.500000 0.500000 0.000000
O O10 0.584203 0.382214 0.969751
O O11 0.035771 0.641175 0.734409
O O12 0.439075 0.750000 0.855142
#
# Coordination Sequence:
#
# PCOD8253907 Si02
#       5
#     8   8   8   8   8
#     4  10  21  38  62  94 128 167 210 264 322 376
#     4   9  21  38  59  91 133 165 203 266 328 373
#     4   9  21  39  61  85 126 162 209 265 326 373
#     4  10  21  38  64  88 126 169 217 266 319 386
#     4  10  21  37  64  96 125 170 220 267 325 396
#
# _framework density 23.033028000000002
#
# number of rings (size 3 to 8) (size 9 to 14) (size 15 to 20)
#    0.000    2.400    0.000    0.600    8.400    1.600 
#    0.000    0.000   13.200    0.000    0.000    0.000 
#    0.000    0.000    0.000    0.200    0.000    0.000 
#
# Total GULP energy -495602.739515 kJ/mol
# GULP energy per Si atom -12390.068488 kJ/mol
# Density = 2.298060 g / cm^3
# Si number density = 23.033028 Si / 1000 Ang^3
#
#
#
# Elastic Constant Matrix: (Units=GPa)
#
#
# Indices 1 2 3 4 5 6 
#
# 1 119.3526 36.8780 52.9243 0.0000 0.0000 0.0000
# 2 36.8780 77.7136 34.3152 0.0000 0.0000 0.0000
# 3 52.9243 34.3152 135.2017 0.0000 0.0000 0.0000
# 4 0.0000 0.0000 0.0000 32.3049 0.0000 0.0000
# 5 0.0000 0.0000 0.0000 0.0000 26.9494 0.0000
# 6 0.0000 0.0000 0.0000 0.0000 0.0000 20.3978
#
#
#
# Elastic Compliance Matrix: (Units=1/GPa)
#
#
# Indices 1 2 3 4 5 6 
#
# 1 0.011029 -0.003747 -0.003366 0.000000 0.000000 0.000000
# 2 -0.003747 0.015765 -0.002534 0.000000 0.000000 0.000000
# 3 -0.003366 -0.002534 0.009357 0.000000 0.000000 0.000000
# 4 0.000000 0.000000 0.000000 0.030955 0.000000 0.000000
# 5 0.000000 0.000000 0.000000 0.000000 0.037107 0.000000
# 6 0.000000 0.000000 0.000000 0.000000 0.000000 0.049025
#
#
# Mechanical properties :
#
#
# Convention : Reuss Voigt Hill
#
# Bulk Modulus (GPa) = 59.32754 64.50032 61.91393
# Shear Modulus (GPa) = 28.06585 29.80711 28.93648
#
# Velocity S-wave (km/s) = 3.49450 3.60127 3.54828
# Velocity P-wave (km/s) = 6.48811 6.73471 6.61256
#
# Compressibility (1/GPa) = 0.01685558
#
# Stress axis : x y z
#
# Youngs Moduli (GPa) = 90.66961 63.43127 106.86844
#
# Poissons Ratio (x) = 0.23770 0.35974
# Poissons Ratio (y) = 0.33977 0.27085
# Poissons Ratio (z) = 0.30521 0.16076
#
# Static dielectric constant tensor:
#      x y z
#    x 3.819130 0.000000 0.000000 
#    y 0.000000 4.384610 0.000000 
#    z 0.000000 0.000000 4.437820 
# 
# 
# High freq. dielectric constant tensor:
#      x y z
#    x 1.895100 0.000000 0.000000 
#    y 0.000000 1.897780 0.000000 
#    z 0.000000 0.000000 1.930700 
# 
# From -- ./inp_files/1547.got.cif
#   From: 2010.03.12/outbox.cif.g09.slc.cpg/sg62_1_cif.got.tgz:1547.got - 2010.04.10 19:12:36.
