data_PCOD8253924
_publ_section_title
;
Structure prediction by ZEFSAII (Michael W. Deem and Ramdas Pophale) SiO2 
 PCOD8253924
Probable space group: P N M A
;
_chemical_formula_sum "Si O2"
_cell_formula_units_Z 48
_cell_length_a 30.380109
_cell_length_b 8.902175
_cell_length_c 9.294054
_cell_angle_alpha 90.000000
_cell_angle_beta 90.000000
_cell_angle_gamma 90.000000
_cell_volume 2513.568046
_symmetry_space_group_name_H-M "P N M A"
_symmetry_group_IT_number 62
_symmetry_cell_setting 'orthorhombic'
loop_
_space_group_symop_operation_xyz
x,y,z
1/2-x,-y,1/2+z
1/2+x,1/2-y,1/2-z
-x,1/2+y,-z
-x,-y,-z
1/2+x,y,1/2-z
1/2-x,1/2+y,1/2+z
x,1/2-y,z
loop_
_atom_site_type_symbol
_atom_site_label
_atom_site_fract_x
_atom_site_fract_y
_atom_site_fract_z
Si Si1 0.283682 0.923436 0.584757
Si Si2 0.537599 0.417697 0.584759
Si Si3 0.865669 0.574352 0.110384
Si Si4 0.868544 0.427978 0.407780
Si Si5 0.293659 0.574465 0.917373
Si Si6 0.538943 0.420675 0.917854
O O1 0.269874 0.750000 0.562146
O O2 0.331382 0.955281 0.516430
O O3 0.285292 0.965969 0.751599
O O4 0.248947 0.030553 0.508625
O O5 0.500000 0.500000 0.500000
O O6 0.537547 0.250000 0.524743
O O7 0.586495 0.486697 0.558728
O O8 0.526054 0.425367 0.751723
O O9 0.869823 0.750000 0.151558
O O10 0.850840 0.488344 0.254488
O O11 0.870687 0.250000 0.402073
O O12 0.835341 0.479608 0.531437
O O13 0.916084 0.491956 0.448032
O O14 0.303367 0.750000 0.938449
O O15 0.544478 0.250000 0.972133
O O16 0.500000 0.500000 0.000000
#
# Coordination Sequence:
#
# PCOD8253924 Si02
#       6
#     8   8   8   8   8   8
#     4  10  22  39  59  83 110 145 188 230 277 334
#     4   9  19  34  54  81 112 147 186 227 273 324
#     4   9  19  38  59  80 111 148 185 229 278 327
#     4  11  22  37  58  84 112 146 188 230 276 331
#     4  11  23  38  57  83 114 147 183 228 281 333
#     4  10  21  38  58  83 114 149 188 230 278 329
#
# _framework density 19.096361000000002
#
# number of rings (size 3 to 8) (size 9 to 14) (size 15 to 20)
#    0.000    2.000    0.000    4.500    0.000    9.333 
#    0.000    1.667    0.000    0.000    0.000    0.000 
#    0.000    0.000    0.000    0.000    0.000    0.000 
#
# Total GULP energy -595331.864818 kJ/mol
# GULP energy per Si atom -12402.747184 kJ/mol
# Density = 1.905290 g / cm^3
# Si number density = 19.096361 Si / 1000 Ang^3
#
#
#
# Elastic Constant Matrix: (Units=GPa)
#
#
# Indices 1 2 3 4 5 6 
#
# 1 120.1743 55.2375 70.6326 0.0000 0.0000 0.0000
# 2 55.2375 111.4779 54.3069 0.0000 0.0000 0.0000
# 3 70.6326 54.3069 105.1937 0.0000 0.0000 0.0000
# 4 0.0000 0.0000 0.0000 31.2676 0.0000 0.0000
# 5 0.0000 0.0000 0.0000 0.0000 40.1073 0.0000
# 6 0.0000 0.0000 0.0000 0.0000 0.0000 37.9089
#
#
#
# Elastic Compliance Matrix: (Units=1/GPa)
#
#
# Indices 1 2 3 4 5 6 
#
# 1 0.014593 -0.003283 -0.008104 0.000000 0.000000 0.000000
# 2 -0.003283 0.012723 -0.004364 0.000000 0.000000 0.000000
# 3 -0.008104 -0.004364 0.017200 0.000000 0.000000 0.000000
# 4 0.000000 0.000000 0.000000 0.031982 0.000000 0.000000
# 5 0.000000 0.000000 0.000000 0.000000 0.024933 0.000000
# 6 0.000000 0.000000 0.000000 0.000000 0.000000 0.026379
#
#
# Mechanical properties :
#
#
# Convention : Reuss Voigt Hill
#
# Bulk Modulus (GPa) = 76.83323 77.46666 77.14994
# Shear Modulus (GPa) = 30.55278 32.30134 31.42706
#
# Velocity S-wave (km/s) = 4.00425 4.11724 4.06114
# Velocity P-wave (km/s) = 7.85497 7.95339 7.90433
#
# Compressibility (1/GPa) = 0.01301520
#
# Stress axis : x y z
#
# Youngs Moduli (GPa) = 68.52416 78.59713 58.13810
#
# Poissons Ratio (x) = 0.25806 0.47114
# Poissons Ratio (y) = 0.22498 0.25370
# Poissons Ratio (z) = 0.55530 0.34298
#
# Static dielectric constant tensor:
#      x y z
#    x 3.635140 0.000000 0.000000 
#    y 0.000000 3.431240 0.000000 
#    z 0.000000 0.000000 4.106220 
# 
# 
# High freq. dielectric constant tensor:
#      x y z
#    x 1.756610 0.000000 0.000000 
#    y 0.000000 1.744390 0.000000 
#    z 0.000000 0.000000 1.739500 
# 
# From -- ./inp_files/10127.got.cif
#   From: 2010.03.12/outbox.cif.g09.slc.cpg/sg62_6_cif.got.tgz:10127.got - 2010.04.10 19:12:36.
