data_PCOD8253271
_publ_section_title
;
Structure prediction by ZEFSAII (Michael W. Deem and Ramdas Pophale) SiO2 
 PCOD8253271
Probable space group: P N M A
;
_chemical_formula_sum "Si O2"
_cell_formula_units_Z 40
_cell_length_a 12.432975
_cell_length_b 8.741014
_cell_length_c 18.494040
_cell_angle_alpha 90.000000
_cell_angle_beta 90.000000
_cell_angle_gamma 90.000000
_cell_volume 2009.873244
_symmetry_space_group_name_H-M "P N M A"
_symmetry_group_IT_number 62
_symmetry_cell_setting 'orthorhombic'
loop_
_space_group_symop_operation_xyz
x,y,z
1/2-x,-y,1/2+z
1/2+x,1/2-y,1/2-z
-x,1/2+y,-z
-x,-y,-z
1/2+x,y,1/2-z
1/2-x,1/2+y,1/2+z
x,1/2-y,z
loop_
_atom_site_type_symbol
_atom_site_label
_atom_site_fract_x
_atom_site_fract_y
_atom_site_fract_z
Si Si1 0.048897 0.570251 0.571895
Si Si2 0.955830 0.431164 0.848666
Si Si3 0.099645 0.927483 0.310423
Si Si4 0.188414 0.427356 0.894678
Si Si5 0.770023 0.430745 0.952872
O O1 0.053956 0.750000 0.561342
O O2 0.167816 0.506330 0.585557
O O3 0.000000 0.500000 0.500000
O O4 0.976289 0.528800 0.639836
O O5 0.957275 0.250000 0.848133
O O6 0.915464 0.489577 0.770841
O O7 0.875447 0.491243 0.910725
O O8 0.075342 0.493016 0.865396
O O9 0.066045 0.750000 0.318194
O O10 0.224008 0.950756 0.331810
O O11 0.179262 0.250000 0.917232
O O12 0.224273 0.522898 0.963861
O O13 0.758017 0.250000 0.946784
#
# Coordination Sequence:
#
# PCOD8253271 Si02
#       5
#     8   8   8   8   8
#     4  12  24  40  61  88 119 155 200 248 302 355
#     4   9  21  38  61  92 121 161 203 243 297 361
#     4  10  21  38  62  89 120 157 201 249 298 353
#     4  10  20  37  61  88 122 159 202 248 295 349
#     4  11  22  38  63  91 121 157 203 247 297 358
#
# _framework density 19.901751999999998
#
# number of rings (size 3 to 8) (size 9 to 14) (size 15 to 20)
#    0.000    1.600    2.000    3.000    2.800    0.000 
#    0.000    4.000    0.000    0.000    0.000    0.000 
#    0.000    0.000    0.000    0.000    0.000    0.000 
#
# Total GULP energy -496175.510544 kJ/mol
# GULP energy per Si atom -12404.387764 kJ/mol
# Density = 1.985645 g / cm^3
# Si number density = 19.901752 Si / 1000 Ang^3
#
#
#
# Elastic Constant Matrix: (Units=GPa)
#
#
# Indices 1 2 3 4 5 6 
#
# 1 149.6895 38.4775 30.5223 0.0000 0.0000 0.0000
# 2 38.4775 81.2291 21.9219 0.0000 0.0000 0.0000
# 3 30.5223 21.9219 83.1179 0.0000 0.0000 0.0000
# 4 0.0000 0.0000 0.0000 21.9875 0.0000 0.0000
# 5 0.0000 0.0000 0.0000 0.0000 37.1354 0.0000
# 6 0.0000 0.0000 0.0000 0.0000 0.0000 26.2658
#
#
#
# Elastic Compliance Matrix: (Units=1/GPa)
#
#
# Indices 1 2 3 4 5 6 
#
# 1 0.007923 -0.003195 -0.002067 0.000000 0.000000 0.000000
# 2 -0.003195 0.014543 -0.002662 0.000000 0.000000 0.000000
# 3 -0.002067 -0.002662 0.013492 0.000000 0.000000 0.000000
# 4 0.000000 0.000000 0.000000 0.045480 0.000000 0.000000
# 5 0.000000 0.000000 0.000000 0.000000 0.026928 0.000000
# 6 0.000000 0.000000 0.000000 0.000000 0.000000 0.038072
#
#
# Mechanical properties :
#
#
# Convention : Reuss Voigt Hill
#
# Bulk Modulus (GPa) = 49.72744 55.09778 52.41261
# Shear Modulus (GPa) = 29.58726 31.95207 30.76966
#
# Velocity S-wave (km/s) = 3.85991 4.01120 3.93629
# Velocity P-wave (km/s) = 6.70119 7.01413 6.85944
#
# Compressibility (1/GPa) = 0.02010962
#
# Stress axis : x y z
#
# Youngs Moduli (GPa) = 126.20999 68.76168 74.11684
#
# Poissons Ratio (x) = 0.21972 0.15318
# Poissons Ratio (y) = 0.40329 0.19731
# Poissons Ratio (z) = 0.26085 0.18306
#
# Static dielectric constant tensor:
#      x y z
#    x 3.936360 0.000000 0.000000 
#    y 0.000000 3.396870 0.000000 
#    z 0.000000 0.000000 3.706730 
# 
# 
# High freq. dielectric constant tensor:
#      x y z
#    x 1.796180 0.000000 0.000000 
#    y 0.000000 1.753310 0.000000 
#    z 0.000000 0.000000 1.779500 
# 
# From -- ./inp_files/22763.got.cif
#   From: 2010.03.12/outbox.cif.g09.slc.cpg/sg62_12_cif.got.tgz:22763.got - 2010.04.10 19:12:36.
