data_PCOD8253750
_publ_section_title
;
Structure prediction by ZEFSAII (Michael W. Deem and Ramdas Pophale) SiO2 
 PCOD8253750
Probable space group: P N M A
;
_chemical_formula_sum "Si O2"
_cell_formula_units_Z 56
_cell_length_a 12.515081
_cell_length_b 15.631692
_cell_length_c 13.619489
_cell_angle_alpha 90.000000
_cell_angle_beta 90.000000
_cell_angle_gamma 90.000000
_cell_volume 2664.406395
_symmetry_space_group_name_H-M "P N M A"
_symmetry_group_IT_number 62
_symmetry_cell_setting 'orthorhombic'
loop_
_space_group_symop_operation_xyz
x,y,z
1/2-x,-y,1/2+z
1/2+x,1/2-y,1/2-z
-x,1/2+y,-z
-x,-y,-z
1/2+x,y,1/2-z
1/2-x,1/2+y,1/2+z
x,1/2-y,z
loop_
_atom_site_type_symbol
_atom_site_label
_atom_site_fract_x
_atom_site_fract_y
_atom_site_fract_z
Si Si1 0.909662 0.153831 0.448833
Si Si2 0.140631 0.911444 0.156884
Si Si3 0.981297 0.154679 0.658590
Si Si4 0.494314 0.935009 0.668191
Si Si5 0.627224 0.348254 0.160850
Si Si6 0.835080 0.347312 0.053536
Si Si7 0.644132 0.002486 0.826357
O O1 0.871717 0.250000 0.413245
O O2 0.900867 0.149642 0.566472
O O3 0.032276 0.139135 0.417035
O O4 0.841027 0.074275 0.406599
O O5 0.087180 0.855366 0.242174
O O6 0.242474 0.958924 0.202105
O O7 0.056121 0.981628 0.118236
O O8 0.177256 0.856840 0.063413
O O9 0.034645 0.250000 0.661702
O O10 0.067826 0.080664 0.641190
O O11 0.402856 0.892435 0.735908
O O12 0.545605 0.876684 0.583932
O O13 0.597847 0.958133 0.731035
O O14 0.645801 0.250000 0.186408
O O15 0.733983 0.390129 0.111424
O O16 0.827201 0.250000 0.082192
#
# Coordination Sequence:
#
# PCOD8253750 Si02
#       7
#     8   8   8   8   8   8   8
#     4   9  18  35  59  88 119 148 186 243 301 351
#     4  11  23  37  55  82 117 156 197 234 282 347
#     4  10  21  37  58  86 120 155 193 240 293 350
#     4  10  21  38  56  82 114 147 183 234 293 346
#     4   9  18  34  59  87 109 137 185 238 289 341
#     4  11  22  37  58  81 110 149 191 238 288 344
#     4  10  21  36  60  86 114 152 194 241 292 349
#
# _framework density 21.017814000000001
#
# number of rings (size 3 to 8) (size 9 to 14) (size 15 to 20)
#    0.000    2.000    0.000    3.429    0.000    6.286 
#    0.000    1.429    0.000    4.286    0.000    0.000 
#    0.000    0.000    0.000    0.000    0.000    0.000 
#
# Total GULP energy -693991.349696 kJ/mol
# GULP energy per Si atom -12392.702673 kJ/mol
# Density = 2.096998 g / cm^3
# Si number density = 21.017814 Si / 1000 Ang^3
#
#
#
# Elastic Constant Matrix: (Units=GPa)
#
#
# Indices 1 2 3 4 5 6 
#
# 1 41.5493 13.8109 17.0176 0.0000 0.0000 0.0000
# 2 13.8109 104.7307 23.2504 0.0000 0.0000 0.0000
# 3 17.0176 23.2504 53.8817 0.0000 0.0000 0.0000
# 4 0.0000 0.0000 0.0000 28.2572 0.0000 0.0000
# 5 0.0000 0.0000 0.0000 0.0000 17.1065 0.0000
# 6 0.0000 0.0000 0.0000 0.0000 0.0000 20.0530
#
#
#
# Elastic Compliance Matrix: (Units=1/GPa)
#
#
# Indices 1 2 3 4 5 6 
#
# 1 0.027985 -0.001911 -0.008014 0.000000 0.000000 0.000000
# 2 -0.001911 0.010690 -0.004009 0.000000 0.000000 0.000000
# 3 -0.008014 -0.004009 0.022820 0.000000 0.000000 0.000000
# 4 0.000000 0.000000 0.000000 0.035389 0.000000 0.000000
# 5 0.000000 0.000000 0.000000 0.000000 0.058457 0.000000
# 6 0.000000 0.000000 0.000000 0.000000 0.000000 0.049868
#
#
# Mechanical properties :
#
#
# Convention : Reuss Voigt Hill
#
# Bulk Modulus (GPa) = 29.73810 34.25772 31.99791
# Shear Modulus (GPa) = 20.46755 22.82218 21.64487
#
# Velocity S-wave (km/s) = 3.12399 3.29880 3.21258
# Velocity P-wave (km/s) = 5.21461 5.55375 5.38685
#
# Compressibility (1/GPa) = 0.03362689
#
# Stress axis : x y z
#
# Youngs Moduli (GPa) = 35.73280 93.54163 43.82057
#
# Poissons Ratio (x) = 0.17879 0.35118
# Poissons Ratio (y) = 0.06830 0.17569
# Poissons Ratio (z) = 0.28636 0.37504
#
# Static dielectric constant tensor:
#      x y z
#    x 3.646650 0.000000 0.000000 
#    y 0.000000 4.016610 0.000000 
#    z 0.000000 0.000000 3.612380 
# 
# 
# High freq. dielectric constant tensor:
#      x y z
#    x 1.804890 0.000000 0.000000 
#    y 0.000000 1.832090 0.000000 
#    z 0.000000 0.000000 1.816980 
# 
# From -- ./inp_files/18087.got.cif
#   From: 2010.03.12/outbox.cif.g09.slc.cpg/sg62_10_cif.got.tgz:18087.got - 2010.04.10 19:12:36.
