data_PCOD8253702
_publ_section_title
;
Structure prediction by ZEFSAII (Michael W. Deem and Ramdas Pophale) SiO2 
 PCOD8253702
Probable space group: P N M A
;
_chemical_formula_sum "Si O2"
_cell_formula_units_Z 64
_cell_length_a 9.724481
_cell_length_b 13.245368
_cell_length_c 27.298817
_cell_angle_alpha 90.000000
_cell_angle_beta 90.000000
_cell_angle_gamma 90.000000
_cell_volume 3516.205819
_symmetry_space_group_name_H-M "P N M A"
_symmetry_group_IT_number 62
_symmetry_cell_setting 'orthorhombic'
loop_
_space_group_symop_operation_xyz
x,y,z
1/2-x,-y,1/2+z
1/2+x,1/2-y,1/2-z
-x,1/2+y,-z
-x,-y,-z
1/2+x,y,1/2-z
1/2-x,1/2+y,1/2+z
x,1/2-y,z
loop_
_atom_site_type_symbol
_atom_site_label
_atom_site_fract_x
_atom_site_fract_y
_atom_site_fract_z
Si Si1 0.652933 0.135566 0.447683
Si Si2 0.157093 0.634903 0.938151
Si Si3 0.129968 0.540306 0.841048
Si Si4 0.295416 0.133975 0.879892
Si Si5 0.773457 0.508181 0.261724
Si Si6 0.659009 0.366534 0.336927
Si Si7 0.148864 0.975393 0.478729
Si Si8 0.540962 0.633163 0.218550
O O1 0.647629 0.250000 0.466129
O O2 0.496579 0.091617 0.449865
O O3 0.711536 0.129626 0.392541
O O4 0.759111 0.077602 0.480826
O O5 0.167123 0.750000 0.953399
O O6 0.185390 0.623114 0.879862
O O7 0.275080 0.580039 0.968247
O O8 0.158473 0.429528 0.865392
O O9 0.208063 0.549212 0.789825
O O10 0.971712 0.561200 0.830712
O O11 0.250361 0.250000 0.886386
O O12 0.362289 0.093327 0.930211
O O13 0.408122 0.121384 0.837291
O O14 0.770051 0.418329 0.301549
O O15 0.637264 0.576224 0.257608
O O16 0.892049 0.584975 0.276539
O O17 0.629506 0.250000 0.321589
O O18 0.000000 0.000000 0.500000
O O19 0.532985 0.750000 0.233806
#
# Coordination Sequence:
#
# PCOD8253702 Si02
#       8
#     8   8   8   8   8   8   8   8
#     4   9  19  37  59  77 103 147 192 235 280 331
#     4   9  19  37  59  80 107 145 191 234 278 330
#     4   9  18  36  57  82 108 147 188 234 278 335
#     4   9  20  37  57  82 115 151 189 234 285 339
#     4  11  20  36  58  83 114 148 190 229 279 342
#     4  10  21  36  56  82 115 149 189 239 284 333
#     4  11  22  34  57  85 116 151 181 232 288 344
#     4  10  21  37  58  82 112 150 188 232 281 333
#
# _framework density 18.201439000000001
#
# number of rings (size 3 to 8) (size 9 to 14) (size 15 to 20)
#    0.000    2.250    1.250    2.250    1.750    2.500 
#    0.000    0.000    0.000    0.000    0.000    0.000 
#    0.000    0.000    0.000    0.000    0.000    0.000 
#
# Total GULP energy -793307.559905 kJ/mol
# GULP energy per Si atom -12395.430624 kJ/mol
# Density = 1.816001 g / cm^3
# Si number density = 18.201439 Si / 1000 Ang^3
#
#
#
# Elastic Constant Matrix: (Units=GPa)
#
#
# Indices 1 2 3 4 5 6 
#
# 1 84.9803 54.1359 49.5953 0.0000 0.0000 0.0000
# 2 54.1359 101.4364 55.3281 0.0000 0.0000 0.0000
# 3 49.5953 55.3281 92.6383 0.0000 0.0000 0.0000
# 4 0.0000 0.0000 0.0000 23.3877 0.0000 0.0000
# 5 0.0000 0.0000 0.0000 0.0000 18.6125 0.0000
# 6 0.0000 0.0000 0.0000 0.0000 0.0000 26.9708
#
#
#
# Elastic Compliance Matrix: (Units=1/GPa)
#
#
# Indices 1 2 3 4 5 6 
#
# 1 0.020145 -0.007221 -0.006472 0.000000 0.000000 0.000000
# 2 -0.007221 0.017210 -0.006413 0.000000 0.000000 0.000000
# 3 -0.006472 -0.006413 0.018090 0.000000 0.000000 0.000000
# 4 0.000000 0.000000 0.000000 0.042757 0.000000 0.000000
# 5 0.000000 0.000000 0.000000 0.000000 0.053727 0.000000
# 6 0.000000 0.000000 0.000000 0.000000 0.000000 0.037077
#
#
# Mechanical properties :
#
#
# Convention : Reuss Voigt Hill
#
# Bulk Modulus (GPa) = 65.64830 66.35262 66.00046
# Shear Modulus (GPa) = 21.34060 21.79391 21.56725
#
# Velocity S-wave (km/s) = 3.42785 3.46406 3.44600
# Velocity P-wave (km/s) = 7.19811 7.24799 7.22309
#
# Compressibility (1/GPa) = 0.01523269
#
# Stress axis : x y z
#
# Youngs Moduli (GPa) = 49.64120 58.10580 55.28029
#
# Poissons Ratio (x) = 0.41957 0.35778
# Poissons Ratio (y) = 0.35845 0.35450
# Poissons Ratio (z) = 0.32128 0.37262
#
# Static dielectric constant tensor:
#      x y z
#    x 3.256790 0.000000 0.000000 
#    y 0.000000 3.406010 0.000000 
#    z 0.000000 0.000000 3.506750 
# 
# 
# High freq. dielectric constant tensor:
#      x y z
#    x 1.690490 0.000000 0.000000 
#    y 0.000000 1.708340 0.000000 
#    z 0.000000 0.000000 1.713660 
# 
# From -- ./inp_files/32267.got.cif
#   From: 2010.03.12/outbox.cif.g09.slc.cpg/sg62_17_cif.got.tgz:32267.got - 2010.04.10 19:12:36.
