data_PCOD8253945
_publ_section_title
;
Structure prediction by ZEFSAII (Michael W. Deem and Ramdas Pophale) SiO2 
 PCOD8253945
Probable space group: P N M A
;
_chemical_formula_sum "Si O2"
_cell_formula_units_Z 64
_cell_length_a 14.727659
_cell_length_b 11.944272
_cell_length_c 18.751569
_cell_angle_alpha 90.000000
_cell_angle_beta 90.000000
_cell_angle_gamma 90.000000
_cell_volume 3298.610349
_symmetry_space_group_name_H-M "P N M A"
_symmetry_group_IT_number 62
_symmetry_cell_setting 'orthorhombic'
loop_
_space_group_symop_operation_xyz
x,y,z
1/2-x,-y,1/2+z
1/2+x,1/2-y,1/2-z
-x,1/2+y,-z
-x,-y,-z
1/2+x,y,1/2-z
1/2-x,1/2+y,1/2+z
x,1/2-y,z
loop_
_atom_site_type_symbol
_atom_site_label
_atom_site_fract_x
_atom_site_fract_y
_atom_site_fract_z
Si Si1 0.192362 0.472473 0.920202
Si Si2 0.165714 0.379724 0.670196
Si Si3 0.798730 0.120423 0.708774
Si Si4 0.014336 0.872112 0.557807
Si Si5 0.349694 0.955132 0.015014
Si Si6 0.458165 0.375863 0.344304
Si Si7 0.952620 0.878486 0.984162
Si Si8 0.510570 0.998097 0.203177
O O1 0.245159 0.394959 0.864735
O O2 0.123290 0.552837 0.878634
O O3 0.144678 0.389908 0.977823
O O4 0.264129 0.548484 0.962687
O O5 0.179632 0.250000 0.660098
O O6 0.237945 0.427507 0.726632
O O7 0.185677 0.437046 0.594844
O O8 0.064983 0.401601 0.700084
O O9 0.820614 0.250000 0.719294
O O10 0.891439 0.053943 0.711483
O O11 0.048996 0.750000 0.577580
O O12 0.095159 0.927728 0.511986
O O13 0.923180 0.862775 0.509731
O O14 0.991789 0.934997 0.630194
O O15 0.421772 0.250000 0.332582
O O16 0.545164 0.375979 0.398022
O O17 0.491056 0.421878 0.269289
O O18 0.990760 0.750000 0.007618
O O19 0.000000 0.000000 0.000000
#
# Coordination Sequence:
#
# PCOD8253945 Si02
#       8
#     8   8   8   8   8   8   8   8
#     4  11  21  41  63  91 122 157 210 261 312 377
#     4  10  22  40  61  87 123 161 203 256 311 369
#     4  11  23  39  62  92 122 162 209 258 313 374
#     4  10  21  38  59  85 118 159 200 242 302 360
#     4  10  22  38  59  89 119 155 199 254 302 363
#     4  10  22  40  63  89 125 165 204 255 314 380
#     4   9  20  38  61  89 122 161 202 253 311 370
#     4  11  21  40  62  87 122 162 206 252 306 370
#
# _framework density 19.402107999999998
#
# number of rings (size 3 to 8) (size 9 to 14) (size 15 to 20)
#    0.000    1.750    2.500    1.500    1.750    2.000 
#    0.000    0.625    0.000    0.000    0.000    0.000 
#    0.000    0.000    0.000    0.000    0.000    0.000 
#
# Total GULP energy -792885.188964 kJ/mol
# GULP energy per Si atom -12388.831078 kJ/mol
# Density = 1.935795 g / cm^3
# Si number density = 19.402108 Si / 1000 Ang^3
#
#
#
# Elastic Constant Matrix: (Units=GPa)
#
#
# Indices 1 2 3 4 5 6 
#
# 1 97.6500 35.5961 42.9533 0.0000 0.0000 0.0000
# 2 35.5961 94.2518 18.3626 0.0000 0.0000 0.0000
# 3 42.9533 18.3626 100.0927 0.0000 0.0000 0.0000
# 4 0.0000 0.0000 0.0000 15.4987 0.0000 0.0000
# 5 0.0000 0.0000 0.0000 0.0000 31.6497 0.0000
# 6 0.0000 0.0000 0.0000 0.0000 0.0000 10.9078
#
#
#
# Elastic Compliance Matrix: (Units=1/GPa)
#
#
# Indices 1 2 3 4 5 6 
#
# 1 0.014131 -0.004310 -0.005274 0.000000 0.000000 0.000000
# 2 -0.004310 0.012317 -0.000410 0.000000 0.000000 0.000000
# 3 -0.005274 -0.000410 0.012329 0.000000 0.000000 0.000000
# 4 0.000000 0.000000 0.000000 0.064522 0.000000 0.000000
# 5 0.000000 0.000000 0.000000 0.000000 0.031596 0.000000
# 6 0.000000 0.000000 0.000000 0.000000 0.000000 0.091677
#
#
# Mechanical properties :
#
#
# Convention : Reuss Voigt Hill
#
# Bulk Modulus (GPa) = 53.21745 53.97985 53.59865
# Shear Modulus (GPa) = 19.77666 24.61674 22.19670
#
# Velocity S-wave (km/s) = 3.19612 3.56584 3.38603
# Velocity P-wave (km/s) = 6.41159 6.69594 6.55531
#
# Compressibility (1/GPa) = 0.01879083
#
# Stress axis : x y z
#
# Youngs Moduli (GPa) = 70.76481 81.18592 81.10883
#
# Poissons Ratio (x) = 0.34987 0.42774
# Poissons Ratio (y) = 0.30496 0.03328
# Poissons Ratio (z) = 0.37319 0.03331
#
# Static dielectric constant tensor:
#      x y z
#    x 3.570250 0.000000 0.000000 
#    y 0.000000 3.723900 0.000000 
#    z 0.000000 0.000000 3.836980 
# 
# 
# High freq. dielectric constant tensor:
#      x y z
#    x 1.745010 0.000000 0.000000 
#    y 0.000000 1.756840 0.000000 
#    z 0.000000 0.000000 1.770640 
# 
# From -- ./inp_files/24030.got.cif
#   From: 2010.03.12/outbox.cif.g09.slc.cpg/sg62_13_cif.got.tgz:24030.got - 2010.04.10 19:12:36.
