data_PCOD8253555
_publ_section_title
;
Structure prediction by ZEFSAII (Michael W. Deem and Ramdas Pophale) SiO2 
 PCOD8253555
Probable space group: P N M A
;
_chemical_formula_sum "Si O2"
_cell_formula_units_Z 64
_cell_length_a 24.100235
_cell_length_b 8.724649
_cell_length_c 15.320660
_cell_angle_alpha 90.000000
_cell_angle_beta 90.000000
_cell_angle_gamma 90.000000
_cell_volume 3221.415293
_symmetry_space_group_name_H-M "P N M A"
_symmetry_group_IT_number 62
_symmetry_cell_setting 'orthorhombic'
loop_
_space_group_symop_operation_xyz
x,y,z
1/2-x,-y,1/2+z
1/2+x,1/2-y,1/2-z
-x,1/2+y,-z
-x,-y,-z
1/2+x,y,1/2-z
1/2-x,1/2+y,1/2+z
x,1/2-y,z
loop_
_atom_site_type_symbol
_atom_site_label
_atom_site_fract_x
_atom_site_fract_y
_atom_site_fract_z
Si Si1 0.429685 0.067347 0.249332
Si Si2 0.264361 0.575552 0.578953
Si Si3 0.878295 0.427703 0.651022
Si Si4 0.506637 0.069341 0.405328
Si Si5 0.508144 0.069682 0.094574
Si Si6 0.230064 0.429308 0.406665
Si Si7 0.877145 0.576054 0.827797
Si Si8 0.195750 0.931873 0.746482
O O1 0.429966 0.250000 0.249057
O O2 0.460239 0.007725 0.337266
O O3 0.462051 0.007352 0.163133
O O4 0.366957 0.001803 0.248141
O O5 0.247502 0.750000 0.554363
O O6 0.258496 0.460445 0.498829
O O7 0.328936 0.568302 0.601579
O O8 0.226337 0.514539 0.658404
O O9 0.891153 0.250000 0.635843
O O10 0.931874 0.526934 0.629787
O O11 0.827670 0.479210 0.590168
O O12 0.860618 0.462953 0.749882
O O13 0.502675 0.250000 0.413976
O O14 0.566342 0.017083 0.370497
O O15 0.500000 0.000000 0.500000
O O16 0.502927 0.250000 0.086208
O O17 0.500000 0.000000 0.000000
O O18 0.218398 0.250000 0.393422
O O19 0.270034 0.493151 0.329976
O O20 0.883596 0.750000 0.791906
O O21 0.194038 0.750000 0.750764
#
# Coordination Sequence:
#
# PCOD8253555 Si02
#       8
#     8   8   8   8   8   8   8   8
#     4   9  19  37  60  85 119 160 199 240 295 360
#     4  10  21  38  61  87 120 157 200 249 304 365
#     4  12  24  40  64  90 119 158 210 262 308 362
#     4  10  21  37  59  86 120 160 201 246 300 358
#     4  11  23  41  64  91 125 162 205 254 309 369
#     4  11  23  40  62  89 123 161 202 250 307 367
#     4  10  20  40  63  85 119 163 203 250 310 363
#     4   9  19  37  60  85 118 159 197 241 300 360
#
# _framework density 19.867044
#
# number of rings (size 3 to 8) (size 9 to 14) (size 15 to 20)
#    0.000    1.750    2.500    1.875    3.500    1.000 
#    0.000    0.000    0.000    3.750    0.000    0.000 
#    0.000    0.000    0.000    0.000    0.000    0.000 
#
# Total GULP energy -793730.879717 kJ/mol
# GULP energy per Si atom -12402.044996 kJ/mol
# Density = 1.982183 g / cm^3
# Si number density = 19.867044 Si / 1000 Ang^3
#
#
#
# Elastic Constant Matrix: (Units=GPa)
#
#
# Indices 1 2 3 4 5 6 
#
# 1 137.7664 14.8696 42.9045 0.0000 0.0000 0.0000
# 2 14.8696 39.8977 23.9025 0.0000 0.0000 0.0000
# 3 42.9045 23.9025 130.0112 0.0000 0.0000 0.0000
# 4 0.0000 0.0000 0.0000 35.7970 0.0000 0.0000
# 5 0.0000 0.0000 0.0000 0.0000 29.4720 0.0000
# 6 0.0000 0.0000 0.0000 0.0000 0.0000 18.3907
#
#
#
# Elastic Compliance Matrix: (Units=1/GPa)
#
#
# Indices 1 2 3 4 5 6 
#
# 1 0.008181 -0.001609 -0.002404 0.000000 0.000000 0.000000
# 2 -0.001609 0.028483 -0.004706 0.000000 0.000000 0.000000
# 3 -0.002404 -0.004706 0.009350 0.000000 0.000000 0.000000
# 4 0.000000 0.000000 0.000000 0.027935 0.000000 0.000000
# 5 0.000000 0.000000 0.000000 0.000000 0.033931 0.000000
# 6 0.000000 0.000000 0.000000 0.000000 0.000000 0.054375
#
#
# Mechanical properties :
#
#
# Convention : Reuss Voigt Hill
#
# Bulk Modulus (GPa) = 34.99309 52.33651 43.66480
# Shear Modulus (GPa) = 26.42462 31.79852 29.11157
#
# Velocity S-wave (km/s) = 3.65097 4.00505 3.83210
# Velocity P-wave (km/s) = 5.95186 6.91287 6.45029
#
# Compressibility (1/GPa) = 0.02857707
#
# Stress axis : x y z
#
# Youngs Moduli (GPa) = 122.23471 35.10887 106.95062
#
# Poissons Ratio (x) = 0.05648 0.25711
# Poissons Ratio (y) = 0.19665 0.50327
# Poissons Ratio (z) = 0.29385 0.16521
#
# Static dielectric constant tensor:
#      x y z
#    x 4.033150 0.000000 0.000000 
#    y 0.000000 3.884790 0.000000 
#    z 0.000000 0.000000 3.550510 
# 
# 
# High freq. dielectric constant tensor:
#      x y z
#    x 1.790940 0.000000 0.000000 
#    y 0.000000 1.742440 0.000000 
#    z 0.000000 0.000000 1.782580 
# 
# From -- ./inp_files/20785.got.cif
#   From: 2010.03.12/outbox.cif.g09.slc.cpg/sg62_11_cif.got.tgz:20785.got - 2010.04.10 19:12:36.
