data_PCOD8253285
_publ_section_title
;
Structure prediction by ZEFSAII (Michael W. Deem and Ramdas Pophale) SiO2 
 PCOD8253285
Probable space group: P N M A
;
_chemical_formula_sum "Si O2"
_cell_formula_units_Z 48
_cell_length_a 14.926839
_cell_length_b 9.123524
_cell_length_c 18.671537
_cell_angle_alpha 90.000000
_cell_angle_beta 90.000000
_cell_angle_gamma 90.000000
_cell_volume 2542.790247
_symmetry_space_group_name_H-M "P N M A"
_symmetry_group_IT_number 62
_symmetry_cell_setting 'orthorhombic'
loop_
_space_group_symop_operation_xyz
x,y,z
1/2-x,-y,1/2+z
1/2+x,1/2-y,1/2-z
-x,1/2+y,-z
-x,-y,-z
1/2+x,y,1/2-z
1/2-x,1/2+y,1/2+z
x,1/2-y,z
loop_
_atom_site_type_symbol
_atom_site_label
_atom_site_fract_x
_atom_site_fract_y
_atom_site_fract_z
Si Si1 0.744588 0.575888 0.416748
Si Si2 0.640611 0.577281 0.683266
Si Si3 0.090693 0.576982 0.977374
Si Si4 0.056557 0.420627 0.559724
Si Si5 0.499248 0.419220 0.781127
Si Si6 0.797301 0.077967 0.757694
O O1 0.744767 0.750000 0.415569
O O2 0.669924 0.517234 0.471573
O O3 0.841909 0.517559 0.440812
O O4 0.723552 0.518004 0.337125
O O5 0.649610 0.750000 0.691776
O O6 0.614568 0.531976 0.603096
O O7 0.565108 0.520133 0.736439
O O8 0.735854 0.505184 0.700708
O O9 0.078207 0.750000 0.986161
O O10 0.000000 0.500000 0.000000
O O11 0.056282 0.250000 0.541815
O O12 0.000000 0.500000 0.500000
O O13 0.011364 0.453499 0.635653
O O14 0.521829 0.250000 0.764073
O O15 0.399083 0.460437 0.759820
O O16 0.777507 0.250000 0.751355
#
# Coordination Sequence:
#
# PCOD8253285 Si02
#       6
#     8   8   8   8   8   8
#     4   9  18  37  60  80 111 152 188 225 281 344
#     4  11  23  37  57  88 122 150 186 240 297 348
#     4  10  22  39  59  85 115 152 192 235 289 344
#     4  10  21  37  57  83 114 150 193 237 282 341
#     4  10  21  39  63  86 112 151 199 241 282 343
#     4  10  20  37  62  85 109 148 195 239 282 340
#
# _framework density 18.876901
#
# number of rings (size 3 to 8) (size 9 to 14) (size 15 to 20)
#    0.000    2.000    1.667    1.500    2.333    4.000 
#    0.000    1.667    0.000    0.000    0.000    0.000 
#    0.000    0.000    0.000    0.000    0.000    0.000 
#
# Total GULP energy -595369.393104 kJ/mol
# GULP energy per Si atom -12403.529023 kJ/mol
# Density = 1.883394 g / cm^3
# Si number density = 18.876901 Si / 1000 Ang^3
#
#
#
# Elastic Constant Matrix: (Units=GPa)
#
#
# Indices 1 2 3 4 5 6 
#
# 1 114.4322 17.1557 25.8645 0.0000 0.0000 0.0000
# 2 17.1557 32.8896 17.1237 0.0000 0.0000 0.0000
# 3 25.8645 17.1237 69.6169 0.0000 0.0000 0.0000
# 4 0.0000 0.0000 0.0000 25.3143 0.0000 0.0000
# 5 0.0000 0.0000 0.0000 0.0000 43.4096 0.0000
# 6 0.0000 0.0000 0.0000 0.0000 0.0000 30.0179
#
#
#
# Elastic Compliance Matrix: (Units=1/GPa)
#
#
# Indices 1 2 3 4 5 6 
#
# 1 0.009925 -0.003735 -0.002768 0.000000 0.000000 0.000000
# 2 -0.003735 0.036276 -0.007535 0.000000 0.000000 0.000000
# 3 -0.002768 -0.007535 0.017246 0.000000 0.000000 0.000000
# 4 0.000000 0.000000 0.000000 0.039503 0.000000 0.000000
# 5 0.000000 0.000000 0.000000 0.000000 0.023036 0.000000
# 6 0.000000 0.000000 0.000000 0.000000 0.000000 0.033313
#
#
# Mechanical properties :
#
#
# Convention : Reuss Voigt Hill
#
# Bulk Modulus (GPa) = 28.27316 37.46963 32.87139
# Shear Modulus (GPa) = 25.10442 30.20133 27.65288
#
# Velocity S-wave (km/s) = 3.65074 4.00423 3.83156
# Velocity P-wave (km/s) = 5.72544 6.42425 6.08489
#
# Compressibility (1/GPa) = 0.03536924
#
# Stress axis : x y z
#
# Youngs Moduli (GPa) = 100.76017 27.56617 57.98355
#
# Poissons Ratio (x) = 0.10297 0.16052
# Poissons Ratio (y) = 0.37638 0.43691
# Poissons Ratio (z) = 0.27895 0.20771
#
# Static dielectric constant tensor:
#      x y z
#    x 3.759820 0.000000 0.000000 
#    y 0.000000 3.140470 0.000000 
#    z 0.000000 0.000000 3.650770 
# 
# 
# High freq. dielectric constant tensor:
#      x y z
#    x 1.752780 0.000000 0.000000 
#    y 0.000000 1.708360 0.000000 
#    z 0.000000 0.000000 1.746890 
# 
# From -- ./inp_files/23651.got.cif
#   From: 2010.03.12/outbox.cif.g09.slc.cpg/sg62_12_cif.got.tgz:23651.got - 2010.04.10 19:12:36.
