data_PCOD8253834
_publ_section_title
;
Structure prediction by ZEFSAII (Michael W. Deem and Ramdas Pophale) SiO2 
 PCOD8253834
Probable space group: P N M A
;
_chemical_formula_sum "Si O2"
_cell_formula_units_Z 56
_cell_length_a 14.988748
_cell_length_b 8.672477
_cell_length_c 21.054837
_cell_angle_alpha 90.000000
_cell_angle_beta 90.000000
_cell_angle_gamma 90.000000
_cell_volume 2736.909256
_symmetry_space_group_name_H-M "P N M A"
_symmetry_group_IT_number 62
_symmetry_cell_setting 'orthorhombic'
loop_
_space_group_symop_operation_xyz
x,y,z
1/2-x,-y,1/2+z
1/2+x,1/2-y,1/2-z
-x,1/2+y,-z
-x,-y,-z
1/2+x,y,1/2-z
1/2-x,1/2+y,1/2+z
x,1/2-y,z
loop_
_atom_site_type_symbol
_atom_site_label
_atom_site_fract_x
_atom_site_fract_y
_atom_site_fract_z
Si Si1 0.424735 0.428967 0.692457
Si Si2 0.871132 0.926292 0.528132
Si Si3 0.265352 0.928213 0.769475
Si Si4 0.521401 0.068502 0.568283
Si Si5 0.070626 0.925918 0.725082
Si Si6 0.219359 0.431499 0.900920
Si Si7 0.968377 0.924330 0.402792
O O1 0.399928 0.250000 0.696669
O O2 0.344372 0.525617 0.722005
O O3 0.444920 0.478554 0.619357
O O4 0.515064 0.458730 0.731214
O O5 0.885298 0.750000 0.550273
O O6 0.888085 0.941807 0.453052
O O7 0.771166 0.982912 0.542150
O O8 0.937505 0.038828 0.565217
O O9 0.276592 0.750000 0.787555
O O10 0.174323 0.962783 0.732999
O O11 0.266275 0.024033 0.834542
O O12 0.525071 0.250000 0.560741
O O13 0.617167 0.009825 0.594802
O O14 0.500000 0.000000 0.500000
O O15 0.047410 0.750000 0.743088
O O16 0.047511 0.953661 0.652196
O O17 0.226264 0.250000 0.910416
O O18 0.972015 0.750000 0.376045
#
# Coordination Sequence:
#
# PCOD8253834 Si02
#       7
#     8   8   8   8   8   8   8
#     4  11  23  42  65  91 125 163 208 259 312 373
#     4  10  21  37  58  86 119 157 202 247 300 364
#     4  11  24  40  62  92 122 160 206 254 312 369
#     4  10  24  43  65  91 122 163 208 255 311 371
#     4  11  23  39  61  88 121 158 198 251 305 362
#     4  11  22  40  63  89 121 161 208 254 307 373
#     4  10  21  37  58  85 120 160 199 248 305 361
#
# _framework density 20.461037000000001
#
# number of rings (size 3 to 8) (size 9 to 14) (size 15 to 20)
#    0.000    1.429    1.429    3.429    0.000    6.857 
#    0.000    5.714    0.000    0.000    0.000    0.000 
#    0.000    0.000    0.000    0.000    0.000    0.000 
#
# Total GULP energy -694594.596650 kJ/mol
# GULP energy per Si atom -12403.474940 kJ/mol
# Density = 2.041447 g / cm^3
# Si number density = 20.461037 Si / 1000 Ang^3
#
#
#
# Elastic Constant Matrix: (Units=GPa)
#
#
# Indices 1 2 3 4 5 6 
#
# 1 93.3368 18.6329 36.0526 0.0000 0.0000 0.0000
# 2 18.6329 51.0072 22.2804 0.0000 0.0000 0.0000
# 3 36.0526 22.2804 110.2236 0.0000 0.0000 0.0000
# 4 0.0000 0.0000 0.0000 32.3061 0.0000 0.0000
# 5 0.0000 0.0000 0.0000 0.0000 30.2153 0.0000
# 6 0.0000 0.0000 0.0000 0.0000 0.0000 32.6127
#
#
#
# Elastic Compliance Matrix: (Units=1/GPa)
#
#
# Indices 1 2 3 4 5 6 
#
# 1 0.012694 -0.003097 -0.003526 0.000000 0.000000 0.000000
# 2 -0.003097 0.022259 -0.003487 0.000000 0.000000 0.000000
# 3 -0.003526 -0.003487 0.010931 0.000000 0.000000 0.000000
# 4 0.000000 0.000000 0.000000 0.030954 0.000000 0.000000
# 5 0.000000 0.000000 0.000000 0.000000 0.033096 0.000000
# 6 0.000000 0.000000 0.000000 0.000000 0.000000 0.030663
#
#
# Mechanical properties :
#
#
# Convention : Reuss Voigt Hill
#
# Bulk Modulus (GPa) = 38.96358 45.38885 42.17621
# Shear Modulus (GPa) = 29.52106 30.86693 30.19399
#
# Velocity S-wave (km/s) = 3.80253 3.88825 3.84563
# Velocity P-wave (km/s) = 6.19380 6.51070 6.35422
#
# Compressibility (1/GPa) = 0.02566499
#
# Stress axis : x y z
#
# Youngs Moduli (GPa) = 78.77663 44.92498 91.48671
#
# Poissons Ratio (x) = 0.13913 0.32259
# Poissons Ratio (y) = 0.24397 0.31897
# Poissons Ratio (z) = 0.27777 0.15663
#
# Static dielectric constant tensor:
#      x y z
#    x 3.824520 0.000000 0.000000 
#    y 0.000000 3.701790 0.000000 
#    z 0.000000 0.000000 3.774690 
# 
# 
# High freq. dielectric constant tensor:
#      x y z
#    x 1.801720 0.000000 0.000000 
#    y 0.000000 1.806170 0.000000 
#    z 0.000000 0.000000 1.801510 
# 
# From -- ./inp_files/27302.got.cif
#   From: 2010.03.12/outbox.cif.g09.slc.cpg/sg62_14_cif.got.tgz:27302.got - 2010.04.10 19:12:36.
