data_PCOD8253545
_publ_section_title
;
Structure prediction by ZEFSAII (Michael W. Deem and Ramdas Pophale) SiO2 
 PCOD8253545
Probable space group: P N M A
;
_chemical_formula_sum "Si O2"
_cell_formula_units_Z 48
_cell_length_a 9.581179
_cell_length_b 21.424698
_cell_length_c 10.209457
_cell_angle_alpha 90.000000
_cell_angle_beta 90.000000
_cell_angle_gamma 90.000000
_cell_volume 2095.734714
_symmetry_space_group_name_H-M "P N M A"
_symmetry_group_IT_number 62
_symmetry_cell_setting 'orthorhombic'
loop_
_space_group_symop_operation_xyz
x,y,z
1/2-x,-y,1/2+z
1/2+x,1/2-y,1/2-z
-x,1/2+y,-z
-x,-y,-z
1/2+x,y,1/2-z
1/2-x,1/2+y,1/2+z
x,1/2-y,z
loop_
_atom_site_type_symbol
_atom_site_label
_atom_site_fract_x
_atom_site_fract_y
_atom_site_fract_z
Si Si1 0.508850 0.818418 0.009406
Si Si2 0.855359 0.819837 0.765358
Si Si3 0.781598 0.180035 0.895556
Si Si4 0.608459 0.618136 0.647032
Si Si5 0.159945 0.908641 0.324549
Si Si6 0.056587 0.017569 0.854502
O O1 0.586060 0.750000 0.012962
O O2 0.385231 0.818229 0.116356
O O3 0.601834 0.880234 0.038283
O O4 0.430310 0.827051 0.872994
O O5 0.851182 0.750000 0.818522
O O6 0.695285 0.842427 0.755426
O O7 0.946917 0.860775 0.864500
O O8 0.839961 0.250000 0.925901
O O9 0.835984 0.155023 0.758371
O O10 0.830135 0.129379 0.003200
O O11 0.617926 0.547532 0.697629
O O12 0.312548 0.935590 0.355741
O O13 0.061653 0.958494 0.247684
O O14 0.000000 0.000000 0.000000
#
# Coordination Sequence:
#
# PCOD8253545 Si02
#       6
#     8   8   8   8   8   8
#     4   9  20  39  64  97 130 169 222 276 341 401
#     4  10  21  40  65  94 128 171 222 277 340 402
#     4  10  20  39  67  96 130 172 222 282 345 396
#     4  11  22  42  63  94 134 175 220 276 334 404
#     4  12  23  44  68  94 136 181 223 284 335 401
#     4  12  27  45  66 100 141 180 236 273 337 424
#
# _framework density 22.903663000000002
#
# number of rings (size 3 to 8) (size 9 to 14) (size 15 to 20)
#    0.000    1.333    3.333    4.000    0.000    2.667 
#    0.000    3.333    0.000    0.000    0.000    0.000 
#    0.000    0.000    0.000    0.000    0.000    0.000 
#
# Total GULP energy -594771.091493 kJ/mol
# GULP energy per Si atom -12391.064406 kJ/mol
# Density = 2.285153 g / cm^3
# Si number density = 22.903663 Si / 1000 Ang^3
#
#
#
# Elastic Constant Matrix: (Units=GPa)
#
#
# Indices 1 2 3 4 5 6 
#
# 1 92.1997 28.1169 13.4637 0.0000 0.0000 0.0000
# 2 28.1169 125.7401 17.9823 0.0000 0.0000 0.0000
# 3 13.4637 17.9823 23.5177 0.0000 0.0000 0.0000
# 4 0.0000 0.0000 0.0000 21.7276 0.0000 0.0000
# 5 0.0000 0.0000 0.0000 0.0000 30.0807 0.0000
# 6 0.0000 0.0000 0.0000 0.0000 0.0000 39.9222
#
#
#
# Elastic Compliance Matrix: (Units=1/GPa)
#
#
# Indices 1 2 3 4 5 6 
#
# 1 0.012247 -0.001949 -0.005521 0.000000 0.000000 0.000000
# 2 -0.001949 0.009239 -0.005949 0.000000 0.000000 0.000000
# 3 -0.005521 -0.005949 0.050231 0.000000 0.000000 0.000000
# 4 0.000000 0.000000 0.000000 0.046024 0.000000 0.000000
# 5 0.000000 0.000000 0.000000 0.000000 0.033244 0.000000
# 6 0.000000 0.000000 0.000000 0.000000 0.000000 0.025049
#
#
# Mechanical properties :
#
#
# Convention : Reuss Voigt Hill
#
# Bulk Modulus (GPa) = 22.28208 40.06479 31.17344
# Shear Modulus (GPa) = 22.95357 30.47241 26.71299
#
# Velocity S-wave (km/s) = 3.16916 3.65150 3.41885
# Velocity P-wave (km/s) = 4.81052 5.94211 5.40601
#
# Compressibility (1/GPa) = 0.04487911
#
# Stress axis : x y z
#
# Youngs Moduli (GPa) = 81.65568 108.23098 19.90814
#
# Poissons Ratio (x) = 0.21093 0.10991
# Poissons Ratio (y) = 0.15914 0.11843
# Poissons Ratio (z) = 0.45081 0.64387
#
# Static dielectric constant tensor:
#      x y z
#    x 4.475210 0.000000 0.000000 
#    y 0.000000 4.308230 0.000000 
#    z 0.000000 0.000000 3.890280 
# 
# 
# High freq. dielectric constant tensor:
#      x y z
#    x 1.908240 0.000000 0.000000 
#    y 0.000000 1.912840 0.000000 
#    z 0.000000 0.000000 1.888990 
# 
# From -- ./inp_files/11308.got.cif
#   From: 2010.03.12/outbox.cif.g09.slc.cpg/sg62_6_cif.got.tgz:11308.got - 2010.04.10 19:12:36.
