data_PCOD8253205
_publ_section_title
;
Structure prediction by ZEFSAII (Michael W. Deem and Ramdas Pophale) SiO2 
 PCOD8253205
Probable space group: P N M A
;
_chemical_formula_sum "Si O2"
_cell_formula_units_Z 64
_cell_length_a 15.261724
_cell_length_b 18.518759
_cell_length_c 11.548885
_cell_angle_alpha 90.000000
_cell_angle_beta 90.000000
_cell_angle_gamma 90.000000
_cell_volume 3264.040449
_symmetry_space_group_name_H-M "P N M A"
_symmetry_group_IT_number 62
_symmetry_cell_setting 'orthorhombic'
loop_
_space_group_symop_operation_xyz
x,y,z
1/2-x,-y,1/2+z
1/2+x,1/2-y,1/2-z
-x,1/2+y,-z
-x,-y,-z
1/2+x,y,1/2-z
1/2-x,1/2+y,1/2+z
x,1/2-y,z
loop_
_atom_site_type_symbol
_atom_site_label
_atom_site_fract_x
_atom_site_fract_y
_atom_site_fract_z
Si Si1 0.609631 0.668567 0.364783
Si Si2 0.620689 0.832688 0.097634
Si Si3 0.631573 0.044129 0.798535
Si Si4 0.538769 0.168826 0.453288
Si Si5 0.468453 0.581545 0.990942
Si Si6 0.031920 0.444361 0.240287
Si Si7 0.192938 0.401877 0.932909
Si Si8 0.812868 0.478419 0.888445
O O1 0.646391 0.750000 0.387936
O O2 0.588457 0.658346 0.229370
O O3 0.520084 0.655019 0.433727
O O4 0.679989 0.608462 0.405988
O O5 0.639685 0.750000 0.066253
O O6 0.707204 0.878752 0.075294
O O7 0.546515 0.862536 0.013054
O O8 0.649216 0.098620 0.693302
O O9 0.556572 0.987964 0.764564
O O10 0.721806 0.001533 0.825556
O O11 0.606634 0.091931 0.911862
O O12 0.530464 0.250000 0.407578
O O13 0.507162 0.117236 0.350806
O O14 0.639595 0.153583 0.486524
O O15 0.433755 0.592785 0.859678
O O16 0.500000 0.500000 0.000000
O O17 0.106581 0.497280 0.192476
O O18 0.184928 0.482041 0.987651
#
# Coordination Sequence:
#
# PCOD8253205 Si02
#       8
#     8   8   8   8   8   8   8   8
#     4  10  20  37  59  85 121 156 194 251 311 360
#     4  11  22  38  60  88 124 160 199 255 312 359
#     4  11  22  34  63  89 116 154 204 250 302 364
#     4  10  21  38  60  86 120 163 202 245 303 367
#     4  10  21  38  59  85 118 157 204 245 294 360
#     4  10  22  39  59  88 123 155 203 253 299 356
#     4  11  21  35  59  90 119 160 206 251 303 364
#     4  11  22  37  60  88 124 158 201 256 306 362
#
# _framework density 19.607600999999999
#
# number of rings (size 3 to 8) (size 9 to 14) (size 15 to 20)
#    0.000    1.500    1.250    5.625    1.750    2.500 
#    0.000    1.250    0.000    0.750    0.000    0.000 
#    0.000    0.000    0.000    0.000    0.000    0.000 
#
# Total GULP energy -793589.296710 kJ/mol
# GULP energy per Si atom -12399.832761 kJ/mol
# Density = 1.956297 g / cm^3
# Si number density = 19.607601 Si / 1000 Ang^3
#
#
#
# Elastic Constant Matrix: (Units=GPa)
#
#
# Indices 1 2 3 4 5 6 
#
# 1 110.9738 45.0546 41.7541 0.0000 0.0000 0.0000
# 2 45.0546 102.8731 48.9089 0.0000 0.0000 0.0000
# 3 41.7541 48.9089 110.0147 0.0000 0.0000 0.0000
# 4 0.0000 0.0000 0.0000 25.8738 0.0000 0.0000
# 5 0.0000 0.0000 0.0000 0.0000 27.8080 0.0000
# 6 0.0000 0.0000 0.0000 0.0000 0.0000 22.4556
#
#
#
# Elastic Compliance Matrix: (Units=1/GPa)
#
#
# Indices 1 2 3 4 5 6 
#
# 1 0.011564 -0.003776 -0.002710 0.000000 0.000000 0.000000
# 2 -0.003776 0.013559 -0.004595 0.000000 0.000000 0.000000
# 3 -0.002710 -0.004595 0.012161 0.000000 0.000000 0.000000
# 4 0.000000 0.000000 0.000000 0.038649 0.000000 0.000000
# 5 0.000000 0.000000 0.000000 0.000000 0.035961 0.000000
# 6 0.000000 0.000000 0.000000 0.000000 0.000000 0.044532
#
#
# Mechanical properties :
#
#
# Convention : Reuss Voigt Hill
#
# Bulk Modulus (GPa) = 66.12922 66.14408 66.13665
# Shear Modulus (GPa) = 27.22887 27.77042 27.49964
#
# Velocity S-wave (km/s) = 3.73056 3.76747 3.74906
# Velocity P-wave (km/s) = 7.23572 7.26170 7.24872
#
# Compressibility (1/GPa) = 0.01512191
#
# Stress axis : x y z
#
# Youngs Moduli (GPa) = 86.47607 73.75206 82.23045
#
# Poissons Ratio (x) = 0.27849 0.22286
# Poissons Ratio (y) = 0.32654 0.37783
# Poissons Ratio (z) = 0.23436 0.33887
#
# Static dielectric constant tensor:
#      x y z
#    x 3.565150 0.000000 0.000000 
#    y 0.000000 3.549910 0.000000 
#    z 0.000000 0.000000 4.086630 
# 
# 
# High freq. dielectric constant tensor:
#      x y z
#    x 1.761820 0.000000 0.000000 
#    y 0.000000 1.751520 0.000000 
#    z 0.000000 0.000000 1.772090 
# 
# From -- ./inp_files/13588.got.cif
#   From: 2010.03.12/outbox.cif.g09.slc.cpg/sg62_7_cif.got.tgz:13588.got - 2010.04.10 19:12:36.
