data_PCOD8253850
_publ_section_title
;
Structure prediction by ZEFSAII (Michael W. Deem and Ramdas Pophale) SiO2 
 PCOD8253850
Probable space group: P N M A
;
_chemical_formula_sum "Si O2"
_cell_formula_units_Z 64
_cell_length_a 32.617573
_cell_length_b 8.791024
_cell_length_c 11.153080
_cell_angle_alpha 90.000000
_cell_angle_beta 90.000000
_cell_angle_gamma 90.000000
_cell_volume 3198.054983
_symmetry_space_group_name_H-M "P N M A"
_symmetry_group_IT_number 62
_symmetry_cell_setting 'orthorhombic'
loop_
_space_group_symop_operation_xyz
x,y,z
1/2-x,-y,1/2+z
1/2+x,1/2-y,1/2-z
-x,1/2+y,-z
-x,-y,-z
1/2+x,y,1/2-z
1/2-x,1/2+y,1/2+z
x,1/2-y,z
loop_
_atom_site_type_symbol
_atom_site_label
_atom_site_fract_x
_atom_site_fract_y
_atom_site_fract_z
Si Si1 0.768775 0.073072 0.267789
Si Si2 0.675758 0.581046 0.991434
Si Si3 0.514819 0.072342 0.874313
Si Si4 0.656225 0.568440 0.625417
Si Si5 0.116024 0.570385 0.113958
Si Si6 0.977380 0.068761 0.882707
Si Si7 0.679938 0.424744 0.226518
Si Si8 0.901699 0.421622 0.333761
O O1 0.762644 0.250000 0.240339
O O2 0.790598 0.042682 0.392435
O O3 0.798752 0.004396 0.163365
O O4 0.723125 0.001736 0.272278
O O5 0.684327 0.750000 0.045205
O O6 0.680444 0.445333 0.084551
O O7 0.629868 0.579124 0.942609
O O8 0.506261 0.250000 0.885914
O O9 0.494299 0.013152 0.748313
O O10 0.562619 0.038059 0.864514
O O11 0.500000 0.000000 0.000000
O O12 0.657892 0.750000 0.632952
O O13 0.642813 0.505283 0.496698
O O14 0.620992 0.514144 0.716409
O O15 0.114698 0.750000 0.110261
O O16 0.069571 0.509774 0.111789
O O17 0.140183 0.516190 0.230299
O O18 0.980915 0.250000 0.892460
O O19 0.000000 0.000000 0.000000
O O20 0.674977 0.250000 0.263269
O O21 0.918950 0.250000 0.313499
#
# Coordination Sequence:
#
# PCOD8253850 Si02
#       8
#     8   8   8   8   8   8   8   8
#     4   8  17  34  54  79 110 144 184 231 280 330
#     4   9  19  37  59  79 107 148 189 230 282 343
#     4  11  24  39  58  87 122 158 195 241 296 355
#     4   8  15  32  59  84 105 142 189 230 276 335
#     4  10  21  37  59  84 113 150 192 230 280 351
#     4  10  23  42  64  91 120 153 197 247 300 362
#     4  11  23  35  52  82 118 149 185 237 285 327
#     4   9  18  36  62  85 107 142 191 239 284 337
#
# _framework density 20.012163000000001
#
# number of rings (size 3 to 8) (size 9 to 14) (size 15 to 20)
#    0.000    2.500    0.000    3.000    3.500    3.000 
#    0.000    1.250    0.000    2.250    0.000    0.000 
#    0.000    0.000    0.000    0.000    0.000    0.000 
#
# Total GULP energy -793079.038648 kJ/mol
# GULP energy per Si atom -12391.859979 kJ/mol
# Density = 1.996661 g / cm^3
# Si number density = 20.012163 Si / 1000 Ang^3
#
#
#
# Elastic Constant Matrix: (Units=GPa)
#
#
# Indices 1 2 3 4 5 6 
#
# 1 141.7258 26.2247 59.5675 0.0000 0.0000 0.0000
# 2 26.2247 23.4962 25.9540 0.0000 0.0000 0.0000
# 3 59.5675 25.9540 115.9611 0.0000 0.0000 0.0000
# 4 0.0000 0.0000 0.0000 27.1290 0.0000 0.0000
# 5 0.0000 0.0000 0.0000 0.0000 19.2392 0.0000
# 6 0.0000 0.0000 0.0000 0.0000 0.0000 24.4381
#
#
#
# Elastic Compliance Matrix: (Units=1/GPa)
#
#
# Indices 1 2 3 4 5 6 
#
# 1 0.009830 -0.007165 -0.003446 0.000000 0.000000 0.000000
# 2 -0.007165 0.061761 -0.010142 0.000000 0.000000 0.000000
# 3 -0.003446 -0.010142 0.012664 0.000000 0.000000 0.000000
# 4 0.000000 0.000000 0.000000 0.036861 0.000000 0.000000
# 5 0.000000 0.000000 0.000000 0.000000 0.051977 0.000000
# 6 0.000000 0.000000 0.000000 0.000000 0.000000 0.040920
#
#
# Mechanical properties :
#
#
# Convention : Reuss Voigt Hill
#
# Bulk Modulus (GPa) = 23.39315 56.07504 39.73410
# Shear Modulus (GPa) = 18.53440 25.45704 21.99572
#
# Velocity S-wave (km/s) = 3.04658 3.57049 3.31889
# Velocity P-wave (km/s) = 4.90820 6.71410 5.88088
#
# Compressibility (1/GPa) = 0.04274755
#
# Stress axis : x y z
#
# Youngs Moduli (GPa) = 101.72928 16.19149 78.96591
#
# Poissons Ratio (x) = 0.11602 0.27210
# Poissons Ratio (y) = 0.72892 0.80090
# Poissons Ratio (z) = 0.35054 0.16422
#
# Static dielectric constant tensor:
#      x y z
#    x 3.876010 0.000000 0.000000 
#    y 0.000000 3.261950 0.000000 
#    z 0.000000 0.000000 3.766020 
# 
# 
# High freq. dielectric constant tensor:
#      x y z
#    x 1.795250 0.000000 0.000000 
#    y 0.000000 1.742230 0.000000 
#    z 0.000000 0.000000 1.786880 
# 
# From -- ./inp_files/15894.got.cif
#   From: 2010.03.12/outbox.cif.g09.slc.cpg/sg62_8_cif.got.tgz:15894.got - 2010.04.10 19:12:36.
