data_PCOD8253506
_publ_section_title
;
Structure prediction by ZEFSAII (Michael W. Deem and Ramdas Pophale) SiO2 
 PCOD8253506
Probable space group: P N M A
;
_chemical_formula_sum "Si O2"
_cell_formula_units_Z 48
_cell_length_a 10.694721
_cell_length_b 12.736543
_cell_length_c 17.400452
_cell_angle_alpha 90.000000
_cell_angle_beta 90.000000
_cell_angle_gamma 90.000000
_cell_volume 2370.181234
_symmetry_space_group_name_H-M "P N M A"
_symmetry_group_IT_number 62
_symmetry_cell_setting 'orthorhombic'
loop_
_space_group_symop_operation_xyz
x,y,z
1/2-x,-y,1/2+z
1/2+x,1/2-y,1/2-z
-x,1/2+y,-z
-x,-y,-z
1/2+x,y,1/2-z
1/2-x,1/2+y,1/2+z
x,1/2-y,z
loop_
_atom_site_type_symbol
_atom_site_label
_atom_site_fract_x
_atom_site_fract_y
_atom_site_fract_z
Si Si1 0.957711 0.455578 0.581175
Si Si2 0.082154 0.629147 0.662685
Si Si3 0.823254 0.936519 0.080051
Si Si4 0.683069 0.250000 0.688892
Si Si5 0.489053 0.250000 0.831259
Si Si6 0.418282 0.367300 0.339406
Si Si7 0.332219 0.629338 0.582527
O O1 0.820571 0.414587 0.567311
O O2 0.000000 0.500000 0.500000
O O3 0.967813 0.552602 0.641270
O O4 0.023787 0.352126 0.616924
O O5 0.047304 0.750000 0.643808
O O6 0.116164 0.616427 0.751317
O O7 0.201096 0.586022 0.614745
O O8 0.868021 0.851223 0.142136
O O9 0.840248 0.054112 0.108914
O O10 0.883109 0.925946 0.995057
O O11 0.597219 0.250000 0.765399
O O12 0.839148 0.250000 0.698791
O O13 0.382954 0.250000 0.366548
O O14 0.565826 0.388242 0.350905
O O15 0.312831 0.750000 0.562081
#
# Coordination Sequence:
#
# PCOD8253506 Si02
#       7
#     8   8   8   4   4   8   8
#     4  11  23  39  63  92 124 163 207 257 310 369
#     4  10  22  39  62  88 121 160 205 250 309 369
#     4  11  21  39  65  87 124 160 206 255 313 372
#     4  10  22  44  68  92 123 173 211 267 314 376
#     4  10  24  44  66  96 131 167 225 259 322 384
#     4  10  23  39  59  91 125 158 199 253 308 369
#     4  10  20  39  63  85 118 166 206 243 307 377
#
# _framework density 20.251617
#
# number of rings (size 3 to 8) (size 9 to 14) (size 15 to 20)
#    0.000    1.667    2.500    1.500    3.500    0.667 
#    3.000    0.000    0.000    0.000    0.000    0.000 
#    0.000    0.000    0.000    0.000    0.000    0.000 
#
# Total GULP energy -594751.674884 kJ/mol
# GULP energy per Si atom -12390.659893 kJ/mol
# Density = 2.020552 g / cm^3
# Si number density = 20.251617 Si / 1000 Ang^3
#
#
#
# Elastic Constant Matrix: (Units=GPa)
#
#
# Indices 1 2 3 4 5 6 
#
# 1 44.3045 23.8720 33.8257 0.0000 0.0000 0.0000
# 2 23.8720 121.6608 63.4609 0.0000 0.0000 0.0000
# 3 33.8257 63.4609 124.2630 0.0000 0.0000 0.0000
# 4 0.0000 0.0000 0.0000 38.9705 0.0000 0.0000
# 5 0.0000 0.0000 0.0000 0.0000 28.2469 0.0000
# 6 0.0000 0.0000 0.0000 0.0000 0.0000 30.6689
#
#
#
# Elastic Compliance Matrix: (Units=1/GPa)
#
#
# Indices 1 2 3 4 5 6 
#
# 1 0.028894 -0.002136 -0.006775 0.000000 0.000000 0.000000
# 2 -0.002136 0.011362 -0.005221 0.000000 0.000000 0.000000
# 3 -0.006775 -0.005221 0.012558 0.000000 0.000000 0.000000
# 4 0.000000 0.000000 0.000000 0.025660 0.000000 0.000000
# 5 0.000000 0.000000 0.000000 0.000000 0.035402 0.000000
# 6 0.000000 0.000000 0.000000 0.000000 0.000000 0.032606
#
#
# Mechanical properties :
#
#
# Convention : Reuss Voigt Hill
#
# Bulk Modulus (GPa) = 40.73127 59.17170 49.95149
# Shear Modulus (GPa) = 27.33284 30.84857 29.09071
#
# Velocity S-wave (km/s) = 3.67776 3.90714 3.79418
# Velocity P-wave (km/s) = 6.17987 7.04528 6.62672
#
# Compressibility (1/GPa) = 0.02455116
#
# Stress axis : x y z
#
# Youngs Moduli (GPa) = 34.60911 88.01131 79.63023
#
# Poissons Ratio (x) = 0.18797 0.53946
# Poissons Ratio (y) = 0.07392 0.41577
# Poissons Ratio (z) = 0.23446 0.45953
#
# Static dielectric constant tensor:
#      x y z
#    x 3.702850 0.000000 0.000000 
#    y 0.000000 4.007540 0.000000 
#    z 0.000000 0.000000 3.916370 
# 
# 
# High freq. dielectric constant tensor:
#      x y z
#    x 1.773610 0.000000 0.000000 
#    y 0.000000 1.799190 0.000000 
#    z 0.000000 0.000000 1.800620 
# 
# From -- ./inp_files/23056.got.cif
#   From: 2010.03.12/outbox.cif.g09.slc.cpg/sg62_12_cif.got.tgz:23056.got - 2010.04.10 19:12:36.
