data_PCOD8253447
_publ_section_title
;
Structure prediction by ZEFSAII (Michael W. Deem and Ramdas Pophale) SiO2 
 PCOD8253447
Probable space group: P N M A
;
_chemical_formula_sum "Si O2"
_cell_formula_units_Z 56
_cell_length_a 16.369633
_cell_length_b 14.561731
_cell_length_c 10.738911
_cell_angle_alpha 90.000000
_cell_angle_beta 90.000000
_cell_angle_gamma 90.000000
_cell_volume 2559.836280
_symmetry_space_group_name_H-M "P N M A"
_symmetry_group_IT_number 62
_symmetry_cell_setting 'orthorhombic'
loop_
_space_group_symop_operation_xyz
x,y,z
1/2-x,-y,1/2+z
1/2+x,1/2-y,1/2-z
-x,1/2+y,-z
-x,-y,-z
1/2+x,y,1/2-z
1/2-x,1/2+y,1/2+z
x,1/2-y,z
loop_
_atom_site_type_symbol
_atom_site_label
_atom_site_fract_x
_atom_site_fract_y
_atom_site_fract_z
Si Si1 0.064633 0.351547 0.024778
Si Si2 0.331190 0.502670 0.652292
Si Si3 0.546665 0.609169 0.758909
Si Si4 0.007046 0.911951 0.232039
Si Si5 0.781165 0.852897 0.455926
Si Si6 0.771364 0.151695 0.220616
Si Si7 0.966612 0.602831 0.493009
O O1 0.105982 0.250000 0.028440
O O2 0.129887 0.435774 0.038957
O O3 0.997094 0.355265 0.133731
O O4 0.019917 0.358291 0.891236
O O5 0.400279 0.445448 0.721726
O O6 0.258992 0.431210 0.627681
O O7 0.293820 0.575402 0.745733
O O8 0.551485 0.499199 0.752324
O O9 0.638765 0.641254 0.774978
O O10 0.500378 0.650356 0.880956
O O11 0.998133 0.852957 0.360839
O O12 0.785679 0.750000 0.393754
O O13 0.720648 0.847563 0.572394
O O14 0.869535 0.887736 0.497457
O O15 0.736902 0.250000 0.267654
O O16 0.000000 0.500000 0.500000
#
# Coordination Sequence:
#
# PCOD8253447 Si02
#       7
#     8   8   8   8   8   8   8
#     4  11  22  38  61  90 124 165 212 259 308 370
#     4  11  22  38  61  89 123 163 208 258 314 372
#     4  10  20  38  64  91 121 159 208 259 309 370
#     4  10  21  38  61  88 119 162 208 257 311 368
#     4  11  24  41  63  91 127 169 210 253 313 383
#     4  11  22  37  61  93 124 158 205 261 314 372
#     4  10  21  40  64  90 120 158 205 259 314 369
#
# _framework density 21.876398999999999
#
# number of rings (size 3 to 8) (size 9 to 14) (size 15 to 20)
#    0.000    1.429    0.000    8.571    0.000    4.571 
#    0.000    0.000    0.000    4.286    0.000    0.000 
#    0.000    0.000    0.000    0.000    0.000    0.000 
#
# Total GULP energy -693786.053784 kJ/mol
# GULP energy per Si atom -12389.036675 kJ/mol
# Density = 2.182661 g / cm^3
# Si number density = 21.876399 Si / 1000 Ang^3
#
#
#
# Elastic Constant Matrix: (Units=GPa)
#
#
# Indices 1 2 3 4 5 6 
#
# 1 89.4062 20.4367 22.9922 0.0000 0.0000 0.0000
# 2 20.4367 98.8538 8.9140 0.0000 0.0000 0.0000
# 3 22.9922 8.9140 149.0169 0.0000 0.0000 0.0000
# 4 0.0000 0.0000 0.0000 1.3873 0.0000 0.0000
# 5 0.0000 0.0000 0.0000 0.0000 29.8609 0.0000
# 6 0.0000 0.0000 0.0000 0.0000 0.0000 5.0996
#
#
#
# Elastic Compliance Matrix: (Units=1/GPa)
#
#
# Indices 1 2 3 4 5 6 
#
# 1 0.012171 -0.002360 -0.001737 0.000000 0.000000 0.000000
# 2 -0.002360 0.010628 -0.000272 0.000000 0.000000 0.000000
# 3 -0.001737 -0.000272 0.006995 0.000000 0.000000 0.000000
# 4 0.000000 0.000000 0.000000 0.720815 0.000000 0.000000
# 5 0.000000 0.000000 0.000000 0.000000 0.033489 0.000000
# 6 0.000000 0.000000 0.000000 0.000000 0.000000 0.196093
#
#
# Mechanical properties :
#
#
# Convention : Reuss Voigt Hill
#
# Bulk Modulus (GPa) = 47.48785 49.10696 48.29740
# Shear Modulus (GPa) = 5.02035 26.26516 15.64276
#
# Velocity S-wave (km/s) = 1.51653 3.46875 2.67695
# Velocity P-wave (km/s) = 4.98206 6.20799 5.62850
#
# Compressibility (1/GPa) = 0.02105802
#
# Stress axis : x y z
#
# Youngs Moduli (GPa) = 82.16328 94.08875 142.96200
#
# Poissons Ratio (x) = 0.22201 0.24829
# Poissons Ratio (y) = 0.19387 0.03884
# Poissons Ratio (z) = 0.14270 0.02556
#
# Static dielectric constant tensor:
#      x y z
#    x 3.778980 0.000000 0.000000 
#    y 0.000000 4.191020 0.000000 
#    z 0.000000 0.000000 4.398250 
# 
# 
# High freq. dielectric constant tensor:
#      x y z
#    x 1.855850 0.000000 0.000000 
#    y 0.000000 1.861420 0.000000 
#    z 0.000000 0.000000 1.858680 
# 
# From -- ./inp_files/13399.got.cif
#   From: 2010.03.12/outbox.cif.g09.slc.cpg/sg62_7_cif.got.tgz:13399.got - 2010.04.10 19:12:36.
