data_PCOD8253674
_publ_section_title
;
Structure prediction by ZEFSAII (Michael W. Deem and Ramdas Pophale) SiO2 
 PCOD8253674
Probable space group: P N M A
;
_chemical_formula_sum "Si O2"
_cell_formula_units_Z 48
_cell_length_a 8.806649
_cell_length_b 9.931577
_cell_length_c 29.573017
_cell_angle_alpha 90.000000
_cell_angle_beta 90.000000
_cell_angle_gamma 90.000000
_cell_volume 2586.571776
_symmetry_space_group_name_H-M "P N M A"
_symmetry_group_IT_number 62
_symmetry_cell_setting 'orthorhombic'
loop_
_space_group_symop_operation_xyz
x,y,z
1/2-x,-y,1/2+z
1/2+x,1/2-y,1/2-z
-x,1/2+y,-z
-x,-y,-z
1/2+x,y,1/2-z
1/2-x,1/2+y,1/2+z
x,1/2-y,z
loop_
_atom_site_type_symbol
_atom_site_label
_atom_site_fract_x
_atom_site_fract_y
_atom_site_fract_z
Si Si1 0.351995 0.399228 0.451859
Si Si2 0.230015 0.404242 0.783325
Si Si3 0.068461 0.593644 0.853287
Si Si4 0.704616 0.100903 0.475732
Si Si5 0.223510 0.905983 0.623448
Si Si6 0.927814 0.903796 0.308527
O O1 0.283413 0.250000 0.458319
O O2 0.341092 0.442679 0.399420
O O3 0.254994 0.499560 0.483460
O O4 0.526481 0.398882 0.466102
O O5 0.189963 0.250000 0.795949
O O6 0.129613 0.501278 0.813722
O O7 0.192473 0.432735 0.731092
O O8 0.406066 0.436380 0.789635
O O9 0.093126 0.750000 0.841013
O O10 0.891628 0.561504 0.859149
O O11 0.755877 0.250000 0.490848
O O12 0.790997 0.058831 0.429791
O O13 0.183327 0.750000 0.631907
O O14 0.103894 0.998553 0.649520
O O15 0.915672 0.750000 0.325405
#
# Coordination Sequence:
#
# PCOD8253674 Si02
#       6
#     8   8   8   8   8   8
#     4   8  14  25  42  67  98 128 159 196 236 279
#     4  10  21  36  53  73  97 126 162 203 246 293
#     4   9  18  32  50  74 103 132 163 200 242 289
#     4   8  14  25  42  67  98 128 159 196 236 279
#     4   9  18  32  50  74 103 132 163 200 242 289
#     4  10  21  36  53  73  97 126 162 203 246 293
#
# _framework density 18.557382
#
# number of rings (size 3 to 8) (size 9 to 14) (size 15 to 20)
#    0.000    3.000    0.000    3.000    0.000    4.667 
#    0.000    3.333    0.000    1.000    0.000    0.000 
#    0.000    0.000    0.000    0.000    0.000    0.000 
#
# Total GULP energy -595102.342413 kJ/mol
# GULP energy per Si atom -12397.965467 kJ/mol
# Density = 1.851514 g / cm^3
# Si number density = 18.557382 Si / 1000 Ang^3
#
#
#
# Elastic Constant Matrix: (Units=GPa)
#
#
# Indices 1 2 3 4 5 6 
#
# 1 23.5610 5.6549 -10.9443 0.0000 0.0000 0.0000
# 2 5.6549 59.1253 20.4794 0.0000 0.0000 0.0000
# 3 -10.9443 20.4794 33.2341 0.0000 0.0000 0.0000
# 4 0.0000 0.0000 0.0000 41.6102 0.0000 0.0000
# 5 0.0000 0.0000 0.0000 0.0000 17.9173 0.0000
# 6 0.0000 0.0000 0.0000 0.0000 0.0000 24.0797
#
#
#
# Elastic Compliance Matrix: (Units=1/GPa)
#
#
# Indices 1 2 3 4 5 6 
#
# 1 0.060056 -0.016012 0.029644 0.000000 0.000000 0.000000
# 2 -0.016012 0.025772 -0.021154 0.000000 0.000000 0.000000
# 3 0.029644 -0.021154 0.052887 0.000000 0.000000 0.000000
# 4 0.000000 0.000000 0.000000 0.024033 0.000000 0.000000
# 5 0.000000 0.000000 0.000000 0.000000 0.055812 0.000000
# 6 0.000000 0.000000 0.000000 0.000000 0.000000 0.041529
#
#
# Mechanical properties :
#
#
# Convention : Reuss Voigt Hill
#
# Bulk Modulus (GPa) = 8.08597 16.25558 12.17077
# Shear Modulus (GPa) = 15.80503 23.43680 19.62092
#
# Velocity S-wave (km/s) = 2.92153 3.55764 3.25516
# Velocity P-wave (km/s) = 3.96827 5.06501 4.54981
#
# Compressibility (1/GPa) = 0.12367104
#
# Stress axis : x y z
#
# Youngs Moduli (GPa) = 16.65116 38.80223 18.90827
#
# Poissons Ratio (x) = 0.62129 -0.56051
# Poissons Ratio (y) = 0.26661 0.39998
# Poissons Ratio (z) = -0.49360 0.82081
#
# Static dielectric constant tensor:
#      x y z
#    x 3.039180 0.000000 0.000000 
#    y 0.000000 3.559810 0.000000 
#    z 0.000000 0.000000 3.490410 
# 
# 
# High freq. dielectric constant tensor:
#      x y z
#    x 1.687390 0.000000 0.000000 
#    y 0.000000 1.721180 0.000000 
#    z 0.000000 0.000000 1.721830 
# 
# From -- ./inp_files/30733.got.cif
#   From: 2010.03.12/outbox.cif.g09.slc.cpg/sg62_16_cif.got.tgz:30733.got - 2010.04.10 19:12:36.
