data_PCOD8253619
_publ_section_title
;
Structure prediction by ZEFSAII (Michael W. Deem and Ramdas Pophale) SiO2 
 PCOD8253619
Probable space group: P N M A
;
_chemical_formula_sum "Si O2"
_cell_formula_units_Z 48
_cell_length_a 23.322586
_cell_length_b 9.611564
_cell_length_c 11.895175
_cell_angle_alpha 90.000000
_cell_angle_beta 90.000000
_cell_angle_gamma 90.000000
_cell_volume 2666.500080
_symmetry_space_group_name_H-M "P N M A"
_symmetry_group_IT_number 62
_symmetry_cell_setting 'orthorhombic'
loop_
_space_group_symop_operation_xyz
x,y,z
1/2-x,-y,1/2+z
1/2+x,1/2-y,1/2-z
-x,1/2+y,-z
-x,-y,-z
1/2+x,y,1/2-z
1/2-x,1/2+y,1/2+z
x,1/2-y,z
loop_
_atom_site_type_symbol
_atom_site_label
_atom_site_fract_x
_atom_site_fract_y
_atom_site_fract_z
Si Si1 0.387395 0.089828 0.518204
Si Si2 0.046187 0.089794 0.185404
Si Si3 0.349446 0.589281 0.843330
Si Si4 0.083543 0.588688 0.769200
Si Si5 0.843560 0.587118 0.399188
Si Si6 0.216895 0.588727 0.174249
O O1 0.404612 0.250000 0.536071
O O2 0.385220 0.053318 0.386670
O O3 0.325306 0.055592 0.570123
O O4 0.436606 0.999822 0.577258
O O5 0.048540 0.250000 0.147979
O O6 0.088814 0.058957 0.288656
O O7 0.983046 0.047533 0.224317
O O8 0.331544 0.750000 0.831765
O O9 0.300320 0.500118 0.782811
O O10 0.352876 0.543599 0.972141
O O11 0.091294 0.750000 0.737700
O O12 0.110587 0.496285 0.672509
O O13 0.854265 0.750000 0.380906
O O14 0.779883 0.543385 0.363028
O O15 0.213857 0.750000 0.207765
#
# Coordination Sequence:
#
# PCOD8253619 Si02
#       6
#     8   8   8   8   8   8
#     4   9  18  33  54  78 103 137 173 214 267 310
#     4   9  18  34  54  79 107 136 175 218 258 308
#     4   9  19  36  56  75 102 139 173 210 262 313
#     4  10  21  34  52  79 109 139 174 216 260 307
#     4  10  22  36  51  75 105 139 175 213 257 309
#     4   9  19  35  53  74 101 131 172 218 257 308
#
# _framework density 18.001124999999998
#
# number of rings (size 3 to 8) (size 9 to 14) (size 15 to 20)
#    0.000    2.667    0.000    0.500    2.333    3.333 
#    0.000    0.000    0.000    0.000    0.000    0.000 
#    0.000    0.000    0.000    0.000    0.000    0.000 
#
# Total GULP energy -595362.211928 kJ/mol
# GULP energy per Si atom -12403.379415 kJ/mol
# Density = 1.796015 g / cm^3
# Si number density = 18.001125 Si / 1000 Ang^3
#
#
#
# Elastic Constant Matrix: (Units=GPa)
#
#
# Indices 1 2 3 4 5 6 
#
# 1 63.0344 22.5831 19.5890 0.0000 0.0000 0.0000
# 2 22.5831 44.1003 36.4714 0.0000 0.0000 0.0000
# 3 19.5890 36.4714 100.2055 0.0000 0.0000 0.0000
# 4 0.0000 0.0000 0.0000 28.9229 0.0000 0.0000
# 5 0.0000 0.0000 0.0000 0.0000 23.4279 0.0000
# 6 0.0000 0.0000 0.0000 0.0000 0.0000 26.4432
#
#
#
# Elastic Compliance Matrix: (Units=1/GPa)
#
#
# Indices 1 2 3 4 5 6 
#
# 1 0.019433 -0.009742 -0.000253 0.000000 0.000000 0.000000
# 2 -0.009742 0.037324 -0.011680 0.000000 0.000000 0.000000
# 3 -0.000253 -0.011680 0.014280 0.000000 0.000000 0.000000
# 4 0.000000 0.000000 0.000000 0.034575 0.000000 0.000000
# 5 0.000000 0.000000 0.000000 0.000000 0.042684 0.000000
# 6 0.000000 0.000000 0.000000 0.000000 0.000000 0.037817
#
#
# Mechanical properties :
#
#
# Convention : Reuss Voigt Hill
#
# Bulk Modulus (GPa) = 36.11868 40.51413 38.31641
# Shear Modulus (GPa) = 20.94740 24.33858 22.64299
#
# Velocity S-wave (km/s) = 3.41496 3.68102 3.55049
# Velocity P-wave (km/s) = 5.97139 6.37353 6.17574
#
# Compressibility (1/GPa) = 0.02768650
#
# Stress axis : x y z
#
# Youngs Moduli (GPa) = 51.45810 26.79240 70.02707
#
# Poissons Ratio (x) = 0.26101 0.01773
# Poissons Ratio (y) = 0.50131 0.81793
# Poissons Ratio (z) = 0.01303 0.31294
#
# Static dielectric constant tensor:
#      x y z
#    x 3.362880 0.000000 0.000000 
#    y 0.000000 3.295140 0.000000 
#    z 0.000000 0.000000 3.319450 
# 
# 
# High freq. dielectric constant tensor:
#      x y z
#    x 1.702240 0.000000 0.000000 
#    y 0.000000 1.693360 0.000000 
#    z 0.000000 0.000000 1.697000 
# 
# From -- ./inp_files/15098.got.cif
#   From: 2010.03.12/outbox.cif.g09.slc.cpg/sg62_8_cif.got.tgz:15098.got - 2010.04.10 19:12:36.
