data_PCOD8253280
_publ_section_title
;
Structure prediction by ZEFSAII (Michael W. Deem and Ramdas Pophale) SiO2 
 PCOD8253280
Probable space group: P N M A
;
_chemical_formula_sum "Si O2"
_cell_formula_units_Z 64
_cell_length_a 14.475594
_cell_length_b 8.588141
_cell_length_c 25.121124
_cell_angle_alpha 90.000000
_cell_angle_beta 90.000000
_cell_angle_gamma 90.000000
_cell_volume 3123.019005
_symmetry_space_group_name_H-M "P N M A"
_symmetry_group_IT_number 62
_symmetry_cell_setting 'orthorhombic'
loop_
_space_group_symop_operation_xyz
x,y,z
1/2-x,-y,1/2+z
1/2+x,1/2-y,1/2-z
-x,1/2+y,-z
-x,-y,-z
1/2+x,y,1/2-z
1/2-x,1/2+y,1/2+z
x,1/2-y,z
loop_
_atom_site_type_symbol
_atom_site_label
_atom_site_fract_x
_atom_site_fract_y
_atom_site_fract_z
Si Si1 0.751764 0.065374 0.422724
Si Si2 0.040298 0.567612 0.750974
Si Si3 0.899228 0.433080 0.510257
Si Si4 0.300056 0.932415 0.190308
Si Si5 0.546408 0.433942 0.448174
Si Si6 0.302206 0.932619 0.888247
Si Si7 0.899428 0.065765 0.134393
Si Si8 0.649415 0.568994 0.222725
O O1 0.755319 0.250000 0.413491
O O2 0.828414 0.007987 0.464886
O O3 0.652007 0.010355 0.444229
O O4 0.766167 0.978018 0.367719
O O5 0.015667 0.750000 0.751158
O O6 0.106104 0.526928 0.701524
O O7 0.092163 0.512373 0.804626
O O8 0.948805 0.465869 0.748518
O O9 0.906728 0.250000 0.508148
O O10 0.863198 0.481417 0.568000
O O11 0.000000 0.500000 0.500000
O O12 0.320641 0.750000 0.192674
O O13 0.224647 0.982836 0.233862
O O14 0.500000 0.500000 0.500000
O O15 0.541628 0.250000 0.450081
O O16 0.486997 0.498979 0.398361
O O17 0.307645 0.750000 0.899567
O O18 0.196812 0.997259 0.890269
O O19 0.342456 0.966140 0.830082
O O20 0.896768 0.250000 0.131831
O O21 0.658674 0.750000 0.208082
#
# Coordination Sequence:
#
# PCOD8253280 Si02
#       8
#     8   8   8   8   8   8   8   8
#     4  10  23  42  64  89 124 166 212 257 312 380
#     4  11  22  39  64  90 121 164 211 259 310 374
#     4  11  25  44  64  90 122 165 215 267 319 374
#     4  11  24  41  63  93 130 166 206 259 318 373
#     4  10  20  37  61  91 123 156 198 250 305 368
#     4  11  22  40  65  92 123 163 209 259 312 376
#     4   9  19  36  61  92 123 157 200 248 304 369
#     4  11  24  41  61  92 130 168 208 259 318 377
#
# _framework density 20.492991
#
# number of rings (size 3 to 8) (size 9 to 14) (size 15 to 20)
#    0.000    1.500    1.250    3.375    1.750    4.000 
#    0.000    1.875    0.000    0.000    0.000    0.000 
#    0.000    0.000    0.000    0.000    0.000    0.000 
#
# Total GULP energy -793848.167839 kJ/mol
# GULP energy per Si atom -12403.877622 kJ/mol
# Density = 2.044635 g / cm^3
# Si number density = 20.492991 Si / 1000 Ang^3
#
#
#
# Elastic Constant Matrix: (Units=GPa)
#
#
# Indices 1 2 3 4 5 6 
#
# 1 150.8841 29.2216 55.5614 0.0000 0.0000 0.0000
# 2 29.2216 36.6203 24.4944 0.0000 0.0000 0.0000
# 3 55.5614 24.4944 133.6936 0.0000 0.0000 0.0000
# 4 0.0000 0.0000 0.0000 33.7934 0.0000 0.0000
# 5 0.0000 0.0000 0.0000 0.0000 42.3618 0.0000
# 6 0.0000 0.0000 0.0000 0.0000 0.0000 28.2405
#
#
#
# Elastic Compliance Matrix: (Units=1/GPa)
#
#
# Indices 1 2 3 4 5 6 
#
# 1 0.008583 -0.005086 -0.002635 0.000000 0.000000 0.000000
# 2 -0.005086 0.034135 -0.004140 0.000000 0.000000 0.000000
# 3 -0.002635 -0.004140 0.009333 0.000000 0.000000 0.000000
# 4 0.000000 0.000000 0.000000 0.029592 0.000000 0.000000
# 5 0.000000 0.000000 0.000000 0.000000 0.023606 0.000000
# 6 0.000000 0.000000 0.000000 0.000000 0.000000 0.035410
#
#
# Mechanical properties :
#
#
# Convention : Reuss Voigt Hill
#
# Bulk Modulus (GPa) = 35.30025 59.97255 47.63640
# Shear Modulus (GPa) = 28.76442 35.00718 31.88580
#
# Velocity S-wave (km/s) = 3.75056 4.13758 3.94882
# Velocity P-wave (km/s) = 6.00154 7.22181 6.63977
#
# Compressibility (1/GPa) = 0.02832841
#
# Stress axis : x y z
#
# Youngs Moduli (GPa) = 116.50898 29.29517 107.14156
#
# Poissons Ratio (x) = 0.14901 0.28233
# Poissons Ratio (y) = 0.59261 0.44359
# Poissons Ratio (z) = 0.30701 0.12129
#
# Static dielectric constant tensor:
#      x y z
#    x 4.769850 0.000000 0.000000 
#    y 0.000000 3.533780 0.000000 
#    z 0.000000 0.000000 3.809960 
# 
# 
# High freq. dielectric constant tensor:
#      x y z
#    x 1.818730 0.000000 0.000000 
#    y 0.000000 1.789290 0.000000 
#    z 0.000000 0.000000 1.810630 
# 
# From -- ./inp_files/29757.got.cif
#   From: 2010.03.12/outbox.cif.g09.slc.cpg/sg62_15_cif.got.tgz:29757.got - 2010.04.10 19:12:36.
