data_PCOD8253585
_publ_section_title
;
Structure prediction by ZEFSAII (Michael W. Deem and Ramdas Pophale) SiO2 
 PCOD8253585
Probable space group: P N M A
;
_chemical_formula_sum "Si O2"
_cell_formula_units_Z 56
_cell_length_a 14.489354
_cell_length_b 9.103345
_cell_length_c 21.781158
_cell_angle_alpha 90.000000
_cell_angle_beta 90.000000
_cell_angle_gamma 90.000000
_cell_volume 2872.969335
_symmetry_space_group_name_H-M "P N M A"
_symmetry_group_IT_number 62
_symmetry_cell_setting 'orthorhombic'
loop_
_space_group_symop_operation_xyz
x,y,z
1/2-x,-y,1/2+z
1/2+x,1/2-y,1/2-z
-x,1/2+y,-z
-x,-y,-z
1/2+x,y,1/2-z
1/2-x,1/2+y,1/2+z
x,1/2-y,z
loop_
_atom_site_type_symbol
_atom_site_label
_atom_site_fract_x
_atom_site_fract_y
_atom_site_fract_z
Si Si1 0.926627 0.077349 0.457121
Si Si2 0.452405 0.419295 0.183714
Si Si3 0.919666 0.922598 0.887683
Si Si4 0.777040 0.923625 0.990297
Si Si5 0.288321 0.417169 0.271720
Si Si6 0.372103 0.081726 0.401985
Si Si7 0.107719 0.923604 0.240987
O O1 0.933288 0.250000 0.467927
O O2 0.947999 0.035922 0.387161
O O3 0.824932 0.018924 0.474255
O O4 0.000000 0.000000 0.500000
O O5 0.482793 0.250000 0.192830
O O6 0.351178 0.444303 0.212057
O O7 0.525048 0.524097 0.216087
O O8 0.909412 0.750000 0.873630
O O9 0.847421 0.979269 0.938196
O O10 0.021309 0.960132 0.912871
O O11 0.899442 0.008260 0.825921
O O12 0.779792 0.750000 0.993843
O O13 0.806162 0.984493 0.056132
O O14 0.251018 0.250000 0.272337
O O15 0.349964 0.450171 0.331199
O O16 0.203256 0.527864 0.271864
O O17 0.353570 0.250000 0.419259
O O18 0.104172 0.750000 0.235778
#
# Coordination Sequence:
#
# PCOD8253585 Si02
#       7
#     8   8   8   8   8   8   8
#     4  10  23  41  62  88 117 158 204 248 299 353
#     4  10  21  43  68  87 115 161 211 249 293 363
#     4  10  20  41  65  88 120 163 207 244 296 369
#     4  10  22  39  62  89 122 159 199 251 305 359
#     4  10  21  40  64  88 119 161 207 250 296 368
#     4  10  21  37  62  92 120 156 203 249 298 359
#     4  12  25  37  59  94 127 156 194 254 313 358
#
# _framework density 19.492028999999999
#
# number of rings (size 3 to 8) (size 9 to 14) (size 15 to 20)
#    0.000    1.714    1.429    2.571    2.000    5.714 
#    0.000    1.429    0.000    0.000    0.000    0.000 
#    0.000    0.000    0.000    0.000    0.000    0.000 
#
# Total GULP energy -694700.838268 kJ/mol
# GULP energy per Si atom -12405.372112 kJ/mol
# Density = 1.944766 g / cm^3
# Si number density = 19.492029 Si / 1000 Ang^3
#
#
#
# Elastic Constant Matrix: (Units=GPa)
#
#
# Indices 1 2 3 4 5 6 
#
# 1 92.9255 31.1849 30.6602 0.0000 0.0000 0.0000
# 2 31.1849 52.0333 28.3251 0.0000 0.0000 0.0000
# 3 30.6602 28.3251 103.1668 0.0000 0.0000 0.0000
# 4 0.0000 0.0000 0.0000 56.4629 0.0000 0.0000
# 5 0.0000 0.0000 0.0000 0.0000 -137.2486 0.0000
# 6 0.0000 0.0000 0.0000 0.0000 0.0000 26.3844
#
#
#
# Elastic Compliance Matrix: (Units=1/GPa)
#
#
# Indices 1 2 3 4 5 6 
#
# 1 0.013869 -0.007135 -0.002163 0.000000 0.000000 0.000000
# 2 -0.007135 0.026266 -0.005091 0.000000 0.000000 0.000000
# 3 -0.002163 -0.005091 0.011734 0.000000 0.000000 0.000000
# 4 0.000000 0.000000 0.000000 0.017711 0.000000 0.000000
# 5 0.000000 0.000000 0.000000 0.000000 -0.007286 0.000000
# 6 0.000000 0.000000 0.000000 0.000000 0.000000 0.037901
#
#
# Mechanical properties :
#
#
# Convention : Reuss Voigt Hill
#
# Bulk Modulus (GPa) = 43.30644 47.60733 45.45689
# Shear Modulus (GPa) = 36.58458 -0.34990 18.11734
#
# Velocity S-wave (km/s) = 4.33702 -0.42415 3.05204
# Velocity P-wave (km/s) = 6.88080 4.92312 5.98258
#
# Compressibility (1/GPa) = 0.02309125
#
# Stress axis : x y z
#
# Youngs Moduli (GPa) = 72.10154 38.07207 85.22518
#
# Poissons Ratio (x) = 0.27164 0.18433
# Poissons Ratio (y) = 0.51443 0.43389
# Poissons Ratio (z) = 0.15595 0.19383
#
# Static dielectric constant tensor:
#      x y z
#    x 4.228830 0.000000 0.000000 
#    y 0.000000 3.411610 0.000000 
#    z 0.000000 0.000000 3.597110 
# 
# 
# High freq. dielectric constant tensor:
#      x y z
#    x 1.773100 0.000000 0.000000 
#    y 0.000000 1.742940 0.000000 
#    z 0.000000 0.000000 1.770720 
# 
# From -- ./inp_files/27154.got.cif
#   From: 2010.03.12/outbox.cif.g09.slc.cpg/sg62_14_cif.got.tgz:27154.got - 2010.04.10 19:12:36.
