data_PCOD8253437
_publ_section_title
;
Structure prediction by ZEFSAII (Michael W. Deem and Ramdas Pophale) SiO2 
 PCOD8253437
Probable space group: P N M A
;
_chemical_formula_sum "Si O2"
_cell_formula_units_Z 64
_cell_length_a 8.594702
_cell_length_b 16.631663
_cell_length_c 22.017874
_cell_angle_alpha 90.000000
_cell_angle_beta 90.000000
_cell_angle_gamma 90.000000
_cell_volume 3147.327104
_symmetry_space_group_name_H-M "P N M A"
_symmetry_group_IT_number 62
_symmetry_cell_setting 'orthorhombic'
loop_
_space_group_symop_operation_xyz
x,y,z
1/2-x,-y,1/2+z
1/2+x,1/2-y,1/2-z
-x,1/2+y,-z
-x,-y,-z
1/2+x,y,1/2-z
1/2-x,1/2+y,1/2+z
x,1/2-y,z
loop_
_atom_site_type_symbol
_atom_site_label
_atom_site_fract_x
_atom_site_fract_y
_atom_site_fract_z
Si Si1 0.242055 0.928177 0.235227
Si Si2 0.542279 0.342273 0.678193
Si Si3 0.939103 0.422679 0.037601
Si Si4 0.858807 0.341621 0.284134
Si Si5 0.359723 0.013145 0.955724
Si Si6 0.971485 0.986849 0.676195
Si Si7 0.020509 0.156935 0.162233
Si Si8 0.853060 0.659009 0.045892
O O1 0.315321 0.857648 0.276170
O O2 0.374803 0.964478 0.193842
O O3 0.169162 0.997935 0.277077
O O4 0.109598 0.893225 0.192460
O O5 0.495096 0.250000 0.680001
O O6 0.596688 0.369598 0.612168
O O7 0.754009 0.435420 0.040618
O O8 0.000699 0.406317 0.106587
O O9 0.000000 0.500000 0.000000
O O10 0.996065 0.346296 0.998282
O O11 0.902950 0.250000 0.298333
O O12 0.981522 0.393167 0.323861
O O13 0.884520 0.359419 0.211985
O O14 0.683228 0.361314 0.304026
O O15 0.423092 0.020468 0.888337
O O16 0.279723 0.097192 0.975887
O O17 0.500000 0.000000 0.000000
O O18 0.014199 0.250000 0.139503
O O19 0.788281 0.750000 0.045121
#
# Coordination Sequence:
#
# PCOD8253437 Si02
#       8
#     8   8   8   8   8   8   8   8
#     4  10  22  37  62  93 127 165 207 248 317 382
#     4  10  20  38  63  93 127 160 207 259 310 374
#     4  10  24  41  67  87 122 166 219 263 316 389
#     4  10  23  39  62  94 128 168 209 264 329 389
#     4  11  26  44  63  95 124 169 213 268 316 377
#     4  11  23  39  62  91 130 165 209 258 316 376
#     4  10  22  42  65  95 129 167 216 270 331 390
#     4  10  22  44  67  91 125 169 215 263 318 380
#
# _framework density 20.334716
#
# number of rings (size 3 to 8) (size 9 to 14) (size 15 to 20)
#    0.000    1.750    1.250    1.500    8.750    2.000 
#    0.000    2.500    0.000    0.000    0.000    0.000 
#    0.000    0.000    0.000    0.000    0.000    0.000 
#
# Total GULP energy -793391.037719 kJ/mol
# GULP energy per Si atom -12396.734964 kJ/mol
# Density = 2.028843 g / cm^3
# Si number density = 20.334716 Si / 1000 Ang^3
#
#
#
# Elastic Constant Matrix: (Units=GPa)
#
#
# Indices 1 2 3 4 5 6 
#
# 1 122.4470 47.3406 62.9855 0.0000 0.0000 0.0000
# 2 47.3406 83.1063 52.6960 0.0000 0.0000 0.0000
# 3 62.9855 52.6960 95.3522 0.0000 0.0000 0.0000
# 4 0.0000 0.0000 0.0000 33.3559 0.0000 0.0000
# 5 0.0000 0.0000 0.0000 0.0000 29.3915 0.0000
# 6 0.0000 0.0000 0.0000 0.0000 0.0000 26.1734
#
#
#
# Elastic Compliance Matrix: (Units=1/GPa)
#
#
# Indices 1 2 3 4 5 6 
#
# 1 0.012832 -0.002979 -0.006830 0.000000 0.000000 0.000000
# 2 -0.002979 0.019215 -0.008652 0.000000 0.000000 0.000000
# 3 -0.006830 -0.008652 0.019780 0.000000 0.000000 0.000000
# 4 0.000000 0.000000 0.000000 0.029980 0.000000 0.000000
# 5 0.000000 0.000000 0.000000 0.000000 0.034023 0.000000
# 6 0.000000 0.000000 0.000000 0.000000 0.000000 0.038207
#
#
# Mechanical properties :
#
#
# Convention : Reuss Voigt Hill
#
# Bulk Modulus (GPa) = 67.08357 69.66106 68.37231
# Shear Modulus (GPa) = 25.51975 26.97639 26.24807
#
# Velocity S-wave (km/s) = 3.54642 3.64623 3.59667
# Velocity P-wave (km/s) = 7.05909 7.21514 7.13754
#
# Compressibility (1/GPa) = 0.01490678
#
# Stress axis : x y z
#
# Youngs Moduli (GPa) = 77.93235 52.04142 50.55550
#
# Poissons Ratio (x) = 0.15502 0.34528
# Poissons Ratio (y) = 0.23214 0.43739
# Poissons Ratio (z) = 0.53226 0.45025
#
# Static dielectric constant tensor:
#      x y z
#    x 3.762240 0.000000 0.000000 
#    y 0.000000 3.759750 0.000000 
#    z 0.000000 0.000000 3.556960 
# 
# 
# High freq. dielectric constant tensor:
#      x y z
#    x 1.796760 0.000000 0.000000 
#    y 0.000000 1.797360 0.000000 
#    z 0.000000 0.000000 1.796350 
# 
# From -- ./inp_files/26152.got.cif
#   From: 2010.03.12/outbox.cif.g09.slc.cpg/sg62_14_cif.got.tgz:26152.got - 2010.04.10 19:12:36.
