data_PCOD8253919
_publ_section_title
;
Structure prediction by ZEFSAII (Michael W. Deem and Ramdas Pophale) SiO2 
 PCOD8253919
Probable space group: P N M A
;
_chemical_formula_sum "Si O2"
_cell_formula_units_Z 64
_cell_length_a 15.365691
_cell_length_b 8.864893
_cell_length_c 23.938570
_cell_angle_alpha 90.000000
_cell_angle_beta 90.000000
_cell_angle_gamma 90.000000
_cell_volume 3260.797258
_symmetry_space_group_name_H-M "P N M A"
_symmetry_group_IT_number 62
_symmetry_cell_setting 'orthorhombic'
loop_
_space_group_symop_operation_xyz
x,y,z
1/2-x,-y,1/2+z
1/2+x,1/2-y,1/2-z
-x,1/2+y,-z
-x,-y,-z
1/2+x,y,1/2-z
1/2-x,1/2+y,1/2+z
x,1/2-y,z
loop_
_atom_site_type_symbol
_atom_site_label
_atom_site_fract_x
_atom_site_fract_y
_atom_site_fract_z
Si Si1 0.840110 0.428364 0.248355
Si Si2 0.908940 0.572033 0.642792
Si Si3 0.606309 0.575544 0.372921
Si Si4 0.247377 0.428887 0.052664
Si Si5 0.343244 0.428592 0.750780
Si Si6 0.411624 0.924406 0.354797
Si Si7 0.254454 0.072219 0.926193
Si Si8 0.898387 0.072253 0.368883
O O1 0.824772 0.250000 0.248239
O O2 0.751745 0.513415 0.232804
O O3 0.908962 0.474357 0.200883
O O4 0.873648 0.489948 0.307733
O O5 0.897487 0.750000 0.648327
O O6 0.908827 0.501746 0.704730
O O7 0.834241 0.507343 0.603887
O O8 0.002532 0.528442 0.615862
O O9 0.631343 0.750000 0.378736
O O10 0.658770 0.483319 0.418905
O O11 0.631005 0.517098 0.311061
O O12 0.504318 0.547291 0.384285
O O13 0.247010 0.250000 0.053680
O O14 0.331575 0.495354 0.085459
O O15 0.251172 0.488303 0.989451
O O16 0.347781 0.250000 0.756888
O O17 0.402368 0.750000 0.337150
O O18 0.336388 0.973597 0.397631
O O19 0.270314 0.250000 0.923316
O O20 0.887517 0.250000 0.367516
#
# Coordination Sequence:
#
# PCOD8253919 Si02
#       8
#     8   8   8   8   8   8   8   8
#     4  11  20  34  59  87 113 148 189 230 282 344
#     4  11  22  37  59  85 114 149 189 237 284 336
#     4  10  22  38  58  85 116 151 189 235 286 336
#     4  10  21  40  61  81 112 154 195 239 289 339
#     4  11  21  35  56  84 117 149 182 229 289 345
#     4  10  21  38  57  82 119 153 185 232 286 340
#     4  10  22  39  59  82 113 154 195 237 289 340
#     4   9  20  37  57  84 116 146 185 238 288 334
#
# _framework density 19.627103000000002
#
# number of rings (size 3 to 8) (size 9 to 14) (size 15 to 20)
#    0.000    1.750    2.500    1.875    0.000    2.500 
#    0.000    3.125    0.000    0.000    0.000    0.000 
#    0.000    0.000    0.000    0.000    0.000    0.000 
#
# Total GULP energy -793767.567106 kJ/mol
# GULP energy per Si atom -12402.618236 kJ/mol
# Density = 1.958243 g / cm^3
# Si number density = 19.627103 Si / 1000 Ang^3
#
#
#
# Elastic Constant Matrix: (Units=GPa)
#
#
# Indices 1 2 3 4 5 6 
#
# 1 130.1540 30.6143 57.3266 0.0000 0.0000 0.0000
# 2 30.6143 39.8292 38.3595 0.0000 0.0000 0.0000
# 3 57.3266 38.3595 143.1848 0.0000 0.0000 0.0000
# 4 0.0000 0.0000 0.0000 25.5641 0.0000 0.0000
# 5 0.0000 0.0000 0.0000 0.0000 16.3880 0.0000
# 6 0.0000 0.0000 0.0000 0.0000 0.0000 24.5412
#
#
#
# Elastic Compliance Matrix: (Units=1/GPa)
#
#
# Indices 1 2 3 4 5 6 
#
# 1 0.010068 -0.005197 -0.002638 0.000000 0.000000 0.000000
# 2 -0.005197 0.036521 -0.007703 0.000000 0.000000 0.000000
# 3 -0.002638 -0.007703 0.010104 0.000000 0.000000 0.000000
# 4 0.000000 0.000000 0.000000 0.039117 0.000000 0.000000
# 5 0.000000 0.000000 0.000000 0.000000 0.061020 0.000000
# 6 0.000000 0.000000 0.000000 0.000000 0.000000 0.040748
#
#
# Mechanical properties :
#
#
# Convention : Reuss Voigt Hill
#
# Bulk Modulus (GPa) = 39.03987 62.86320 50.95153
# Shear Modulus (GPa) = 21.07972 25.75650 23.41811
#
# Velocity S-wave (km/s) = 3.28077 3.62649 3.45795
# Velocity P-wave (km/s) = 5.85536 7.04511 6.47760
#
# Compressibility (1/GPa) = 0.02561484
#
# Stress axis : x y z
#
# Youngs Moduli (GPa) = 99.32620 27.38140 98.97055
#
# Poissons Ratio (x) = 0.14231 0.26113
# Poissons Ratio (y) = 0.51625 0.76239
# Poissons Ratio (z) = 0.26206 0.21092
#
# Static dielectric constant tensor:
#      x y z
#    x 3.719050 0.000000 0.000000 
#    y 0.000000 3.373320 0.000000 
#    z 0.000000 0.000000 3.731950 
# 
# 
# High freq. dielectric constant tensor:
#      x y z
#    x 1.777710 0.000000 0.000000 
#    y 0.000000 1.748120 0.000000 
#    z 0.000000 0.000000 1.763650 
# 
# From -- ./inp_files/29867.got.cif
#   From: 2010.03.12/outbox.cif.g09.slc.cpg/sg62_15_cif.got.tgz:29867.got - 2010.04.10 19:12:36.
