data_PCOD8253288
_publ_section_title
;
Structure prediction by ZEFSAII (Michael W. Deem and Ramdas Pophale) SiO2 
 PCOD8253288
Probable space group: P N M A
;
_chemical_formula_sum "Si O2"
_cell_formula_units_Z 48
_cell_length_a 14.424555
_cell_length_b 19.461851
_cell_length_c 8.479926
_cell_angle_alpha 90.000000
_cell_angle_beta 90.000000
_cell_angle_gamma 90.000000
_cell_volume 2380.557247
_symmetry_space_group_name_H-M "P N M A"
_symmetry_group_IT_number 62
_symmetry_cell_setting 'orthorhombic'
loop_
_space_group_symop_operation_xyz
x,y,z
1/2-x,-y,1/2+z
1/2+x,1/2-y,1/2-z
-x,1/2+y,-z
-x,-y,-z
1/2+x,y,1/2-z
1/2-x,1/2+y,1/2+z
x,1/2-y,z
loop_
_atom_site_type_symbol
_atom_site_label
_atom_site_fract_x
_atom_site_fract_y
_atom_site_fract_z
Si Si1 0.869787 0.040867 0.805558
Si Si2 0.616032 0.673012 0.500824
Si Si3 0.717990 0.542888 0.962038
Si Si4 0.968494 0.031249 0.339801
Si Si5 0.028778 0.326008 0.255106
Si Si6 0.744639 0.172618 0.282836
O O1 0.818338 0.034152 0.638965
O O2 0.971367 0.003883 0.799781
O O3 0.810712 0.001226 0.937959
O O4 0.880249 0.120027 0.855932
O O5 0.634036 0.750000 0.435106
O O6 0.513760 0.668438 0.578653
O O7 0.693767 0.653533 0.630558
O O8 0.641769 0.516975 0.831727
O O9 0.735524 0.623292 0.929965
O O10 0.000000 0.000000 0.500000
O O11 0.982747 0.113576 0.356317
O O12 0.003273 0.250000 0.323755
O O13 0.137923 0.336977 0.261829
O O14 0.766347 0.250000 0.338221
#
# Coordination Sequence:
#
# PCOD8253288 Si02
#       6
#     8   8   8   8   8   8
#     4  11  24  39  60  87 125 157 197 255 302 358
#     4  10  22  40  62  88 120 161 202 247 303 361
#     4  11  22  38  60  91 119 158 201 244 304 361
#     4  10  22  37  57  89 123 153 198 249 300 357
#     4  10  20  37  62  86 116 156 202 241 293 360
#     4  10  20  37  62  90 119 154 201 247 293 362
#
# _framework density 20.163345
#
# number of rings (size 3 to 8) (size 9 to 14) (size 15 to 20)
#    0.000    1.667    3.333    1.000    2.333    2.667 
#    0.000    2.500    0.000    1.000    0.000    0.000 
#    0.000    0.000    0.000    0.000    0.000    0.000 
#
# Total GULP energy -594837.984315 kJ/mol
# GULP energy per Si atom -12392.458007 kJ/mol
# Density = 2.011745 g / cm^3
# Si number density = 20.163345 Si / 1000 Ang^3
#
#
#
# Elastic Constant Matrix: (Units=GPa)
#
#
# Indices 1 2 3 4 5 6 
#
# 1 74.0144 3.0770 5.1965 0.0000 0.0000 0.0000
# 2 3.0770 118.3712 35.3928 0.0000 0.0000 0.0000
# 3 5.1965 35.3928 51.0334 0.0000 0.0000 0.0000
# 4 0.0000 0.0000 0.0000 40.6568 0.0000 0.0000
# 5 0.0000 0.0000 0.0000 0.0000 23.8249 0.0000
# 6 0.0000 0.0000 0.0000 0.0000 0.0000 23.0639
#
#
#
# Elastic Compliance Matrix: (Units=1/GPa)
#
#
# Indices 1 2 3 4 5 6 
#
# 1 0.013609 0.000076 -0.001439 0.000000 0.000000 0.000000
# 2 0.000076 0.010659 -0.007400 0.000000 0.000000 0.000000
# 3 -0.001439 -0.007400 0.024873 0.000000 0.000000 0.000000
# 4 0.000000 0.000000 0.000000 0.024596 0.000000 0.000000
# 5 0.000000 0.000000 0.000000 0.000000 0.041973 0.000000
# 6 0.000000 0.000000 0.000000 0.000000 0.000000 0.043358
#
#
# Mechanical properties :
#
#
# Convention : Reuss Voigt Hill
#
# Bulk Modulus (GPa) = 31.62894 36.75018 34.18956
# Shear Modulus (GPa) = 26.71933 30.82594 28.77263
#
# Velocity S-wave (km/s) = 3.64420 3.91424 3.78163
# Velocity P-wave (km/s) = 5.78164 6.22047 6.00506
#
# Compressibility (1/GPa) = 0.03161661
#
# Stress axis : x y z
#
# Youngs Moduli (GPa) = 73.48227 93.82172 40.20364
#
# Poissons Ratio (x) = -0.00717 0.05784
# Poissons Ratio (y) = -0.00562 0.29749
# Poissons Ratio (z) = 0.10572 0.69425
#
# Static dielectric constant tensor:
#      x y z
#    x 4.506110 0.000000 0.000000 
#    y 0.000000 4.503950 0.000000 
#    z 0.000000 0.000000 3.220510 
# 
# 
# High freq. dielectric constant tensor:
#      x y z
#    x 1.809020 0.000000 0.000000 
#    y 0.000000 1.804010 0.000000 
#    z 0.000000 0.000000 1.742990 
# 
# From -- ./inp_files/6503.got.cif
#   From: 2010.03.12/outbox.cif.g09.slc.cpg/sg62_4_cif.got.tgz:6503.got - 2010.04.10 19:12:36.
