data_PCOD8253754
_publ_section_title
;
Structure prediction by ZEFSAII (Michael W. Deem and Ramdas Pophale) SiO2 
 PCOD8253754
Probable space group: P N M A
;
_chemical_formula_sum "Si O2"
_cell_formula_units_Z 32
_cell_length_a 40.439659
_cell_length_b 7.416735
_cell_length_c 5.140773
_cell_angle_alpha 90.000000
_cell_angle_beta 90.000000
_cell_angle_gamma 90.000000
_cell_volume 1541.873250
_symmetry_space_group_name_H-M "P N M A"
_symmetry_group_IT_number 62
_symmetry_cell_setting 'orthorhombic'
loop_
_space_group_symop_operation_xyz
x,y,z
1/2-x,-y,1/2+z
1/2+x,1/2-y,1/2-z
-x,1/2+y,-z
-x,-y,-z
1/2+x,y,1/2-z
1/2-x,1/2+y,1/2+z
x,1/2-y,z
loop_
_atom_site_type_symbol
_atom_site_label
_atom_site_fract_x
_atom_site_fract_y
_atom_site_fract_z
Si Si1 0.423125 0.034220 0.496830
Si Si2 0.824448 0.750000 0.537091
Si Si3 0.367635 0.750000 0.462768
Si Si4 0.538425 0.959090 0.002262
Si Si5 0.229355 0.956332 0.442220
O O1 0.417187 0.250000 0.496711
O O2 0.444496 0.963537 0.740478
O O3 0.388213 0.933573 0.502860
O O4 0.443653 0.960603 0.250091
O O5 0.853776 0.750000 0.328910
O O6 0.802716 0.572448 0.489416
O O7 0.838286 0.750000 0.828897
O O8 0.544505 0.750000 0.996997
O O9 0.500000 0.000000 0.000000
O O10 0.218131 0.750000 0.422286
O O11 0.256430 0.979002 0.666942
#
# Coordination Sequence:
#
# PCOD8253754 Si02
#       5
#     8   4   4   8   8
#     4  10  23  41  59  85 124 165 206 262 318 371
#     4  12  26  42  66 104 126 172 227 248 317 398
#     4  12  26  42  66  88 132 178 213 254 309 398
#     4  10  21  36  60  90 118 153 207 266 324 383
#     4  12  23  43  71 100 139 172 210 276 330 375
#
# _framework density 20.753972000000001
#
# number of rings (size 3 to 8) (size 9 to 14) (size 15 to 20)
#    0.000    1.000    2.500    3.750    3.500    2.000 
#    0.000    0.000    0.000    0.000    0.000    0.000 
#    0.000    0.000    0.000    0.000    0.000    0.000 
#
# Total GULP energy -396925.368362 kJ/mol
# GULP energy per Si atom -12403.917761 kJ/mol
# Density = 2.070674 g / cm^3
# Si number density = 20.753972 Si / 1000 Ang^3
#
#
#
# Elastic Constant Matrix: (Units=GPa)
#
#
# Indices 1 2 3 4 5 6 
#
# 1 102.8956 35.2353 31.8811 0.0000 0.0000 0.0000
# 2 35.2353 97.7733 23.6966 0.0000 0.0000 0.0000
# 3 31.8811 23.6966 137.6091 0.0000 0.0000 0.0000
# 4 0.0000 0.0000 0.0000 8.4147 0.0000 0.0000
# 5 0.0000 0.0000 0.0000 0.0000 53.3436 0.0000
# 6 0.0000 0.0000 0.0000 0.0000 0.0000 36.6835
#
#
#
# Elastic Compliance Matrix: (Units=1/GPa)
#
#
# Indices 1 2 3 4 5 6 
#
# 1 0.011619 -0.003689 -0.002057 0.000000 0.000000 0.000000
# 2 -0.003689 0.011844 -0.001185 0.000000 0.000000 0.000000
# 3 -0.002057 -0.001185 0.007948 0.000000 0.000000 0.000000
# 4 0.000000 0.000000 0.000000 0.118839 0.000000 0.000000
# 5 0.000000 0.000000 0.000000 0.000000 0.018746 0.000000
# 6 0.000000 0.000000 0.000000 0.000000 0.000000 0.027260
#
#
# Mechanical properties :
#
#
# Convention : Reuss Voigt Hill
#
# Bulk Modulus (GPa) = 56.98029 57.76711 57.37370
# Shear Modulus (GPa) = 23.15161 36.18603 29.66882
#
# Velocity S-wave (km/s) = 3.34357 4.18014 3.78504
# Velocity P-wave (km/s) = 6.51312 7.15491 6.84154
#
# Compressibility (1/GPa) = 0.01754993
#
# Stress axis : x y z
#
# Youngs Moduli (GPa) = 86.06600 84.42885 125.82561
#
# Poissons Ratio (x) = 0.31144 0.25878
# Poissons Ratio (y) = 0.31748 0.14910
# Poissons Ratio (z) = 0.17701 0.10005
#
# Static dielectric constant tensor:
#      x y z
#    x 3.569970 0.000000 0.000000 
#    y 0.000000 0.462490 0.000000 
#    z 0.000000 0.000000 4.784550 
# 
# 
# High freq. dielectric constant tensor:
#      x y z
#    x 1.807230 0.000000 0.000000 
#    y 0.000000 1.822050 0.000000 
#    z 0.000000 0.000000 1.836010 
# 
# From -- ./inp_files/3416.got.cif
#   From: 2010.03.12/outbox.cif.g09.slc.cpg/sg62_2_cif.got.tgz:3416.got - 2010.04.10 19:12:36.
