data_PCOD8253695
_publ_section_title
;
Structure prediction by ZEFSAII (Michael W. Deem and Ramdas Pophale) SiO2 
 PCOD8253695
Probable space group: P N M A
;
_chemical_formula_sum "Si O2"
_cell_formula_units_Z 56
_cell_length_a 9.085723
_cell_length_b 13.973213
_cell_length_c 20.695086
_cell_angle_alpha 90.000000
_cell_angle_beta 90.000000
_cell_angle_gamma 90.000000
_cell_volume 2627.380709
_symmetry_space_group_name_H-M "P N M A"
_symmetry_group_IT_number 62
_symmetry_cell_setting 'orthorhombic'
loop_
_space_group_symop_operation_xyz
x,y,z
1/2-x,-y,1/2+z
1/2+x,1/2-y,1/2-z
-x,1/2+y,-z
-x,-y,-z
1/2+x,y,1/2-z
1/2-x,1/2+y,1/2+z
x,1/2-y,z
loop_
_atom_site_type_symbol
_atom_site_label
_atom_site_fract_x
_atom_site_fract_y
_atom_site_fract_z
Si Si1 0.897665 0.856002 0.998247
Si Si2 0.386526 0.539767 0.729508
Si Si3 0.113553 0.645474 0.571483
Si Si4 0.900024 0.976356 0.335280
Si Si5 0.594383 0.141182 0.957001
Si Si6 0.328875 0.362249 0.323145
Si Si7 0.817716 0.050666 0.047167
O O1 0.894827 0.750000 0.031198
O O2 0.864665 0.939153 0.050890
O O3 0.788092 0.859570 0.937320
O O4 0.051721 0.875747 0.965445
O O5 0.271934 0.475133 0.687618
O O6 0.481197 0.471127 0.777312
O O7 0.279706 0.616866 0.763741
O O8 0.506009 0.596647 0.686865
O O9 0.062046 0.750000 0.596566
O O10 0.060061 0.572072 0.625061
O O11 0.053584 0.628248 0.498523
O O12 0.929264 0.886189 0.382170
O O13 0.652993 0.250000 0.960396
O O14 0.706639 0.065176 0.987888
O O15 0.338800 0.250000 0.335138
O O16 0.252875 0.416201 0.384185
#
# Coordination Sequence:
#
# PCOD8253695 Si02
#       7
#     8   8   8   8   8   8   8
#     4  10  21  36  55  91 128 157 189 230 303 373
#     4  10  25  39  59  84 117 168 212 240 300 351
#     4  10  21  37  63  93 122 154 191 243 314 372
#     4  11  22  42  60  85 123 160 200 255 292 360
#     4  11  23  39  63  94 119 153 199 254 312 364
#     4  11  22  39  60  88 124 158 201 251 298 366
#     4  11  22  36  62  92 124 158 193 249 307 362
#
# _framework density 21.314003
#
# number of rings (size 3 to 8) (size 9 to 14) (size 15 to 20)
#    0.000    1.429    1.429    3.857    4.000    5.714 
#    0.000    0.714    0.000    3.429    0.000    0.000 
#    0.000    0.000    0.000    0.000    0.000    0.000 
#
# Total GULP energy -694210.600974 kJ/mol
# GULP energy per Si atom -12396.617875 kJ/mol
# Density = 2.126549 g / cm^3
# Si number density = 21.314003 Si / 1000 Ang^3
#
#
#
# Elastic Constant Matrix: (Units=GPa)
#
#
# Indices 1 2 3 4 5 6 
#
# 1 84.5679 17.0844 12.6018 0.0000 0.0000 0.0000
# 2 17.0844 81.5308 26.8982 0.0000 0.0000 0.0000
# 3 12.6018 26.8982 86.2163 0.0000 0.0000 0.0000
# 4 0.0000 0.0000 0.0000 24.9911 0.0000 0.0000
# 5 0.0000 0.0000 0.0000 0.0000 27.9208 0.0000
# 6 0.0000 0.0000 0.0000 0.0000 0.0000 21.3803
#
#
#
# Elastic Compliance Matrix: (Units=1/GPa)
#
#
# Indices 1 2 3 4 5 6 
#
# 1 0.012444 -0.002238 -0.001121 0.000000 0.000000 0.000000
# 2 -0.002238 0.014075 -0.004064 0.000000 0.000000 0.000000
# 3 -0.001121 -0.004064 0.013030 0.000000 0.000000 0.000000
# 4 0.000000 0.000000 0.000000 0.040014 0.000000 0.000000
# 5 0.000000 0.000000 0.000000 0.000000 0.035816 0.000000
# 6 0.000000 0.000000 0.000000 0.000000 0.000000 0.046772
#
#
# Mechanical properties :
#
#
# Convention : Reuss Voigt Hill
#
# Bulk Modulus (GPa) = 40.47901 40.60931 40.54416
# Shear Modulus (GPa) = 26.99327 27.90714 27.45021
#
# Velocity S-wave (km/s) = 3.56259 3.62240 3.59262
# Velocity P-wave (km/s) = 5.99631 6.04896 6.02269
#
# Compressibility (1/GPa) = 0.02470416
#
# Stress axis : x y z
#
# Youngs Moduli (GPa) = 80.36067 71.04775 76.74318
#
# Poissons Ratio (x) = 0.15899 0.08601
# Poissons Ratio (y) = 0.17983 0.31189
# Poissons Ratio (z) = 0.09006 0.28875
#
# Static dielectric constant tensor:
#      x y z
#    x 4.030060 0.000000 0.000000 
#    y 0.000000 3.693130 0.000000 
#    z 0.000000 0.000000 3.850570 
# 
# 
# High freq. dielectric constant tensor:
#      x y z
#    x 1.853840 0.000000 0.000000 
#    y 0.000000 1.821240 0.000000 
#    z 0.000000 0.000000 1.818250 
# 
# From -- ./inp_files/25961.got.cif
#   From: 2010.03.12/outbox.cif.g09.slc.cpg/sg62_13_cif.got.tgz:25961.got - 2010.04.10 19:12:36.
