data_PCOD8253330
_publ_section_title
;
Structure prediction by ZEFSAII (Michael W. Deem and Ramdas Pophale) SiO2 
 PCOD8253330
Probable space group: P N M A
;
_chemical_formula_sum "Si O2"
_cell_formula_units_Z 56
_cell_length_a 15.547253
_cell_length_b 27.926382
_cell_length_c 5.277385
_cell_angle_alpha 90.000000
_cell_angle_beta 90.000000
_cell_angle_gamma 90.000000
_cell_volume 2291.327242
_symmetry_space_group_name_H-M "P N M A"
_symmetry_group_IT_number 62
_symmetry_cell_setting 'orthorhombic'
loop_
_space_group_symop_operation_xyz
x,y,z
1/2-x,-y,1/2+z
1/2+x,1/2-y,1/2-z
-x,1/2+y,-z
-x,-y,-z
1/2+x,y,1/2-z
1/2-x,1/2+y,1/2+z
x,1/2-y,z
loop_
_atom_site_type_symbol
_atom_site_label
_atom_site_fract_x
_atom_site_fract_y
_atom_site_fract_z
Si Si1 0.601060 0.013235 0.789968
Si Si2 0.505763 0.694712 0.258484
Si Si3 0.087270 0.527540 0.207396
Si Si4 0.196408 0.697007 0.346761
Si Si5 0.587930 0.112618 0.015929
Si Si6 0.941223 0.383891 0.107475
Si Si7 0.261363 0.353265 0.328993
O O1 0.501161 0.998133 0.748617
O O2 0.643702 0.994850 0.525970
O O3 0.610209 0.070484 0.817788
O O4 0.638826 0.982461 0.029171
O O5 0.475077 0.750000 0.299157
O O6 0.594033 0.692746 0.098267
O O7 0.527216 0.669608 0.528998
O O8 0.432148 0.663529 0.119757
O O9 0.064864 0.583389 0.148253
O O10 0.220702 0.750000 0.260789
O O11 0.245226 0.686552 0.609712
O O12 0.228013 0.664205 0.117496
O O13 0.508684 0.095078 0.190539
O O14 0.672779 0.117730 0.188521
O O15 0.846542 0.384377 0.234966
#
# Coordination Sequence:
#
# PCOD8253330 Si02
#       7
#     8   8   8   8   8   8   8
#     4  10  21  36  64 102 126 168 225 269 325 400
#     4  10  23  41  66  96 129 176 224 275 335 399
#     4  10  20  37  67  95 128 174 220 266 335 394
#     4  10  22  45  66  90 129 172 226 280 331 394
#     4  12  24  42  67  97 138 174 225 281 333 401
#     4  11  23  44  68  95 137 179 223 278 340 397
#     4  11  26  41  66  99 130 178 222 276 339 397
#
# _framework density 24.439981
#
# number of rings (size 3 to 8) (size 9 to 14) (size 15 to 20)
#    0.000    1.429    2.857    3.000    2.000    2.286 
#    0.000    1.429    0.000    0.000    0.000    0.000 
#    0.000    0.000    0.000    0.000    0.000    0.000 
#
# Total GULP energy -693975.043928 kJ/mol
# GULP energy per Si atom -12392.411499 kJ/mol
# Density = 2.438435 g / cm^3
# Si number density = 24.439981 Si / 1000 Ang^3
#
#
#
# Elastic Constant Matrix: (Units=GPa)
#
#
# Indices 1 2 3 4 5 6 
#
# 1 89.7379 4.8774 13.0868 0.0000 0.0000 0.0000
# 2 4.8774 125.9521 33.5937 0.0000 0.0000 0.0000
# 3 13.0868 33.5937 131.2656 0.0000 0.0000 0.0000
# 4 0.0000 0.0000 0.0000 41.8027 0.0000 0.0000
# 5 0.0000 0.0000 0.0000 0.0000 20.0806 0.0000
# 6 0.0000 0.0000 0.0000 0.0000 0.0000 9.8662
#
#
#
# Elastic Compliance Matrix: (Units=1/GPa)
#
#
# Indices 1 2 3 4 5 6 
#
# 1 0.011311 -0.000147 -0.001090 0.000000 0.000000 0.000000
# 2 -0.000147 0.008523 -0.002167 0.000000 0.000000 0.000000
# 3 -0.001090 -0.002167 0.008281 0.000000 0.000000 0.000000
# 4 0.000000 0.000000 0.000000 0.023922 0.000000 0.000000
# 5 0.000000 0.000000 0.000000 0.000000 0.049799 0.000000
# 6 0.000000 0.000000 0.000000 0.000000 0.000000 0.101356
#
#
# Mechanical properties :
#
#
# Convention : Reuss Voigt Hill
#
# Bulk Modulus (GPa) = 46.93223 50.00795 48.47009
# Shear Modulus (GPa) = 23.03066 34.04308 28.53687
#
# Velocity S-wave (km/s) = 3.07308 3.73624 3.42077
# Velocity P-wave (km/s) = 5.64238 6.25449 5.95630
#
# Compressibility (1/GPa) = 0.02130732
#
# Stress axis : x y z
#
# Youngs Moduli (GPa) = 88.41331 117.32831 120.75429
#
# Poissons Ratio (x) = 0.01728 0.13161
# Poissons Ratio (y) = 0.01302 0.26162
# Poissons Ratio (z) = 0.09636 0.25420
#
# Static dielectric constant tensor:
#      x y z
#    x 4.119730 0.000000 0.000000 
#    y 0.000000 4.222840 0.000000 
#    z 0.000000 0.000000 4.593870 
# 
# 
# High freq. dielectric constant tensor:
#      x y z
#    x 1.930240 0.000000 0.000000 
#    y 0.000000 1.969610 0.000000 
#    z 0.000000 0.000000 1.977930 
# 
# From -- ./inp_files/1282.got.cif
#   From: 2010.03.12/outbox.cif.g09.slc.cpg/sg62_1_cif.got.tgz:1282.got - 2010.04.10 19:12:36.
