data_PCOD8253354
_publ_section_title
;
Structure prediction by ZEFSAII (Michael W. Deem and Ramdas Pophale) SiO2 
 PCOD8253354
Probable space group: P N M A
;
_chemical_formula_sum "Si O2"
_cell_formula_units_Z 32
_cell_length_a 14.849053
_cell_length_b 8.669114
_cell_length_c 13.385283
_cell_angle_alpha 90.000000
_cell_angle_beta 90.000000
_cell_angle_gamma 90.000000
_cell_volume 1723.062494
_symmetry_space_group_name_H-M "P N M A"
_symmetry_group_IT_number 62
_symmetry_cell_setting 'orthorhombic'
loop_
_space_group_symop_operation_xyz
x,y,z
1/2-x,-y,1/2+z
1/2+x,1/2-y,1/2-z
-x,1/2+y,-z
-x,-y,-z
1/2+x,y,1/2-z
1/2-x,1/2+y,1/2+z
x,1/2-y,z
loop_
_atom_site_type_symbol
_atom_site_label
_atom_site_fract_x
_atom_site_fract_y
_atom_site_fract_z
Si Si1 0.063733 0.924134 0.419396
Si Si2 0.855758 0.568062 0.758674
Si Si3 0.238958 0.424568 0.894264
Si Si4 0.905311 0.431076 0.969334
O O1 0.031034 0.750000 0.399874
O O2 0.167657 0.926847 0.458708
O O3 0.060714 0.016277 0.313391
O O4 0.000000 0.000000 0.500000
O O5 0.846135 0.750000 0.758125
O O6 0.763371 0.491183 0.716086
O O7 0.871143 0.511252 0.869652
O O8 0.201587 0.250000 0.885295
O O9 0.165592 0.534605 0.943439
O O10 0.914089 0.250000 0.952565
O O11 0.000000 0.500000 0.000000
#
# Coordination Sequence:
#
# PCOD8253354 Si02
#       4
#     8   8   8   8
#     4   9  18  34  58  86 120 154 196 246 297 354
#     4  10  20  38  60  85 119 155 197 245 296 355
#     4   9  20  39  60  87 120 156 200 248 295 354
#     4  12  24  41  63  89 123 162 202 251 305 363
#
# _framework density 18.571583
#
# number of rings (size 3 to 8) (size 9 to 14) (size 15 to 20)
#    1.500    0.500    0.000    5.250    0.000    0.000 
#    4.500    0.000    0.000    0.000    0.000    0.000 
#    0.000    0.000    0.000    0.000    0.000    0.000 
#
# Total GULP energy -396540.148854 kJ/mol
# GULP energy per Si atom -12391.879652 kJ/mol
# Density = 1.852931 g / cm^3
# Si number density = 18.571583 Si / 1000 Ang^3
#
#
#
# Elastic Constant Matrix: (Units=GPa)
#
#
# Indices 1 2 3 4 5 6 
#
# 1 73.2129 21.0210 36.6142 0.0000 0.0000 0.0000
# 2 21.0210 130.7686 21.3977 0.0000 0.0000 0.0000
# 3 36.6142 21.3977 98.2833 0.0000 0.0000 0.0000
# 4 0.0000 0.0000 0.0000 37.3979 0.0000 0.0000
# 5 0.0000 0.0000 0.0000 0.0000 32.5552 0.0000
# 6 0.0000 0.0000 0.0000 0.0000 0.0000 32.7699
#
#
#
# Elastic Compliance Matrix: (Units=1/GPa)
#
#
# Indices 1 2 3 4 5 6 
#
# 1 0.017176 -0.001777 -0.006012 0.000000 0.000000 0.000000
# 2 -0.001777 0.008113 -0.001104 0.000000 0.000000 0.000000
# 3 -0.006012 -0.001104 0.012655 0.000000 0.000000 0.000000
# 4 0.000000 0.000000 0.000000 0.026739 0.000000 0.000000
# 5 0.000000 0.000000 0.000000 0.000000 0.030717 0.000000
# 6 0.000000 0.000000 0.000000 0.000000 0.000000 0.030516
#
#
# Mechanical properties :
#
#
# Convention : Reuss Voigt Hill
#
# Bulk Modulus (GPa) = 49.60988 51.14785 50.37886
# Shear Modulus (GPa) = 33.23992 35.42671 34.33332
#
# Velocity S-wave (km/s) = 4.23522 4.37232 4.30432
# Velocity P-wave (km/s) = 7.11948 7.28631 7.20338
#
# Compressibility (1/GPa) = 0.02015728
#
# Stress axis : x y z
#
# Youngs Moduli (GPa) = 58.22233 123.25145 79.02241
#
# Poissons Ratio (x) = 0.21905 0.47505
# Poissons Ratio (y) = 0.10348 0.08727
# Poissons Ratio (z) = 0.35001 0.13611
#
# Static dielectric constant tensor:
#      x y z
#    x 3.223230 0.000000 0.000000 
#    y 0.000000 3.421840 0.000000 
#    z 0.000000 0.000000 3.238860 
# 
# 
# High freq. dielectric constant tensor:
#      x y z
#    x 1.701130 0.000000 0.000000 
#    y 0.000000 1.743860 0.000000 
#    z 0.000000 0.000000 1.708010 
# 
# From -- ./inp_files/12770.got.cif
#   From: 2010.03.12/outbox.cif.g09.slc.cpg/sg62_7_cif.got.tgz:12770.got - 2010.04.10 19:12:36.
