data_PCOD8253273
_publ_section_title
;
Structure prediction by ZEFSAII (Michael W. Deem and Ramdas Pophale) SiO2 
 PCOD8253273
Probable space group: P N M A
;
_chemical_formula_sum "Si O2"
_cell_formula_units_Z 56
_cell_length_a 14.890025
_cell_length_b 14.167612
_cell_length_c 13.310879
_cell_angle_alpha 90.000000
_cell_angle_beta 90.000000
_cell_angle_gamma 90.000000
_cell_volume 2808.011080
_symmetry_space_group_name_H-M "P N M A"
_symmetry_group_IT_number 62
_symmetry_cell_setting 'orthorhombic'
loop_
_space_group_symop_operation_xyz
x,y,z
1/2-x,-y,1/2+z
1/2+x,1/2-y,1/2-z
-x,1/2+y,-z
-x,-y,-z
1/2+x,y,1/2-z
1/2-x,1/2+y,1/2+z
x,1/2-y,z
loop_
_atom_site_type_symbol
_atom_site_label
_atom_site_fract_x
_atom_site_fract_y
_atom_site_fract_z
Si Si1 0.550575 0.860247 0.938642
Si Si2 0.433262 0.643850 0.122743
Si Si3 0.648913 0.021603 0.347558
Si Si4 0.751446 0.860131 0.003752
Si Si5 0.039017 0.523143 0.757617
Si Si6 0.762244 0.357679 0.960637
Si Si7 0.770043 0.477010 0.152137
O O1 0.536326 0.750000 0.922146
O O2 0.652232 0.885855 0.966182
O O3 0.522085 0.909701 0.836614
O O4 0.486293 0.897738 0.027128
O O5 0.465377 0.750000 0.144150
O O6 0.457162 0.584918 0.221240
O O7 0.327741 0.637110 0.104291
O O8 0.681186 0.108702 0.415795
O O9 0.542668 0.034268 0.334721
O O10 0.698651 0.025117 0.241227
O O11 0.664962 0.922099 0.403858
O O12 0.763687 0.750000 0.027765
O O13 0.771060 0.917928 0.105205
O O14 0.130884 0.551471 0.811780
O O15 0.797114 0.250000 0.968669
O O16 0.741496 0.398356 0.071033
#
# Coordination Sequence:
#
# PCOD8253273 Si02
#       7
#     8   8   8   8   8   8   8
#     4  10  20  37  61  89 115 149 201 255 302 342
#     4  10  20  37  61  89 115 149 201 255 302 342
#     4  11  23  40  60  88 122 158 199 243 301 355
#     4  10  22  40  60  85 123 159 195 248 299 351
#     4  12  22  36  62  87 119 158 198 243 291 358
#     4  10  22  40  60  85 123 159 195 248 299 351
#     4  11  22  39  60  89 116 157 205 242 298 353
#
# _framework density 19.942941999999999
#
# number of rings (size 3 to 8) (size 9 to 14) (size 15 to 20)
#    0.000    1.429    2.857    3.000    0.000    5.714 
#    0.000    1.429    0.000    0.000    0.000    0.000 
#    0.000    0.000    0.000    0.000    0.000    0.000 
#
# Total GULP energy -694678.386970 kJ/mol
# GULP energy per Si atom -12404.971196 kJ/mol
# Density = 1.989755 g / cm^3
# Si number density = 19.942942 Si / 1000 Ang^3
#
#
#
# Elastic Constant Matrix: (Units=GPa)
#
#
# Indices 1 2 3 4 5 6 
#
# 1 58.0548 6.9173 -8.7190 0.0000 0.0000 0.0000
# 2 6.9173 47.6412 -2.9564 0.0000 0.0000 0.0000
# 3 -8.7190 -2.9564 39.3022 0.0000 0.0000 0.0000
# 4 0.0000 0.0000 0.0000 20.0474 0.0000 0.0000
# 5 0.0000 0.0000 0.0000 0.0000 29.7898 0.0000
# 6 0.0000 0.0000 0.0000 0.0000 0.0000 23.0461
#
#
#
# Elastic Compliance Matrix: (Units=1/GPa)
#
#
# Indices 1 2 3 4 5 6 
#
# 1 0.018085 -0.002388 0.003832 0.000000 0.000000 0.000000
# 2 -0.002388 0.021404 0.001080 0.000000 0.000000 0.000000
# 3 0.003832 0.001080 0.026375 0.000000 0.000000 0.000000
# 4 0.000000 0.000000 0.000000 0.049882 0.000000 0.000000
# 5 0.000000 0.000000 0.000000 0.000000 0.033569 0.000000
# 6 0.000000 0.000000 0.000000 0.000000 0.000000 0.043391
#
#
# Mechanical properties :
#
#
# Convention : Reuss Voigt Hill
#
# Bulk Modulus (GPa) = 14.10161 15.05356 14.57758
# Shear Modulus (GPa) = 23.66363 24.56041 24.11202
#
# Velocity S-wave (km/s) = 3.44839 3.51313 3.48091
# Velocity P-wave (km/s) = 4.78973 4.90110 4.84574
#
# Compressibility (1/GPa) = 0.07091391
#
# Stress axis : x y z
#
# Youngs Moduli (GPa) = 55.29378 46.72026 37.91419
#
# Poissons Ratio (x) = 0.11157 -0.14531
# Poissons Ratio (y) = 0.13204 -0.04096
# Poissons Ratio (z) = -0.21191 -0.05047
#
# Static dielectric constant tensor:
#      x y z
#    x 3.584330 0.000000 0.000000 
#    y 0.000000 3.720040 0.000000 
#    z 0.000000 0.000000 3.604940 
# 
# 
# High freq. dielectric constant tensor:
#      x y z
#    x 1.776410 0.000000 0.000000 
#    y 0.000000 1.784350 0.000000 
#    z 0.000000 0.000000 1.778180 
# 
# From -- ./inp_files/13360.got.cif
#   From: 2010.03.12/outbox.cif.g09.slc.cpg/sg62_7_cif.got.tgz:13360.got - 2010.04.10 19:12:36.
