data_PCOD8253854
_publ_section_title
;
Structure prediction by ZEFSAII (Michael W. Deem and Ramdas Pophale) SiO2 
 PCOD8253854
Probable space group: P N M A
;
_chemical_formula_sum "Si O2"
_cell_formula_units_Z 48
_cell_length_a 22.767588
_cell_length_b 9.083543
_cell_length_c 11.695062
_cell_angle_alpha 90.000000
_cell_angle_beta 90.000000
_cell_angle_gamma 90.000000
_cell_volume 2418.660036
_symmetry_space_group_name_H-M "P N M A"
_symmetry_group_IT_number 62
_symmetry_cell_setting 'orthorhombic'
loop_
_space_group_symop_operation_xyz
x,y,z
1/2-x,-y,1/2+z
1/2+x,1/2-y,1/2-z
-x,1/2+y,-z
-x,-y,-z
1/2+x,y,1/2-z
1/2-x,1/2+y,1/2+z
x,1/2-y,z
loop_
_atom_site_type_symbol
_atom_site_label
_atom_site_fract_x
_atom_site_fract_y
_atom_site_fract_z
Si Si1 0.848594 0.076157 0.194196
Si Si2 0.937519 0.421591 0.003605
Si Si3 0.155383 0.089527 0.580099
Si Si4 0.387325 0.077864 0.742144
Si Si5 0.718971 0.075530 0.136194
Si Si6 0.955701 0.587199 0.577675
O O1 0.849242 0.250000 0.188790
O O2 0.784202 0.016941 0.161607
O O3 0.861932 0.025537 0.322817
O O4 0.898731 0.014942 0.109038
O O5 0.950468 0.250000 0.019075
O O6 0.898676 0.450788 0.891169
O O7 0.000000 0.500000 0.000000
O O8 0.168839 0.250000 0.635444
O O9 0.208882 0.036678 0.498431
O O10 0.103395 0.105746 0.491275
O O11 0.385912 0.250000 0.772295
O O12 0.325278 0.007292 0.778043
O O13 0.442354 0.003794 0.807514
O O14 0.711873 0.250000 0.157061
O O15 0.980533 0.750000 0.609379
O O16 0.000000 0.500000 0.500000
#
# Coordination Sequence:
#
# PCOD8253854 Si02
#       6
#     8   8   8   8   8   8
#     4  10  22  39  60  86 117 153 193 242 295 349
#     4  10  24  42  60  85 119 161 201 244 294 352
#     4   9  20  37  57  83 114 147 187 235 288 347
#     4  10  21  38  61  87 117 152 197 242 293 354
#     4   9  20  39  61  86 118 152 190 240 301 353
#     4  10  21  37  59  85 116 151 190 239 292 342
#
# _framework density 19.845699
#
# number of rings (size 3 to 8) (size 9 to 14) (size 15 to 20)
#    0.000    2.333    0.000    2.000    4.667    6.000 
#    0.000    0.000    0.000    0.000    0.000    0.000 
#    0.000    0.000    0.000    0.000    0.000    0.000 
#
# Total GULP energy -595085.972194 kJ/mol
# GULP energy per Si atom -12397.624421 kJ/mol
# Density = 1.980053 g / cm^3
# Si number density = 19.845699 Si / 1000 Ang^3
#
#
#
# Elastic Constant Matrix: (Units=GPa)
#
#
# Indices 1 2 3 4 5 6 
#
# 1 76.8340 32.7165 27.3211 0.0000 0.0000 0.0000
# 2 32.7165 74.5515 34.0628 0.0000 0.0000 0.0000
# 3 27.3211 34.0628 104.4255 0.0000 0.0000 0.0000
# 4 0.0000 0.0000 0.0000 33.6913 0.0000 0.0000
# 5 0.0000 0.0000 0.0000 0.0000 18.4527 0.0000
# 6 0.0000 0.0000 0.0000 0.0000 0.0000 31.7602
#
#
#
# Elastic Compliance Matrix: (Units=1/GPa)
#
#
# Indices 1 2 3 4 5 6 
#
# 1 0.016460 -0.006176 -0.002292 0.000000 0.000000 0.000000
# 2 -0.006176 0.018080 -0.004282 0.000000 0.000000 0.000000
# 3 -0.002292 -0.004282 0.011572 0.000000 0.000000 0.000000
# 4 0.000000 0.000000 0.000000 0.029681 0.000000 0.000000
# 5 0.000000 0.000000 0.000000 0.000000 0.054192 0.000000
# 6 0.000000 0.000000 0.000000 0.000000 0.000000 0.031486
#
#
# Mechanical properties :
#
#
# Convention : Reuss Voigt Hill
#
# Bulk Modulus (GPa) = 48.51275 49.33464 48.92370
# Shear Modulus (GPa) = 25.79408 27.56155 26.67782
#
# Velocity S-wave (km/s) = 3.60909 3.73069 3.67040
# Velocity P-wave (km/s) = 6.47035 6.59322 6.53207
#
# Compressibility (1/GPa) = 0.02061314
#
# Stress axis : x y z
#
# Youngs Moduli (GPa) = 60.75385 55.30888 86.41180
#
# Poissons Ratio (x) = 0.34160 0.19804
# Poissons Ratio (y) = 0.37523 0.36999
# Poissons Ratio (z) = 0.13924 0.23682
#
# Static dielectric constant tensor:
#      x y z
#    x 2.872360 0.000000 0.000000 
#    y 0.000000 3.709850 0.000000 
#    z 0.000000 0.000000 3.321220 
# 
# 
# High freq. dielectric constant tensor:
#      x y z
#    x 1.776960 0.000000 0.000000 
#    y 0.000000 1.769400 0.000000 
#    z 0.000000 0.000000 1.776830 
# 
# From -- ./inp_files/15123.got.cif
#   From: 2010.03.12/outbox.cif.g09.slc.cpg/sg62_8_cif.got.tgz:15123.got - 2010.04.10 19:12:36.
