data_PCOD8253161
_publ_section_title
;
Structure prediction by ZEFSAII (Michael W. Deem and Ramdas Pophale) SiO2 
 PCOD8253161
Probable space group: P N M A
;
_chemical_formula_sum "Si O2"
_cell_formula_units_Z 64
_cell_length_a 23.753674
_cell_length_b 9.085685
_cell_length_c 15.064819
_cell_angle_alpha 90.000000
_cell_angle_beta 90.000000
_cell_angle_gamma 90.000000
_cell_volume 3251.265126
_symmetry_space_group_name_H-M "P N M A"
_symmetry_group_IT_number 62
_symmetry_cell_setting 'orthorhombic'
loop_
_space_group_symop_operation_xyz
x,y,z
1/2-x,-y,1/2+z
1/2+x,1/2-y,1/2-z
-x,1/2+y,-z
-x,-y,-z
1/2+x,y,1/2-z
1/2-x,1/2+y,1/2+z
x,1/2-y,z
loop_
_atom_site_type_symbol
_atom_site_label
_atom_site_fract_x
_atom_site_fract_y
_atom_site_fract_z
Si Si1 0.671246 0.574709 0.565994
Si Si2 0.028810 0.082184 0.580408
Si Si3 0.984790 0.576982 0.748928
Si Si4 0.245220 0.924761 0.767246
Si Si5 0.958410 0.421810 0.067245
Si Si6 0.632812 0.082670 0.198240
Si Si7 0.253711 0.077388 0.065074
Si Si8 0.855828 0.912886 0.500527
O O1 0.675769 0.750000 0.559794
O O2 0.700552 0.517487 0.658443
O O3 0.606178 0.522371 0.563094
O O4 0.700659 0.504982 0.479110
O O5 0.007544 0.250000 0.580335
O O6 0.096202 0.072433 0.572682
O O7 0.016950 0.006723 0.672657
O O8 0.000000 0.000000 0.500000
O O9 0.984734 0.750000 0.726796
O O10 0.018070 0.538543 0.836780
O O11 0.919727 0.518850 0.755101
O O12 0.245613 0.750000 0.775464
O O13 0.306984 0.995444 0.786684
O O14 0.232524 0.973913 0.666171
O O15 0.961078 0.250000 0.047142
O O16 0.000000 0.500000 0.000000
O O17 0.641725 0.250000 0.228057
O O18 0.614605 0.066761 0.095865
O O19 0.241482 0.250000 0.060378
O O20 0.308957 0.037142 0.009695
O O21 0.827255 0.750000 0.496153
#
# Coordination Sequence:
#
# PCOD8253161 Si02
#       8
#     8   8   8   8   8   8   8   8
#     4  10  21  42  63  84 119 162 198 240 302 370
#     4  11  22  36  56  86 123 161 196 238 295 359
#     4  10  21  38  61  87 114 156 206 248 297 359
#     4   9  19  35  59  85 111 148 195 239 292 356
#     4  10  24  42  65  88 117 162 210 256 305 356
#     4   9  16  33  59  81 107 148 194 237 287 355
#     4  11  23  36  60  93 115 146 196 252 298 343
#     4  10  20  37  58  81 117 161 192 226 293 365
#
# _framework density 19.684645
#
# number of rings (size 3 to 8) (size 9 to 14) (size 15 to 20)
#    0.000    2.000    2.500    0.750    3.500    2.000 
#    0.000    1.250    0.000    0.000    0.000    0.000 
#    0.000    0.000    0.000    0.000    0.000    0.000 
#
# Total GULP energy -793261.101841 kJ/mol
# GULP energy per Si atom -12394.704716 kJ/mol
# Density = 1.963984 g / cm^3
# Si number density = 19.684645 Si / 1000 Ang^3
#
#
#
# Elastic Constant Matrix: (Units=GPa)
#
#
# Indices 1 2 3 4 5 6 
#
# 1 142.2245 33.0580 63.0652 0.0000 0.0000 0.0000
# 2 33.0580 48.5491 49.0357 0.0000 0.0000 0.0000
# 3 63.0652 49.0357 103.0526 0.0000 0.0000 0.0000
# 4 0.0000 0.0000 0.0000 30.6904 0.0000 0.0000
# 5 0.0000 0.0000 0.0000 0.0000 32.7694 0.0000
# 6 0.0000 0.0000 0.0000 0.0000 0.0000 26.9135
#
#
#
# Elastic Compliance Matrix: (Units=1/GPa)
#
#
# Indices 1 2 3 4 5 6 
#
# 1 0.009684 -0.001171 -0.005369 0.000000 0.000000 0.000000
# 2 -0.001171 0.039798 -0.018221 0.000000 0.000000 0.000000
# 3 -0.005369 -0.018221 0.021659 0.000000 0.000000 0.000000
# 4 0.000000 0.000000 0.000000 0.032583 0.000000 0.000000
# 5 0.000000 0.000000 0.000000 0.000000 0.030516 0.000000
# 6 0.000000 0.000000 0.000000 0.000000 0.000000 0.037156
#
#
# Mechanical properties :
#
#
# Convention : Reuss Voigt Hill
#
# Bulk Modulus (GPa) = 46.25310 64.90488 55.57899
# Shear Modulus (GPa) = 21.91769 27.98582 24.95176
#
# Velocity S-wave (km/s) = 3.34045 3.77465 3.56416
# Velocity P-wave (km/s) = 6.19888 7.21396 6.72560
#
# Compressibility (1/GPa) = 0.02162017
#
# Stress axis : x y z
#
# Youngs Moduli (GPa) = 103.26162 25.12669 46.16921
#
# Poissons Ratio (x) = 0.02943 0.24789
# Poissons Ratio (y) = 0.12094 0.84123
# Poissons Ratio (z) = 0.55443 0.45782
#
# Static dielectric constant tensor:
#      x y z
#    x 3.846790 0.000000 0.000000 
#    y 0.000000 3.315000 0.000000 
#    z 0.000000 0.000000 3.953530 
# 
# 
# High freq. dielectric constant tensor:
#      x y z
#    x 1.782070 0.000000 0.000000 
#    y 0.000000 1.732400 0.000000 
#    z 0.000000 0.000000 1.770720 
# 
# From -- ./inp_files/20895.got.cif
#   From: 2010.03.12/outbox.cif.g09.slc.cpg/sg62_11_cif.got.tgz:20895.got - 2010.04.10 19:12:36.
