data_PCOD8253218
_publ_section_title
;
Structure prediction by ZEFSAII (Michael W. Deem and Ramdas Pophale) SiO2 
 PCOD8253218
Probable space group: P N M A
;
_chemical_formula_sum "Si O2"
_cell_formula_units_Z 40
_cell_length_a 24.822022
_cell_length_b 8.914519
_cell_length_c 9.102315
_cell_angle_alpha 90.000000
_cell_angle_beta 90.000000
_cell_angle_gamma 90.000000
_cell_volume 2014.127374
_symmetry_space_group_name_H-M "P N M A"
_symmetry_group_IT_number 62
_symmetry_cell_setting 'orthorhombic'
loop_
_space_group_symop_operation_xyz
x,y,z
1/2-x,-y,1/2+z
1/2+x,1/2-y,1/2-z
-x,1/2+y,-z
-x,-y,-z
1/2+x,y,1/2-z
1/2-x,1/2+y,1/2+z
x,1/2-y,z
loop_
_atom_site_type_symbol
_atom_site_label
_atom_site_fract_x
_atom_site_fract_y
_atom_site_fract_z
Si Si1 0.392004 0.425808 0.672575
Si Si2 0.516692 0.425652 0.151122
Si Si3 0.284314 0.923541 0.604713
Si Si4 0.691307 0.423031 0.731159
Si Si5 0.085526 0.923686 0.841510
O O1 0.392959 0.250000 0.703510
O O2 0.426868 0.506917 0.796514
O O3 0.330957 0.483483 0.686499
O O4 0.415991 0.467396 0.512980
O O5 0.523494 0.250000 0.126309
O O6 0.472207 0.462702 0.274207
O O7 0.500000 0.500000 0.000000
O O8 0.291841 0.750000 0.644523
O O9 0.286522 0.951365 0.431487
O O10 0.226551 0.981223 0.656437
O O11 0.693811 0.250000 0.776818
O O12 0.629916 0.478553 0.743561
O O13 0.100907 0.750000 0.821477
#
# Coordination Sequence:
#
# PCOD8253218 Si02
#       5
#     8   8   8   8   8
#     4  10  20  37  60  83 108 142 184 227 273 326
#     4  11  23  38  56  82 114 146 182 226 276 326
#     4  10  21  37  57  82 112 145 182 224 271 324
#     4  10  21  36  57  84 111 143 184 227 272 324
#     4   9  20  38  59  81 108 144 184 226 272 326
#
# _framework density 19.859717
#
# number of rings (size 3 to 8) (size 9 to 14) (size 15 to 20)
#    0.000    2.000    0.000    3.000    0.000    6.400 
#    0.000    2.000    0.000    0.000    0.000    0.000 
#    0.000    0.000    0.000    0.000    0.000    0.000 
#
# Total GULP energy -496255.812835 kJ/mol
# GULP energy per Si atom -12406.395321 kJ/mol
# Density = 1.981452 g / cm^3
# Si number density = 19.859717 Si / 1000 Ang^3
#
#
#
# Elastic Constant Matrix: (Units=GPa)
#
#
# Indices 1 2 3 4 5 6 
#
# 1 42.2860 21.3907 -4.7974 0.0000 0.0000 0.0000
# 2 21.3907 85.0110 17.8234 0.0000 0.0000 0.0000
# 3 -4.7974 17.8234 25.9071 0.0000 0.0000 0.0000
# 4 0.0000 0.0000 0.0000 32.1094 0.0000 0.0000
# 5 0.0000 0.0000 0.0000 0.0000 34.5689 0.0000
# 6 0.0000 0.0000 0.0000 0.0000 0.0000 39.6056
#
#
#
# Elastic Compliance Matrix: (Units=1/GPa)
#
#
# Indices 1 2 3 4 5 6 
#
# 1 0.030287 -0.010280 0.012680 0.000000 0.000000 0.000000
# 2 -0.010280 0.017235 -0.013761 0.000000 0.000000 0.000000
# 3 0.012680 -0.013761 0.050414 0.000000 0.000000 0.000000
# 4 0.000000 0.000000 0.000000 0.031144 0.000000 0.000000
# 5 0.000000 0.000000 0.000000 0.000000 0.028928 0.000000
# 6 0.000000 0.000000 0.000000 0.000000 0.000000 0.025249
#
#
# Mechanical properties :
#
#
# Convention : Reuss Voigt Hill
#
# Bulk Modulus (GPa) = 13.29487 24.67084 18.98285
# Shear Modulus (GPa) = 21.64053 29.17595 25.40824
#
# Velocity S-wave (km/s) = 3.30460 3.83704 3.58073
# Velocity P-wave (km/s) = 4.61187 5.66393 5.16476
#
# Compressibility (1/GPa) = 0.07521698
#
# Stress axis : x y z
#
# Youngs Moduli (GPa) = 33.01739 58.02221 19.83561
#
# Poissons Ratio (x) = 0.59644 -0.25152
# Poissons Ratio (y) = 0.33940 0.27295
# Poissons Ratio (z) = -0.41867 0.79842
#
# Static dielectric constant tensor:
#      x y z
#    x 3.597220 0.000000 0.000000 
#    y 0.000000 3.679000 0.000000 
#    z 0.000000 0.000000 3.771650 
# 
# 
# High freq. dielectric constant tensor:
#      x y z
#    x 1.780280 0.000000 0.000000 
#    y 0.000000 1.785930 0.000000 
#    z 0.000000 0.000000 1.765930 
# 
# From -- ./inp_files/9058.got.cif
#   From: 2010.03.12/outbox.cif.g09.slc.cpg/sg62_5_cif.got.tgz:9058.got - 2010.04.10 19:12:36.
