data_PCOD8253485
_publ_section_title
;
Structure prediction by ZEFSAII (Michael W. Deem and Ramdas Pophale) SiO2 
 PCOD8253485
Probable space group: P N M A
;
_chemical_formula_sum "Si O2"
_cell_formula_units_Z 48
_cell_length_a 8.786671
_cell_length_b 13.975002
_cell_length_c 20.997728
_cell_angle_alpha 90.000000
_cell_angle_beta 90.000000
_cell_angle_gamma 90.000000
_cell_volume 2578.389653
_symmetry_space_group_name_H-M "P N M A"
_symmetry_group_IT_number 62
_symmetry_cell_setting 'orthorhombic'
loop_
_space_group_symop_operation_xyz
x,y,z
1/2-x,-y,1/2+z
1/2+x,1/2-y,1/2-z
-x,1/2+y,-z
-x,-y,-z
1/2+x,y,1/2-z
1/2-x,1/2+y,1/2+z
x,1/2-y,z
loop_
_atom_site_type_symbol
_atom_site_label
_atom_site_fract_x
_atom_site_fract_y
_atom_site_fract_z
Si Si1 0.631782 0.481247 0.450225
Si Si2 0.469597 0.856385 0.665124
Si Si3 0.240482 0.564735 0.761983
Si Si4 0.989004 0.502839 0.337725
Si Si5 0.083421 0.860772 0.551235
Si Si6 0.365424 0.640180 0.066195
O O1 0.500000 0.500000 0.500000
O O2 0.557520 0.436772 0.387524
O O3 0.762975 0.409853 0.476434
O O4 0.706686 0.583288 0.433473
O O5 0.457605 0.750000 0.635461
O O6 0.637311 0.868969 0.693475
O O7 0.346351 0.865381 0.720996
O O8 0.344114 0.497686 0.806961
O O9 0.138318 0.496807 0.717434
O O10 0.963112 0.410068 0.382500
O O11 0.974419 0.599866 0.378286
O O12 0.116821 0.750000 0.564989
O O13 0.947935 0.874485 0.501283
O O14 0.329105 0.750000 0.080097
#
# Coordination Sequence:
#
# PCOD8253485 Si02
#       6
#     8   8   8   8   8   8
#     4  11  23  37  58  85 122 153 186 244 293 339
#     4  11  22  37  58  89 120 151 185 232 289 354
#     4  10  22  36  60  83 119 153 188 223 290 348
#     4  10  20  39  59  84 118 149 187 238 285 340
#     4  10  21  38  62  86 112 150 191 237 292 350
#     4  10  22  41  63  83 110 157 206 243 283 338
#
# _framework density 18.616271999999999
#
# number of rings (size 3 to 8) (size 9 to 14) (size 15 to 20)
#    0.000    1.667    3.333    3.000    4.667    4.667 
#    0.000    0.833    0.000    0.000    0.000    0.000 
#    0.000    0.000    0.000    0.000    0.000    0.000 
#
# Total GULP energy -595247.292316 kJ/mol
# GULP energy per Si atom -12400.985257 kJ/mol
# Density = 1.857390 g / cm^3
# Si number density = 18.616272 Si / 1000 Ang^3
#
#
#
# Elastic Constant Matrix: (Units=GPa)
#
#
# Indices 1 2 3 4 5 6 
#
# 1 121.7231 52.6607 60.9212 0.0000 0.0000 0.0000
# 2 52.6607 147.5858 63.1424 0.0000 0.0000 0.0000
# 3 60.9212 63.1424 100.5206 0.0000 0.0000 0.0000
# 4 0.0000 0.0000 0.0000 22.6872 0.0000 0.0000
# 5 0.0000 0.0000 0.0000 0.0000 35.2988 0.0000
# 6 0.0000 0.0000 0.0000 0.0000 0.0000 17.0455
#
#
#
# Elastic Compliance Matrix: (Units=1/GPa)
#
#
# Indices 1 2 3 4 5 6 
#
# 1 0.012065 -0.001609 -0.006302 0.000000 0.000000 0.000000
# 2 -0.001609 0.009480 -0.004980 0.000000 0.000000 0.000000
# 3 -0.006302 -0.004980 0.016896 0.000000 0.000000 0.000000
# 4 0.000000 0.000000 0.000000 0.044078 0.000000 0.000000
# 5 0.000000 0.000000 0.000000 0.000000 0.028330 0.000000
# 6 0.000000 0.000000 0.000000 0.000000 0.000000 0.058666
#
#
# Mechanical properties :
#
#
# Convention : Reuss Voigt Hill
#
# Bulk Modulus (GPa) = 78.98832 80.36423 79.67627
# Shear Modulus (GPa) = 25.06059 27.87998 26.47028
#
# Velocity S-wave (km/s) = 3.67299 3.87410 3.77489
# Velocity P-wave (km/s) = 7.77880 7.95450 7.86714
#
# Compressibility (1/GPa) = 0.01266010
#
# Stress axis : x y z
#
# Youngs Moduli (GPa) = 82.88193 105.47986 59.18725
#
# Poissons Ratio (x) = 0.16972 0.37297
# Poissons Ratio (y) = 0.13336 0.29475
# Poissons Ratio (z) = 0.52228 0.52529
#
# Static dielectric constant tensor:
#      x y z
#    x 3.593670 0.000000 0.000000 
#    y 0.000000 3.322430 0.000000 
#    z 0.000000 0.000000 3.498770 
# 
# 
# High freq. dielectric constant tensor:
#      x y z
#    x 1.732930 0.000000 0.000000 
#    y 0.000000 1.707100 0.000000 
#    z 0.000000 0.000000 1.724640 
# 
# From -- ./inp_files/25846.got.cif
#   From: 2010.03.12/outbox.cif.g09.slc.cpg/sg62_13_cif.got.tgz:25846.got - 2010.04.10 19:12:36.
