data_PCOD8253472
_publ_section_title
;
Structure prediction by ZEFSAII (Michael W. Deem and Ramdas Pophale) SiO2 
 PCOD8253472
Probable space group: P N M A
;
_chemical_formula_sum "Si O2"
_cell_formula_units_Z 48
_cell_length_a 11.473862
_cell_length_b 10.899684
_cell_length_c 18.400311
_cell_angle_alpha 90.000000
_cell_angle_beta 90.000000
_cell_angle_gamma 90.000000
_cell_volume 2301.169943
_symmetry_space_group_name_H-M "P N M A"
_symmetry_group_IT_number 62
_symmetry_cell_setting 'orthorhombic'
loop_
_space_group_symop_operation_xyz
x,y,z
1/2-x,-y,1/2+z
1/2+x,1/2-y,1/2-z
-x,1/2+y,-z
-x,-y,-z
1/2+x,y,1/2-z
1/2-x,1/2+y,1/2+z
x,1/2-y,z
loop_
_atom_site_type_symbol
_atom_site_label
_atom_site_fract_x
_atom_site_fract_y
_atom_site_fract_z
Si Si1 0.550552 0.885689 0.043924
Si Si2 0.324280 0.888855 0.467135
Si Si3 0.667893 0.497918 0.382889
Si Si4 0.068250 0.750000 0.701590
Si Si5 0.446793 0.890927 0.323508
Si Si6 0.915555 0.514502 0.333955
Si Si7 0.669090 0.250000 0.295138
O O1 0.504317 0.750000 0.019565
O O2 0.686844 0.887485 0.035970
O O3 0.517303 0.906227 0.128765
O O4 0.500000 0.000000 0.000000
O O5 0.372343 0.750000 0.478803
O O6 0.363742 0.979009 0.532144
O O7 0.370809 0.941930 0.390784
O O8 0.581078 0.593197 0.345199
O O9 0.795252 0.556261 0.371540
O O10 0.659898 0.367346 0.345252
O O11 0.064496 0.630268 0.650319
O O12 0.198876 0.750000 0.742209
O O13 0.947432 0.750000 0.746475
O O14 0.419317 0.750000 0.306587
O O15 0.413696 0.968751 0.252731
#
# Coordination Sequence:
#
# PCOD8253472 Si02
#       7
#     8   8   8   4   8   8   4
#     4  11  24  42  68  94 130 171 216 267 328 390
#     4  10  22  42  66  92 125 172 214 265 334 394
#     4  11  21  41  66  89 128 166 214 266 324 388
#     4  10  22  38  68  96 124 171 215 267 333 392
#     4  11  25  40  63  94 129 172 216 262 326 398
#     4  11  24  41  66  95 128 166 217 271 324 390
#     4  10  20  38  66  94 126 167 215 265 327 394
#
# _framework density 20.858955999999999
#
# number of rings (size 3 to 8) (size 9 to 14) (size 15 to 20)
#    0.000    1.333    4.167    1.000    3.500    1.333 
#    0.000    0.000    3.667    0.000    0.000    0.000 
#    0.000    0.000    0.000    0.000    0.000    0.000 
#
# Total GULP energy -594924.881966 kJ/mol
# GULP energy per Si atom -12394.268374 kJ/mol
# Density = 2.081148 g / cm^3
# Si number density = 20.858956 Si / 1000 Ang^3
#
#
#
# Elastic Constant Matrix: (Units=GPa)
#
#
# Indices 1 2 3 4 5 6 
#
# 1 61.0865 22.3334 12.4976 0.0000 0.0000 0.0000
# 2 22.3334 91.2040 26.0619 0.0000 0.0000 0.0000
# 3 12.4976 26.0619 101.6816 0.0000 0.0000 0.0000
# 4 0.0000 0.0000 0.0000 24.2229 0.0000 0.0000
# 5 0.0000 0.0000 0.0000 0.0000 39.7732 0.0000
# 6 0.0000 0.0000 0.0000 0.0000 0.0000 16.5528
#
#
#
# Elastic Compliance Matrix: (Units=1/GPa)
#
#
# Indices 1 2 3 4 5 6 
#
# 1 0.018109 -0.004099 -0.001175 0.000000 0.000000 0.000000
# 2 -0.004099 0.012759 -0.002766 0.000000 0.000000 0.000000
# 3 -0.001175 -0.002766 0.010688 0.000000 0.000000 0.000000
# 4 0.000000 0.000000 0.000000 0.041283 0.000000 0.000000
# 5 0.000000 0.000000 0.000000 0.000000 0.025143 0.000000
# 6 0.000000 0.000000 0.000000 0.000000 0.000000 0.060413
#
#
# Mechanical properties :
#
#
# Convention : Reuss Voigt Hill
#
# Bulk Modulus (GPa) = 39.25367 41.75088 40.50228
# Shear Modulus (GPa) = 25.91121 28.98172 27.44647
#
# Velocity S-wave (km/s) = 3.52832 3.73153 3.63135
# Velocity P-wave (km/s) = 5.95468 6.21490 6.08618
#
# Compressibility (1/GPa) = 0.02547532
#
# Stress axis : x y z
#
# Youngs Moduli (GPa) = 55.22071 78.37865 93.56184
#
# Poissons Ratio (x) = 0.32124 0.10996
# Poissons Ratio (y) = 0.22633 0.25883
# Poissons Ratio (z) = 0.06490 0.21682
#
# Static dielectric constant tensor:
#      x y z
#    x 4.082970 0.000000 0.000000 
#    y 0.000000 4.183600 0.000000 
#    z 0.000000 0.000000 3.812600 
# 
# 
# High freq. dielectric constant tensor:
#      x y z
#    x 1.821290 0.000000 0.000000 
#    y 0.000000 1.816700 0.000000 
#    z 0.000000 0.000000 1.810880 
# 
# From -- ./inp_files/23044.got.cif
#   From: 2010.03.12/outbox.cif.g09.slc.cpg/sg62_12_cif.got.tgz:23044.got - 2010.04.10 19:12:36.
