data_PCOD8253570
_publ_section_title
;
Structure prediction by ZEFSAII (Michael W. Deem and Ramdas Pophale) SiO2 
 PCOD8253570
Probable space group: P N M A
;
_chemical_formula_sum "Si O2"
_cell_formula_units_Z 64
_cell_length_a 27.133144
_cell_length_b 18.056344
_cell_length_c 6.596069
_cell_angle_alpha 90.000000
_cell_angle_beta 90.000000
_cell_angle_gamma 90.000000
_cell_volume 3231.581624
_symmetry_space_group_name_H-M "P N M A"
_symmetry_group_IT_number 62
_symmetry_cell_setting 'orthorhombic'
loop_
_space_group_symop_operation_xyz
x,y,z
1/2-x,-y,1/2+z
1/2+x,1/2-y,1/2-z
-x,1/2+y,-z
-x,-y,-z
1/2+x,y,1/2-z
1/2-x,1/2+y,1/2+z
x,1/2-y,z
loop_
_atom_site_type_symbol
_atom_site_label
_atom_site_fract_x
_atom_site_fract_y
_atom_site_fract_z
Si Si1 0.859984 0.665107 0.403122
Si Si2 0.181407 0.448833 0.877648
Si Si3 0.392318 0.447158 0.605576
Si Si4 0.325978 0.166282 0.802413
Si Si5 0.561901 0.443973 0.066936
Si Si6 0.249227 0.169541 0.467910
Si Si7 0.280562 0.429592 0.119425
Si Si8 0.527265 0.966110 0.691045
O O1 0.876393 0.750000 0.359119
O O2 0.900870 0.624683 0.542901
O O3 0.809369 0.663037 0.526807
O O4 0.850606 0.622925 0.188837
O O5 0.149739 0.498220 0.027436
O O6 0.230415 0.427970 0.996108
O O7 0.197024 0.489261 0.665225
O O8 0.369518 0.369027 0.670417
O O9 0.417783 0.487949 0.797032
O O10 0.427410 0.423700 0.416259
O O11 0.340988 0.250000 0.855808
O O12 0.272998 0.163219 0.690666
O O13 0.321716 0.118241 0.005745
O O14 0.511395 0.415903 0.179347
O O15 0.549404 0.471609 0.840823
O O16 0.263002 0.250000 0.373711
O O17 0.272173 0.104414 0.339133
O O18 0.500000 0.000000 0.500000
#
# Coordination Sequence:
#
# PCOD8253570 Si02
#       8
#     8   8   8   8   8   8   8   8
#     4  11  22  38  58  86 125 160 199 251 302 362
#     4  12  22  35  57  87 118 159 211 247 291 353
#     4  11  21  38  62  92 117 150 198 250 298 357
#     4  11  23  38  56  84 122 162 202 244 296 356
#     4  10  20  40  66  91 115 151 199 245 307 366
#     4  10  21  38  56  82 123 168 203 241 298 356
#     4  12  22  37  55  83 119 168 206 256 286 341
#     4   9  20  38  67  92 115 144 192 251 305 361
#
# _framework density 19.804544
#
# number of rings (size 3 to 8) (size 9 to 14) (size 15 to 20)
#    0.000    1.250    3.750    3.375    0.000    0.500 
#    0.000    1.250    0.000    6.750    0.000    0.000 
#    0.000    0.000    0.000    0.000    0.000    0.000 
#
# Total GULP energy -793277.193037 kJ/mol
# GULP energy per Si atom -12394.956141 kJ/mol
# Density = 1.975947 g / cm^3
# Si number density = 19.804544 Si / 1000 Ang^3
#
#
#
# Elastic Constant Matrix: (Units=GPa)
#
#
# Indices 1 2 3 4 5 6 
#
# 1 71.9068 21.0929 21.6569 0.0000 0.0000 0.0000
# 2 21.0929 67.9233 21.1474 0.0000 0.0000 0.0000
# 3 21.6569 21.1474 85.0326 0.0000 0.0000 0.0000
# 4 0.0000 0.0000 0.0000 26.0135 0.0000 0.0000
# 5 0.0000 0.0000 0.0000 0.0000 43.1856 0.0000
# 6 0.0000 0.0000 0.0000 0.0000 0.0000 24.3620
#
#
#
# Elastic Compliance Matrix: (Units=1/GPa)
#
#
# Indices 1 2 3 4 5 6 
#
# 1 0.016012 -0.004013 -0.003080 0.000000 0.000000 0.000000
# 2 -0.004013 0.016964 -0.003197 0.000000 0.000000 0.000000
# 3 -0.003080 -0.003197 0.013340 0.000000 0.000000 0.000000
# 4 0.000000 0.000000 0.000000 0.038442 0.000000 0.000000
# 5 0.000000 0.000000 0.000000 0.000000 0.023156 0.000000
# 6 0.000000 0.000000 0.000000 0.000000 0.000000 0.041047
#
#
# Mechanical properties :
#
#
# Convention : Reuss Voigt Hill
#
# Bulk Modulus (GPa) = 38.85701 39.18414 39.02057
# Shear Modulus (GPa) = 28.07111 29.44325 28.75718
#
# Velocity S-wave (km/s) = 3.76893 3.85995 3.81471
# Velocity P-wave (km/s) = 6.21310 6.30031 6.25686
#
# Compressibility (1/GPa) = 0.02573538
#
# Stress axis : x y z
#
# Youngs Moduli (GPa) = 62.45408 58.94800 74.96455
#
# Poissons Ratio (x) = 0.23658 0.23088
# Poissons Ratio (y) = 0.25065 0.23964
# Poissons Ratio (z) = 0.19235 0.18844
#
# Static dielectric constant tensor:
#      x y z
#    x 3.914280 0.000000 0.000000 
#    y 0.000000 3.553520 0.000000 
#    z 0.000000 0.000000 3.733120 
# 
# 
# High freq. dielectric constant tensor:
#      x y z
#    x 1.776030 0.000000 0.000000 
#    y 0.000000 1.748870 0.000000 
#    z 0.000000 0.000000 1.779430 
# 
# From -- ./inp_files/3701.got.cif
#   From: 2010.03.12/outbox.cif.g09.slc.cpg/sg62_2_cif.got.tgz:3701.got - 2010.04.10 19:12:36.
