data_PCOD8253547
_publ_section_title
;
Structure prediction by ZEFSAII (Michael W. Deem and Ramdas Pophale) SiO2 
 PCOD8253547
Probable space group: P N M A
;
_chemical_formula_sum "Si O2"
_cell_formula_units_Z 56
_cell_length_a 15.389020
_cell_length_b 13.844509
_cell_length_c 12.823189
_cell_angle_alpha 90.000000
_cell_angle_beta 90.000000
_cell_angle_gamma 90.000000
_cell_volume 2732.024347
_symmetry_space_group_name_H-M "P N M A"
_symmetry_group_IT_number 62
_symmetry_cell_setting 'orthorhombic'
loop_
_space_group_symop_operation_xyz
x,y,z
1/2-x,-y,1/2+z
1/2+x,1/2-y,1/2-z
-x,1/2+y,-z
-x,-y,-z
1/2+x,y,1/2-z
1/2-x,1/2+y,1/2+z
x,1/2-y,z
loop_
_atom_site_type_symbol
_atom_site_label
_atom_site_fract_x
_atom_site_fract_y
_atom_site_fract_z
Si Si1 0.938925 0.360234 0.266739
Si Si2 0.742370 0.138838 0.316146
Si Si3 0.447722 0.639886 0.969813
Si Si4 0.643588 0.038576 0.494657
Si Si5 0.697435 0.023313 0.118040
Si Si6 0.069402 0.637482 0.344620
Si Si7 0.501951 0.541760 0.355707
O O1 0.940210 0.250000 0.222375
O O2 0.844504 0.385344 0.314124
O O3 0.968001 0.434747 0.177222
O O4 0.006480 0.371762 0.359358
O O5 0.724049 0.250000 0.294497
O O6 0.701994 0.113251 0.428899
O O7 0.693515 0.081587 0.225688
O O8 0.422280 0.750000 0.993713
O O9 0.360810 0.576578 0.968716
O O10 0.509501 0.600765 0.060911
O O11 0.593118 0.966475 0.416871
O O12 0.706257 0.979074 0.571663
O O13 0.570879 0.089404 0.568384
O O14 0.661089 0.917154 0.145605
O O15 0.090861 0.750000 0.350887
O O16 0.016520 0.613063 0.240225
#
# Coordination Sequence:
#
# PCOD8253547 Si02
#       7
#     8   8   8   8   8   8   8
#     4  10  20  39  68  99 128 161 212 269 316 370
#     4  11  23  41  66  99 129 162 214 270 317 377
#     4  10  21  37  64  97 125 165 213 263 322 374
#     4  11  25  40  66  94 128 169 211 259 323 381
#     4  12  22  39  68  93 130 164 212 270 319 371
#     4  11  24  42  63  93 129 170 216 259 313 387
#     4  11  23  44  63  92 131 174 212 253 323 390
#
# _framework density 20.497620999999999
#
# number of rings (size 3 to 8) (size 9 to 14) (size 15 to 20)
#    0.000    1.143    4.286    1.714    2.000    4.000 
#    0.000    3.571    0.000    0.000    0.000    0.000 
#    0.000    0.000    0.000    0.000    0.000    0.000 
#
# Total GULP energy -694540.534369 kJ/mol
# GULP energy per Si atom -12402.509542 kJ/mol
# Density = 2.045097 g / cm^3
# Si number density = 20.497621 Si / 1000 Ang^3
#
#
#
# Elastic Constant Matrix: (Units=GPa)
#
#
# Indices 1 2 3 4 5 6 
#
# 1 109.4123 33.2575 32.2153 0.0000 0.0000 0.0000
# 2 33.2575 61.0668 27.7436 0.0000 0.0000 0.0000
# 3 32.2153 27.7436 95.3254 0.0000 0.0000 0.0000
# 4 0.0000 0.0000 0.0000 24.7102 0.0000 0.0000
# 5 0.0000 0.0000 0.0000 0.0000 41.8266 0.0000
# 6 0.0000 0.0000 0.0000 0.0000 0.0000 21.0574
#
#
#
# Elastic Compliance Matrix: (Units=1/GPa)
#
#
# Indices 1 2 3 4 5 6 
#
# 1 0.011394 -0.005135 -0.002356 0.000000 0.000000 0.000000
# 2 -0.005135 0.021185 -0.004430 0.000000 0.000000 0.000000
# 3 -0.002356 -0.004430 0.012576 0.000000 0.000000 0.000000
# 4 0.000000 0.000000 0.000000 0.040469 0.000000 0.000000
# 5 0.000000 0.000000 0.000000 0.000000 0.023908 0.000000
# 6 0.000000 0.000000 0.000000 0.000000 0.000000 0.047489
#
#
# Mechanical properties :
#
#
# Convention : Reuss Voigt Hill
#
# Bulk Modulus (GPa) = 46.92141 50.24858 48.58499
# Shear Modulus (GPa) = 26.60017 29.02473 27.81245
#
# Velocity S-wave (km/s) = 3.60630 3.76707 3.68756
# Velocity P-wave (km/s) = 6.34676 6.59459 6.47186
#
# Compressibility (1/GPa) = 0.02131223
#
# Stress axis : x y z
#
# Youngs Moduli (GPa) = 87.76265 47.20372 79.51611
#
# Poissons Ratio (x) = 0.24239 0.18736
# Poissons Ratio (y) = 0.45066 0.35228
# Poissons Ratio (z) = 0.20679 0.20912
#
# Static dielectric constant tensor:
#      x y z
#    x 3.843950 0.000000 0.000000 
#    y 0.000000 3.566250 0.000000 
#    z 0.000000 0.000000 3.783550 
# 
# 
# High freq. dielectric constant tensor:
#      x y z
#    x 1.812970 0.000000 0.000000 
#    y 0.000000 1.784880 0.000000 
#    z 0.000000 0.000000 1.809160 
# 
# From -- ./inp_files/13386.got.cif
#   From: 2010.03.12/outbox.cif.g09.slc.cpg/sg62_7_cif.got.tgz:13386.got - 2010.04.10 19:12:36.
