data_PCOD8253283
_publ_section_title
;
Structure prediction by ZEFSAII (Michael W. Deem and Ramdas Pophale) SiO2 
 PCOD8253283
Probable space group: P N M A
;
_chemical_formula_sum "Si O2"
_cell_formula_units_Z 56
_cell_length_a 21.238132
_cell_length_b 15.274538
_cell_length_c 8.303561
_cell_angle_alpha 90.000000
_cell_angle_beta 90.000000
_cell_angle_gamma 90.000000
_cell_volume 2693.697228
_symmetry_space_group_name_H-M "P N M A"
_symmetry_group_IT_number 62
_symmetry_cell_setting 'orthorhombic'
loop_
_space_group_symop_operation_xyz
x,y,z
1/2-x,-y,1/2+z
1/2+x,1/2-y,1/2-z
-x,1/2+y,-z
-x,-y,-z
1/2+x,y,1/2-z
1/2-x,1/2+y,1/2+z
x,1/2-y,z
loop_
_atom_site_type_symbol
_atom_site_label
_atom_site_fract_x
_atom_site_fract_y
_atom_site_fract_z
Si Si1 0.173218 0.024145 0.105398
Si Si2 0.721078 0.653255 0.852310
Si Si3 0.593835 0.914220 0.909397
Si Si4 0.730702 0.650894 0.482679
Si Si5 0.480419 0.650882 0.113325
Si Si6 0.443939 0.515096 0.377401
Si Si7 0.136222 0.409780 0.453451
O O1 0.234096 0.083213 0.057073
O O2 0.144926 0.063004 0.268826
O O3 0.121366 0.033180 0.967958
O O4 0.195044 0.922240 0.125866
O O5 0.750889 0.750000 0.873907
O O6 0.649587 0.656702 0.918286
O O7 0.713314 0.628352 0.665757
O O8 0.561569 0.927481 0.733782
O O9 0.543004 0.894019 0.044790
O O10 0.628699 0.005178 0.938900
O O11 0.710240 0.750000 0.431873
O O12 0.806058 0.644136 0.470724
O O13 0.495714 0.750000 0.160266
O O14 0.459942 0.600750 0.273454
O O15 0.426664 0.648334 0.975019
O O16 0.500000 0.500000 0.500000
#
# Coordination Sequence:
#
# PCOD8253283 Si02
#       7
#     8   8   8   8   8   8   8
#     4  11  21  39  66  92 131 168 210 269 325 385
#     4  10  21  37  61  93 126 166 212 258 320 389
#     4  11  20  40  65  86 127 172 210 262 317 387
#     4  10  20  37  61  92 126 163 209 264 317 378
#     4  11  24  41  63  93 128 170 219 268 317 388
#     4  11  23  42  65  95 123 171 217 267 329 387
#     4  10  21  38  64  89 126 168 212 254 319 389
#
# _framework density 20.789269000000001
#
# number of rings (size 3 to 8) (size 9 to 14) (size 15 to 20)
#    0.000    1.429    2.857    4.286    0.000    1.143 
#    0.000    6.429    0.000    0.000    0.000    0.000 
#    0.000    0.000    0.000    0.000    0.000    0.000 
#
# Total GULP energy -694246.183250 kJ/mol
# GULP energy per Si atom -12397.253272 kJ/mol
# Density = 2.074195 g / cm^3
# Si number density = 20.789269 Si / 1000 Ang^3
#
#
#
# Elastic Constant Matrix: (Units=GPa)
#
#
# Indices 1 2 3 4 5 6 
#
# 1 121.1116 40.4957 42.3502 0.0000 0.0000 0.0000
# 2 40.4957 126.3026 36.2109 0.0000 0.0000 0.0000
# 3 42.3502 36.2109 78.8417 0.0000 0.0000 0.0000
# 4 0.0000 0.0000 0.0000 19.7193 0.0000 0.0000
# 5 0.0000 0.0000 0.0000 0.0000 28.2858 0.0000
# 6 0.0000 0.0000 0.0000 0.0000 0.0000 25.4171
#
#
#
# Elastic Compliance Matrix: (Units=1/GPa)
#
#
# Indices 1 2 3 4 5 6 
#
# 1 0.010602 -0.002034 -0.004760 0.000000 0.000000 0.000000
# 2 -0.002034 0.009509 -0.003274 0.000000 0.000000 0.000000
# 3 -0.004760 -0.003274 0.016745 0.000000 0.000000 0.000000
# 4 0.000000 0.000000 0.000000 0.050712 0.000000 0.000000
# 5 0.000000 0.000000 0.000000 0.000000 0.035353 0.000000
# 6 0.000000 0.000000 0.000000 0.000000 0.000000 0.039344
#
#
# Mechanical properties :
#
#
# Convention : Reuss Voigt Hill
#
# Bulk Modulus (GPa) = 59.82096 62.70773 61.26434
# Shear Modulus (GPa) = 26.59943 28.49771 27.54857
#
# Velocity S-wave (km/s) = 3.58086 3.70643 3.64419
# Velocity P-wave (km/s) = 6.77747 6.96749 6.87314
#
# Compressibility (1/GPa) = 0.01671655
#
# Stress axis : x y z
#
# Youngs Moduli (GPa) = 94.32470 105.16885 59.72075
#
# Poissons Ratio (x) = 0.21395 0.28429
# Poissons Ratio (y) = 0.19189 0.19555
# Poissons Ratio (z) = 0.44902 0.34436
#
# Static dielectric constant tensor:
#      x y z
#    x 4.083320 0.000000 0.000000 
#    y 0.000000 3.716860 0.000000 
#    z 0.000000 0.000000 3.622630 
# 
# 
# High freq. dielectric constant tensor:
#      x y z
#    x 1.829080 0.000000 0.000000 
#    y 0.000000 1.809840 0.000000 
#    z 0.000000 0.000000 1.797620 
# 
# From -- ./inp_files/8740.got.cif
#   From: 2010.03.12/outbox.cif.g09.slc.cpg/sg62_5_cif.got.tgz:8740.got - 2010.04.10 19:12:36.
