data_PCOD8253143
_publ_section_title
;
Structure prediction by ZEFSAII (Michael W. Deem and Ramdas Pophale) SiO2 
 PCOD8253143
Probable space group: P N M A
;
_chemical_formula_sum "Si O2"
_cell_formula_units_Z 56
_cell_length_a 13.183856
_cell_length_b 17.971757
_cell_length_c 11.313782
_cell_angle_alpha 90.000000
_cell_angle_beta 90.000000
_cell_angle_gamma 90.000000
_cell_volume 2680.654203
_symmetry_space_group_name_H-M "P N M A"
_symmetry_group_IT_number 62
_symmetry_cell_setting 'orthorhombic'
loop_
_space_group_symop_operation_xyz
x,y,z
1/2-x,-y,1/2+z
1/2+x,1/2-y,1/2-z
-x,1/2+y,-z
-x,-y,-z
1/2+x,y,1/2-z
1/2-x,1/2+y,1/2+z
x,1/2-y,z
loop_
_atom_site_type_symbol
_atom_site_label
_atom_site_fract_x
_atom_site_fract_y
_atom_site_fract_z
Si Si1 0.251496 0.836730 0.211314
Si Si2 0.560182 0.051708 0.169463
Si Si3 0.740113 0.075687 0.332146
Si Si4 0.341221 0.836118 0.451741
Si Si5 0.088244 0.661689 0.792834
Si Si6 0.566224 0.662633 0.438917
Si Si7 0.391526 0.949360 0.099569
O O1 0.263344 0.750000 0.184347
O O2 0.255139 0.851356 0.352661
O O3 0.148226 0.870557 0.154424
O O4 0.350954 0.874120 0.156568
O O5 0.663230 0.035973 0.241080
O O6 0.504734 0.123127 0.225352
O O7 0.490187 0.977753 0.172024
O O8 0.583191 0.071026 0.034291
O O9 0.677621 0.116055 0.433363
O O10 0.805720 0.137235 0.263897
O O11 0.807515 0.013559 0.394123
O O12 0.342851 0.750000 0.489644
O O13 0.452134 0.859893 0.401723
O O14 0.074299 0.750000 0.781393
O O15 0.089607 0.634178 0.928704
O O16 0.579695 0.750000 0.435572
#
# Coordination Sequence:
#
# PCOD8253143 Si02
#       7
#     8   8   8   8   8   8   8
#     4  10  22  41  63  87 120 162 206 262 315 366
#     4  10  22  42  61  88 129 167 200 262 320 368
#     4  11  22  38  64  90 126 171 205 253 323 375
#     4  10  21  39  62  91 124 162 209 259 314 379
#     4  10  20  36  64  96 123 159 209 259 313 378
#     4   9  18  37  61  89 121 152 200 259 306 366
#     4  10  24  41  60  90 127 160 215 258 308 390
#
# _framework density 20.890423999999999
#
# number of rings (size 3 to 8) (size 9 to 14) (size 15 to 20)
#    0.000    2.000    1.429    1.286    2.000    2.286 
#    5.143    1.429    0.000    0.000    0.000    0.000 
#    0.000    0.000    0.000    0.000    0.000    0.000 
#
# Total GULP energy -694374.622090 kJ/mol
# GULP energy per Si atom -12399.546823 kJ/mol
# Density = 2.084288 g / cm^3
# Si number density = 20.890424 Si / 1000 Ang^3
#
#
#
# Elastic Constant Matrix: (Units=GPa)
#
#
# Indices 1 2 3 4 5 6 
#
# 1 95.3117 21.0750 46.3201 0.0000 0.0000 0.0000
# 2 21.0750 40.4628 33.4910 0.0000 0.0000 0.0000
# 3 46.3201 33.4910 101.6645 0.0000 0.0000 0.0000
# 4 0.0000 0.0000 0.0000 29.2314 0.0000 0.0000
# 5 0.0000 0.0000 0.0000 0.0000 44.7559 0.0000
# 6 0.0000 0.0000 0.0000 0.0000 0.0000 25.6683
#
#
#
# Elastic Compliance Matrix: (Units=1/GPa)
#
#
# Indices 1 2 3 4 5 6 
#
# 1 0.013688 -0.002705 -0.005345 0.000000 0.000000 0.000000
# 2 -0.002705 0.034513 -0.010137 0.000000 0.000000 0.000000
# 3 -0.005345 -0.010137 0.015611 0.000000 0.000000 0.000000
# 4 0.000000 0.000000 0.000000 0.034210 0.000000 0.000000
# 5 0.000000 0.000000 0.000000 0.000000 0.022343 0.000000
# 6 0.000000 0.000000 0.000000 0.000000 0.000000 0.038959
#
#
# Mechanical properties :
#
#
# Convention : Reuss Voigt Hill
#
# Bulk Modulus (GPa) = 36.44657 48.80125 42.62391
# Shear Modulus (GPa) = 24.40871 29.03465 26.72168
#
# Velocity S-wave (km/s) = 3.42192 3.73212 3.58038
# Velocity P-wave (km/s) = 5.75301 6.47942 6.12699
#
# Compressibility (1/GPa) = 0.02743742
#
# Stress axis : x y z
#
# Youngs Moduli (GPa) = 73.05806 28.97417 64.05675
#
# Poissons Ratio (x) = 0.07837 0.34240
# Poissons Ratio (y) = 0.19762 0.64936
# Poissons Ratio (z) = 0.39052 0.29372
#
# Static dielectric constant tensor:
#      x y z
#    x 4.048130 0.000000 0.000000 
#    y 0.000000 3.560200 0.000000 
#    z 0.000000 0.000000 3.904210 
# 
# 
# High freq. dielectric constant tensor:
#      x y z
#    x 1.828120 0.000000 0.000000 
#    y 0.000000 1.805570 0.000000 
#    z 0.000000 0.000000 1.825130 
# 
# From -- ./inp_files/12401.got.cif
#   From: 2010.03.12/outbox.cif.g09.slc.cpg/sg62_7_cif.got.tgz:12401.got - 2010.04.10 19:12:36.
