data_PCOD8253325
_publ_section_title
;
Structure prediction by ZEFSAII (Michael W. Deem and Ramdas Pophale) SiO2 
 PCOD8253325
Probable space group: P N M A
;
_chemical_formula_sum "Si O2"
_cell_formula_units_Z 40
_cell_length_a 8.349728
_cell_length_b 18.906081
_cell_length_c 11.942701
_cell_angle_alpha 90.000000
_cell_angle_beta 90.000000
_cell_angle_gamma 90.000000
_cell_volume 1885.282350
_symmetry_space_group_name_H-M "P N M A"
_symmetry_group_IT_number 62
_symmetry_cell_setting 'orthorhombic'
loop_
_space_group_symop_operation_xyz
x,y,z
1/2-x,-y,1/2+z
1/2+x,1/2-y,1/2-z
-x,1/2+y,-z
-x,-y,-z
1/2+x,y,1/2-z
1/2-x,1/2+y,1/2+z
x,1/2-y,z
loop_
_atom_site_type_symbol
_atom_site_label
_atom_site_fract_x
_atom_site_fract_y
_atom_site_fract_z
Si Si1 0.182803 0.329765 0.869793
Si Si2 0.064933 0.068335 0.288080
Si Si3 0.743608 0.112655 0.409166
Si Si4 0.379881 0.084781 0.695929
Si Si5 0.315771 0.526437 0.002598
O O1 0.169823 0.250000 0.823641
O O2 0.316290 0.372482 0.802251
O O3 0.012427 0.367995 0.864289
O O4 0.238171 0.324256 0.001167
O O5 0.112548 0.121805 0.188562
O O6 0.208028 0.065123 0.382566
O O7 0.910189 0.101018 0.345717
O O8 0.043025 0.989173 0.238104
O O9 0.704093 0.042801 0.484821
O O10 0.231556 0.075995 0.608008
O O11 0.500000 0.500000 0.000000
#
# Coordination Sequence:
#
# PCOD8253325 Si02
#       5
#     8   8   8   8   8
#     4  12  26  43  60  88 129 178 219 251 299 383
#     4  10  20  37  64  98 122 152 198 271 336 363
#     4  10  22  36  62  93 126 156 204 261 317 378
#     4  11  23  40  67  94 130 162 210 268 322 377
#     4   9  18  35  62  96 124 149 195 261 328 369
#
# _framework density 21.216981000000001
#
# number of rings (size 3 to 8) (size 9 to 14) (size 15 to 20)
#    0.000    1.600    2.000    4.200    5.600    1.600 
#    0.000    1.000    0.000    0.000    0.000    0.000 
#    0.000    0.000    0.000    0.000    0.000    0.000 
#
# Total GULP energy -495581.792273 kJ/mol
# GULP energy per Si atom -12389.544807 kJ/mol
# Density = 2.116869 g / cm^3
# Si number density = 21.216981 Si / 1000 Ang^3
#
#
#
# Elastic Constant Matrix: (Units=GPa)
#
#
# Indices 1 2 3 4 5 6 
#
# 1 93.6762 27.3846 39.7924 0.0000 0.0000 0.0000
# 2 27.3846 48.4806 25.7435 0.0000 0.0000 0.0000
# 3 39.7924 25.7435 126.0681 0.0000 0.0000 0.0000
# 4 0.0000 0.0000 0.0000 18.7163 0.0000 0.0000
# 5 0.0000 0.0000 0.0000 0.0000 41.6509 0.0000
# 6 0.0000 0.0000 0.0000 0.0000 0.0000 10.0623
#
#
#
# Elastic Compliance Matrix: (Units=1/GPa)
#
#
# Indices 1 2 3 4 5 6 
#
# 1 0.013786 -0.006143 -0.003097 0.000000 0.000000 0.000000
# 2 -0.006143 0.025872 -0.003344 0.000000 0.000000 0.000000
# 3 -0.003097 -0.003344 0.009593 0.000000 0.000000 0.000000
# 4 0.000000 0.000000 0.000000 0.053429 0.000000 0.000000
# 5 0.000000 0.000000 0.000000 0.000000 0.024009 0.000000
# 6 0.000000 0.000000 0.000000 0.000000 0.000000 0.099381
#
#
# Mechanical properties :
#
#
# Convention : Reuss Voigt Hill
#
# Bulk Modulus (GPa) = 41.52294 50.45176 45.98735
# Shear Modulus (GPa) = 19.28511 25.77286 22.52899
#
# Velocity S-wave (km/s) = 3.01815 3.48908 3.26212
# Velocity P-wave (km/s) = 5.63549 6.32946 5.99253
#
# Compressibility (1/GPa) = 0.02408308
#
# Stress axis : x y z
#
# Youngs Moduli (GPa) = 72.53503 38.65123 104.24540
#
# Poissons Ratio (x) = 0.23742 0.32287
# Poissons Ratio (y) = 0.44556 0.34863
# Poissons Ratio (z) = 0.22466 0.12926
#
# Static dielectric constant tensor:
#      x y z
#    x 3.681900 0.000000 0.000000 
#    y 0.000000 3.455770 0.000000 
#    z 0.000000 0.000000 4.838040 
# 
# 
# High freq. dielectric constant tensor:
#      x y z
#    x 1.823360 0.000000 0.000000 
#    y 0.000000 1.775080 0.000000 
#    z 0.000000 0.000000 1.864110 
# 
# From -- ./inp_files/11060.got.cif
#   From: 2010.03.12/outbox.cif.g09.slc.cpg/sg62_6_cif.got.tgz:11060.got - 2010.04.10 19:12:36.
