data_PCOD8253201
_publ_section_title
;
Structure prediction by ZEFSAII (Michael W. Deem and Ramdas Pophale) SiO2 
 PCOD8253201
Probable space group: P N M A
;
_chemical_formula_sum "Si O2"
_cell_formula_units_Z 48
_cell_length_a 9.303283
_cell_length_b 9.056612
_cell_length_c 28.745873
_cell_angle_alpha 90.000000
_cell_angle_beta 90.000000
_cell_angle_gamma 90.000000
_cell_volume 2422.018728
_symmetry_space_group_name_H-M "P N M A"
_symmetry_group_IT_number 62
_symmetry_cell_setting 'orthorhombic'
loop_
_space_group_symop_operation_xyz
x,y,z
1/2-x,-y,1/2+z
1/2+x,1/2-y,1/2-z
-x,1/2+y,-z
-x,-y,-z
1/2+x,y,1/2-z
1/2-x,1/2+y,1/2+z
x,1/2-y,z
loop_
_atom_site_type_symbol
_atom_site_label
_atom_site_fract_x
_atom_site_fract_y
_atom_site_fract_z
Si Si1 0.783379 0.573439 0.280378
Si Si2 0.592059 0.084097 0.963160
Si Si3 0.023149 0.577695 0.794722
Si Si4 0.280559 0.080118 0.379087
Si Si5 0.132217 0.916522 0.979506
Si Si6 0.493045 0.924097 0.136720
O O1 0.773265 0.750000 0.273736
O O2 0.624727 0.509713 0.288400
O O3 0.852160 0.497326 0.235597
O O4 0.883089 0.526737 0.323500
O O5 0.534157 0.250000 0.962661
O O6 0.573641 0.016503 0.911772
O O7 0.755635 0.074864 0.978636
O O8 0.500000 0.000000 0.000000
O O9 0.003687 0.750000 0.781130
O O10 0.076244 0.562027 0.848026
O O11 0.233153 0.250000 0.382965
O O12 0.310510 0.014052 0.430837
O O13 0.148891 0.994701 0.354992
O O14 0.085694 0.750000 0.968336
O O15 0.000000 0.000000 0.000000
O O16 0.512753 0.750000 0.137513
#
# Coordination Sequence:
#
# PCOD8253201 Si02
#       6
#     8   8   8   8   8   8
#     4  11  24  42  64  91 122 156 197 245 300 357
#     4  10  20  37  59  85 117 154 198 242 289 345
#     4  11  24  42  64  90 121 156 199 245 299 358
#     4  10  22  40  60  86 119 156 196 244 295 349
#     4  10  22  38  57  84 119 156 198 243 292 347
#     4  10  22  38  60  89 118 153 197 243 294 352
#
# _framework density 19.818180000000002
#
# number of rings (size 3 to 8) (size 9 to 14) (size 15 to 20)
#    0.000    1.667    1.667    2.000    2.333    6.667 
#    0.000    0.000    0.000    0.000    0.000    0.000 
#    0.000    0.000    0.000    0.000    0.000    0.000 
#
# Total GULP energy -595240.707872 kJ/mol
# GULP energy per Si atom -12400.848081 kJ/mol
# Density = 1.977307 g / cm^3
# Si number density = 19.818180 Si / 1000 Ang^3
#
#
#
# Elastic Constant Matrix: (Units=GPa)
#
#
# Indices 1 2 3 4 5 6 
#
# 1 113.9303 40.6733 32.9122 0.0000 0.0000 0.0000
# 2 40.6733 61.5577 25.1550 0.0000 0.0000 0.0000
# 3 32.9122 25.1550 93.3664 0.0000 0.0000 0.0000
# 4 0.0000 0.0000 0.0000 28.9046 0.0000 0.0000
# 5 0.0000 0.0000 0.0000 0.0000 39.9506 0.0000
# 6 0.0000 0.0000 0.0000 0.0000 0.0000 40.6066
#
#
#
# Elastic Compliance Matrix: (Units=1/GPa)
#
#
# Indices 1 2 3 4 5 6 
#
# 1 0.011924 -0.006923 -0.002338 0.000000 0.000000 0.000000
# 2 -0.006923 0.022275 -0.003561 0.000000 0.000000 0.000000
# 3 -0.002338 -0.003561 0.012494 0.000000 0.000000 0.000000
# 4 0.000000 0.000000 0.000000 0.034597 0.000000 0.000000
# 5 0.000000 0.000000 0.000000 0.000000 0.025031 0.000000
# 6 0.000000 0.000000 0.000000 0.000000 0.000000 0.024627
#
#
# Mechanical properties :
#
#
# Convention : Reuss Voigt Hill
#
# Bulk Modulus (GPa) = 47.50935 51.81503 49.66219
# Shear Modulus (GPa) = 30.56093 33.23328 31.89711
#
# Velocity S-wave (km/s) = 3.93117 4.09945 4.01619
# Velocity P-wave (km/s) = 6.68058 6.97204 6.82786
#
# Compressibility (1/GPa) = 0.02104849
#
# Stress axis : x y z
#
# Youngs Moduli (GPa) = 83.86162 44.89437 80.03830
#
# Poissons Ratio (x) = 0.31082 0.18714
# Poissons Ratio (y) = 0.58061 0.28499
# Poissons Ratio (z) = 0.19608 0.15986
#
# Static dielectric constant tensor:
#      x y z
#    x 3.316330 0.000000 0.000000 
#    y 0.000000 3.486630 0.000000 
#    z 0.000000 0.000000 7.066440 
# 
# 
# High freq. dielectric constant tensor:
#      x y z
#    x 1.776750 0.000000 0.000000 
#    y 0.000000 1.768960 0.000000 
#    z 0.000000 0.000000 1.789370 
# 
# From -- ./inp_files/31957.got.cif
#   From: 2010.03.12/outbox.cif.g09.slc.cpg/sg62_16_cif.got.tgz:31957.got - 2010.04.10 19:12:36.
