data_PCOD8253180
_publ_section_title
;
Structure prediction by ZEFSAII (Michael W. Deem and Ramdas Pophale) SiO2 
 PCOD8253180
Probable space group: P N M A
;
_chemical_formula_sum "Si O2"
_cell_formula_units_Z 40
_cell_length_a 17.579858
_cell_length_b 8.744450
_cell_length_c 13.623198
_cell_angle_alpha 90.000000
_cell_angle_beta 90.000000
_cell_angle_gamma 90.000000
_cell_volume 2094.242314
_symmetry_space_group_name_H-M "P N M A"
_symmetry_group_IT_number 62
_symmetry_cell_setting 'orthorhombic'
loop_
_space_group_symop_operation_xyz
x,y,z
1/2-x,-y,1/2+z
1/2+x,1/2-y,1/2-z
-x,1/2+y,-z
-x,-y,-z
1/2+x,y,1/2-z
1/2-x,1/2+y,1/2+z
x,1/2-y,z
loop_
_atom_site_type_symbol
_atom_site_label
_atom_site_fract_x
_atom_site_fract_y
_atom_site_fract_z
Si Si1 0.475888 0.572093 0.398453
Si Si2 0.690522 0.071513 0.675851
Si Si3 0.971910 0.571905 0.706492
Si Si4 0.863480 0.071397 0.367167
Si Si5 0.667617 0.070235 0.073726
O O1 0.500000 0.500000 0.500000
O O2 0.489263 0.750000 0.405868
O O3 0.388506 0.530760 0.377121
O O4 0.529265 0.511105 0.311251
O O5 0.710960 0.250000 0.667175
O O6 0.685925 0.024712 0.789680
O O7 0.753299 0.967739 0.624810
O O8 0.965857 0.750000 0.728748
O O9 0.900537 0.513723 0.643711
O O10 0.047610 0.531287 0.645341
O O11 0.847749 0.250000 0.350315
O O12 0.836657 0.023800 0.474026
O O13 0.661366 0.250000 0.051731
#
# Coordination Sequence:
#
# PCOD8253180 Si02
#       5
#     8   8   8   8   8
#     4  10  21  37  59  82 108 144 185 227 273 324
#     4  10  22  39  56  80 112 145 183 228 274 324
#     4   9  20  37  57  82 111 142 182 226 270 324
#     4  10  20  37  59  81 109 145 181 225 276 325
#     4  11  22  36  57  85 114 146 182 224 273 327
#
# _framework density 19.099986999999999
#
# number of rings (size 3 to 8) (size 9 to 14) (size 15 to 20)
#    0.000    2.000    0.000    3.000    0.000    6.400 
#    0.000    2.000    0.000    0.000    0.000    0.000 
#    0.000    0.000    0.000    0.000    0.000    0.000 
#
# Total GULP energy -496213.339676 kJ/mol
# GULP energy per Si atom -12405.333492 kJ/mol
# Density = 1.905651 g / cm^3
# Si number density = 19.099987 Si / 1000 Ang^3
#
#
#
# Elastic Constant Matrix: (Units=GPa)
#
#
# Indices 1 2 3 4 5 6 
#
# 1 74.7025 27.1941 59.0020 0.0000 0.0000 0.0000
# 2 27.1941 45.3034 28.4288 0.0000 0.0000 0.0000
# 3 59.0020 28.4288 137.9757 0.0000 0.0000 0.0000
# 4 0.0000 0.0000 0.0000 37.4699 0.0000 0.0000
# 5 0.0000 0.0000 0.0000 0.0000 26.0470 0.0000
# 6 0.0000 0.0000 0.0000 0.0000 0.0000 30.8680
#
#
#
# Elastic Compliance Matrix: (Units=1/GPa)
#
#
# Indices 1 2 3 4 5 6 
#
# 1 0.022863 -0.008716 -0.007981 0.000000 0.000000 0.000000
# 2 -0.008716 0.028674 -0.002181 0.000000 0.000000 0.000000
# 3 -0.007981 -0.002181 0.011110 0.000000 0.000000 0.000000
# 4 0.000000 0.000000 0.000000 0.026688 0.000000 0.000000
# 5 0.000000 0.000000 0.000000 0.000000 0.038392 0.000000
# 6 0.000000 0.000000 0.000000 0.000000 0.000000 0.032396
#
#
# Mechanical properties :
#
#
# Convention : Reuss Voigt Hill
#
# Bulk Modulus (GPa) = 40.17461 54.13682 47.15571
# Shear Modulus (GPa) = 24.25132 28.43410 26.34271
#
# Velocity S-wave (km/s) = 3.56716 3.86255 3.71779
# Velocity P-wave (km/s) = 6.16811 6.94966 6.57052
#
# Compressibility (1/GPa) = 0.02489135
#
# Stress axis : x y z
#
# Youngs Moduli (GPa) = 43.73937 34.87526 90.00998
#
# Poissons Ratio (x) = 0.30396 0.71836
# Poissons Ratio (y) = 0.38121 0.19631
# Poissons Ratio (z) = 0.34908 0.07606
#
# Static dielectric constant tensor:
#      x y z
#    x 3.519410 0.000000 0.000000 
#    y 0.000000 3.522240 0.000000 
#    z 0.000000 0.000000 3.521310 
# 
# 
# High freq. dielectric constant tensor:
#      x y z
#    x 1.739440 0.000000 0.000000 
#    y 0.000000 1.752220 0.000000 
#    z 0.000000 0.000000 1.752340 
# 
# From -- ./inp_files/13826.got.cif
#   From: 2010.03.12/outbox.cif.g09.slc.cpg/sg62_7_cif.got.tgz:13826.got - 2010.04.10 19:12:36.
