data_PCOD8253417
_publ_section_title
;
Structure prediction by ZEFSAII (Michael W. Deem and Ramdas Pophale) SiO2 
 PCOD8253417
Probable space group: P N M A
;
_chemical_formula_sum "Si O2"
_cell_formula_units_Z 64
_cell_length_a 24.086022
_cell_length_b 8.923653
_cell_length_c 15.435949
_cell_angle_alpha 90.000000
_cell_angle_beta 90.000000
_cell_angle_gamma 90.000000
_cell_volume 3317.730367
_symmetry_space_group_name_H-M "P N M A"
_symmetry_group_IT_number 62
_symmetry_cell_setting 'orthorhombic'
loop_
_space_group_symop_operation_xyz
x,y,z
1/2-x,-y,1/2+z
1/2+x,1/2-y,1/2-z
-x,1/2+y,-z
-x,-y,-z
1/2+x,y,1/2-z
1/2-x,1/2+y,1/2+z
x,1/2-y,z
loop_
_atom_site_type_symbol
_atom_site_label
_atom_site_fract_x
_atom_site_fract_y
_atom_site_fract_z
Si Si1 0.939545 0.071776 0.248619
Si Si2 0.377837 0.075840 0.656369
Si Si3 0.681299 0.428781 0.744163
Si Si4 0.874035 0.581508 0.671212
Si Si5 0.510803 0.079984 0.088752
Si Si6 0.246005 0.075856 0.403797
Si Si7 0.757068 0.427154 0.901497
Si Si8 0.015962 0.073849 0.088821
O O1 0.931201 0.250000 0.249437
O O2 0.974189 0.014176 0.332075
O O3 0.974467 0.020799 0.164615
O O4 0.880621 0.991216 0.246395
O O5 0.388012 0.250000 0.636587
O O6 0.317687 0.019988 0.626930
O O7 0.383016 0.045397 0.757802
O O8 0.421649 0.976235 0.606151
O O9 0.680099 0.250000 0.740924
O O10 0.712470 0.486206 0.658303
O O11 0.712767 0.488568 0.830868
O O12 0.875348 0.750000 0.711790
O O13 0.816934 0.550517 0.623405
O O14 0.923747 0.563737 0.603937
O O15 0.492698 0.250000 0.077130
O O16 0.500000 0.000000 0.000000
O O17 0.263593 0.250000 0.400893
O O18 0.247997 0.010498 0.501562
O O19 0.752053 0.250000 0.902388
O O20 0.013902 0.250000 0.078895
O O21 0.000000 0.000000 0.000000
#
# Coordination Sequence:
#
# PCOD8253417 Si02
#       8
#     8   8   8   8   8   8   8   8
#     4  10  23  43  61  82 122 165 195 239 300 361
#     4  11  21  38  63  88 120 157 200 250 303 354
#     4  11  23  40  61  89 122 153 198 252 293 346
#     4  10  20  38  63  87 116 157 203 248 296 356
#     4  10  22  40  61  89 121 156 199 246 299 353
#     4  10  21  39  63  86 116 160 200 234 297 365
#     4   9  21  39  59  86 120 158 193 239 298 351
#     4  11  24  43  64  89 122 157 202 250 301 360
#
# _framework density 19.290296000000001
#
# number of rings (size 3 to 8) (size 9 to 14) (size 15 to 20)
#    0.000    1.750    2.500    1.125    3.500    2.000 
#    0.000    1.875    0.000    0.000    0.000    0.000 
#    0.000    0.000    0.000    0.000    0.000    0.000 
#
# Total GULP energy -793617.146630 kJ/mol
# GULP energy per Si atom -12400.267916 kJ/mol
# Density = 1.924639 g / cm^3
# Si number density = 19.290296 Si / 1000 Ang^3
#
#
#
# Elastic Constant Matrix: (Units=GPa)
#
#
# Indices 1 2 3 4 5 6 
#
# 1 123.1022 45.9168 38.6178 0.0000 0.0000 0.0000
# 2 45.9168 49.0102 45.9565 0.0000 0.0000 0.0000
# 3 38.6178 45.9565 131.9174 0.0000 0.0000 0.0000
# 4 0.0000 0.0000 0.0000 34.8744 0.0000 0.0000
# 5 0.0000 0.0000 0.0000 0.0000 21.7872 0.0000
# 6 0.0000 0.0000 0.0000 0.0000 0.0000 27.7447
#
#
#
# Elastic Compliance Matrix: (Units=1/GPa)
#
#
# Indices 1 2 3 4 5 6 
#
# 1 0.012522 -0.012318 0.000626 0.000000 0.000000 0.000000
# 2 -0.012318 0.042420 -0.011172 0.000000 0.000000 0.000000
# 3 0.000626 -0.011172 0.011289 0.000000 0.000000 0.000000
# 4 0.000000 0.000000 0.000000 0.028674 0.000000 0.000000
# 5 0.000000 0.000000 0.000000 0.000000 0.045898 0.000000
# 6 0.000000 0.000000 0.000000 0.000000 0.000000 0.036043
#
#
# Mechanical properties :
#
#
# Convention : Reuss Voigt Hill
#
# Bulk Modulus (GPa) = 48.77446 62.77912 55.77679
# Shear Modulus (GPa) = 21.79503 28.45053 25.12278
#
# Velocity S-wave (km/s) = 3.36496 3.84456 3.61273
# Velocity P-wave (km/s) = 6.35898 7.23343 6.81026
#
# Compressibility (1/GPa) = 0.02050253
#
# Stress axis : x y z
#
# Youngs Moduli (GPa) = 79.86187 23.57358 88.57843
#
# Poissons Ratio (x) = 0.29038 -0.05542
# Poissons Ratio (y) = 0.98373 0.98961
# Poissons Ratio (z) = -0.04996 0.26337
#
# Static dielectric constant tensor:
#      x y z
#    x 4.097850 0.000000 0.000000 
#    y 0.000000 3.426880 0.000000 
#    z 0.000000 0.000000 3.593300 
# 
# 
# High freq. dielectric constant tensor:
#      x y z
#    x 1.767120 0.000000 0.000000 
#    y 0.000000 1.735490 0.000000 
#    z 0.000000 0.000000 1.761050 
# 
# From -- ./inp_files/20904.got.cif
#   From: 2010.03.12/outbox.cif.g09.slc.cpg/sg62_11_cif.got.tgz:20904.got - 2010.04.10 19:12:36.
