data_PCOD8253006
_publ_section_title
;
Structure prediction by ZEFSAII (Michael W. Deem and Ramdas Pophale) SiO2 
 PCOD8253006
Probable space group: P N M A
;
_chemical_formula_sum "Si O2"
_cell_formula_units_Z 56
_cell_length_a 17.323070
_cell_length_b 8.850905
_cell_length_c 19.520219
_cell_angle_alpha 90.000000
_cell_angle_beta 90.000000
_cell_angle_gamma 90.000000
_cell_volume 2992.934589
_symmetry_space_group_name_H-M "P N M A"
_symmetry_group_IT_number 62
_symmetry_cell_setting 'orthorhombic'
loop_
_space_group_symop_operation_xyz
x,y,z
1/2-x,-y,1/2+z
1/2+x,1/2-y,1/2-z
-x,1/2+y,-z
-x,-y,-z
1/2+x,y,1/2-z
1/2-x,1/2+y,1/2+z
x,1/2-y,z
loop_
_atom_site_type_symbol
_atom_site_label
_atom_site_fract_x
_atom_site_fract_y
_atom_site_fract_z
Si Si1 0.646808 0.071088 0.946142
Si Si2 0.023698 0.071856 0.663994
Si Si3 0.924313 0.926907 0.187924
Si Si4 0.705559 0.925008 0.608981
Si Si5 0.619479 0.422804 0.100170
Si Si6 0.806502 0.571043 0.963870
Si Si7 0.539352 0.927423 0.434233
O O1 0.660913 0.250000 0.942396
O O2 0.585350 0.010263 0.891156
O O3 0.727655 0.989828 0.930808
O O4 0.616120 0.024260 0.021092
O O5 0.024174 0.250000 0.662462
O O6 0.045983 0.012440 0.739044
O O7 0.938020 0.019950 0.645677
O O8 0.904769 0.750000 0.190098
O O9 0.989265 0.964756 0.132413
O O10 0.846117 0.017642 0.171704
O O11 0.689279 0.750000 0.592054
O O12 0.794673 0.948597 0.629536
O O13 0.683966 0.022234 0.542609
O O14 0.593800 0.250000 0.106032
O O15 0.809276 0.750000 0.959084
O O16 0.877072 0.500764 0.921066
O O17 0.547708 0.750000 0.446607
O O18 0.500000 0.000000 0.500000
#
# Coordination Sequence:
#
# PCOD8253006 Si02
#       7
#     8   8   8   8   8   8   8
#     4   9  19  37  59  83 114 147 185 234 284 331
#     4  10  21  38  58  83 113 149 189 232 283 336
#     4  10  22  38  56  81 112 148 190 230 278 338
#     4  10  20  36  58  82 111 146 183 228 283 333
#     4   9  19  35  57  85 112 144 185 230 280 335
#     4  11  21  34  56  86 113 141 186 233 280 333
#     4  11  21  35  57  82 112 146 188 234 279 331
#
# _framework density 18.710733000000001
#
# number of rings (size 3 to 8) (size 9 to 14) (size 15 to 20)
#    0.000    2.000    1.429    3.429    0.000    4.571 
#    2.571    0.000    0.000    0.000    0.000    0.000 
#    0.000    0.000    0.000    0.000    0.000    0.000 
#
# Total GULP energy -694601.531559 kJ/mol
# GULP energy per Si atom -12403.598778 kJ/mol
# Density = 1.866815 g / cm^3
# Si number density = 18.710733 Si / 1000 Ang^3
#
#
#
# Elastic Constant Matrix: (Units=GPa)
#
#
# Indices 1 2 3 4 5 6 
#
# 1 141.6480 50.0973 73.9086 0.0000 0.0000 0.0000
# 2 50.0973 69.1063 37.9532 0.0000 0.0000 0.0000
# 3 73.9086 37.9532 115.1940 0.0000 0.0000 0.0000
# 4 0.0000 0.0000 0.0000 22.4095 0.0000 0.0000
# 5 0.0000 0.0000 0.0000 0.0000 24.3065 0.0000
# 6 0.0000 0.0000 0.0000 0.0000 0.0000 37.1267
#
#
#
# Elastic Compliance Matrix: (Units=1/GPa)
#
#
# Indices 1 2 3 4 5 6 
#
# 1 0.012119 -0.005512 -0.005959 0.000000 0.000000 0.000000
# 2 -0.005512 0.020175 -0.003110 0.000000 0.000000 0.000000
# 3 -0.005959 -0.003110 0.013529 0.000000 0.000000 0.000000
# 4 0.000000 0.000000 0.000000 0.044624 0.000000 0.000000
# 5 0.000000 0.000000 0.000000 0.000000 0.041141 0.000000
# 6 0.000000 0.000000 0.000000 0.000000 0.000000 0.026935
#
#
# Mechanical properties :
#
#
# Convention : Reuss Voigt Hill
#
# Bulk Modulus (GPa) = 60.02791 72.20736 66.11764
# Shear Modulus (GPa) = 25.87465 27.70115 26.78790
#
# Velocity S-wave (km/s) = 3.72274 3.85189 3.78787
# Velocity P-wave (km/s) = 7.11548 7.64578 7.38539
#
# Compressibility (1/GPa) = 0.01665892
#
# Stress axis : x y z
#
# Youngs Moduli (GPa) = 82.51686 49.56692 73.91446
#
# Poissons Ratio (x) = 0.27324 0.44047
# Poissons Ratio (y) = 0.45487 0.22989
# Poissons Ratio (z) = 0.49173 0.15416
#
# Static dielectric constant tensor:
#      x y z
#    x 3.653700 0.000000 0.000000 
#    y 0.000000 3.354190 0.000000 
#    z 0.000000 0.000000 3.416440 
# 
# 
# High freq. dielectric constant tensor:
#      x y z
#    x 1.740720 0.000000 0.000000 
#    y 0.000000 1.725230 0.000000 
#    z 0.000000 0.000000 1.707730 
# 
# From -- ./inp_files/27240.got.cif
#   From: 2010.03.12/outbox.cif.g09.slc.cpg/sg62_14_cif.got.tgz:27240.got - 2010.04.10 19:12:36.
