data_PCOD8253461
_publ_section_title
;
Structure prediction by ZEFSAII (Michael W. Deem and Ramdas Pophale) SiO2 
 PCOD8253461
Probable space group: P N M A
;
_chemical_formula_sum "Si O2"
_cell_formula_units_Z 48
_cell_length_a 9.457209
_cell_length_b 8.683888
_cell_length_c 28.435906
_cell_angle_alpha 90.000000
_cell_angle_beta 90.000000
_cell_angle_gamma 90.000000
_cell_volume 2335.308555
_symmetry_space_group_name_H-M "P N M A"
_symmetry_group_IT_number 62
_symmetry_cell_setting 'orthorhombic'
loop_
_space_group_symop_operation_xyz
x,y,z
1/2-x,-y,1/2+z
1/2+x,1/2-y,1/2-z
-x,1/2+y,-z
-x,-y,-z
1/2+x,y,1/2-z
1/2-x,1/2+y,1/2+z
x,1/2-y,z
loop_
_atom_site_type_symbol
_atom_site_label
_atom_site_fract_x
_atom_site_fract_y
_atom_site_fract_z
Si Si1 0.110555 0.928922 0.464963
Si Si2 0.700321 0.431421 0.383255
Si Si3 0.204892 0.932543 0.283417
Si Si4 0.854668 0.431103 0.984217
Si Si5 0.978694 0.433091 0.804185
Si Si6 0.008653 0.071097 0.637591
O O1 0.133056 0.750000 0.476238
O O2 0.061567 0.956583 0.412395
O O3 0.253713 0.022110 0.472941
O O4 0.000000 0.000000 0.500000
O O5 0.688317 0.250000 0.387168
O O6 0.700455 0.501432 0.435228
O O7 0.566553 0.494652 0.353937
O O8 0.845494 0.478670 0.357502
O O9 0.209597 0.750000 0.285449
O O10 0.136589 0.987753 0.234330
O O11 0.364980 0.995484 0.289809
O O12 0.102831 0.994005 0.324658
O O13 0.863936 0.250000 0.978587
O O14 0.000000 0.500000 0.000000
O O15 0.981591 0.250000 0.809183
O O16 0.043952 0.250000 0.646724
#
# Coordination Sequence:
#
# PCOD8253461 Si02
#       6
#     8   8   8   8   8   8
#     4  11  22  38  63  94 129 168 214 258 306 366
#     4  12  25  41  61  90 125 165 212 258 313 376
#     4   9  19  37  65  97 122 156 207 256 310 378
#     4  12  26  44  65  91 127 167 211 262 317 375
#     4  10  20  38  65  92 123 160 204 259 314 374
#     4  10  21  39  64  93 124 164 210 255 307 370
#
# _framework density 20.554027999999999
#
# number of rings (size 3 to 8) (size 9 to 14) (size 15 to 20)
#    0.000    1.333    1.667    4.500    2.333    3.333 
#    0.000    4.167    0.000    0.000    0.000    0.000 
#    0.000    0.000    0.000    0.000    0.000    0.000 
#
# Total GULP energy -595324.054437 kJ/mol
# GULP energy per Si atom -12402.584467 kJ/mol
# Density = 2.050725 g / cm^3
# Si number density = 20.554028 Si / 1000 Ang^3
#
#
#
# Elastic Constant Matrix: (Units=GPa)
#
#
# Indices 1 2 3 4 5 6 
#
# 1 140.5705 37.4850 23.9288 0.0000 0.0000 0.0000
# 2 37.4850 91.8194 34.6850 0.0000 0.0000 0.0000
# 3 23.9288 34.6850 74.9657 0.0000 0.0000 0.0000
# 4 0.0000 0.0000 0.0000 25.9454 0.0000 0.0000
# 5 0.0000 0.0000 0.0000 0.0000 41.1530 0.0000
# 6 0.0000 0.0000 0.0000 0.0000 0.0000 32.0855
#
#
#
# Elastic Compliance Matrix: (Units=1/GPa)
#
#
# Indices 1 2 3 4 5 6 
#
# 1 0.008082 -0.002818 -0.001276 0.000000 0.000000 0.000000
# 2 -0.002818 0.014180 -0.005661 0.000000 0.000000 0.000000
# 3 -0.001276 -0.005661 0.016366 0.000000 0.000000 0.000000
# 4 0.000000 0.000000 0.000000 0.038542 0.000000 0.000000
# 5 0.000000 0.000000 0.000000 0.000000 0.024300 0.000000
# 6 0.000000 0.000000 0.000000 0.000000 0.000000 0.031167
#
#
# Mechanical properties :
#
#
# Convention : Reuss Voigt Hill
#
# Bulk Modulus (GPa) = 52.30632 55.50591 53.90611
# Shear Modulus (GPa) = 31.54172 33.92057 32.73115
#
# Velocity S-wave (km/s) = 3.92162 4.06681 3.99487
# Velocity P-wave (km/s) = 6.78299 7.00824 6.89653
#
# Compressibility (1/GPa) = 0.01911815
#
# Stress axis : x y z
#
# Youngs Moduli (GPa) = 123.72485 70.52297 61.10151
#
# Poissons Ratio (x) = 0.19870 0.07798
# Poissons Ratio (y) = 0.34860 0.34592
# Poissons Ratio (z) = 0.15791 0.39925
#
# Static dielectric constant tensor:
#      x y z
#    x 4.000040 0.000000 0.000000 
#    y 0.000000 3.521230 0.000000 
#    z 0.000000 0.000000 3.761290 
# 
# 
# High freq. dielectric constant tensor:
#      x y z
#    x 1.822110 0.000000 0.000000 
#    y 0.000000 1.780970 0.000000 
#    z 0.000000 0.000000 1.814600 
# 
# From -- ./inp_files/31959.got.cif
#   From: 2010.03.12/outbox.cif.g09.slc.cpg/sg62_16_cif.got.tgz:31959.got - 2010.04.10 19:12:36.
