data_PCOD8253214
_publ_section_title
;
Structure prediction by ZEFSAII (Michael W. Deem and Ramdas Pophale) SiO2 
 PCOD8253214
Probable space group: P N M A
;
_chemical_formula_sum "Si O2"
_cell_formula_units_Z 56
_cell_length_a 14.546116
_cell_length_b 8.752876
_cell_length_c 21.920642
_cell_angle_alpha 90.000000
_cell_angle_beta 90.000000
_cell_angle_gamma 90.000000
_cell_volume 2790.943804
_symmetry_space_group_name_H-M "P N M A"
_symmetry_group_IT_number 62
_symmetry_cell_setting 'orthorhombic'
loop_
_space_group_symop_operation_xyz
x,y,z
1/2-x,-y,1/2+z
1/2+x,1/2-y,1/2-z
-x,1/2+y,-z
-x,-y,-z
1/2+x,y,1/2-z
1/2-x,1/2+y,1/2+z
x,1/2-y,z
loop_
_atom_site_type_symbol
_atom_site_label
_atom_site_fract_x
_atom_site_fract_y
_atom_site_fract_z
Si Si1 0.975364 0.572973 0.174413
Si Si2 0.623784 0.429405 0.245116
Si Si3 0.686109 0.072448 0.768976
Si Si4 0.725831 0.431098 0.019460
Si Si5 0.927947 0.930759 0.610772
Si Si6 0.571315 0.569419 0.546920
Si Si7 0.880193 0.570248 0.401178
O O1 0.981182 0.750000 0.156362
O O2 0.897975 0.539608 0.224250
O O3 0.954843 0.474886 0.115113
O O4 0.072915 0.521039 0.201459
O O5 0.608785 0.250000 0.254406
O O6 0.730927 0.468152 0.246622
O O7 0.584720 0.485665 0.180204
O O8 0.714739 0.250000 0.768727
O O9 0.658044 0.016155 0.836143
O O10 0.728626 0.250000 0.024296
O O11 0.655915 0.496830 0.070300
O O12 0.827480 0.497338 0.031478
O O13 0.692391 0.482559 0.952438
O O14 0.929420 0.750000 0.606341
O O15 0.022662 0.993602 0.584017
O O16 0.500000 0.500000 0.500000
O O17 0.569348 0.750000 0.540094
O O18 0.896297 0.750000 0.402175
#
# Coordination Sequence:
#
# PCOD8253214 Si02
#       7
#     8   8   8   8   8   8   8
#     4  11  23  42  64  89 123 163 205 254 310 370
#     4  11  23  37  60  90 122 160 203 255 311 368
#     4  10  22  38  60  89 122 161 206 254 309 372
#     4   9  20  38  61  86 120 161 198 243 305 364
#     4  10  20  37  59  89 122 157 197 245 303 362
#     4  11  24  43  65  91 123 163 209 258 309 368
#     4  10  20  37  60  88 119 158 199 244 303 364
#
# _framework density 20.064896000000001
#
# number of rings (size 3 to 8) (size 9 to 14) (size 15 to 20)
#    0.000    1.714    1.429    2.571    2.000    3.429 
#    0.000    2.857    0.000    0.000    0.000    0.000 
#    0.000    0.000    0.000    0.000    0.000    0.000 
#
# Total GULP energy -694682.720862 kJ/mol
# GULP energy per Si atom -12405.048587 kJ/mol
# Density = 2.001923 g / cm^3
# Si number density = 20.064896 Si / 1000 Ang^3
#
#
#
# Elastic Constant Matrix: (Units=GPa)
#
#
# Indices 1 2 3 4 5 6 
#
# 1 93.8067 26.1035 30.3470 0.0000 0.0000 0.0000
# 2 26.1035 38.5407 27.2556 0.0000 0.0000 0.0000
# 3 30.3470 27.2556 119.7984 0.0000 0.0000 0.0000
# 4 0.0000 0.0000 0.0000 22.1268 0.0000 0.0000
# 5 0.0000 0.0000 0.0000 0.0000 37.0863 0.0000
# 6 0.0000 0.0000 0.0000 0.0000 0.0000 35.5599
#
#
#
# Elastic Compliance Matrix: (Units=1/GPa)
#
#
# Indices 1 2 3 4 5 6 
#
# 1 0.013383 -0.007945 -0.001583 0.000000 0.000000 0.000000
# 2 -0.007945 0.035638 -0.006096 0.000000 0.000000 0.000000
# 3 -0.001583 -0.006096 0.010135 0.000000 0.000000 0.000000
# 4 0.000000 0.000000 0.000000 0.045194 0.000000 0.000000
# 5 0.000000 0.000000 0.000000 0.000000 0.026964 0.000000
# 6 0.000000 0.000000 0.000000 0.000000 0.000000 0.028122
#
#
# Mechanical properties :
#
#
# Convention : Reuss Voigt Hill
#
# Bulk Modulus (GPa) = 35.82928 46.61758 41.22343
# Shear Modulus (GPa) = 25.00173 30.18392 27.59283
#
# Velocity S-wave (km/s) = 3.53376 3.88276 3.71236
# Velocity P-wave (km/s) = 5.87754 6.58672 6.24221
#
# Compressibility (1/GPa) = 0.02791013
#
# Stress axis : x y z
#
# Youngs Moduli (GPa) = 74.72135 28.05955 98.66740
#
# Poissons Ratio (x) = 0.22294 0.15615
# Poissons Ratio (y) = 0.59367 0.60143
# Poissons Ratio (z) = 0.11825 0.17104
#
# Static dielectric constant tensor:
#      x y z
#    x 3.773690 0.000000 0.000000 
#    y 0.000000 3.395670 0.000000 
#    z 0.000000 0.000000 3.939890 
# 
# 
# High freq. dielectric constant tensor:
#      x y z
#    x 1.795860 0.000000 0.000000 
#    y 0.000000 1.764590 0.000000 
#    z 0.000000 0.000000 1.797420 
# 
# From -- ./inp_files/27102.got.cif
#   From: 2010.03.12/outbox.cif.g09.slc.cpg/sg62_14_cif.got.tgz:27102.got - 2010.04.10 19:12:36.
