data_PCOD8253679
_publ_section_title
;
Structure prediction by ZEFSAII (Michael W. Deem and Ramdas Pophale) SiO2 
 PCOD8253679
Probable space group: P N M A
;
_chemical_formula_sum "Si O2"
_cell_formula_units_Z 48
_cell_length_a 29.054783
_cell_length_b 9.246693
_cell_length_c 9.415507
_cell_angle_alpha 90.000000
_cell_angle_beta 90.000000
_cell_angle_gamma 90.000000
_cell_volume 2529.576312
_symmetry_space_group_name_H-M "P N M A"
_symmetry_group_IT_number 62
_symmetry_cell_setting 'orthorhombic'
loop_
_space_group_symop_operation_xyz
x,y,z
1/2-x,-y,1/2+z
1/2+x,1/2-y,1/2-z
-x,1/2+y,-z
-x,-y,-z
1/2+x,y,1/2-z
1/2-x,1/2+y,1/2+z
x,1/2-y,z
loop_
_atom_site_type_symbol
_atom_site_label
_atom_site_fract_x
_atom_site_fract_y
_atom_site_fract_z
Si Si1 0.558403 0.581357 0.622094
Si Si2 0.770467 0.919454 0.387964
Si Si3 0.600989 0.415916 0.117688
Si Si4 0.129272 0.082864 0.701736
Si Si5 0.968548 0.418424 0.804712
Si Si6 0.297194 0.582036 0.802602
O O1 0.554830 0.750000 0.657826
O O2 0.606221 0.517942 0.679824
O O3 0.556861 0.552640 0.453842
O O4 0.517049 0.499700 0.700720
O O5 0.761818 0.750000 0.383607
O O6 0.816828 0.958064 0.301485
O O7 0.775908 0.972929 0.549283
O O8 0.726064 0.997075 0.325334
O O9 0.586334 0.250000 0.143506
O O10 0.562350 0.521887 0.177399
O O11 0.648465 0.448723 0.199529
O O12 0.606602 0.446980 0.951178
O O13 0.122675 0.250000 0.744115
O O14 0.977988 0.250000 0.779308
O O15 0.287082 0.750000 0.781894
#
# Coordination Sequence:
#
# PCOD8253679 Si02
#       6
#     8   8   8   8   8   8
#     4  10  21  36  54  77 104 134 169 209 253 302
#     4   9  19  35  53  75 104 136 171 211 253 300
#     4   9  19  36  55  75 102 136 172 210 253 301
#     4   9  19  36  55  75 102 136 172 210 253 301
#     4  10  21  36  54  77 104 134 169 209 253 302
#     4   9  19  35  53  75 104 136 171 211 253 300
#
# _framework density 18.975508999999999
#
# number of rings (size 3 to 8) (size 9 to 14) (size 15 to 20)
#    0.000    2.667    0.000    3.000    0.000    6.667 
#    0.000   10.000    0.000    0.000    0.000    0.000 
#    0.000    0.000    0.000    0.000    0.000    0.000 
#
# Total GULP energy -595304.178622 kJ/mol
# GULP energy per Si atom -12402.170388 kJ/mol
# Density = 1.893232 g / cm^3
# Si number density = 18.975509 Si / 1000 Ang^3
#
#
#
# Elastic Constant Matrix: (Units=GPa)
#
#
# Indices 1 2 3 4 5 6 
#
# 1 26.5830 11.2525 -1.9609 0.0000 0.0000 0.0000
# 2 11.2525 58.3674 8.9232 0.0000 0.0000 0.0000
# 3 -1.9609 8.9232 19.5228 0.0000 0.0000 0.0000
# 4 0.0000 0.0000 0.0000 32.6649 0.0000 0.0000
# 5 0.0000 0.0000 0.0000 0.0000 38.4831 0.0000
# 6 0.0000 0.0000 0.0000 0.0000 0.0000 31.4611
#
#
#
# Elastic Compliance Matrix: (Units=1/GPa)
#
#
# Indices 1 2 3 4 5 6 
#
# 1 0.042252 -0.009455 0.008565 0.000000 0.000000 0.000000
# 2 -0.009455 0.020536 -0.010336 0.000000 0.000000 0.000000
# 3 0.008565 -0.010336 0.056807 0.000000 0.000000 0.000000
# 4 0.000000 0.000000 0.000000 0.030614 0.000000 0.000000
# 5 0.000000 0.000000 0.000000 0.000000 0.025985 0.000000
# 6 0.000000 0.000000 0.000000 0.000000 0.000000 0.031785
#
#
# Mechanical properties :
#
#
# Convention : Reuss Voigt Hill
#
# Bulk Modulus (GPa) = 10.29405 15.65588 12.97496
# Shear Modulus (GPa) = 19.02502 26.27239 22.64871
#
# Velocity S-wave (km/s) = 3.16984 3.72498 3.45856
# Velocity P-wave (km/s) = 4.33980 5.17389 4.77509
#
# Compressibility (1/GPa) = 0.09714346
#
# Stress axis : x y z
#
# Youngs Moduli (GPa) = 23.66745 48.69533 17.60353
#
# Poissons Ratio (x) = 0.46042 -0.15078
# Poissons Ratio (y) = 0.22378 0.18195
# Poissons Ratio (z) = -0.20272 0.50331
#
# Static dielectric constant tensor:
#      x y z
#    x 3.410560 0.000000 0.000000 
#    y 0.000000 3.347970 0.000000 
#    z 0.000000 0.000000 3.352120 
# 
# 
# High freq. dielectric constant tensor:
#      x y z
#    x 1.738030 0.000000 0.000000 
#    y 0.000000 1.734840 0.000000 
#    z 0.000000 0.000000 1.731520 
# 
# From -- ./inp_files/10174.got.cif
#   From: 2010.03.12/outbox.cif.g09.slc.cpg/sg62_6_cif.got.tgz:10174.got - 2010.04.10 19:12:36.
