data_PCOD8253939
_publ_section_title
;
Structure prediction by ZEFSAII (Michael W. Deem and Ramdas Pophale) SiO2 
 PCOD8253939
Probable space group: P N M A
;
_chemical_formula_sum "Si O2"
_cell_formula_units_Z 48
_cell_length_a 15.419393
_cell_length_b 8.711873
_cell_length_c 17.838204
_cell_angle_alpha 90.000000
_cell_angle_beta 90.000000
_cell_angle_gamma 90.000000
_cell_volume 2396.237937
_symmetry_space_group_name_H-M "P N M A"
_symmetry_group_IT_number 62
_symmetry_cell_setting 'orthorhombic'
loop_
_space_group_symop_operation_xyz
x,y,z
1/2-x,-y,1/2+z
1/2+x,1/2-y,1/2-z
-x,1/2+y,-z
-x,-y,-z
1/2+x,y,1/2-z
1/2-x,1/2+y,1/2+z
x,1/2-y,z
loop_
_atom_site_type_symbol
_atom_site_label
_atom_site_fract_x
_atom_site_fract_y
_atom_site_fract_z
Si Si1 0.919061 0.568390 0.957837
Si Si2 0.418291 0.068810 0.040998
Si Si3 0.243116 0.429398 0.787213
Si Si4 0.092236 0.430832 0.213554
Si Si5 0.748834 0.067649 0.542608
Si Si6 0.431919 0.571580 0.201693
O O1 0.921910 0.750000 0.964110
O O2 0.919683 0.515122 0.871836
O O3 0.833551 0.501494 0.997980
O O4 0.000000 0.500000 0.000000
O O5 0.422963 0.250000 0.035392
O O6 0.413300 0.021329 0.126836
O O7 0.334078 0.003905 0.998314
O O8 0.500000 0.000000 0.000000
O O9 0.266385 0.250000 0.781647
O O10 0.311131 0.524738 0.738353
O O11 0.247610 0.491048 0.872088
O O12 0.146131 0.462460 0.758728
O O13 0.078753 0.250000 0.222808
O O14 0.022362 0.518578 0.263473
O O15 0.746677 0.250000 0.541020
O O16 0.439394 0.750000 0.181743
#
# Coordination Sequence:
#
# PCOD8253939 Si02
#       6
#     8   8   8   8   8   8
#     4  10  21  38  59  84 114 149 188 232 285 342
#     4  11  22  38  61  87 118 155 196 243 294 350
#     4  10  21  38  61  86 114 153 198 241 289 350
#     4  11  23  38  59  87 118 153 195 244 296 349
#     4   9  19  37  59  82 112 150 188 231 287 343
#     4  11  23  39  60  86 119 158 198 241 292 352
#
# _framework density 20.031397999999999
#
# number of rings (size 3 to 8) (size 9 to 14) (size 15 to 20)
#    0.000    1.667    0.000    4.500    0.000    6.667 
#    0.000    3.333    0.000    0.000    0.000    0.000 
#    0.000    0.000    0.000    0.000    0.000    0.000 
#
# Total GULP energy -595449.223742 kJ/mol
# GULP energy per Si atom -12405.192161 kJ/mol
# Density = 1.998581 g / cm^3
# Si number density = 20.031398 Si / 1000 Ang^3
#
#
#
# Elastic Constant Matrix: (Units=GPa)
#
#
# Indices 1 2 3 4 5 6 
#
# 1 127.0815 30.6252 38.0708 0.0000 0.0000 0.0000
# 2 30.6252 41.7549 25.9947 0.0000 0.0000 0.0000
# 3 38.0708 25.9947 130.3668 0.0000 0.0000 0.0000
# 4 0.0000 0.0000 0.0000 24.7875 0.0000 0.0000
# 5 0.0000 0.0000 0.0000 0.0000 47.3058 0.0000
# 6 0.0000 0.0000 0.0000 0.0000 0.0000 31.3480
#
#
#
# Elastic Compliance Matrix: (Units=1/GPa)
#
#
# Indices 1 2 3 4 5 6 
#
# 1 0.009856 -0.006208 -0.001641 0.000000 0.000000 0.000000
# 2 -0.006208 0.031253 -0.004419 0.000000 0.000000 0.000000
# 3 -0.001641 -0.004419 0.009031 0.000000 0.000000 0.000000
# 4 0.000000 0.000000 0.000000 0.040343 0.000000 0.000000
# 5 0.000000 0.000000 0.000000 0.000000 0.021139 0.000000
# 6 0.000000 0.000000 0.000000 0.000000 0.000000 0.031900
#
#
# Mechanical properties :
#
#
# Convention : Reuss Voigt Hill
#
# Bulk Modulus (GPa) = 39.05329 54.28717 46.67023
# Shear Modulus (GPa) = 28.31371 34.32242 31.31806
#
# Velocity S-wave (km/s) = 3.76369 4.14385 3.95834
# Velocity P-wave (km/s) = 6.19883 7.07497 6.65134
#
# Compressibility (1/GPa) = 0.02560604
#
# Stress axis : x y z
#
# Youngs Moduli (GPa) = 101.45627 31.99643 110.73129
#
# Poissons Ratio (x) = 0.19863 0.18166
# Poissons Ratio (y) = 0.62983 0.48932
# Poissons Ratio (z) = 0.16644 0.14139
#
# Static dielectric constant tensor:
#      x y z
#    x 3.623060 0.000000 0.000000 
#    y 0.000000 3.432430 0.000000 
#    z 0.000000 0.000000 4.010140 
# 
# 
# High freq. dielectric constant tensor:
#      x y z
#    x 1.800830 0.000000 0.000000 
#    y 0.000000 1.765690 0.000000 
#    z 0.000000 0.000000 1.800830 
# 
# From -- ./inp_files/23728.got.cif
#   From: 2010.03.12/outbox.cif.g09.slc.cpg/sg62_12_cif.got.tgz:23728.got - 2010.04.10 19:12:36.
