data_PCOD8253895
_publ_section_title
;
Structure prediction by ZEFSAII (Michael W. Deem and Ramdas Pophale) SiO2 
 PCOD8253895
Probable space group: P N M A
;
_chemical_formula_sum "Si O2"
_cell_formula_units_Z 56
_cell_length_a 15.455158
_cell_length_b 13.289588
_cell_length_c 12.001289
_cell_angle_alpha 90.000000
_cell_angle_beta 90.000000
_cell_angle_gamma 90.000000
_cell_volume 2464.976939
_symmetry_space_group_name_H-M "P N M A"
_symmetry_group_IT_number 62
_symmetry_cell_setting 'orthorhombic'
loop_
_space_group_symop_operation_xyz
x,y,z
1/2-x,-y,1/2+z
1/2+x,1/2-y,1/2-z
-x,1/2+y,-z
-x,-y,-z
1/2+x,y,1/2-z
1/2-x,1/2+y,1/2+z
x,1/2-y,z
loop_
_atom_site_type_symbol
_atom_site_label
_atom_site_fract_x
_atom_site_fract_y
_atom_site_fract_z
Si Si1 0.643728 0.866592 0.895706
Si Si2 0.774842 0.368970 0.748741
Si Si3 0.200797 0.992383 0.041126
Si Si4 0.082834 0.365503 0.770292
Si Si5 0.452988 0.864028 0.519226
Si Si6 0.631648 0.866148 0.640770
Si Si7 0.562587 0.867005 0.114534
O O1 0.673826 0.750000 0.900675
O O2 0.619617 0.897416 0.769913
O O3 0.718078 0.935499 0.945679
O O4 0.561898 0.882289 0.980049
O O5 0.772594 0.250000 0.740910
O O6 0.799852 0.401071 0.872527
O O7 0.679008 0.414262 0.720235
O O8 0.847284 0.412085 0.663754
O O9 0.118106 0.061189 0.066508
O O10 0.201529 0.938091 0.919617
O O11 0.097340 0.250000 0.739457
O O12 0.022988 0.415958 0.672719
O O13 0.033761 0.379964 0.887109
O O14 0.423508 0.750000 0.544926
O O15 0.542150 0.889503 0.579261
O O16 0.659762 0.750000 0.630279
O O17 0.560525 0.750000 0.147227
#
# Coordination Sequence:
#
# PCOD8253895 Si02
#       7
#     8   8   8   8   8   8   8
#     4  10  23  41  62  89 129 170 207 256 319 388
#     4  10  21  37  61  96 129 162 212 270 318 374
#     4  12  23  37  64  91 126 166 216 261 315 385
#     4   9  18  35  64  93 118 153 210 271 321 372
#     4  10  21  40  67  94 121 162 216 271 323 380
#     4  10  23  43  63  91 130 169 211 265 326 386
#     4   9  18  37  63  88 118 160 206 259 322 374
#
# _framework density 22.718264999999999
#
# number of rings (size 3 to 8) (size 9 to 14) (size 15 to 20)
#    0.000    2.000    0.000    3.000    4.000    4.571 
#    0.000    2.143    0.000    5.143    0.000    0.000 
#    0.000    0.000    0.000    0.000    0.000    0.000 
#
# Total GULP energy -694094.709153 kJ/mol
# GULP energy per Si atom -12394.548378 kJ/mol
# Density = 2.266656 g / cm^3
# Si number density = 22.718265 Si / 1000 Ang^3
#
#
#
# Elastic Constant Matrix: (Units=GPa)
#
#
# Indices 1 2 3 4 5 6 
#
# 1 84.7988 16.9901 57.7244 0.0000 0.0000 0.0000
# 2 16.9901 43.6530 16.8580 0.0000 0.0000 0.0000
# 3 57.7244 16.8580 137.1703 0.0000 0.0000 0.0000
# 4 0.0000 0.0000 0.0000 28.8466 0.0000 0.0000
# 5 0.0000 0.0000 0.0000 0.0000 32.6604 0.0000
# 6 0.0000 0.0000 0.0000 0.0000 0.0000 17.9439
#
#
#
# Elastic Compliance Matrix: (Units=1/GPa)
#
#
# Indices 1 2 3 4 5 6 
#
# 1 0.017196 -0.004093 -0.006734 0.000000 0.000000 0.000000
# 2 -0.004093 0.025023 -0.001353 0.000000 0.000000 0.000000
# 3 -0.006734 -0.001353 0.010290 0.000000 0.000000 0.000000
# 4 0.000000 0.000000 0.000000 0.034666 0.000000 0.000000
# 5 0.000000 0.000000 0.000000 0.000000 0.030618 0.000000
# 6 0.000000 0.000000 0.000000 0.000000 0.000000 0.055729
#
#
# Mechanical properties :
#
#
# Convention : Reuss Voigt Hill
#
# Bulk Modulus (GPa) = 35.52239 49.86301 42.69270
# Shear Modulus (GPa) = 24.12363 27.49349 25.80856
#
# Velocity S-wave (km/s) = 3.26216 3.48256 3.37416
# Velocity P-wave (km/s) = 5.46433 6.17795 5.83206
#
# Compressibility (1/GPa) = 0.02815126
#
# Stress axis : x y z
#
# Youngs Moduli (GPa) = 58.15197 39.96275 97.18020
#
# Poissons Ratio (x) = 0.16355 0.65438
# Poissons Ratio (y) = 0.23799 0.13149
# Poissons Ratio (z) = 0.39157 0.05407
#
# Static dielectric constant tensor:
#      x y z
#    x 4.212660 0.000000 0.000000 
#    y 0.000000 4.122950 0.000000 
#    z 0.000000 0.000000 4.208650 
# 
# 
# High freq. dielectric constant tensor:
#      x y z
#    x 1.880970 0.000000 0.000000 
#    y 0.000000 1.900810 0.000000 
#    z 0.000000 0.000000 1.900200 
# 
# From -- ./inp_files/13391.got.cif
#   From: 2010.03.12/outbox.cif.g09.slc.cpg/sg62_7_cif.got.tgz:13391.got - 2010.04.10 19:12:36.
