data_PCOD8253838
_publ_section_title
;
Structure prediction by ZEFSAII (Michael W. Deem and Ramdas Pophale) SiO2 
 PCOD8253838
Probable space group: P N M A
;
_chemical_formula_sum "Si O2"
_cell_formula_units_Z 40
_cell_length_a 7.641277
_cell_length_b 13.658868
_cell_length_c 17.844922
_cell_angle_alpha 90.000000
_cell_angle_beta 90.000000
_cell_angle_gamma 90.000000
_cell_volume 1862.495814
_symmetry_space_group_name_H-M "P N M A"
_symmetry_group_IT_number 62
_symmetry_cell_setting 'orthorhombic'
loop_
_space_group_symop_operation_xyz
x,y,z
1/2-x,-y,1/2+z
1/2+x,1/2-y,1/2-z
-x,1/2+y,-z
-x,-y,-z
1/2+x,y,1/2-z
1/2-x,1/2+y,1/2+z
x,1/2-y,z
loop_
_atom_site_type_symbol
_atom_site_label
_atom_site_fract_x
_atom_site_fract_y
_atom_site_fract_z
Si Si1 0.561815 0.365610 0.469604
Si Si2 0.501292 0.137699 0.307474
Si Si3 0.648850 0.862314 0.086470
Si Si4 0.641456 0.451079 0.164237
Si Si5 0.669417 0.137050 0.015932
O O1 0.555936 0.250000 0.474223
O O2 0.607295 0.394243 0.382671
O O3 0.715647 0.402922 0.523663
O O4 0.368958 0.405330 0.496149
O O5 0.540089 0.250000 0.285198
O O6 0.301260 0.123486 0.328235
O O7 0.523717 0.066390 0.236757
O O8 0.688560 0.750000 0.109163
O O9 0.677257 0.931694 0.159242
O O10 0.448893 0.873994 0.058169
O O11 0.565141 0.419899 0.082767
O O12 0.681083 0.250000 0.039344
#
# Coordination Sequence:
#
# PCOD8253838 Si02
#       5
#     8   8   8   8   8
#     4   8  17  35  58  85 115 150 190 240 297 347
#     4  10  21  37  58  86 120 152 191 245 306 357
#     4  10  21  38  60  86 117 157 201 244 289 349
#     4  11  22  37  56  89 118 155 198 239 296 360
#     4   9  18  34  57  85 116 145 188 247 297 344
#
# _framework density 21.476559000000002
#
# number of rings (size 3 to 8) (size 9 to 14) (size 15 to 20)
#    0.000    2.400    0.000    3.600    2.800    3.200 
#    3.600    1.000    0.000    0.000    0.000    0.000 
#    0.000    0.000    0.000    0.000    0.000    0.000 
#
# Total GULP energy -495549.301686 kJ/mol
# GULP energy per Si atom -12388.732542 kJ/mol
# Density = 2.142768 g / cm^3
# Si number density = 21.476559 Si / 1000 Ang^3
#
#
#
# Elastic Constant Matrix: (Units=GPa)
#
#
# Indices 1 2 3 4 5 6 
#
# 1 73.7017 16.3502 29.3086 0.0000 0.0000 0.0000
# 2 16.3502 85.3510 47.9878 0.0000 0.0000 0.0000
# 3 29.3086 47.9878 84.2878 0.0000 0.0000 0.0000
# 4 0.0000 0.0000 0.0000 38.8517 0.0000 0.0000
# 5 0.0000 0.0000 0.0000 0.0000 15.6372 0.0000
# 6 0.0000 0.0000 0.0000 0.0000 0.0000 16.4932
#
#
#
# Elastic Compliance Matrix: (Units=1/GPa)
#
#
# Indices 1 2 3 4 5 6 
#
# 1 0.015746 0.000091 -0.005527 0.000000 0.000000 0.000000
# 2 0.000091 0.017233 -0.009843 0.000000 0.000000 0.000000
# 3 -0.005527 -0.009843 0.019390 0.000000 0.000000 0.000000
# 4 0.000000 0.000000 0.000000 0.025739 0.000000 0.000000
# 5 0.000000 0.000000 0.000000 0.000000 0.063950 0.000000
# 6 0.000000 0.000000 0.000000 0.000000 0.000000 0.060631
#
#
# Mechanical properties :
#
#
# Convention : Reuss Voigt Hill
#
# Bulk Modulus (GPa) = 45.84836 47.84818 46.84827
# Shear Modulus (GPa) = 20.78855 24.17602 22.48228
#
# Velocity S-wave (km/s) = 3.11459 3.35878 3.23898
# Velocity P-wave (km/s) = 5.85907 6.11306 5.98741
#
# Compressibility (1/GPa) = 0.02181103
#
# Stress axis : x y z
#
# Youngs Moduli (GPa) = 63.50853 58.02825 51.57312
#
# Poissons Ratio (x) = -0.00529 0.28505
# Poissons Ratio (y) = -0.00579 0.50763
# Poissons Ratio (z) = 0.35102 0.57117
#
# Static dielectric constant tensor:
#      x y z
#    x 4.009590 0.000000 0.000000 
#    y 0.000000 3.847340 0.000000 
#    z 0.000000 0.000000 4.367180 
# 
# 
# High freq. dielectric constant tensor:
#      x y z
#    x 1.830540 0.000000 0.000000 
#    y 0.000000 1.848400 0.000000 
#    z 0.000000 0.000000 1.815950 
# 
# From -- ./inp_files/16641.got.cif
#   From: 2010.03.12/outbox.cif.g09.slc.cpg/sg62_9_cif.got.tgz:16641.got - 2010.04.10 19:12:36.
