data_PCOD8253955
_publ_section_title
;
Structure prediction by ZEFSAII (Michael W. Deem and Ramdas Pophale) SiO2 
 PCOD8253955
Probable space group: P N M A
;
_chemical_formula_sum "Si O2"
_cell_formula_units_Z 64
_cell_length_a 15.294313
_cell_length_b 9.081977
_cell_length_c 23.487772
_cell_angle_alpha 90.000000
_cell_angle_beta 90.000000
_cell_angle_gamma 90.000000
_cell_volume 3262.512573
_symmetry_space_group_name_H-M "P N M A"
_symmetry_group_IT_number 62
_symmetry_cell_setting 'orthorhombic'
loop_
_space_group_symop_operation_xyz
x,y,z
1/2-x,-y,1/2+z
1/2+x,1/2-y,1/2-z
-x,1/2+y,-z
-x,-y,-z
1/2+x,y,1/2-z
1/2-x,1/2+y,1/2+z
x,1/2-y,z
loop_
_atom_site_type_symbol
_atom_site_label
_atom_site_fract_x
_atom_site_fract_y
_atom_site_fract_z
Si Si1 0.188679 0.579329 0.497422
Si Si2 0.135805 0.579389 0.002518
Si Si3 0.022644 0.419643 0.915756
Si Si4 0.985308 0.078684 0.787325
Si Si5 0.321786 0.921737 0.764937
Si Si6 0.388011 0.579316 0.889790
Si Si7 0.913007 0.420390 0.390409
Si Si8 0.654918 0.422761 0.785346
O O1 0.208031 0.750000 0.488480
O O2 0.276125 0.502632 0.519759
O O3 0.159370 0.513655 0.437746
O O4 0.114397 0.551912 0.544525
O O5 0.155993 0.750000 0.993834
O O6 0.098601 0.517902 0.943087
O O7 0.069168 0.548563 0.053681
O O8 0.049915 0.250000 0.922870
O O9 0.014462 0.465583 0.850498
O O10 0.959872 0.250000 0.783683
O O11 0.064521 0.038640 0.745777
O O12 0.901558 0.983377 0.771761
O O13 0.313083 0.750000 0.751469
O O14 0.337819 0.951428 0.831355
O O15 0.232976 0.002191 0.748644
O O16 0.385540 0.750000 0.907312
O O17 0.487635 0.525159 0.883571
O O18 0.903232 0.250000 0.373093
O O19 0.850735 0.514799 0.349240
O O20 0.673243 0.250000 0.787670
#
# Coordination Sequence:
#
# PCOD8253955 Si02
#       8
#     8   8   8   8   8   8   8   8
#     4  11  24  38  61  90 119 155 200 252 302 358
#     4  10  21  38  59  87 121 157 198 246 298 360
#     4   9  20  39  61  85 120 158 198 247 299 355
#     4  10  22  41  64  93 123 159 206 254 307 363
#     4  11  24  41  64  92 126 165 204 253 305 365
#     4  10  22  42  64  88 121 157 199 250 304 362
#     4  10  22  43  64  88 121 157 202 252 303 363
#     4  11  24  40  63  93 127 165 206 255 305 365
#
# _framework density 19.616783000000002
#
# number of rings (size 3 to 8) (size 9 to 14) (size 15 to 20)
#    0.000    1.750    1.250    1.875    3.500    4.000 
#    0.000    0.000    0.000    0.000    0.000    0.000 
#    0.000    0.000    0.000    0.000    0.000    0.000 
#
# Total GULP energy -794014.872160 kJ/mol
# GULP energy per Si atom -12406.482377 kJ/mol
# Density = 1.957213 g / cm^3
# Si number density = 19.616783 Si / 1000 Ang^3
#
#
#
# Elastic Constant Matrix: (Units=GPa)
#
#
# Indices 1 2 3 4 5 6 
#
# 1 77.8771 33.6069 7.7846 0.0000 0.0000 0.0000
# 2 33.6069 76.3652 26.2909 0.0000 0.0000 0.0000
# 3 7.7846 26.2909 74.2509 0.0000 0.0000 0.0000
# 4 0.0000 0.0000 0.0000 31.1045 0.0000 0.0000
# 5 0.0000 0.0000 0.0000 0.0000 26.5276 0.0000
# 6 0.0000 0.0000 0.0000 0.0000 0.0000 35.4519
#
#
#
# Elastic Compliance Matrix: (Units=1/GPa)
#
#
# Indices 1 2 3 4 5 6 
#
# 1 0.015906 -0.007318 0.000924 0.000000 0.000000 0.000000
# 2 -0.007318 0.018280 -0.005705 0.000000 0.000000 0.000000
# 3 0.000924 -0.005705 0.015391 0.000000 0.000000 0.000000
# 4 0.000000 0.000000 0.000000 0.032150 0.000000 0.000000
# 5 0.000000 0.000000 0.000000 0.000000 0.037697 0.000000
# 6 0.000000 0.000000 0.000000 0.000000 0.000000 0.028207
#
#
# Mechanical properties :
#
#
# Convention : Reuss Voigt Hill
#
# Bulk Modulus (GPa) = 39.40466 40.42865 39.91665
# Shear Modulus (GPa) = 27.73313 29.33752 28.53533
#
# Velocity S-wave (km/s) = 3.76406 3.87141 3.81811
# Velocity P-wave (km/s) = 6.24673 6.37477 6.31108
#
# Compressibility (1/GPa) = 0.02537771
#
# Stress axis : x y z
#
# Youngs Moduli (GPa) = 62.86753 54.70541 64.97235
#
# Poissons Ratio (x) = 0.40034 -0.06000
# Poissons Ratio (y) = 0.46007 0.37069
# Poissons Ratio (z) = -0.05806 0.31211
#
# Static dielectric constant tensor:
#      x y z
#    x 3.634750 0.000000 0.000000 
#    y 0.000000 3.632390 0.000000 
#    z 0.000000 0.000000 3.571880 
# 
# 
# High freq. dielectric constant tensor:
#      x y z
#    x 1.771740 0.000000 0.000000 
#    y 0.000000 1.768530 0.000000 
#    z 0.000000 0.000000 1.772660 
# 
# From -- ./inp_files/29941.got.cif
#   From: 2010.03.12/outbox.cif.g09.slc.cpg/sg62_15_cif.got.tgz:29941.got - 2010.04.10 19:12:36.
