data_PCOD8253347
_publ_section_title
;
Structure prediction by ZEFSAII (Michael W. Deem and Ramdas Pophale) SiO2 
 PCOD8253347
Probable space group: P N M A
;
_chemical_formula_sum "Si O2"
_cell_formula_units_Z 40
_cell_length_a 18.685481
_cell_length_b 9.015812
_cell_length_c 12.337481
_cell_angle_alpha 90.000000
_cell_angle_beta 90.000000
_cell_angle_gamma 90.000000
_cell_volume 2078.431070
_symmetry_space_group_name_H-M "P N M A"
_symmetry_group_IT_number 62
_symmetry_cell_setting 'orthorhombic'
loop_
_space_group_symop_operation_xyz
x,y,z
1/2-x,-y,1/2+z
1/2+x,1/2-y,1/2-z
-x,1/2+y,-z
-x,-y,-z
1/2+x,y,1/2-z
1/2-x,1/2+y,1/2+z
x,1/2-y,z
loop_
_atom_site_type_symbol
_atom_site_label
_atom_site_fract_x
_atom_site_fract_y
_atom_site_fract_z
Si Si1 0.067874 0.074028 0.444912
Si Si2 0.546386 0.074093 0.298350
Si Si3 0.161908 0.077496 0.032811
Si Si4 0.677743 0.578011 0.907178
Si Si5 0.114356 0.574772 0.821934
O O1 0.060633 0.250000 0.454845
O O2 0.070596 0.021067 0.320385
O O3 0.140474 0.019466 0.500511
O O4 0.000000 0.000000 0.500000
O O5 0.546878 0.250000 0.301459
O O6 0.601538 0.010228 0.387113
O O7 0.467021 0.014456 0.325070
O O8 0.148418 0.250000 0.011907
O O9 0.237955 0.048980 0.088569
O O10 0.159605 0.995904 0.918321
O O11 0.658357 0.750000 0.926655
O O12 0.650158 0.524669 0.790388
O O13 0.117224 0.750000 0.834876
#
# Coordination Sequence:
#
# PCOD8253347 Si02
#       5
#     8   8   8   8   8
#     4  11  21  37  62  87 115 151 194 236 284 344
#     4   9  19  37  60  83 111 152 192 233 288 346
#     4  10  22  38  58  84 116 152 192 238 289 340
#     4  10  22  39  57  83 120 154 189 240 292 340
#     4  10  20  38  60  82 114 152 194 237 288 345
#
# _framework density 19.245284999999999
#
# number of rings (size 3 to 8) (size 9 to 14) (size 15 to 20)
#    0.000    2.000    2.000    1.200    2.800    1.600 
#    0.000    2.000    0.000    0.000    0.000    0.000 
#    0.000    0.000    0.000    0.000    0.000    0.000 
#
# Total GULP energy -496140.804987 kJ/mol
# GULP energy per Si atom -12403.520125 kJ/mol
# Density = 1.920148 g / cm^3
# Si number density = 19.245285 Si / 1000 Ang^3
#
#
#
# Elastic Constant Matrix: (Units=GPa)
#
#
# Indices 1 2 3 4 5 6 
#
# 1 111.0252 24.5608 46.3859 0.0000 0.0000 0.0000
# 2 24.5608 38.8483 28.3091 0.0000 0.0000 0.0000
# 3 46.3859 28.3091 118.3204 0.0000 0.0000 0.0000
# 4 0.0000 0.0000 0.0000 30.9756 0.0000 0.0000
# 5 0.0000 0.0000 0.0000 0.0000 39.8742 0.0000
# 6 0.0000 0.0000 0.0000 0.0000 0.0000 27.1594
#
#
#
# Elastic Compliance Matrix: (Units=1/GPa)
#
#
# Indices 1 2 3 4 5 6 
#
# 1 0.011469 -0.004814 -0.003345 0.000000 0.000000 0.000000
# 2 -0.004814 0.033197 -0.006056 0.000000 0.000000 0.000000
# 3 -0.003345 -0.006056 0.011212 0.000000 0.000000 0.000000
# 4 0.000000 0.000000 0.000000 0.032283 0.000000 0.000000
# 5 0.000000 0.000000 0.000000 0.000000 0.025079 0.000000
# 6 0.000000 0.000000 0.000000 0.000000 0.000000 0.036820
#
#
# Mechanical properties :
#
#
# Convention : Reuss Voigt Hill
#
# Bulk Modulus (GPa) = 36.42953 51.85615 44.14284
# Shear Modulus (GPa) = 26.64701 30.86439 28.75570
#
# Velocity S-wave (km/s) = 3.72506 4.00901 3.86964
# Velocity P-wave (km/s) = 6.12140 6.95938 6.55380
#
# Compressibility (1/GPa) = 0.02745026
#
# Stress axis : x y z
#
# Youngs Moduli (GPa) = 87.18972 30.12290 89.19286
#
# Poissons Ratio (x) = 0.14501 0.29831
# Poissons Ratio (y) = 0.41972 0.54011
# Poissons Ratio (z) = 0.29161 0.18241
#
# Static dielectric constant tensor:
#      x y z
#    x 3.682510 0.000000 0.000000 
#    y 0.000000 3.284860 0.000000 
#    z 0.000000 0.000000 3.740370 
# 
# 
# High freq. dielectric constant tensor:
#      x y z
#    x 1.760320 0.000000 0.000000 
#    y 0.000000 1.721920 0.000000 
#    z 0.000000 0.000000 1.761940 
# 
# From -- ./inp_files/13828.got.cif
#   From: 2010.03.12/outbox.cif.g09.slc.cpg/sg62_7_cif.got.tgz:13828.got - 2010.04.10 19:12:36.
