data_PCOD8253818
_publ_section_title
;
Structure prediction by ZEFSAII (Michael W. Deem and Ramdas Pophale) SiO2 
 PCOD8253818
Probable space group: P N M A
;
_chemical_formula_sum "Si O2"
_cell_formula_units_Z 56
_cell_length_a 21.710930
_cell_length_b 9.062560
_cell_length_c 14.739835
_cell_angle_alpha 90.000000
_cell_angle_beta 90.000000
_cell_angle_gamma 90.000000
_cell_volume 2900.159904
_symmetry_space_group_name_H-M "P N M A"
_symmetry_group_IT_number 62
_symmetry_cell_setting 'orthorhombic'
loop_
_space_group_symop_operation_xyz
x,y,z
1/2-x,-y,1/2+z
1/2+x,1/2-y,1/2-z
-x,1/2+y,-z
-x,-y,-z
1/2+x,y,1/2-z
1/2-x,1/2+y,1/2+z
x,1/2-y,z
loop_
_atom_site_type_symbol
_atom_site_label
_atom_site_fract_x
_atom_site_fract_y
_atom_site_fract_z
Si Si1 0.464772 0.924158 0.638143
Si Si2 0.726091 0.419578 0.326881
Si Si3 0.383937 0.574987 0.798472
Si Si4 0.645720 0.076418 0.835797
Si Si5 0.566372 0.424729 0.010164
Si Si6 0.362903 0.581282 0.506994
Si Si7 0.397155 0.077012 0.340817
O O1 0.454972 0.750000 0.641261
O O2 0.437731 0.987558 0.732835
O O3 0.424766 0.984036 0.553954
O O4 0.535052 0.969003 0.625581
O O5 0.746485 0.250000 0.310730
O O6 0.682424 0.473824 0.243321
O O7 0.784156 0.524799 0.334233
O O8 0.692637 0.435247 0.423167
O O9 0.384689 0.750000 0.799407
O O10 0.398254 0.515914 0.899569
O O11 0.643893 0.250000 0.820870
O O12 0.610192 0.996965 0.755624
O O13 0.611105 0.030356 0.927922
O O14 0.555439 0.250000 0.014743
O O15 0.500000 0.500000 0.000000
O O16 0.371219 0.750000 0.476502
O O17 0.349951 0.485729 0.416314
O O18 0.387197 0.250000 0.330279
#
# Coordination Sequence:
#
# PCOD8253818 Si02
#       7
#     8   8   8   8   8   8   8
#     4   8  15  29  52  81 109 137 170 211 260 316
#     4   9  19  37  59  80 104 141 184 221 267 329
#     4   8  15  32  57  80 104 138 179 220 264 318
#     4  11  24  38  52  77 113 146 180 230 280 316
#     4  10  21  37  58  83 111 144 182 227 278 329
#     4   9  18  34  55  80 111 140 170 217 271 318
#     4  11  21  33  53  79 106 142 183 216 258 320
#
# _framework density 19.309280000000001
#
# number of rings (size 3 to 8) (size 9 to 14) (size 15 to 20)
#    0.000    2.571    0.000    3.857    0.000    4.000 
#    0.000    2.857    0.000    2.571    0.000    0.000 
#    0.000    0.000    0.000    0.000    0.000    0.000 
#
# Total GULP energy -694142.473427 kJ/mol
# GULP energy per Si atom -12395.401311 kJ/mol
# Density = 1.926533 g / cm^3
# Si number density = 19.309280 Si / 1000 Ang^3
#
#
#
# Elastic Constant Matrix: (Units=GPa)
#
#
# Indices 1 2 3 4 5 6 
#
# 1 80.2799 30.9493 36.4253 0.0000 0.0000 0.0000
# 2 30.9493 59.5636 41.6463 0.0000 0.0000 0.0000
# 3 36.4253 41.6463 142.3760 0.0000 0.0000 0.0000
# 4 0.0000 0.0000 0.0000 23.0663 0.0000 0.0000
# 5 0.0000 0.0000 0.0000 0.0000 20.1387 0.0000
# 6 0.0000 0.0000 0.0000 0.0000 0.0000 28.6747
#
#
#
# Elastic Compliance Matrix: (Units=1/GPa)
#
#
# Indices 1 2 3 4 5 6 
#
# 1 0.016060 -0.006879 -0.002097 0.000000 0.000000 0.000000
# 2 -0.006879 0.024051 -0.005275 0.000000 0.000000 0.000000
# 3 -0.002097 -0.005275 0.009103 0.000000 0.000000 0.000000
# 4 0.000000 0.000000 0.000000 0.043353 0.000000 0.000000
# 5 0.000000 0.000000 0.000000 0.000000 0.049656 0.000000
# 6 0.000000 0.000000 0.000000 0.000000 0.000000 0.034874
#
#
# Mechanical properties :
#
#
# Convention : Reuss Voigt Hill
#
# Bulk Modulus (GPa) = 48.27929 55.58459 51.93194
# Shear Modulus (GPa) = 23.52912 25.92251 24.72581
#
# Velocity S-wave (km/s) = 3.49455 3.66798 3.58231
# Velocity P-wave (km/s) = 6.42961 6.84015 6.63806
#
# Compressibility (1/GPa) = 0.02071281
#
# Stress axis : x y z
#
# Youngs Moduli (GPa) = 62.26827 41.57751 109.85185
#
# Poissons Ratio (x) = 0.28600 0.23031
# Poissons Ratio (y) = 0.42832 0.57952
# Poissons Ratio (z) = 0.13055 0.21934
#
# Static dielectric constant tensor:
#      x y z
#    x 4.002560 0.000000 0.000000 
#    y 0.000000 3.196220 0.000000 
#    z 0.000000 0.000000 3.815650 
# 
# 
# High freq. dielectric constant tensor:
#      x y z
#    x 1.749610 0.000000 0.000000 
#    y 0.000000 1.720510 0.000000 
#    z 0.000000 0.000000 1.767360 
# 
# From -- ./inp_files/20364.got.cif
#   From: 2010.03.12/outbox.cif.g09.slc.cpg/sg62_11_cif.got.tgz:20364.got - 2010.04.10 19:12:36.
