data_PCOD8253040
_publ_section_title
;
Structure prediction by ZEFSAII (Michael W. Deem and Ramdas Pophale) SiO2 
 PCOD8253040
Probable space group: P N M A
;
_chemical_formula_sum "Si O2"
_cell_formula_units_Z 64
_cell_length_a 14.465047
_cell_length_b 18.641110
_cell_length_c 11.742304
_cell_angle_alpha 90.000000
_cell_angle_beta 90.000000
_cell_angle_gamma 90.000000
_cell_volume 3166.248070
_symmetry_space_group_name_H-M "P N M A"
_symmetry_group_IT_number 62
_symmetry_cell_setting 'orthorhombic'
loop_
_space_group_symop_operation_xyz
x,y,z
1/2-x,-y,1/2+z
1/2+x,1/2-y,1/2-z
-x,1/2+y,-z
-x,-y,-z
1/2+x,y,1/2-z
1/2-x,1/2+y,1/2+z
x,1/2-y,z
loop_
_atom_site_type_symbol
_atom_site_label
_atom_site_fract_x
_atom_site_fract_y
_atom_site_fract_z
Si Si1 0.841675 0.886382 0.397204
Si Si2 0.542901 0.329381 0.084304
Si Si3 0.969823 0.596995 0.197211
Si Si4 0.899587 0.963752 0.989543
Si Si5 0.849942 0.171026 0.533711
Si Si6 0.157228 0.670744 0.197506
Si Si7 0.579756 0.037680 0.235804
Si Si8 0.703258 0.984866 0.032891
O O1 0.865787 0.836636 0.505584
O O2 0.912030 0.865238 0.296689
O O3 0.737893 0.876912 0.354813
O O4 0.853027 0.968856 0.439415
O O5 0.543094 0.250000 0.140284
O O6 0.541007 0.389223 0.182024
O O7 0.455679 0.340408 0.002048
O O8 0.060699 0.638398 0.157656
O O9 0.996117 0.517639 0.243385
O O10 0.905213 0.599012 0.084369
O O11 0.879065 0.940203 0.859550
O O12 0.810740 0.010691 0.031599
O O13 0.000000 0.000000 0.000000
O O14 0.814398 0.250000 0.487111
O O15 0.841232 0.172051 0.667858
O O16 0.796154 0.099299 0.493426
O O17 0.167420 0.750000 0.146644
O O18 0.657658 0.998472 0.157534
#
# Coordination Sequence:
#
# PCOD8253040 Si02
#       8
#     8   8   8   8   8   8   8   8
#     4  11  21  34  62  91 121 163 207 256 315 368
#     4  10  20  37  60  86 119 161 204 255 310 369
#     4  11  21  37  61  88 126 157 204 252 316 370
#     4  10  23  38  59  89 126 161 199 253 311 369
#     4  10  20  36  58  89 122 152 198 261 320 365
#     4  11  22  36  57  89 129 157 199 257 314 382
#     4  10  21  39  58  90 118 157 210 249 303 373
#     4  11  21  37  64  87 121 161 207 259 303 371
#
# _framework density 20.213197999999998
#
# number of rings (size 3 to 8) (size 9 to 14) (size 15 to 20)
#    0.000    1.500    2.500    3.375    1.750    2.500 
#    0.000    1.875    0.000    0.000    0.000    0.000 
#    0.000    0.000    0.000    0.000    0.000    0.000 
#
# Total GULP energy -792861.097432 kJ/mol
# GULP energy per Si atom -12388.454647 kJ/mol
# Density = 2.016719 g / cm^3
# Si number density = 20.213198 Si / 1000 Ang^3
#
#
#
# Elastic Constant Matrix: (Units=GPa)
#
#
# Indices 1 2 3 4 5 6 
#
# 1 88.9723 21.3932 33.9162 0.0000 0.0000 0.0000
# 2 21.3932 125.8640 37.2771 0.0000 0.0000 0.0000
# 3 33.9162 37.2771 105.9098 0.0000 0.0000 0.0000
# 4 0.0000 0.0000 0.0000 15.1602 0.0000 0.0000
# 5 0.0000 0.0000 0.0000 0.0000 28.7127 0.0000
# 6 0.0000 0.0000 0.0000 0.0000 0.0000 22.6982
#
#
#
# Elastic Compliance Matrix: (Units=1/GPa)
#
#
# Indices 1 2 3 4 5 6 
#
# 1 0.012934 -0.001085 -0.003760 0.000000 0.000000 0.000000
# 2 -0.001085 0.008961 -0.002807 0.000000 0.000000 0.000000
# 3 -0.003760 -0.002807 0.011634 0.000000 0.000000 0.000000
# 4 0.000000 0.000000 0.000000 0.065962 0.000000 0.000000
# 5 0.000000 0.000000 0.000000 0.000000 0.034828 0.000000
# 6 0.000000 0.000000 0.000000 0.000000 0.000000 0.044056
#
#
# Mechanical properties :
#
#
# Convention : Reuss Voigt Hill
#
# Bulk Modulus (GPa) = 54.86778 56.21322 55.54050
# Shear Modulus (GPa) = 25.03100 28.52485 26.77793
#
# Velocity S-wave (km/s) = 3.52284 3.76067 3.64369
# Velocity P-wave (km/s) = 6.61443 6.83574 6.72599
#
# Compressibility (1/GPa) = 0.01822563
#
# Stress axis : x y z
#
# Youngs Moduli (GPa) = 77.31806 111.59894 85.95567
#
# Poissons Ratio (x) = 0.12105 0.32319
# Poissons Ratio (y) = 0.08387 0.24124
# Poissons Ratio (z) = 0.29072 0.31320
#
# Static dielectric constant tensor:
#      x y z
#    x 3.701110 0.000000 0.000000 
#    y 0.000000 3.960490 0.000000 
#    z 0.000000 0.000000 3.889980 
# 
# 
# High freq. dielectric constant tensor:
#      x y z
#    x 1.790770 0.000000 0.000000 
#    y 0.000000 1.777260 0.000000 
#    z 0.000000 0.000000 1.781500 
# 
# From -- ./inp_files/13565.got.cif
#   From: 2010.03.12/outbox.cif.g09.slc.cpg/sg62_7_cif.got.tgz:13565.got - 2010.04.10 19:12:36.
