data_PCOD8253519
_publ_section_title
;
Structure prediction by ZEFSAII (Michael W. Deem and Ramdas Pophale) SiO2 
 PCOD8253519
Probable space group: P N M A
;
_chemical_formula_sum "Si O2"
_cell_formula_units_Z 64
_cell_length_a 16.973975
_cell_length_b 11.354933
_cell_length_c 15.951065
_cell_angle_alpha 90.000000
_cell_angle_beta 90.000000
_cell_angle_gamma 90.000000
_cell_volume 3074.381931
_symmetry_space_group_name_H-M "P N M A"
_symmetry_group_IT_number 62
_symmetry_cell_setting 'orthorhombic'
loop_
_space_group_symop_operation_xyz
x,y,z
1/2-x,-y,1/2+z
1/2+x,1/2-y,1/2-z
-x,1/2+y,-z
-x,-y,-z
1/2+x,y,1/2-z
1/2-x,1/2+y,1/2+z
x,1/2-y,z
loop_
_atom_site_type_symbol
_atom_site_label
_atom_site_fract_x
_atom_site_fract_y
_atom_site_fract_z
Si Si1 0.630254 0.484890 0.376391
Si Si2 0.380340 0.957348 0.181392
Si Si3 0.201259 0.469102 0.421366
Si Si4 0.218428 0.621785 0.575282
Si Si5 0.054610 0.117446 0.508817
Si Si6 0.372212 0.116556 0.459679
Si Si7 0.728050 0.616993 0.241631
Si Si8 0.525095 0.611178 0.697949
O O1 0.688225 0.383187 0.409564
O O2 0.596157 0.546290 0.459742
O O3 0.677630 0.583616 0.323812
O O4 0.564375 0.419190 0.323317
O O5 0.411764 0.880889 0.103555
O O6 0.322963 0.881021 0.241762
O O7 0.322229 0.057800 0.151409
O O8 0.452535 0.023359 0.226580
O O9 0.194100 0.577110 0.484499
O O10 0.123783 0.389606 0.438525
O O11 0.278972 0.394727 0.443241
O O12 0.204312 0.521129 0.328262
O O13 0.184437 0.750000 0.579513
O O14 0.015672 0.250000 0.496201
O O15 0.000000 0.000000 0.500000
O O16 0.393846 0.250000 0.478019
O O17 0.418580 0.073383 0.378086
O O18 0.704940 0.750000 0.214455
O O19 0.533238 0.750000 0.721133
#
# Coordination Sequence:
#
# PCOD8253519 Si02
#       8
#     8   8   8   8   8   8   8   8
#     4  10  22  36  57  88 125 160 208 253 318 382
#     4  10  22  41  63  90 125 166 215 264 318 387
#     4  10  21  39  63  91 122 160 214 262 315 385
#     4   9  18  35  58  83 115 160 211 261 314 373
#     4  11  26  46  69  97 133 177 222 273 330 394
#     4  10  20  39  64  86 119 164 208 256 312 381
#     4  11  22  40  64  92 125 163 212 269 319 377
#     4  11  22  38  61  91 130 166 206 263 321 382
#
# _framework density 20.817191000000001
#
# number of rings (size 3 to 8) (size 9 to 14) (size 15 to 20)
#    0.000    1.750    1.250    3.375    1.750    3.000 
#    0.000    3.125    0.000    0.000    0.000    0.000 
#    0.000    0.000    0.000    0.000    0.000    0.000 
#
# Total GULP energy -793187.920810 kJ/mol
# GULP energy per Si atom -12393.561263 kJ/mol
# Density = 2.076981 g / cm^3
# Si number density = 20.817191 Si / 1000 Ang^3
#
#
#
# Elastic Constant Matrix: (Units=GPa)
#
#
# Indices 1 2 3 4 5 6 
#
# 1 68.9720 18.6194 5.7451 0.0000 0.0000 0.0000
# 2 18.6194 105.6618 22.3158 0.0000 0.0000 0.0000
# 3 5.7451 22.3158 79.5225 0.0000 0.0000 0.0000
# 4 0.0000 0.0000 0.0000 6.5954 0.0000 0.0000
# 5 0.0000 0.0000 0.0000 0.0000 32.8217 0.0000
# 6 0.0000 0.0000 0.0000 0.0000 0.0000 17.1614
#
#
#
# Elastic Compliance Matrix: (Units=1/GPa)
#
#
# Indices 1 2 3 4 5 6 
#
# 1 0.015233 -0.002606 -0.000369 0.000000 0.000000 0.000000
# 2 -0.002606 0.010506 -0.002760 0.000000 0.000000 0.000000
# 3 -0.000369 -0.002760 0.013376 0.000000 0.000000 0.000000
# 4 0.000000 0.000000 0.000000 0.151621 0.000000 0.000000
# 5 0.000000 0.000000 0.000000 0.000000 0.030468 0.000000
# 6 0.000000 0.000000 0.000000 0.000000 0.000000 0.058270
#
#
# Mechanical properties :
#
#
# Convention : Reuss Voigt Hill
#
# Bulk Modulus (GPa) = 36.17341 38.61299 37.39320
# Shear Modulus (GPa) = 16.65778 25.14742 20.90260
#
# Velocity S-wave (km/s) = 2.83184 3.47942 3.17220
# Velocity P-wave (km/s) = 5.30159 5.89327 5.60524
#
# Compressibility (1/GPa) = 0.02764462
#
# Stress axis : x y z
#
# Youngs Moduli (GPa) = 65.64700 95.18042 74.75939
#
# Poissons Ratio (x) = 0.24807 0.02759
# Poissons Ratio (y) = 0.17110 0.20634
# Poissons Ratio (z) = 0.02423 0.26270
#
# Static dielectric constant tensor:
#      x y z
#    x 3.873930 0.000000 0.000000 
#    y 0.000000 3.707780 0.000000 
#    z 0.000000 0.000000 3.814480 
# 
# 
# High freq. dielectric constant tensor:
#      x y z
#    x 1.809430 0.000000 0.000000 
#    y 0.000000 1.811380 0.000000 
#    z 0.000000 0.000000 1.817870 
# 
# From -- ./inp_files/19876.got.cif
#   From: 2010.03.12/outbox.cif.g09.slc.cpg/sg62_10_cif.got.tgz:19876.got - 2010.04.10 19:12:36.
