data_PCOD8253054
_publ_section_title
;
Structure prediction by ZEFSAII (Michael W. Deem and Ramdas Pophale) SiO2 
 PCOD8253054
Probable space group: P N M A
;
_chemical_formula_sum "Si O2"
_cell_formula_units_Z 64
_cell_length_a 16.905194
_cell_length_b 13.073995
_cell_length_c 15.847295
_cell_angle_alpha 90.000000
_cell_angle_beta 90.000000
_cell_angle_gamma 90.000000
_cell_volume 3502.544131
_symmetry_space_group_name_H-M "P N M A"
_symmetry_group_IT_number 62
_symmetry_cell_setting 'orthorhombic'
loop_
_space_group_symop_operation_xyz
x,y,z
1/2-x,-y,1/2+z
1/2+x,1/2-y,1/2-z
-x,1/2+y,-z
-x,-y,-z
1/2+x,y,1/2-z
1/2-x,1/2+y,1/2+z
x,1/2-y,z
loop_
_atom_site_type_symbol
_atom_site_label
_atom_site_fract_x
_atom_site_fract_y
_atom_site_fract_z
Si Si1 0.922819 0.017643 0.553107
Si Si2 0.834238 0.130728 0.931622
Si Si3 0.672324 0.020302 0.900996
Si Si4 0.126987 0.131366 0.308814
Si Si5 0.021602 0.369360 0.676447
Si Si6 0.082383 0.866672 0.895502
Si Si7 0.797946 0.134189 0.252678
Si Si8 0.957822 0.004602 0.824531
O O1 0.942416 0.108180 0.619958
O O2 0.851765 0.040156 0.487319
O O3 0.902393 0.914452 0.603238
O O4 0.000000 0.000000 0.500000
O O5 0.839315 0.250000 0.909698
O O6 0.744816 0.094803 0.919735
O O7 0.891154 0.071866 0.868104
O O8 0.859817 0.107723 0.027285
O O9 0.599867 0.088965 0.868828
O O10 0.696660 0.936489 0.833616
O O11 0.106498 0.250000 0.310974
O O12 0.219791 0.108352 0.300403
O O13 0.081126 0.084104 0.230396
O O14 0.030468 0.250000 0.690932
O O15 0.012530 0.422306 0.767375
O O16 0.051194 0.750000 0.903560
O O17 0.127751 0.882604 0.807679
O O18 0.010164 0.946936 0.895423
O O19 0.794482 0.250000 0.286247
#
# Coordination Sequence:
#
# PCOD8253054 Si02
#       8
#     8   8   8   8   8   8   8   8
#     4   9  21  35  55  86 116 146 183 237 289 335
#     4  11  23  37  59  85 115 153 194 236 283 343
#     4  11  20  39  58  85 115 151 194 237 287 341
#     4  10  20  36  59  85 113 150 191 237 289 344
#     4  10  21  37  58  82 116 155 193 229 282 347
#     4  10  21  37  58  85 111 146 192 241 291 338
#     4  10  20  36  59  85 113 147 192 243 287 335
#     4  11  20  37  57  84 118 152 187 239 284 339
#
# _framework density 18.272431999999998
#
# number of rings (size 3 to 8) (size 9 to 14) (size 15 to 20)
#    0.000    1.750    2.500    2.250    0.000    4.000 
#    0.000    0.000    0.000    0.750    0.000    0.000 
#    0.000    0.000    0.000    0.000    0.000    0.000 
#
# Total GULP energy -793588.657614 kJ/mol
# GULP energy per Si atom -12399.822775 kJ/mol
# Density = 1.823084 g / cm^3
# Si number density = 18.272432 Si / 1000 Ang^3
#
#
#
# Elastic Constant Matrix: (Units=GPa)
#
#
# Indices 1 2 3 4 5 6 
#
# 1 96.1003 49.8887 31.5214 0.0000 0.0000 0.0000
# 2 49.8887 97.4093 45.3038 0.0000 0.0000 0.0000
# 3 31.5214 45.3038 90.4842 0.0000 0.0000 0.0000
# 4 0.0000 0.0000 0.0000 20.9358 0.0000 0.0000
# 5 0.0000 0.0000 0.0000 0.0000 25.7560 0.0000
# 6 0.0000 0.0000 0.0000 0.0000 0.0000 29.3849
#
#
#
# Elastic Compliance Matrix: (Units=1/GPa)
#
#
# Indices 1 2 3 4 5 6 
#
# 1 0.014378 -0.006562 -0.001723 0.000000 0.000000 0.000000
# 2 -0.006562 0.016377 -0.005914 0.000000 0.000000 0.000000
# 3 -0.001723 -0.005914 0.014613 0.000000 0.000000 0.000000
# 4 0.000000 0.000000 0.000000 0.047765 0.000000 0.000000
# 5 0.000000 0.000000 0.000000 0.000000 0.038826 0.000000
# 6 0.000000 0.000000 0.000000 0.000000 0.000000 0.034031
#
#
# Mechanical properties :
#
#
# Convention : Reuss Voigt Hill
#
# Bulk Modulus (GPa) = 58.92880 59.71351 59.32115
# Shear Modulus (GPa) = 24.99447 25.70067 25.34757
#
# Velocity S-wave (km/s) = 3.70250 3.75444 3.72856
# Velocity P-wave (km/s) = 7.11323 7.17948 7.14643
#
# Compressibility (1/GPa) = 0.01696963
#
# Stress axis : x y z
#
# Youngs Moduli (GPa) = 69.55258 61.06042 68.43317
#
# Poissons Ratio (x) = 0.40069 0.11791
# Poissons Ratio (y) = 0.45642 0.40470
# Poissons Ratio (z) = 0.11984 0.36110
#
# Static dielectric constant tensor:
#      x y z
#    x 3.522350 0.000000 0.000000 
#    y 0.000000 3.310960 0.000000 
#    z 0.000000 0.000000 3.553770 
# 
# 
# High freq. dielectric constant tensor:
#      x y z
#    x 1.713670 0.000000 0.000000 
#    y 0.000000 1.703770 0.000000 
#    z 0.000000 0.000000 1.716610 
# 
# From -- ./inp_files/19869.got.cif
#   From: 2010.03.12/outbox.cif.g09.slc.cpg/sg62_10_cif.got.tgz:19869.got - 2010.04.10 19:12:36.
