data_PCOD8253514
_publ_section_title
;
Structure prediction by ZEFSAII (Michael W. Deem and Ramdas Pophale) SiO2 
 PCOD8253514
Probable space group: P N M A
;
_chemical_formula_sum "Si O2"
_cell_formula_units_Z 56
_cell_length_a 21.362040
_cell_length_b 9.005681
_cell_length_c 14.603712
_cell_angle_alpha 90.000000
_cell_angle_beta 90.000000
_cell_angle_gamma 90.000000
_cell_volume 2809.457993
_symmetry_space_group_name_H-M "P N M A"
_symmetry_group_IT_number 62
_symmetry_cell_setting 'orthorhombic'
loop_
_space_group_symop_operation_xyz
x,y,z
1/2-x,-y,1/2+z
1/2+x,1/2-y,1/2-z
-x,1/2+y,-z
-x,-y,-z
1/2+x,y,1/2-z
1/2-x,1/2+y,1/2+z
x,1/2-y,z
loop_
_atom_site_type_symbol
_atom_site_label
_atom_site_fract_x
_atom_site_fract_y
_atom_site_fract_z
Si Si1 0.759925 0.924509 0.379281
Si Si2 0.964418 0.425394 0.583741
Si Si3 0.404636 0.420596 0.395755
Si Si4 0.023083 0.424213 0.226673
Si Si5 0.716847 0.074198 0.676237
Si Si6 0.382417 0.078689 0.600458
Si Si7 0.322903 0.075872 0.959022
O O1 0.770492 0.750000 0.384895
O O2 0.772235 0.986971 0.277988
O O3 0.689909 0.968355 0.409871
O O4 0.811105 0.000336 0.443606
O O5 0.976635 0.250000 0.582255
O O6 0.990155 0.492412 0.678335
O O7 0.891429 0.465347 0.576594
O O8 0.000000 0.500000 0.500000
O O9 0.385668 0.250000 0.379195
O O10 0.466983 0.464263 0.341954
O O11 0.349500 0.522962 0.360360
O O12 0.416210 0.449917 0.503441
O O13 0.028324 0.250000 0.245780
O O14 0.086681 0.480477 0.179641
O O15 0.718840 0.250000 0.675764
O O16 0.772907 0.011617 0.613469
O O17 0.387665 0.250000 0.631437
O O18 0.315137 0.250000 0.972650
#
# Coordination Sequence:
#
# PCOD8253514 Si02
#       7
#     8   8   8   8   8   8   8
#     4  10  21  37  61  90 121 157 200 247 301 366
#     4  11  25  45  66  89 123 164 208 257 310 365
#     4  10  22  39  60  88 123 160 201 252 305 360
#     4  11  24  40  61  91 124 161 208 255 304 365
#     4  10  21  37  59  89 121 156 200 247 302 365
#     4  10  20  39  63  89 124 163 200 247 307 364
#     4  10  22  41  63  88 120 157 198 250 302 356
#
# _framework density 19.932672
#
# number of rings (size 3 to 8) (size 9 to 14) (size 15 to 20)
#    0.000    1.714    1.429    2.143    2.000    6.286 
#    0.000    1.429    0.000    0.000    0.000    0.000 
#    0.000    0.000    0.000    0.000    0.000    0.000 
#
# Total GULP energy -694696.114788 kJ/mol
# GULP energy per Si atom -12405.287764 kJ/mol
# Density = 1.988730 g / cm^3
# Si number density = 19.932672 Si / 1000 Ang^3
#
#
#
# Elastic Constant Matrix: (Units=GPa)
#
#
# Indices 1 2 3 4 5 6 
#
# 1 60.5233 30.5795 21.7027 0.0000 0.0000 0.0000
# 2 30.5795 52.8550 38.7777 0.0000 0.0000 0.0000
# 3 21.7027 38.7777 127.8497 0.0000 0.0000 0.0000
# 4 0.0000 0.0000 0.0000 38.0186 0.0000 0.0000
# 5 0.0000 0.0000 0.0000 0.0000 34.2958 0.0000
# 6 0.0000 0.0000 0.0000 0.0000 0.0000 33.4483
#
#
#
# Elastic Compliance Matrix: (Units=1/GPa)
#
#
# Indices 1 2 3 4 5 6 
#
# 1 0.023350 -0.013636 0.000172 0.000000 0.000000 0.000000
# 2 -0.013636 0.032297 -0.007481 0.000000 0.000000 0.000000
# 3 0.000172 -0.007481 0.010062 0.000000 0.000000 0.000000
# 4 0.000000 0.000000 0.000000 0.026303 0.000000 0.000000
# 5 0.000000 0.000000 0.000000 0.000000 0.029158 0.000000
# 6 0.000000 0.000000 0.000000 0.000000 0.000000 0.029897
#
#
# Mechanical properties :
#
#
# Convention : Reuss Voigt Hill
#
# Bulk Modulus (GPa) = 41.98253 47.03865 44.51059
# Shear Modulus (GPa) = 24.88839 31.16374 28.02606
#
# Velocity S-wave (km/s) = 3.53742 3.95834 3.75378
# Velocity P-wave (km/s) = 6.14755 6.67392 6.41614
#
# Compressibility (1/GPa) = 0.02381943
#
# Stress axis : x y z
#
# Youngs Moduli (GPa) = 42.82607 30.96225 99.38742
#
# Poissons Ratio (x) = 0.42219 -0.01710
# Poissons Ratio (y) = 0.58396 0.74355
# Poissons Ratio (z) = -0.00737 0.23164
#
# Static dielectric constant tensor:
#      x y z
#    x 3.645950 0.000000 0.000000 
#    y 0.000000 3.494140 0.000000 
#    z 0.000000 0.000000 3.820690 
# 
# 
# High freq. dielectric constant tensor:
#      x y z
#    x 1.781620 0.000000 0.000000 
#    y 0.000000 1.768740 0.000000 
#    z 0.000000 0.000000 1.794720 
# 
# From -- ./inp_files/20299.got.cif
#   From: 2010.03.12/outbox.cif.g09.slc.cpg/sg62_11_cif.got.tgz:20299.got - 2010.04.10 19:12:36.
