data_PCOD8253961
_publ_section_title
;
Structure prediction by ZEFSAII (Michael W. Deem and Ramdas Pophale) SiO2 
 PCOD8253961
Probable space group: P N M A
;
_chemical_formula_sum "Si O2"
_cell_formula_units_Z 40
_cell_length_a 28.385307
_cell_length_b 8.786000
_cell_length_c 7.777354
_cell_angle_alpha 90.000000
_cell_angle_beta 90.000000
_cell_angle_gamma 90.000000
_cell_volume 1939.620036
_symmetry_space_group_name_H-M "P N M A"
_symmetry_group_IT_number 62
_symmetry_cell_setting 'orthorhombic'
loop_
_space_group_symop_operation_xyz
x,y,z
1/2-x,-y,1/2+z
1/2+x,1/2-y,1/2-z
-x,1/2+y,-z
-x,-y,-z
1/2+x,y,1/2-z
1/2-x,1/2+y,1/2+z
x,1/2-y,z
loop_
_atom_site_type_symbol
_atom_site_label
_atom_site_fract_x
_atom_site_fract_y
_atom_site_fract_z
Si Si1 0.448711 0.930242 0.495517
Si Si2 0.301337 0.923855 0.295450
Si Si3 0.393116 0.572831 0.831867
Si Si4 0.207394 0.422527 0.191619
Si Si5 0.392940 0.427782 0.183091
O O1 0.451872 0.750000 0.491182
O O2 0.420846 0.986147 0.664465
O O3 0.500000 0.000000 0.500000
O O4 0.421881 0.983547 0.326348
O O5 0.311670 0.750000 0.242733
O O6 0.308571 0.948759 0.496944
O O7 0.248339 0.962263 0.241798
O O8 0.337734 0.031387 0.196249
O O9 0.403283 0.750000 0.863400
O O10 0.337480 0.542559 0.809715
O O11 0.411400 0.478186 0.995534
O O12 0.225258 0.250000 0.218936
O O13 0.401056 0.250000 0.207554
#
# Coordination Sequence:
#
# PCOD8253961 Si02
#       5
#     8   8   8   8   8
#     4  11  24  46  72  99 130 170 216 271 330 386
#     4  11  22  38  59  88 128 172 216 266 321 381
#     4  10  22  43  68  93 129 171 215 267 323 382
#     4  10  21  38  59  89 125 168 217 266 321 381
#     4  12  25  41  65  97 131 170 217 267 323 387
#
# _framework density 20.622596999999999
#
# number of rings (size 3 to 8) (size 9 to 14) (size 15 to 20)
#    0.000    1.200    2.000    4.200    0.000    8.000 
#    0.000    0.000    0.000    0.000    0.000    0.000 
#    0.000    0.000    0.000    0.000    0.000    0.000 
#
# Total GULP energy -496257.001100 kJ/mol
# GULP energy per Si atom -12406.425028 kJ/mol
# Density = 2.057566 g / cm^3
# Si number density = 20.622597 Si / 1000 Ang^3
#
#
#
# Elastic Constant Matrix: (Units=GPa)
#
#
# Indices 1 2 3 4 5 6 
#
# 1 98.0506 31.1386 43.6579 0.0000 0.0000 0.0000
# 2 31.1386 83.4928 47.4005 0.0000 0.0000 0.0000
# 3 43.6579 47.4005 137.6558 0.0000 0.0000 0.0000
# 4 0.0000 0.0000 0.0000 29.0877 0.0000 0.0000
# 5 0.0000 0.0000 0.0000 0.0000 20.6103 0.0000
# 6 0.0000 0.0000 0.0000 0.0000 0.0000 38.0157
#
#
#
# Elastic Compliance Matrix: (Units=1/GPa)
#
#
# Indices 1 2 3 4 5 6 
#
# 1 0.012447 -0.002984 -0.002920 0.000000 0.000000 0.000000
# 2 -0.002984 0.015603 -0.004426 0.000000 0.000000 0.000000
# 3 -0.002920 -0.004426 0.009715 0.000000 0.000000 0.000000
# 4 0.000000 0.000000 0.000000 0.034379 0.000000 0.000000
# 5 0.000000 0.000000 0.000000 0.000000 0.048519 0.000000
# 6 0.000000 0.000000 0.000000 0.000000 0.000000 0.026305
#
#
# Mechanical properties :
#
#
# Convention : Reuss Voigt Hill
#
# Bulk Modulus (GPa) = 58.46781 62.62146 60.54463
# Shear Modulus (GPa) = 28.84681 30.67622 29.76152
#
# Velocity S-wave (km/s) = 3.74411 3.86100 3.80300
# Velocity P-wave (km/s) = 6.86323 7.09280 6.97896
#
# Compressibility (1/GPa) = 0.01710343
#
# Stress axis : x y z
#
# Youngs Moduli (GPa) = 80.34282 64.09050 102.93709
#
# Poissons Ratio (x) = 0.19127 0.30056
# Poissons Ratio (y) = 0.23977 0.45562
# Poissons Ratio (z) = 0.23459 0.28368
#
# Static dielectric constant tensor:
#      x y z
#    x 3.723730 0.000000 0.000000 
#    y 0.000000 3.768230 0.000000 
#    z 0.000000 0.000000 3.914220 
# 
# 
# High freq. dielectric constant tensor:
#      x y z
#    x 1.803530 0.000000 0.000000 
#    y 0.000000 1.803700 0.000000 
#    z 0.000000 0.000000 1.824930 
# 
# From -- ./inp_files/10008.got.cif
#   From: 2010.03.12/outbox.cif.g09.slc.cpg/sg62_6_cif.got.tgz:10008.got - 2010.04.10 19:12:36.
