data_PCOD8253966
_publ_section_title
;
Structure prediction by ZEFSAII (Michael W. Deem and Ramdas Pophale) SiO2 
 PCOD8253966
Probable space group: P N M A
;
_chemical_formula_sum "Si O2"
_cell_formula_units_Z 40
_cell_length_a 5.005063
_cell_length_b 14.137107
_cell_length_c 28.742133
_cell_angle_alpha 90.000000
_cell_angle_beta 90.000000
_cell_angle_gamma 90.000000
_cell_volume 2033.710300
_symmetry_space_group_name_H-M "P N M A"
_symmetry_group_IT_number 62
_symmetry_cell_setting 'orthorhombic'
loop_
_space_group_symop_operation_xyz
x,y,z
1/2-x,-y,1/2+z
1/2+x,1/2-y,1/2-z
-x,1/2+y,-z
-x,-y,-z
1/2+x,y,1/2-z
1/2-x,1/2+y,1/2+z
x,1/2-y,z
loop_
_atom_site_type_symbol
_atom_site_label
_atom_site_fract_x
_atom_site_fract_y
_atom_site_fract_z
Si Si1 0.951297 0.606664 0.014061
Si Si2 0.547875 0.646535 0.586876
Si Si3 0.549414 0.144249 0.925175
Si Si4 0.542956 0.544954 0.875218
Si Si5 0.061705 0.357701 0.280714
O O1 0.155561 0.640544 0.053318
O O2 0.654903 0.620990 0.033439
O O3 0.980803 0.665613 0.966897
O O4 0.000000 0.500000 0.000000
O O5 0.548470 0.750000 0.611341
O O6 0.339563 0.578638 0.612461
O O7 0.837833 0.599059 0.591099
O O8 0.500266 0.250000 0.905037
O O9 0.521811 0.067957 0.883573
O O10 0.481037 0.567519 0.821775
O O11 0.355428 0.376195 0.260866
O O12 0.031268 0.250000 0.299511
#
# Coordination Sequence:
#
# PCOD8253966 Si02
#       5
#     8   8   8   8   8
#     4  12  22  41  56  81 120 160 199 243 281 326
#     4  12  23  35  57  85 117 154 191 238 288 335
#     4  12  24  40  60  82 117 162 202 239 282 330
#     4  12  23  39  59  85 118 147 194 240 282 347
#     4  10  21  38  60  85 113 144 178 226 297 364
#
# _framework density 19.668486999999999
#
# number of rings (size 3 to 8) (size 9 to 14) (size 15 to 20)
#    0.000    0.400    4.000    6.600    0.000    1.600 
#    0.000    0.000    0.000    1.200    0.000    0.000 
#    0.000    0.000    0.000    0.000    0.000    0.000 
#
# Total GULP energy -496157.887012 kJ/mol
# GULP energy per Si atom -12403.947175 kJ/mol
# Density = 1.962372 g / cm^3
# Si number density = 19.668487 Si / 1000 Ang^3
#
#
#
# Elastic Constant Matrix: (Units=GPa)
#
#
# Indices 1 2 3 4 5 6 
#
# 1 65.1212 12.2152 0.1613 0.0000 0.0000 0.0000
# 2 12.2152 172.0728 35.3876 0.0000 0.0000 0.0000
# 3 0.1613 35.3876 86.4568 0.0000 0.0000 0.0000
# 4 0.0000 0.0000 0.0000 28.7280 0.0000 0.0000
# 5 0.0000 0.0000 0.0000 0.0000 19.1029 0.0000
# 6 0.0000 0.0000 0.0000 0.0000 0.0000 19.8902
#
#
#
# Elastic Compliance Matrix: (Units=1/GPa)
#
#
# Indices 1 2 3 4 5 6 
#
# 1 0.015580 -0.001201 0.000463 0.000000 0.000000 0.000000
# 2 -0.001201 0.006438 -0.002633 0.000000 0.000000 0.000000
# 3 0.000463 -0.002633 0.012643 0.000000 0.000000 0.000000
# 4 0.000000 0.000000 0.000000 0.034809 0.000000 0.000000
# 5 0.000000 0.000000 0.000000 0.000000 0.052348 0.000000
# 6 0.000000 0.000000 0.000000 0.000000 0.000000 0.050276
#
#
# Mechanical properties :
#
#
# Convention : Reuss Voigt Hill
#
# Bulk Modulus (GPa) = 35.81845 46.57545 41.19695
# Shear Modulus (GPa) = 26.57536 31.93668 29.25602
#
# Velocity S-wave (km/s) = 3.67981 4.03395 3.86094
# Velocity P-wave (km/s) = 6.02538 6.74008 6.39273
#
# Compressibility (1/GPa) = 0.02791857
#
# Stress axis : x y z
#
# Youngs Moduli (GPa) = 64.18429 155.32173 79.09313
#
# Poissons Ratio (x) = 0.18656 -0.03659
# Poissons Ratio (y) = 0.07709 0.20825
# Poissons Ratio (z) = -0.02969 0.40896
#
# Static dielectric constant tensor:
#      x y z
#    x 3.859850 0.000000 0.000000 
#    y 0.000000 3.573300 0.000000 
#    z 0.000000 0.000000 3.391040 
# 
# 
# High freq. dielectric constant tensor:
#      x y z
#    x 1.787970 0.000000 0.000000 
#    y 0.000000 1.766260 0.000000 
#    z 0.000000 0.000000 1.734710 
# 
# From -- ./inp_files/28240.got.cif
#   From: 2010.03.12/outbox.cif.g09.slc.cpg/sg62_15_cif.got.tgz:28240.got - 2010.04.10 19:12:36.
