data_PCOD8253256
_publ_section_title
;
Structure prediction by ZEFSAII (Michael W. Deem and Ramdas Pophale) SiO2 
 PCOD8253256
Probable space group: P N M A
;
_chemical_formula_sum "Si O2"
_cell_formula_units_Z 64
_cell_length_a 15.368710
_cell_length_b 9.345697
_cell_length_c 23.708730
_cell_angle_alpha 90.000000
_cell_angle_beta 90.000000
_cell_angle_gamma 90.000000
_cell_volume 3405.315876
_symmetry_space_group_name_H-M "P N M A"
_symmetry_group_IT_number 62
_symmetry_cell_setting 'orthorhombic'
loop_
_space_group_symop_operation_xyz
x,y,z
1/2-x,-y,1/2+z
1/2+x,1/2-y,1/2-z
-x,1/2+y,-z
-x,-y,-z
1/2+x,y,1/2-z
1/2-x,1/2+y,1/2+z
x,1/2-y,z
loop_
_atom_site_type_symbol
_atom_site_label
_atom_site_fract_x
_atom_site_fract_y
_atom_site_fract_z
Si Si1 0.340281 0.585668 0.766327
Si Si2 0.083984 0.414930 0.611996
Si Si3 0.976015 0.416648 0.212444
Si Si4 0.369319 0.082765 0.511510
Si Si5 0.324841 0.579883 0.998993
Si Si6 0.995372 0.584965 0.916045
Si Si7 0.324534 0.915851 0.226164
Si Si8 0.911477 0.584192 0.614953
O O1 0.318173 0.750000 0.751473
O O2 0.432949 0.541318 0.740686
O O3 0.268008 0.485282 0.739387
O O4 0.343541 0.563220 0.833891
O O5 0.056788 0.250000 0.606185
O O6 0.121066 0.474600 0.552907
O O7 0.157421 0.435008 0.659641
O O8 0.999636 0.502790 0.629725
O O9 0.954546 0.250000 0.222275
O O10 0.899742 0.509619 0.238415
O O11 0.979385 0.456463 0.146940
O O12 0.367703 0.250000 0.525149
O O13 0.272892 0.019950 0.502910
O O14 0.422045 0.047598 0.454776
O O15 0.411981 0.005881 0.565147
O O16 0.321381 0.750000 0.996976
O O17 0.369229 0.520533 0.942045
O O18 0.968966 0.750000 0.921124
O O19 0.321515 0.750000 0.243200
O O20 0.935611 0.750000 0.607756
#
# Coordination Sequence:
#
# PCOD8253256 Si02
#       8
#     8   8   8   8   8   8   8   8
#     4  10  22  38  59  85 113 148 188 234 283 335
#     4  10  21  38  56  79 114 147 180 226 279 333
#     4  10  21  39  61  85 114 149 190 236 284 336
#     4   9  18  34  55  78 107 145 182 222 271 329
#     4   9  19  34  56  83 108 142 185 224 274 333
#     4   9  19  34  55  80 109 142 180 226 276 323
#     4  11  24  38  57  85 116 152 190 232 283 340
#     4  10  20  37  61  84 107 142 188 230 275 330
#
# _framework density 18.794143999999999
#
# number of rings (size 3 to 8) (size 9 to 14) (size 15 to 20)
#    0.000    2.250    1.250    0.750    3.500    2.000 
#    0.000    1.250    0.000    0.000    0.000    0.000 
#    0.000    0.000    0.000    0.000    0.000    0.000 
#
# Total GULP energy -793802.824562 kJ/mol
# GULP energy per Si atom -12403.169134 kJ/mol
# Density = 1.875137 g / cm^3
# Si number density = 18.794144 Si / 1000 Ang^3
#
#
#
# Elastic Constant Matrix: (Units=GPa)
#
#
# Indices 1 2 3 4 5 6 
#
# 1 91.7106 39.0188 23.0294 0.0000 0.0000 0.0000
# 2 39.0188 54.9798 31.6033 0.0000 0.0000 0.0000
# 3 23.0294 31.6033 93.0601 0.0000 0.0000 0.0000
# 4 0.0000 0.0000 0.0000 19.5212 0.0000 0.0000
# 5 0.0000 0.0000 0.0000 0.0000 22.7039 0.0000
# 6 0.0000 0.0000 0.0000 0.0000 0.0000 32.0832
#
#
#
# Elastic Compliance Matrix: (Units=1/GPa)
#
#
# Indices 1 2 3 4 5 6 
#
# 1 0.015621 -0.011014 -0.000125 0.000000 0.000000 0.000000
# 2 -0.011014 0.030366 -0.007587 0.000000 0.000000 0.000000
# 3 -0.000125 -0.007587 0.013353 0.000000 0.000000 0.000000
# 4 0.000000 0.000000 0.000000 0.051226 0.000000 0.000000
# 5 0.000000 0.000000 0.000000 0.000000 0.044045 0.000000
# 6 0.000000 0.000000 0.000000 0.000000 0.000000 0.031169
#
#
# Mechanical properties :
#
#
# Convention : Reuss Voigt Hill
#
# Bulk Modulus (GPa) = 45.68689 47.45039 46.56864
# Shear Modulus (GPa) = 21.68911 24.60162 23.14537
#
# Velocity S-wave (km/s) = 3.40080 3.62194 3.51311
# Velocity P-wave (km/s) = 6.30733 6.54168 6.42557
#
# Compressibility (1/GPa) = 0.02188812
#
# Stress axis : x y z
#
# Youngs Moduli (GPa) = 64.01448 32.93122 74.88834
#
# Poissons Ratio (x) = 0.36272 0.00938
# Poissons Ratio (y) = 0.70508 0.56816
# Poissons Ratio (z) = 0.00802 0.24984
#
# Static dielectric constant tensor:
#      x y z
#    x 3.450510 0.000000 0.000000 
#    y 0.000000 3.285790 0.000000 
#    z 0.000000 0.000000 3.690810 
# 
# 
# High freq. dielectric constant tensor:
#      x y z
#    x 1.732260 0.000000 0.000000 
#    y 0.000000 1.710670 0.000000 
#    z 0.000000 0.000000 1.744830 
# 
# From -- ./inp_files/29805.got.cif
#   From: 2010.03.12/outbox.cif.g09.slc.cpg/sg62_15_cif.got.tgz:29805.got - 2010.04.10 19:12:36.
