data_PCOD8253653
_publ_section_title
;
Structure prediction by ZEFSAII (Michael W. Deem and Ramdas Pophale) SiO2 
 PCOD8253653
Probable space group: P N M A
;
_chemical_formula_sum "Si O2"
_cell_formula_units_Z 64
_cell_length_a 29.846548
_cell_length_b 18.340925
_cell_length_c 5.350143
_cell_angle_alpha 90.000000
_cell_angle_beta 90.000000
_cell_angle_gamma 90.000000
_cell_volume 2928.739426
_symmetry_space_group_name_H-M "P N M A"
_symmetry_group_IT_number 62
_symmetry_cell_setting 'orthorhombic'
loop_
_space_group_symop_operation_xyz
x,y,z
1/2-x,-y,1/2+z
1/2+x,1/2-y,1/2-z
-x,1/2+y,-z
-x,-y,-z
1/2+x,y,1/2-z
1/2-x,1/2+y,1/2+z
x,1/2-y,z
loop_
_atom_site_type_symbol
_atom_site_label
_atom_site_fract_x
_atom_site_fract_y
_atom_site_fract_z
Si Si1 0.286137 0.425137 0.752570
Si Si2 0.945051 0.664952 0.502700
Si Si3 0.991227 0.837248 0.001168
Si Si4 0.643382 0.663533 0.000488
Si Si5 0.350960 0.830668 0.194320
Si Si6 0.592051 0.664122 0.505761
Si Si7 0.698597 0.065393 0.496024
Si Si8 0.760349 0.830611 0.615666
O O1 0.310547 0.383157 0.981798
O O2 0.236231 0.458977 0.800823
O O3 0.315751 0.495580 0.668431
O O4 0.281424 0.366916 0.528301
O O5 0.955706 0.750000 0.509009
O O6 0.964740 0.631061 0.758828
O O7 0.891737 0.649318 0.490111
O O8 0.968365 0.631852 0.254138
O O9 0.989734 0.750000 0.002094
O O10 0.041810 0.867700 0.990120
O O11 0.653115 0.750000 0.993343
O O12 0.615410 0.640944 0.247305
O O13 0.618439 0.635736 0.750845
O O14 0.360269 0.750000 0.317052
O O15 0.346170 0.895750 0.397364
O O16 0.304602 0.827573 0.051337
O O17 0.588845 0.750000 0.524441
O O18 0.727511 0.127375 0.363175
O O19 0.744124 0.750000 0.690279
#
# Coordination Sequence:
#
# PCOD8253653 Si02
#       8
#     8   8   8   8   8   8   8   8
#     4  11  23  38  56  81 109 150 199 238 291 345
#     4   9  17  28  49  80 113 147 183 227 282 350
#     4   9  16  28  49  78 114 148 179 226 290 345
#     4  10  21  35  56  83 114 148 192 242 287 344
#     4   9  20  35  53  83 114 146 189 234 288 344
#     4   9  18  33  52  81 116 148 184 236 295 344
#     4  11  22  38  57  78 112 151 190 242 288 345
#     4  10  21  37  58  80 112 148 186 237 292 342
#
# _framework density 21.852405999999998
#
# number of rings (size 3 to 8) (size 9 to 14) (size 15 to 20)
#    0.000    2.250    1.250    1.500    3.500    4.500 
#    0.000    0.000    0.000    0.000    0.000    5.250 
#    0.000    0.000    0.000    0.000    0.000    0.000 
#
# Total GULP energy -793238.012423 kJ/mol
# GULP energy per Si atom -12394.343944 kJ/mol
# Density = 2.180267 g / cm^3
# Si number density = 21.852406 Si / 1000 Ang^3
#
#
#
# Elastic Constant Matrix: (Units=GPa)
#
#
# Indices 1 2 3 4 5 6 
#
# 1 38.5207 6.4165 10.1811 0.0000 0.0000 0.0000
# 2 6.4165 62.3960 0.1091 0.0000 0.0000 0.0000
# 3 10.1811 0.1091 99.0259 0.0000 0.0000 0.0000
# 4 0.0000 0.0000 0.0000 12.9593 0.0000 0.0000
# 5 0.0000 0.0000 0.0000 0.0000 27.2162 0.0000
# 6 0.0000 0.0000 0.0000 0.0000 0.0000 8.1862
#
#
#
# Elastic Compliance Matrix: (Units=1/GPa)
#
#
# Indices 1 2 3 4 5 6 
#
# 1 0.027162 -0.002788 -0.002790 0.000000 0.000000 0.000000
# 2 -0.002788 0.016313 0.000269 0.000000 0.000000 0.000000
# 3 -0.002790 0.000269 0.010385 0.000000 0.000000 0.000000
# 4 0.000000 0.000000 0.000000 0.077165 0.000000 0.000000
# 5 0.000000 0.000000 0.000000 0.000000 0.036743 0.000000
# 6 0.000000 0.000000 0.000000 0.000000 0.000000 0.122157
#
#
# Mechanical properties :
#
#
# Convention : Reuss Voigt Hill
#
# Bulk Modulus (GPa) = 23.12601 25.92845 24.52723
# Shear Modulus (GPa) = 15.87522 21.88806 18.88164
#
# Velocity S-wave (km/s) = 2.69824 3.16829 2.94267
# Velocity P-wave (km/s) = 4.50701 5.02743 4.77432
#
# Compressibility (1/GPa) = 0.04324136
#
# Stress axis : x y z
#
# Youngs Moduli (GPa) = 36.81643 61.30110 96.29393
#
# Poissons Ratio (x) = 0.17093 0.26861
# Poissons Ratio (y) = 0.10266 -0.02587
# Poissons Ratio (z) = 0.10270 -0.01647
#
# Static dielectric constant tensor:
#      x y z
#    x 3.949170 0.000000 0.000000 
#    y 0.000000 3.616320 0.000000 
#    z 0.000000 0.000000 4.161870 
# 
# 
# High freq. dielectric constant tensor:
#      x y z
#    x 1.853990 0.000000 0.000000 
#    y 0.000000 1.809220 0.000000 
#    z 0.000000 0.000000 1.866070 
# 
# From -- ./inp_files/3699.got.cif
#   From: 2010.03.12/outbox.cif.g09.slc.cpg/sg62_2_cif.got.tgz:3699.got - 2010.04.10 19:12:36.
