data_PCOD8253029
_publ_section_title
;
Structure prediction by ZEFSAII (Michael W. Deem and Ramdas Pophale) SiO2 
 PCOD8253029
Probable space group: P N M A
;
_chemical_formula_sum "Si O2"
_cell_formula_units_Z 64
_cell_length_a 32.547508
_cell_length_b 8.897850
_cell_length_c 11.121763
_cell_angle_alpha 90.000000
_cell_angle_beta 90.000000
_cell_angle_gamma 90.000000
_cell_volume 3220.894196
_symmetry_space_group_name_H-M "P N M A"
_symmetry_group_IT_number 62
_symmetry_cell_setting 'orthorhombic'
loop_
_space_group_symop_operation_xyz
x,y,z
1/2-x,-y,1/2+z
1/2+x,1/2-y,1/2-z
-x,1/2+y,-z
-x,-y,-z
1/2+x,y,1/2-z
1/2-x,1/2+y,1/2+z
x,1/2-y,z
loop_
_atom_site_type_symbol
_atom_site_label
_atom_site_fract_x
_atom_site_fract_y
_atom_site_fract_z
Si Si1 0.883268 0.078041 0.120917
Si Si2 0.827453 0.080142 0.513826
Si Si3 0.392929 0.578131 0.833341
Si Si4 0.229998 0.919865 0.268076
Si Si5 0.988426 0.921662 0.626211
Si Si6 0.318194 0.923702 0.223786
Si Si7 0.476626 0.429141 0.385007
Si Si8 0.651525 0.924909 0.364965
O O1 0.886907 0.250000 0.157940
O O2 0.929361 0.016363 0.103378
O O3 0.859552 0.996110 0.226426
O O4 0.854806 0.053754 0.005223
O O5 0.832196 0.250000 0.462585
O O6 0.788135 0.070913 0.599442
O O7 0.869067 0.035963 0.580758
O O8 0.819198 0.953403 0.416810
O O9 0.378313 0.750000 0.850650
O O10 0.440254 0.560666 0.860380
O O11 0.383858 0.523769 0.697839
O O12 0.238088 0.750000 0.225826
O O13 0.274948 0.998732 0.268906
O O14 0.196591 0.988498 0.173927
O O15 0.002461 0.750000 0.613023
O O16 0.007994 0.985739 0.751954
O O17 0.000000 0.000000 0.500000
O O18 0.320414 0.750000 0.256054
O O19 0.500000 0.500000 0.500000
O O20 0.481901 0.250000 0.394961
O O21 0.647397 0.750000 0.324970
#
# Coordination Sequence:
#
# PCOD8253029 Si02
#       8
#     8   8   8   8   8   8   8   8
#     4  10  22  38  59  87 119 155 196 237 291 358
#     4  10  21  39  60  81 112 152 192 234 289 350
#     4  10  20  36  58  86 115 146 193 242 290 343
#     4   8  18  36  56  80 111 148 189 234 283 339
#     4  10  23  39  58  86 121 158 198 246 298 356
#     4  11  23  37  56  84 118 152 192 243 292 337
#     4  10  22  41  63  91 122 155 199 248 302 366
#     4   9  18  36  60  84 113 152 193 233 283 346
#
# _framework density 19.870259000000001
#
# number of rings (size 3 to 8) (size 9 to 14) (size 15 to 20)
#    0.000    2.250    0.000    2.625    3.500    2.500 
#    0.000    5.625    0.000    0.000    0.000    0.000 
#    0.000    0.000    0.000    0.000    0.000    0.000 
#
# Total GULP energy -793156.467862 kJ/mol
# GULP energy per Si atom -12393.069810 kJ/mol
# Density = 1.982503 g / cm^3
# Si number density = 19.870259 Si / 1000 Ang^3
#
#
#
# Elastic Constant Matrix: (Units=GPa)
#
#
# Indices 1 2 3 4 5 6 
#
# 1 109.6442 33.0339 51.0330 0.0000 0.0000 0.0000
# 2 33.0339 40.1186 28.9711 0.0000 0.0000 0.0000
# 3 51.0330 28.9711 111.1196 0.0000 0.0000 0.0000
# 4 0.0000 0.0000 0.0000 30.6067 0.0000 0.0000
# 5 0.0000 0.0000 0.0000 0.0000 12.7220 0.0000
# 6 0.0000 0.0000 0.0000 0.0000 0.0000 23.4304
#
#
#
# Elastic Compliance Matrix: (Units=1/GPa)
#
#
# Indices 1 2 3 4 5 6 
#
# 1 0.013467 -0.008159 -0.004058 0.000000 0.000000 0.000000
# 2 -0.008159 0.035650 -0.005548 0.000000 0.000000 0.000000
# 3 -0.004058 -0.005548 0.012309 0.000000 0.000000 0.000000
# 4 0.000000 0.000000 0.000000 0.032673 0.000000 0.000000
# 5 0.000000 0.000000 0.000000 0.000000 0.078604 0.000000
# 6 0.000000 0.000000 0.000000 0.000000 0.000000 0.042680
#
#
# Mechanical properties :
#
#
# Convention : Reuss Voigt Hill
#
# Bulk Modulus (GPa) = 38.61268 54.10650 46.35959
# Shear Modulus (GPa) = 19.26456 23.20811 21.23633
#
# Velocity S-wave (km/s) = 3.11709 3.42128 3.27272
# Velocity P-wave (km/s) = 5.69469 6.54950 6.13700
#
# Compressibility (1/GPa) = 0.02589823
#
# Stress axis : x y z
#
# Youngs Moduli (GPa) = 74.25474 28.05030 81.23912
#
# Poissons Ratio (x) = 0.22885 0.32965
# Poissons Ratio (y) = 0.60582 0.45070
# Poissons Ratio (z) = 0.30131 0.15562
#
# Static dielectric constant tensor:
#      x y z
#    x 3.833340 0.000000 0.000000 
#    y 0.000000 3.591520 0.000000 
#    z 0.000000 0.000000 3.675600 
# 
# 
# High freq. dielectric constant tensor:
#      x y z
#    x 1.787640 0.000000 0.000000 
#    y 0.000000 1.755040 0.000000 
#    z 0.000000 0.000000 1.777960 
# 
# From -- ./inp_files/15767.got.cif
#   From: 2010.03.12/outbox.cif.g09.slc.cpg/sg62_8_cif.got.tgz:15767.got - 2010.04.10 19:12:36.
