data_PCOD8253247
_publ_section_title
;
Structure prediction by ZEFSAII (Michael W. Deem and Ramdas Pophale) SiO2 
 PCOD8253247
Probable space group: P N M A
;
_chemical_formula_sum "Si O2"
_cell_formula_units_Z 48
_cell_length_a 9.997521
_cell_length_b 7.639454
_cell_length_c 30.584282
_cell_angle_alpha 90.000000
_cell_angle_beta 90.000000
_cell_angle_gamma 90.000000
_cell_volume 2335.892943
_symmetry_space_group_name_H-M "P N M A"
_symmetry_group_IT_number 62
_symmetry_cell_setting 'orthorhombic'
loop_
_space_group_symop_operation_xyz
x,y,z
1/2-x,-y,1/2+z
1/2+x,1/2-y,1/2-z
-x,1/2+y,-z
-x,-y,-z
1/2+x,y,1/2-z
1/2-x,1/2+y,1/2+z
x,1/2-y,z
loop_
_atom_site_type_symbol
_atom_site_label
_atom_site_fract_x
_atom_site_fract_y
_atom_site_fract_z
Si Si1 0.045585 0.544553 0.351397
Si Si2 0.352469 0.945373 0.012303
Si Si3 0.230771 0.045949 0.603358
Si Si4 0.247418 0.449207 0.924068
Si Si5 0.508815 0.046225 0.638129
Si Si6 0.080695 0.750000 0.795871
Si Si7 0.385022 0.750000 0.784377
O O1 0.071302 0.750000 0.340573
O O2 0.142376 0.477976 0.390231
O O3 0.075915 0.427659 0.309431
O O4 0.893635 0.508718 0.365138
O O5 0.364609 0.750000 0.029062
O O6 0.254444 0.955616 0.970781
O O7 0.295248 0.043840 0.055558
O O8 0.500000 0.000000 0.000000
O O9 0.260666 0.250000 0.598405
O O10 0.363701 0.967918 0.625725
O O11 0.283737 0.250000 0.933881
O O12 0.099957 0.474543 0.904997
O O13 0.507941 0.250000 0.653626
O O14 0.569629 0.927560 0.676165
O O15 0.963803 0.750000 0.760698
O O16 0.227040 0.750000 0.773841
#
# Coordination Sequence:
#
# PCOD8253247 Si02
#       7
#     8   8   8   8   8   4   4
#     4  10  21  41  67  90 125 172 211 254 319 387
#     4  11  21  33  56  90 130 166 216 276 310 367
#     4   9  20  39  61  92 127 170 220 261 315 377
#     4  10  20  37  60  87 124 170 214 251 313 377
#     4  10  23  45  68  89 130 175 209 263 323 390
#     4  12  28  46  68 102 128 160 218 270 330 400
#     4  12  28  44  68 100 130 158 214 272 324 396
#
# _framework density 20.548887000000001
#
# number of rings (size 3 to 8) (size 9 to 14) (size 15 to 20)
#    0.000    1.667    3.333    0.500    4.667    1.333 
#    4.500    0.000    0.000    0.000    0.000    0.000 
#    0.000    0.000    0.000    0.000    0.000    0.000 
#
# Total GULP energy -595099.100300 kJ/mol
# GULP energy per Si atom -12397.897923 kJ/mol
# Density = 2.050212 g / cm^3
# Si number density = 20.548887 Si / 1000 Ang^3
#
#
#
# Elastic Constant Matrix: (Units=GPa)
#
#
# Indices 1 2 3 4 5 6 
#
# 1 141.8747 22.3352 33.1756 0.0000 0.0000 0.0000
# 2 22.3352 73.6206 34.2673 0.0000 0.0000 0.0000
# 3 33.1756 34.2673 89.4729 0.0000 0.0000 0.0000
# 4 0.0000 0.0000 0.0000 19.6912 0.0000 0.0000
# 5 0.0000 0.0000 0.0000 0.0000 38.1439 0.0000
# 6 0.0000 0.0000 0.0000 0.0000 0.0000 19.6599
#
#
#
# Elastic Compliance Matrix: (Units=1/GPa)
#
#
# Indices 1 2 3 4 5 6 
#
# 1 0.007810 -0.001243 -0.002420 0.000000 0.000000 0.000000
# 2 -0.001243 0.016728 -0.005946 0.000000 0.000000 0.000000
# 3 -0.002420 -0.005946 0.014351 0.000000 0.000000 0.000000
# 4 0.000000 0.000000 0.000000 0.050784 0.000000 0.000000
# 5 0.000000 0.000000 0.000000 0.000000 0.026217 0.000000
# 6 0.000000 0.000000 0.000000 0.000000 0.000000 0.050865
#
#
# Mechanical properties :
#
#
# Convention : Reuss Voigt Hill
#
# Bulk Modulus (GPa) = 50.83466 53.83605 52.33535
# Shear Modulus (GPa) = 25.97018 29.84499 27.90759
#
# Velocity S-wave (km/s) = 3.55889 3.81516 3.68925
# Velocity P-wave (km/s) = 6.45598 6.75745 6.60843
#
# Compressibility (1/GPa) = 0.01967162
#
# Stress axis : x y z
#
# Youngs Moduli (GPa) = 128.04083 59.78091 69.68192
#
# Poissons Ratio (x) = 0.07432 0.16861
# Poissons Ratio (y) = 0.15917 0.41430
# Poissons Ratio (z) = 0.30983 0.35544
#
# Static dielectric constant tensor:
#      x y z
#    x 3.864650 0.000000 0.000000 
#    y 0.000000 4.033310 0.000000 
#    z 0.000000 0.000000 3.404940 
# 
# 
# High freq. dielectric constant tensor:
#      x y z
#    x 1.814690 0.000000 0.000000 
#    y 0.000000 1.798380 0.000000 
#    z 0.000000 0.000000 1.790540 
# 
# From -- ./inp_files/32096.got.cif
#   From: 2010.03.12/outbox.cif.g09.slc.cpg/sg62_17_cif.got.tgz:32096.got - 2010.04.10 19:12:36.
