data_PCOD8253238
_publ_section_title
;
Structure prediction by ZEFSAII (Michael W. Deem and Ramdas Pophale) SiO2 
 PCOD8253238
Probable space group: P N M A
;
_chemical_formula_sum "Si O2"
_cell_formula_units_Z 64
_cell_length_a 22.598018
_cell_length_b 8.703516
_cell_length_c 16.249907
_cell_angle_alpha 90.000000
_cell_angle_beta 90.000000
_cell_angle_gamma 90.000000
_cell_volume 3196.067641
_symmetry_space_group_name_H-M "P N M A"
_symmetry_group_IT_number 62
_symmetry_cell_setting 'orthorhombic'
loop_
_space_group_symop_operation_xyz
x,y,z
1/2-x,-y,1/2+z
1/2+x,1/2-y,1/2-z
-x,1/2+y,-z
-x,-y,-z
1/2+x,y,1/2-z
1/2-x,1/2+y,1/2+z
x,1/2-y,z
loop_
_atom_site_type_symbol
_atom_site_label
_atom_site_fract_x
_atom_site_fract_y
_atom_site_fract_z
Si Si1 0.281236 0.079369 0.119986
Si Si2 0.963862 0.067053 0.576682
Si Si3 0.016843 0.430007 0.748294
Si Si4 0.170002 0.576869 0.437787
Si Si5 0.847099 0.574596 0.244419
Si Si6 0.966653 0.069379 0.921154
Si Si7 0.284757 0.074055 0.400025
Si Si8 0.342563 0.573541 0.553659
O O1 0.291873 0.250000 0.157239
O O2 0.210800 0.045935 0.117869
O O3 0.312945 0.945134 0.170033
O O4 0.309833 0.072028 0.031113
O O5 0.969161 0.250000 0.571612
O O6 0.896086 0.010720 0.570154
O O7 0.987239 0.002742 0.664890
O O8 0.000000 0.000000 0.500000
O O9 0.005125 0.250000 0.749184
O O10 0.085342 0.472082 0.743411
O O11 0.991083 0.498724 0.834168
O O12 0.172480 0.750000 0.402561
O O13 0.216081 0.472738 0.386773
O O14 0.840595 0.750000 0.213479
O O15 0.818185 0.450940 0.184747
O O16 0.977337 0.250000 0.924957
O O17 0.897208 0.033908 0.923407
O O18 0.000000 0.000000 0.000000
O O19 0.288934 0.250000 0.428364
O O20 0.318232 0.965467 0.463876
O O21 0.363652 0.750000 0.553188
#
# Coordination Sequence:
#
# PCOD8253238 Si02
#       8
#     8   8   8   8   8   8   8   8
#     4   9  19  35  54  79 111 144 180 228 282 338
#     4  10  20  37  60  86 117 153 191 233 282 337
#     4   9  21  38  56  82 115 150 191 236 281 340
#     4   9  19  36  57  81 112 148 184 228 285 340
#     4  11  21  35  56  80 110 147 186 231 285 338
#     4  11  22  38  60  85 116 157 201 244 292 345
#     4  11  22  36  57  83 110 143 187 236 285 345
#     4  10  21  39  59  82 115 148 184 234 292 349
#
# _framework density 20.024608000000001
#
# number of rings (size 3 to 8) (size 9 to 14) (size 15 to 20)
#    0.000    2.000    0.000    4.500    0.000    5.000 
#    0.000    5.000    0.000    0.000    0.000    0.000 
#    0.000    0.000    0.000    0.000    0.000    0.000 
#
# Total GULP energy -793511.532054 kJ/mol
# GULP energy per Si atom -12398.617688 kJ/mol
# Density = 1.997903 g / cm^3
# Si number density = 20.024608 Si / 1000 Ang^3
#
#
#
# Elastic Constant Matrix: (Units=GPa)
#
#
# Indices 1 2 3 4 5 6 
#
# 1 136.3696 27.2849 60.0697 0.0000 0.0000 0.0000
# 2 27.2849 48.7103 22.2797 0.0000 0.0000 0.0000
# 3 60.0697 22.2797 111.2343 0.0000 0.0000 0.0000
# 4 0.0000 0.0000 0.0000 29.3131 0.0000 0.0000
# 5 0.0000 0.0000 0.0000 0.0000 31.1419 0.0000
# 6 0.0000 0.0000 0.0000 0.0000 0.0000 28.7507
#
#
#
# Elastic Compliance Matrix: (Units=1/GPa)
#
#
# Indices 1 2 3 4 5 6 
#
# 1 0.010135 -0.003494 -0.004773 0.000000 0.000000 0.000000
# 2 -0.003494 0.023804 -0.002881 0.000000 0.000000 0.000000
# 3 -0.004773 -0.002881 0.012145 0.000000 0.000000 0.000000
# 4 0.000000 0.000000 0.000000 0.034114 0.000000 0.000000
# 5 0.000000 0.000000 0.000000 0.000000 0.032111 0.000000
# 6 0.000000 0.000000 0.000000 0.000000 0.000000 0.034782
#
#
# Mechanical properties :
#
#
# Convention : Reuss Voigt Hill
#
# Bulk Modulus (GPa) = 42.03872 57.28697 49.66284
# Shear Modulus (GPa) = 28.19819 30.28647 29.24233
#
# Velocity S-wave (km/s) = 3.75664 3.89326 3.82556
# Velocity P-wave (km/s) = 6.31313 6.99145 6.66093
#
# Compressibility (1/GPa) = 0.02378759
#
# Stress axis : x y z
#
# Youngs Moduli (GPa) = 98.67212 42.00910 82.33982
#
# Poissons Ratio (x) = 0.14676 0.39302
# Poissons Ratio (y) = 0.34472 0.23724
# Poissons Ratio (z) = 0.47098 0.12104
#
# Static dielectric constant tensor:
#      x y z
#    x 3.929050 0.000000 0.000000 
#    y 0.000000 3.511820 0.000000 
#    z 0.000000 0.000000 3.663940 
# 
# 
# High freq. dielectric constant tensor:
#      x y z
#    x 1.795720 0.000000 0.000000 
#    y 0.000000 1.765820 0.000000 
#    z 0.000000 0.000000 1.778780 
# 
# From -- ./inp_files/24830.got.cif
#   From: 2010.03.12/outbox.cif.g09.slc.cpg/sg62_13_cif.got.tgz:24830.got - 2010.04.10 19:12:36.
