data_PCOD8253037
_publ_section_title
;
Structure prediction by ZEFSAII (Michael W. Deem and Ramdas Pophale) SiO2 
 PCOD8253037
Probable space group: P N M A
;
_chemical_formula_sum "Si O2"
_cell_formula_units_Z 48
_cell_length_a 14.297350
_cell_length_b 8.857238
_cell_length_c 20.111916
_cell_angle_alpha 90.000000
_cell_angle_beta 90.000000
_cell_angle_gamma 90.000000
_cell_volume 2546.873121
_symmetry_space_group_name_H-M "P N M A"
_symmetry_group_IT_number 62
_symmetry_cell_setting 'orthorhombic'
loop_
_space_group_symop_operation_xyz
x,y,z
1/2-x,-y,1/2+z
1/2+x,1/2-y,1/2-z
-x,1/2+y,-z
-x,-y,-z
1/2+x,y,1/2-z
1/2-x,1/2+y,1/2+z
x,1/2-y,z
loop_
_atom_site_type_symbol
_atom_site_label
_atom_site_fract_x
_atom_site_fract_y
_atom_site_fract_z
Si Si1 0.186630 0.925308 0.572955
Si Si2 0.696110 0.072079 0.682952
Si Si3 0.492438 0.427000 0.729784
Si Si4 0.487452 0.923732 0.870237
Si Si5 0.792242 0.574390 0.563945
Si Si6 0.192658 0.071951 0.198813
O O1 0.205146 0.750000 0.558026
O O2 0.077605 0.957892 0.584985
O O3 0.244190 0.980332 0.637193
O O4 0.222581 0.022828 0.511465
O O5 0.708353 0.250000 0.688924
O O6 0.591144 0.020737 0.699717
O O7 0.719365 0.017458 0.608928
O O8 0.768255 0.995521 0.733114
O O9 0.476790 0.250000 0.721996
O O10 0.488197 0.468767 0.806976
O O11 0.412397 0.512430 0.688130
O O12 0.486956 0.750000 0.845769
O O13 0.398052 0.962740 0.914716
O O14 0.769175 0.750000 0.570404
O O15 0.192278 0.250000 0.206617
#
# Coordination Sequence:
#
# PCOD8253037 Si02
#       6
#     8   8   8   8   8   8
#     4  10  22  39  59  85 121 160 195 242 295 349
#     4  11  23  39  60  87 119 156 198 243 293 349
#     4  11  23  37  59  90 120 154 196 246 294 344
#     4  10  20  36  58  87 122 156 192 237 294 355
#     4  11  23  37  59  89 120 159 198 240 296 354
#     4  11  22  38  62  88 117 156 199 243 294 349
#
# _framework density 18.846640000000001
#
# number of rings (size 3 to 8) (size 9 to 14) (size 15 to 20)
#    0.000    1.333    3.333    2.500    0.000    4.667 
#    0.000    0.833    0.000    0.000    0.000    0.000 
#    0.000    0.000    0.000    0.000    0.000    0.000 
#
# Total GULP energy -595524.824219 kJ/mol
# GULP energy per Si atom -12406.767171 kJ/mol
# Density = 1.880374 g / cm^3
# Si number density = 18.846640 Si / 1000 Ang^3
#
#
#
# Elastic Constant Matrix: (Units=GPa)
#
#
# Indices 1 2 3 4 5 6 
#
# 1 82.6595 28.2813 18.8185 0.0000 0.0000 0.0000
# 2 28.2813 55.8206 21.9671 0.0000 0.0000 0.0000
# 3 18.8185 21.9671 81.0708 0.0000 0.0000 0.0000
# 4 0.0000 0.0000 0.0000 33.2431 0.0000 0.0000
# 5 0.0000 0.0000 0.0000 0.0000 29.9874 0.0000
# 6 0.0000 0.0000 0.0000 0.0000 0.0000 30.5022
#
#
#
# Elastic Compliance Matrix: (Units=1/GPa)
#
#
# Indices 1 2 3 4 5 6 
#
# 1 0.014812 -0.006885 -0.001572 0.000000 0.000000 0.000000
# 2 -0.006885 0.023254 -0.004703 0.000000 0.000000 0.000000
# 3 -0.001572 -0.004703 0.013974 0.000000 0.000000 0.000000
# 4 0.000000 0.000000 0.000000 0.030081 0.000000 0.000000
# 5 0.000000 0.000000 0.000000 0.000000 0.033347 0.000000
# 6 0.000000 0.000000 0.000000 0.000000 0.000000 0.032785
#
#
# Mechanical properties :
#
#
# Convention : Reuss Voigt Hill
#
# Bulk Modulus (GPa) = 38.88260 39.74274 39.31267
# Shear Modulus (GPa) = 27.30057 28.77880 28.03968
#
# Velocity S-wave (km/s) = 3.81013 3.91192 3.86136
# Velocity P-wave (km/s) = 6.32708 6.44495 6.38629
#
# Compressibility (1/GPa) = 0.02571844
#
# Stress axis : x y z
#
# Youngs Moduli (GPa) = 67.51460 43.00406 71.56093
#
# Poissons Ratio (x) = 0.29610 0.11252
# Poissons Ratio (y) = 0.46487 0.33652
# Poissons Ratio (z) = 0.10616 0.20223
#
# Static dielectric constant tensor:
#      x y z
#    x 3.671920 0.000000 0.000000 
#    y 0.000000 3.446050 0.000000 
#    z 0.000000 0.000000 3.347160 
# 
# 
# High freq. dielectric constant tensor:
#      x y z
#    x 1.737970 0.000000 0.000000 
#    y 0.000000 1.738650 0.000000 
#    z 0.000000 0.000000 1.726070 
# 
# From -- ./inp_files/23649.got.cif
#   From: 2010.03.12/outbox.cif.g09.slc.cpg/sg62_12_cif.got.tgz:23649.got - 2010.04.10 19:12:36.
