data_PCOD8253997
_publ_section_title
;
Structure prediction by ZEFSAII (Michael W. Deem and Ramdas Pophale) SiO2 
 PCOD8253997
Probable space group: P N M A
;
_chemical_formula_sum "Si O2"
_cell_formula_units_Z 64
_cell_length_a 23.716862
_cell_length_b 15.052922
_cell_length_c 8.821935
_cell_angle_alpha 90.000000
_cell_angle_beta 90.000000
_cell_angle_gamma 90.000000
_cell_volume 3149.502021
_symmetry_space_group_name_H-M "P N M A"
_symmetry_group_IT_number 62
_symmetry_cell_setting 'orthorhombic'
loop_
_space_group_symop_operation_xyz
x,y,z
1/2-x,-y,1/2+z
1/2+x,1/2-y,1/2-z
-x,1/2+y,-z
-x,-y,-z
1/2+x,y,1/2-z
1/2-x,1/2+y,1/2+z
x,1/2-y,z
loop_
_atom_site_type_symbol
_atom_site_label
_atom_site_fract_x
_atom_site_fract_y
_atom_site_fract_z
Si Si1 0.990194 0.353719 0.098174
Si Si2 0.498608 0.903028 0.931928
Si Si3 0.389481 0.151280 0.931422
Si Si4 0.378634 0.354129 0.584139
Si Si5 0.311072 0.011238 0.082953
Si Si6 0.807665 0.998016 0.061777
Si Si7 0.614247 0.348830 0.929653
Si Si8 0.398236 0.647890 0.418054
O O1 0.990165 0.250000 0.138283
O O2 0.989404 0.409006 0.253033
O O3 0.044382 0.380223 0.000084
O O4 0.935338 0.380686 0.003386
O O5 0.545752 0.845017 0.016053
O O6 0.437707 0.859157 0.955779
O O7 0.500000 0.000000 0.000000
O O8 0.364017 0.250000 0.946092
O O9 0.355178 0.087328 0.041048
O O10 0.386251 0.118678 0.758661
O O11 0.364604 0.250000 0.565265
O O12 0.327305 0.411062 0.517483
O O13 0.301915 0.014389 0.261059
O O14 0.335785 0.916449 0.029414
O O15 0.252995 0.029928 0.999274
O O16 0.848966 0.916264 0.022435
O O17 0.639488 0.250000 0.946581
O O18 0.591571 0.366193 0.760319
O O19 0.381617 0.750000 0.454179
#
# Coordination Sequence:
#
# PCOD8253997 Si02
#       8
#     8   8   8   8   8   8   8   8
#     4  10  21  38  60  91 125 156 200 249 301 365
#     4  12  23  35  59  94 128 157 195 244 304 370
#     4  11  23  42  64  88 124 163 204 252 305 365
#     4  10  23  41  64  91 121 163 206 253 308 361
#     4  11  24  42  61  93 119 163 208 252 308 361
#     4  11  24  40  64  87 126 158 204 260 301 364
#     4  10  21  41  63  86 121 160 200 247 302 364
#     4   9  21  40  63  89 118 159 203 247 303 361
#
# _framework density 20.320672999999999
#
# number of rings (size 3 to 8) (size 9 to 14) (size 15 to 20)
#    0.000    1.500    1.250    3.375    3.500    6.000 
#    0.000    2.500    0.000    0.000    0.000    0.000 
#    0.000    0.000    0.000    0.000    0.000    0.000 
#
# Total GULP energy -793987.629080 kJ/mol
# GULP energy per Si atom -12406.056704 kJ/mol
# Density = 2.027442 g / cm^3
# Si number density = 20.320673 Si / 1000 Ang^3
#
#
#
# Elastic Constant Matrix: (Units=GPa)
#
#
# Indices 1 2 3 4 5 6 
#
# 1 75.2414 17.3356 18.0583 0.0000 0.0000 0.0000
# 2 17.3356 81.7589 22.1583 0.0000 0.0000 0.0000
# 3 18.0583 22.1583 81.3725 0.0000 0.0000 0.0000
# 4 0.0000 0.0000 0.0000 31.3246 0.0000 0.0000
# 5 0.0000 0.0000 0.0000 0.0000 37.8169 0.0000
# 6 0.0000 0.0000 0.0000 0.0000 0.0000 21.8338
#
#
#
# Elastic Compliance Matrix: (Units=1/GPa)
#
#
# Indices 1 2 3 4 5 6 
#
# 1 0.014451 -0.002370 -0.002562 0.000000 0.000000 0.000000
# 2 -0.002370 0.013594 -0.003176 0.000000 0.000000 0.000000
# 3 -0.002562 -0.003176 0.013722 0.000000 0.000000 0.000000
# 4 0.000000 0.000000 0.000000 0.031924 0.000000 0.000000
# 5 0.000000 0.000000 0.000000 0.000000 0.026443 0.000000
# 6 0.000000 0.000000 0.000000 0.000000 0.000000 0.045800
#
#
# Mechanical properties :
#
#
# Convention : Reuss Voigt Hill
#
# Bulk Modulus (GPa) = 39.13414 39.27526 39.20470
# Shear Modulus (GPa) = 29.29657 30.24978 29.77318
#
# Velocity S-wave (km/s) = 3.80111 3.86245 3.83190
# Velocity P-wave (km/s) = 6.21005 6.26586 6.23802
#
# Compressibility (1/GPa) = 0.02555314
#
# Stress axis : x y z
#
# Youngs Moduli (GPa) = 69.19739 73.56020 72.87305
#
# Poissons Ratio (x) = 0.17433 0.18668
# Poissons Ratio (y) = 0.16399 0.23144
# Poissons Ratio (z) = 0.17727 0.23362
#
# Static dielectric constant tensor:
#      x y z
#    x 3.635150 0.000000 0.000000 
#    y 0.000000 3.795690 0.000000 
#    z 0.000000 0.000000 3.725780 
# 
# 
# High freq. dielectric constant tensor:
#      x y z
#    x 1.786580 0.000000 0.000000 
#    y 0.000000 1.803770 0.000000 
#    z 0.000000 0.000000 1.801940 
# 
# From -- ./inp_files/9489.got.cif
#   From: 2010.03.12/outbox.cif.g09.slc.cpg/sg62_5_cif.got.tgz:9489.got - 2010.04.10 19:12:36.
