data_PCOD8253391
_publ_section_title
;
Structure prediction by ZEFSAII (Michael W. Deem and Ramdas Pophale) SiO2 
 PCOD8253391
Probable space group: P N M A
;
_chemical_formula_sum "Si O2"
_cell_formula_units_Z 56
_cell_length_a 21.666639
_cell_length_b 8.995373
_cell_length_c 14.518161
_cell_angle_alpha 90.000000
_cell_angle_beta 90.000000
_cell_angle_gamma 90.000000
_cell_volume 2829.582312
_symmetry_space_group_name_H-M "P N M A"
_symmetry_group_IT_number 62
_symmetry_cell_setting 'orthorhombic'
loop_
_space_group_symop_operation_xyz
x,y,z
1/2-x,-y,1/2+z
1/2+x,1/2-y,1/2-z
-x,1/2+y,-z
-x,-y,-z
1/2+x,y,1/2-z
1/2-x,1/2+y,1/2+z
x,1/2-y,z
loop_
_atom_site_type_symbol
_atom_site_label
_atom_site_fract_x
_atom_site_fract_y
_atom_site_fract_z
Si Si1 0.382801 0.423941 0.597245
Si Si2 0.674504 0.923845 0.067635
Si Si3 0.481021 0.923394 0.717648
Si Si4 0.543048 0.424019 0.074416
Si Si5 0.744572 0.081590 0.392575
Si Si6 0.225922 0.921468 0.813876
Si Si7 0.902271 0.074532 0.107928
O O1 0.387072 0.250000 0.613432
O O2 0.419289 0.502458 0.678993
O O3 0.311804 0.469445 0.599595
O O4 0.411766 0.469697 0.498570
O O5 0.662340 0.750000 0.082167
O O6 0.610702 0.009411 0.069729
O O7 0.716866 0.982677 0.150315
O O8 0.705962 0.958855 0.970169
O O9 0.475224 0.750000 0.696500
O O10 0.486587 0.955528 0.825754
O O11 0.541163 0.992461 0.667081
O O12 0.546721 0.250000 0.053789
O O13 0.500000 0.500000 0.000000
O O14 0.719965 0.250000 0.404954
O O15 0.778865 0.062420 0.295668
O O16 0.235659 0.750000 0.843635
O O17 0.162898 0.989466 0.855900
O O18 0.900236 0.250000 0.122313
#
# Coordination Sequence:
#
# PCOD8253391 Si02
#       7
#     8   8   8   8   8   8   8
#     4  11  21  36  60  90 122 153 191 247 301 348
#     4  11  23  40  62  90 123 156 196 247 299 355
#     4  10  22  40  62  85 117 161 203 241 293 363
#     4  11  25  43  65  89 119 159 204 250 298 354
#     4  10  22  37  60  87 116 157 198 238 290 358
#     4  10  20  38  62  86 117 157 202 245 294 353
#     4   9  19  36  60  87 115 152 197 246 296 349
#
# _framework density 19.790906
#
# number of rings (size 3 to 8) (size 9 to 14) (size 15 to 20)
#    0.000    1.714    1.429    2.571    2.000    5.714 
#    0.000    1.429    0.000    0.000    0.000    0.000 
#    0.000    0.000    0.000    0.000    0.000    0.000 
#
# Total GULP energy -694663.434014 kJ/mol
# GULP energy per Si atom -12404.704179 kJ/mol
# Density = 1.974586 g / cm^3
# Si number density = 19.790906 Si / 1000 Ang^3
#
#
#
# Elastic Constant Matrix: (Units=GPa)
#
#
# Indices 1 2 3 4 5 6 
#
# 1 97.8969 43.6714 27.4783 0.0000 0.0000 0.0000
# 2 43.6714 71.8510 52.7267 0.0000 0.0000 0.0000
# 3 27.4783 52.7267 90.4714 0.0000 0.0000 0.0000
# 4 0.0000 0.0000 0.0000 28.8978 0.0000 0.0000
# 5 0.0000 0.0000 0.0000 0.0000 33.6580 0.0000
# 6 0.0000 0.0000 0.0000 0.0000 0.0000 27.4789
#
#
#
# Elastic Compliance Matrix: (Units=1/GPa)
#
#
# Indices 1 2 3 4 5 6 
#
# 1 0.014094 -0.009479 0.001244 0.000000 0.000000 0.000000
# 2 -0.009479 0.030694 -0.015009 0.000000 0.000000 0.000000
# 3 0.001244 -0.015009 0.019423 0.000000 0.000000 0.000000
# 4 0.000000 0.000000 0.000000 0.034605 0.000000 0.000000
# 5 0.000000 0.000000 0.000000 0.000000 0.029711 0.000000
# 6 0.000000 0.000000 0.000000 0.000000 0.000000 0.036392
#
#
# Mechanical properties :
#
#
# Convention : Reuss Voigt Hill
#
# Bulk Modulus (GPa) = 56.42923 56.44135 56.43529
# Shear Modulus (GPa) = 23.00817 27.09645 25.05231
#
# Velocity S-wave (km/s) = 3.41334 3.70420 3.56174
# Velocity P-wave (km/s) = 6.64147 6.84657 6.74480
#
# Compressibility (1/GPa) = 0.01772131
#
# Stress axis : x y z
#
# Youngs Moduli (GPa) = 70.94994 32.58017 51.48606
#
# Poissons Ratio (x) = 0.30884 -0.06404
# Poissons Ratio (y) = 0.67257 0.77276
# Poissons Ratio (z) = -0.08825 0.48900
#
# Static dielectric constant tensor:
#      x y z
#    x 0.712520 0.000000 0.000000 
#    y 0.000000 3.510130 0.000000 
#    z 0.000000 0.000000 3.861580 
# 
# 
# High freq. dielectric constant tensor:
#      x y z
#    x 1.778190 0.000000 0.000000 
#    y 0.000000 1.757880 0.000000 
#    z 0.000000 0.000000 1.787720 
# 
# From -- ./inp_files/20203.got.cif
#   From: 2010.03.12/outbox.cif.g09.slc.cpg/sg62_11_cif.got.tgz:20203.got - 2010.04.10 19:12:36.
