data_PCOD8253499
_publ_section_title
;
Structure prediction by ZEFSAII (Michael W. Deem and Ramdas Pophale) SiO2 
 PCOD8253499
Probable space group: P N M A
;
_chemical_formula_sum "Si O2"
_cell_formula_units_Z 48
_cell_length_a 13.663131
_cell_length_b 18.151758
_cell_length_c 10.013364
_cell_angle_alpha 90.000000
_cell_angle_beta 90.000000
_cell_angle_gamma 90.000000
_cell_volume 2483.412878
_symmetry_space_group_name_H-M "P N M A"
_symmetry_group_IT_number 62
_symmetry_cell_setting 'orthorhombic'
loop_
_space_group_symop_operation_xyz
x,y,z
1/2-x,-y,1/2+z
1/2+x,1/2-y,1/2-z
-x,1/2+y,-z
-x,-y,-z
1/2+x,y,1/2-z
1/2-x,1/2+y,1/2+z
x,1/2-y,z
loop_
_atom_site_type_symbol
_atom_site_label
_atom_site_fract_x
_atom_site_fract_y
_atom_site_fract_z
Si Si1 0.250161 0.336220 0.527391
Si Si2 0.944950 0.416640 0.376291
Si Si3 0.080187 0.422452 0.136295
Si Si4 0.556266 0.591834 0.395671
Si Si5 0.563660 0.083747 0.864247
Si Si6 0.760153 0.163220 0.278596
O O1 0.235579 0.250000 0.528464
O O2 0.349423 0.355959 0.605590
O O3 0.159644 0.369795 0.606995
O O4 0.254433 0.364972 0.374545
O O5 0.902074 0.498719 0.357036
O O6 0.865691 0.355646 0.338505
O O7 0.039459 0.407115 0.283529
O O8 0.979166 0.403657 0.526887
O O9 0.096803 0.508601 0.108584
O O10 0.182355 0.379378 0.128634
O O11 0.004131 0.390693 0.029286
O O12 0.484100 0.610007 0.273930
O O13 0.741583 0.250000 0.289255
#
# Coordination Sequence:
#
# PCOD8253499 Si02
#       6
#     8   8   8   8   8   8
#     4  11  23  39  59  87 124 159 192 242 304 355
#     4  10  20  39  62  86 116 152 202 244 283 348
#     4  10  20  39  62  86 116 152 202 244 283 348
#     4  10  22  39  62  88 117 157 196 244 297 344
#     4  10  22  39  62  88 117 157 196 244 297 344
#     4  11  23  37  61  91 120 157 198 244 292 349
#
# _framework density 19.328240999999998
#
# number of rings (size 3 to 8) (size 9 to 14) (size 15 to 20)
#    0.000    1.667    3.333    1.000    0.000    4.000 
#    0.000    1.667    0.000    0.000    0.000    0.000 
#    0.000    0.000    0.000    0.000    0.000    0.000 
#
# Total GULP energy -595428.373977 kJ/mol
# GULP energy per Si atom -12404.757791 kJ/mol
# Density = 1.928425 g / cm^3
# Si number density = 19.328241 Si / 1000 Ang^3
#
#
#
# Elastic Constant Matrix: (Units=GPa)
#
#
# Indices 1 2 3 4 5 6 
#
# 1 81.8454 25.0417 23.2148 0.0000 0.0000 0.0000
# 2 25.0417 30.9235 32.5216 0.0000 0.0000 0.0000
# 3 23.2148 32.5216 80.5414 0.0000 0.0000 0.0000
# 4 0.0000 0.0000 0.0000 24.2244 0.0000 0.0000
# 5 0.0000 0.0000 0.0000 0.0000 24.4946 0.0000
# 6 0.0000 0.0000 0.0000 0.0000 0.0000 13.6457
#
#
#
# Elastic Compliance Matrix: (Units=1/GPa)
#
#
# Indices 1 2 3 4 5 6 
#
# 1 0.016298 -0.014353 0.001098 0.000000 0.000000 0.000000
# 2 -0.014353 0.068846 -0.023662 0.000000 0.000000 0.000000
# 3 0.001098 -0.023662 0.021654 0.000000 0.000000 0.000000
# 4 0.000000 0.000000 0.000000 0.041281 0.000000 0.000000
# 5 0.000000 0.000000 0.000000 0.000000 0.040825 0.000000
# 6 0.000000 0.000000 0.000000 0.000000 0.000000 0.073283
#
#
# Mechanical properties :
#
#
# Convention : Reuss Voigt Hill
#
# Bulk Modulus (GPa) = 30.33636 39.42964 34.88300
# Shear Modulus (GPa) = 14.40886 19.97508 17.19197
#
# Velocity S-wave (km/s) = 2.73331 3.21824 2.98564
# Velocity P-wave (km/s) = 5.06861 5.85267 5.47469
#
# Compressibility (1/GPa) = 0.03296375
#
# Stress axis : x y z
#
# Youngs Moduli (GPa) = 61.35646 14.52528 46.18085
#
# Poissons Ratio (x) = 0.20848 -0.05069
# Poissons Ratio (y) = 0.88063 1.09273
# Poissons Ratio (z) = -0.06735 0.34370
#
# Static dielectric constant tensor:
#      x y z
#    x 3.374150 0.000000 0.000000 
#    y 0.000000 3.398970 0.000000 
#    z 0.000000 0.000000 3.650850 
# 
# 
# High freq. dielectric constant tensor:
#      x y z
#    x 1.757020 0.000000 0.000000 
#    y 0.000000 1.740790 0.000000 
#    z 0.000000 0.000000 1.756710 
# 
# From -- ./inp_files/6439.got.cif
#   From: 2010.03.12/outbox.cif.g09.slc.cpg/sg62_4_cif.got.tgz:6439.got - 2010.04.10 19:12:36.
