data_PCOD8253101
_publ_section_title
;
Structure prediction by ZEFSAII (Michael W. Deem and Ramdas Pophale) SiO2 
 PCOD8253101
Probable space group: P N M A
;
_chemical_formula_sum "Si O2"
_cell_formula_units_Z 48
_cell_length_a 18.896785
_cell_length_b 8.820358
_cell_length_c 15.089121
_cell_angle_alpha 90.000000
_cell_angle_beta 90.000000
_cell_angle_gamma 90.000000
_cell_volume 2515.000499
_symmetry_space_group_name_H-M "P N M A"
_symmetry_group_IT_number 62
_symmetry_cell_setting 'orthorhombic'
loop_
_space_group_symop_operation_xyz
x,y,z
1/2-x,-y,1/2+z
1/2+x,1/2-y,1/2-z
-x,1/2+y,-z
-x,-y,-z
1/2+x,y,1/2-z
1/2-x,1/2+y,1/2+z
x,1/2-y,z
loop_
_atom_site_type_symbol
_atom_site_label
_atom_site_fract_x
_atom_site_fract_y
_atom_site_fract_z
Si Si1 0.824349 0.425140 0.625343
Si Si2 0.674641 0.928357 0.630300
Si Si3 0.929113 0.075021 0.464439
Si Si4 0.071927 0.570657 0.223558
Si Si5 0.081921 0.069959 0.720615
Si Si6 0.426412 0.428427 0.526010
O O1 0.803422 0.250000 0.641413
O O2 0.755609 0.527830 0.618222
O O3 0.867457 0.444579 0.535462
O O4 0.870906 0.491203 0.706635
O O5 0.667017 0.750000 0.644898
O O6 0.633984 0.982288 0.541592
O O7 0.643134 0.013246 0.714761
O O8 0.945141 0.250000 0.445040
O O9 0.901889 0.993563 0.376347
O O10 0.000000 0.000000 0.500000
O O11 0.068585 0.750000 0.232833
O O12 0.094737 0.518339 0.125136
O O13 0.993912 0.506630 0.246024
O O14 0.083373 0.250000 0.717246
O O15 0.500000 0.500000 0.500000
O O16 0.436898 0.250000 0.523757
#
# Coordination Sequence:
#
# PCOD8253101 Si02
#       6
#     8   8   8   8   8   8
#     4  10  22  41  61  85 121 163 200 242 299 365
#     4  11  24  39  57  91 128 157 196 252 306 358
#     4  11  22  38  62  93 125 158 204 253 302 364
#     4   9  18  36  61  87 113 151 202 244 291 359
#     4  11  21  38  64  89 117 160 206 251 304 359
#     4  10  20  36  60  87 117 150 194 244 294 356
#
# _framework density 19.085483
#
# number of rings (size 3 to 8) (size 9 to 14) (size 15 to 20)
#    0.000    1.667    3.333    1.500    0.000    3.333 
#    0.000    2.500    0.000    0.000    0.000    0.000 
#    0.000    0.000    0.000    0.000    0.000    0.000 
#
# Total GULP energy -595358.380497 kJ/mol
# GULP energy per Si atom -12403.299594 kJ/mol
# Density = 1.904204 g / cm^3
# Si number density = 19.085483 Si / 1000 Ang^3
#
#
#
# Elastic Constant Matrix: (Units=GPa)
#
#
# Indices 1 2 3 4 5 6 
#
# 1 118.5993 38.6704 54.1096 0.0000 0.0000 0.0000
# 2 38.6704 68.3353 47.2190 0.0000 0.0000 0.0000
# 3 54.1096 47.2190 157.0288 0.0000 0.0000 0.0000
# 4 0.0000 0.0000 0.0000 29.1446 0.0000 0.0000
# 5 0.0000 0.0000 0.0000 0.0000 30.6815 0.0000
# 6 0.0000 0.0000 0.0000 0.0000 0.0000 32.1988
#
#
#
# Elastic Compliance Matrix: (Units=1/GPa)
#
#
# Indices 1 2 3 4 5 6 
#
# 1 0.011027 -0.004563 -0.002428 0.000000 0.000000 0.000000
# 2 -0.004563 0.020360 -0.004550 0.000000 0.000000 0.000000
# 3 -0.002428 -0.004550 0.008573 0.000000 0.000000 0.000000
# 4 0.000000 0.000000 0.000000 0.034312 0.000000 0.000000
# 5 0.000000 0.000000 0.000000 0.000000 0.032593 0.000000
# 6 0.000000 0.000000 0.000000 0.000000 0.000000 0.031057
#
#
# Mechanical properties :
#
#
# Convention : Reuss Voigt Hill
#
# Bulk Modulus (GPa) = 59.24504 69.32902 64.28703
# Shear Modulus (GPa) = 30.00687 32.00260 31.00474
#
# Velocity S-wave (km/s) = 3.96944 4.09932 4.03491
# Velocity P-wave (km/s) = 7.21928 7.66879 7.44743
#
# Compressibility (1/GPa) = 0.01687905
#
# Stress axis : x y z
#
# Youngs Moduli (GPa) = 90.68594 49.11671 116.64483
#
# Poissons Ratio (x) = 0.22410 0.28319
# Poissons Ratio (y) = 0.41376 0.53074
# Poissons Ratio (z) = 0.22016 0.22348
#
# Static dielectric constant tensor:
#      x y z
#    x 3.414410 0.000000 0.000000 
#    y 0.000000 3.328650 0.000000 
#    z 0.000000 0.000000 3.750280 
# 
# 
# High freq. dielectric constant tensor:
#      x y z
#    x 1.739620 0.000000 0.000000 
#    y 0.000000 1.730510 0.000000 
#    z 0.000000 0.000000 1.761880 
# 
# From -- ./inp_files/19579.got.cif
#   From: 2010.03.12/outbox.cif.g09.slc.cpg/sg62_10_cif.got.tgz:19579.got - 2010.04.10 19:12:36.
