data_PCOD8253379
_publ_section_title
;
Structure prediction by ZEFSAII (Michael W. Deem and Ramdas Pophale) SiO2 
 PCOD8253379
Probable space group: P N M A
;
_chemical_formula_sum "Si O2"
_cell_formula_units_Z 48
_cell_length_a 8.526257
_cell_length_b 16.935500
_cell_length_c 18.052470
_cell_angle_alpha 90.000000
_cell_angle_beta 90.000000
_cell_angle_gamma 90.000000
_cell_volume 2606.712138
_symmetry_space_group_name_H-M "P N M A"
_symmetry_group_IT_number 62
_symmetry_cell_setting 'orthorhombic'
loop_
_space_group_symop_operation_xyz
x,y,z
1/2-x,-y,1/2+z
1/2+x,1/2-y,1/2-z
-x,1/2+y,-z
-x,-y,-z
1/2+x,y,1/2-z
1/2-x,1/2+y,1/2+z
x,1/2-y,z
loop_
_atom_site_type_symbol
_atom_site_label
_atom_site_fract_x
_atom_site_fract_y
_atom_site_fract_z
Si Si1 0.363258 0.469298 0.165506
Si Si2 0.156487 0.840274 0.417059
Si Si3 0.217856 0.514938 0.320081
Si Si4 0.300151 0.842106 0.574244
Si Si5 0.384040 0.932863 0.032756
Si Si6 0.412185 0.058361 0.443987
O O1 0.276590 0.501757 0.237530
O O2 0.552530 0.469317 0.170766
O O3 0.308957 0.382947 0.137033
O O4 0.300604 0.530038 0.104165
O O5 0.181424 0.750000 0.393332
O O6 0.195781 0.893541 0.345014
O O7 0.257521 0.863970 0.489306
O O8 0.977914 0.854839 0.443085
O O9 0.359943 0.484793 0.369797
O O10 0.284429 0.750000 0.589694
O O11 0.479143 0.869768 0.582496
O O12 0.247289 0.906049 0.978150
O O13 0.500000 0.000000 0.000000
O O14 0.500000 0.000000 0.500000
#
# Coordination Sequence:
#
# PCOD8253379 Si02
#       6
#     8   8   8   8   8   8
#     4  11  21  38  58  87 117 161 203 247 296 367
#     4  10  20  38  61  88 123 155 194 252 301 352
#     4  11  22  37  61  88 115 163 208 243 304 365
#     4  11  22  37  60  92 122 153 195 254 307 352
#     4  11  18  37  61  88 117 159 206 240 291 369
#     4  12  19  35  62  88 122 155 205 249 288 372
#
# _framework density 18.414000000000001
#
# number of rings (size 3 to 8) (size 9 to 14) (size 15 to 20)
#    0.000    1.000    8.333    1.000    0.000    0.667 
#    0.000    7.500    0.000    0.000    0.000    0.000 
#    0.000    0.000    0.000    0.000    0.000    0.000 
#
# Total GULP energy -594860.747027 kJ/mol
# GULP energy per Si atom -12392.932230 kJ/mol
# Density = 1.837209 g / cm^3
# Si number density = 18.414000 Si / 1000 Ang^3
#
#
#
# Elastic Constant Matrix: (Units=GPa)
#
#
# Indices 1 2 3 4 5 6 
#
# 1 103.7767 55.7467 45.4134 0.0000 0.0000 0.0000
# 2 55.7467 101.0861 57.0331 0.0000 0.0000 0.0000
# 3 45.4134 57.0331 116.3240 0.0000 0.0000 0.0000
# 4 0.0000 0.0000 0.0000 26.2031 0.0000 0.0000
# 5 0.0000 0.0000 0.0000 0.0000 39.7575 0.0000
# 6 0.0000 0.0000 0.0000 0.0000 0.0000 26.7194
#
#
#
# Elastic Compliance Matrix: (Units=1/GPa)
#
#
# Indices 1 2 3 4 5 6 
#
# 1 0.014141 -0.006475 -0.002346 0.000000 0.000000 0.000000
# 2 -0.006475 0.016640 -0.005631 0.000000 0.000000 0.000000
# 3 -0.002346 -0.005631 0.012273 0.000000 0.000000 0.000000
# 4 0.000000 0.000000 0.000000 0.038163 0.000000 0.000000
# 5 0.000000 0.000000 0.000000 0.000000 0.025153 0.000000
# 6 0.000000 0.000000 0.000000 0.000000 0.000000 0.037426
#
#
# Mechanical properties :
#
#
# Convention : Reuss Voigt Hill
#
# Bulk Modulus (GPa) = 70.66607 70.84149 70.75378
# Shear Modulus (GPa) = 28.18228 29.40224 28.79226
#
# Velocity S-wave (km/s) = 3.91638 4.00025 3.95854
# Velocity P-wave (km/s) = 7.67530 7.73893 7.70718
#
# Compressibility (1/GPa) = 0.01415106
#
# Stress axis : x y z
#
# Youngs Moduli (GPa) = 70.71738 60.09578 81.47695
#
# Poissons Ratio (x) = 0.38910 0.19116
# Poissons Ratio (y) = 0.45787 0.45878
# Poissons Ratio (z) = 0.16591 0.33839
#
# Static dielectric constant tensor:
#      x y z
#    x 3.668390 0.000000 0.000000 
#    y 0.000000 3.167510 0.000000 
#    z 0.000000 0.000000 4.011040 
# 
# 
# High freq. dielectric constant tensor:
#      x y z
#    x 1.727560 0.000000 0.000000 
#    y 0.000000 1.687890 0.000000 
#    z 0.000000 0.000000 1.715460 
# 
# From -- ./inp_files/22347.got.cif
#   From: 2010.03.12/outbox.cif.g09.slc.cpg/sg62_12_cif.got.tgz:22347.got - 2010.04.10 19:12:36.
