data_PCOD8253650
_publ_section_title
;
Structure prediction by ZEFSAII (Michael W. Deem and Ramdas Pophale) SiO2 
 PCOD8253650
Probable space group: P N M A
;
_chemical_formula_sum "Si O2"
_cell_formula_units_Z 40
_cell_length_a 28.905640
_cell_length_b 9.019637
_cell_length_c 7.388468
_cell_angle_alpha 90.000000
_cell_angle_beta 90.000000
_cell_angle_gamma 90.000000
_cell_volume 1926.309408
_symmetry_space_group_name_H-M "P N M A"
_symmetry_group_IT_number 62
_symmetry_cell_setting 'orthorhombic'
loop_
_space_group_symop_operation_xyz
x,y,z
1/2-x,-y,1/2+z
1/2+x,1/2-y,1/2-z
-x,1/2+y,-z
-x,-y,-z
1/2+x,y,1/2-z
1/2-x,1/2+y,1/2+z
x,1/2-y,z
loop_
_atom_site_type_symbol
_atom_site_label
_atom_site_fract_x
_atom_site_fract_y
_atom_site_fract_z
Si Si1 0.716165 0.089329 0.681679
Si Si2 0.884770 0.925728 0.232208
Si Si3 0.304726 0.911868 0.733067
Si Si4 0.890996 0.419838 0.853556
Si Si5 0.548669 0.578820 0.016215
O O1 0.732784 0.250000 0.757338
O O2 0.669134 0.036825 0.783489
O O3 0.700377 0.108247 0.478345
O O4 0.757058 0.971970 0.685456
O O5 0.892976 0.750000 0.227881
O O6 0.915318 0.999784 0.385039
O O7 0.899524 0.988532 0.036148
O O8 0.314145 0.750000 0.821739
O O9 0.347810 0.020128 0.766309
O O10 0.880947 0.250000 0.905807
O O11 0.935549 0.434911 0.724942
O O12 0.544373 0.750000 0.958337
O O13 0.500000 0.500000 0.000000
#
# Coordination Sequence:
#
# PCOD8253650 Si02
#       5
#     8   8   8   8   8
#     4   9  20  36  53  82 118 155 199 243 294 356
#     4  10  22  41  64  91 124 162 204 253 308 366
#     4  10  21  35  55  84 117 158 202 244 296 355
#     4  10  22  41  63  89 123 161 203 252 307 365
#     4  11  25  43  66  94 122 160 207 258 313 370
#
# _framework density 20.765094999999999
#
# number of rings (size 3 to 8) (size 9 to 14) (size 15 to 20)
#    0.000    2.000    0.000    3.600    2.800    8.800 
#    0.000    0.000    0.000    0.000    0.000    0.000 
#    0.000    0.000    0.000    0.000    0.000    0.000 
#
# Total GULP energy -495910.660742 kJ/mol
# GULP energy per Si atom -12397.766519 kJ/mol
# Density = 2.071783 g / cm^3
# Si number density = 20.765095 Si / 1000 Ang^3
#
#
#
# Elastic Constant Matrix: (Units=GPa)
#
#
# Indices 1 2 3 4 5 6 
#
# 1 75.9376 36.8023 2.9342 0.0000 0.0000 0.0000
# 2 36.8023 140.3581 22.0699 0.0000 0.0000 0.0000
# 3 2.9342 22.0699 35.6604 0.0000 0.0000 0.0000
# 4 0.0000 0.0000 0.0000 32.1826 0.0000 0.0000
# 5 0.0000 0.0000 0.0000 0.0000 33.3273 0.0000
# 6 0.0000 0.0000 0.0000 0.0000 0.0000 40.3322
#
#
#
# Elastic Compliance Matrix: (Units=1/GPa)
#
#
# Indices 1 2 3 4 5 6 
#
# 1 0.015143 -0.004182 0.001342 0.000000 0.000000 0.000000
# 2 -0.004182 0.009047 -0.005255 0.000000 0.000000 0.000000
# 3 0.001342 -0.005255 0.031184 0.000000 0.000000 0.000000
# 4 0.000000 0.000000 0.000000 0.031073 0.000000 0.000000
# 5 0.000000 0.000000 0.000000 0.000000 0.030005 0.000000
# 6 0.000000 0.000000 0.000000 0.000000 0.000000 0.024794
#
#
# Mechanical properties :
#
#
# Convention : Reuss Voigt Hill
#
# Bulk Modulus (GPa) = 25.51982 41.72990 33.62486
# Shear Modulus (GPa) = 29.32566 33.84507 31.58536
#
# Velocity S-wave (km/s) = 3.76208 4.04158 3.90433
# Velocity P-wave (km/s) = 5.58457 6.47449 6.04593
#
# Compressibility (1/GPa) = 0.03918522
#
# Stress axis : x y z
#
# Youngs Moduli (GPa) = 66.03518 110.52877 32.06733
#
# Poissons Ratio (x) = 0.46219 -0.04303
# Poissons Ratio (y) = 0.27614 0.16852
# Poissons Ratio (z) = -0.08862 0.58086
#
# Static dielectric constant tensor:
#      x y z
#    x 4.175120 0.000000 0.000000 
#    y 0.000000 4.072310 0.000000 
#    z 0.000000 0.000000 3.677460 
# 
# 
# High freq. dielectric constant tensor:
#      x y z
#    x 1.809150 0.000000 0.000000 
#    y 0.000000 1.827450 0.000000 
#    z 0.000000 0.000000 1.810900 
# 
# From -- ./inp_files/9703.got.cif
#   From: 2010.03.12/outbox.cif.g09.slc.cpg/sg62_5_cif.got.tgz:9703.got - 2010.04.10 19:12:36.
