data_PCOD8253142
_publ_section_title
;
Structure prediction by ZEFSAII (Michael W. Deem and Ramdas Pophale) SiO2 
 PCOD8253142
Probable space group: P N M A
;
_chemical_formula_sum "Si O2"
_cell_formula_units_Z 44
_cell_length_a 14.885599
_cell_length_b 10.856140
_cell_length_c 14.279260
_cell_angle_alpha 90.000000
_cell_angle_beta 90.000000
_cell_angle_gamma 90.000000
_cell_volume 2307.530511
_symmetry_space_group_name_H-M "P N M A"
_symmetry_group_IT_number 62
_symmetry_cell_setting 'orthorhombic'
loop_
_space_group_symop_operation_xyz
x,y,z
1/2-x,-y,1/2+z
1/2+x,1/2-y,1/2-z
-x,1/2+y,-z
-x,-y,-z
1/2+x,y,1/2-z
1/2-x,1/2+y,1/2+z
x,1/2-y,z
loop_
_atom_site_type_symbol
_atom_site_label
_atom_site_fract_x
_atom_site_fract_y
_atom_site_fract_z
Si Si1 0.540509 0.250000 0.559105
Si Si2 0.253688 0.250000 0.910073
Si Si3 0.005652 0.750000 0.841456
Si Si4 0.276602 0.016128 0.784630
Si Si5 0.088003 0.547796 0.724115
Si Si6 0.944800 0.115904 0.788806
Si Si7 0.160320 0.750000 0.608846
Si Si8 0.683746 0.250000 0.239180
O O1 0.647068 0.250000 0.573220
O O2 0.516427 0.250000 0.450704
O O3 0.495925 0.370487 0.610372
O O4 0.284562 0.122560 0.861888
O O5 0.309764 0.250000 0.003908
O O6 0.916873 0.750000 0.777715
O O7 0.064743 0.630637 0.815757
O O8 0.350951 0.041921 0.702850
O O9 0.178792 0.028179 0.740419
O O10 0.296365 0.875301 0.821040
O O11 0.098715 0.630760 0.631351
O O12 0.007913 0.450589 0.711974
O O13 0.923111 0.250000 0.746490
O O14 0.247516 0.750000 0.674539
#
# Coordination Sequence:
#
# PCOD8253142 Si02
#       8
#     4   4   4   8   8   8   4   4
#     4  10  22  36  60 106 124 150 202 269 325 349
#     4  12  20  40  66  94 130 158 208 261 315 359
#     4  11  20  38  62  93 124 156 203 266 307 378
#     4  11  21  39  64  87 124 170 205 247 310 378
#     4  10  21  39  61  85 125 166 205 241 317 375
#     4  10  20  37  60  93 121 162 206 253 308 378
#     4   9  22  38  60  93 116 166 207 250 295 382
#     4  10  20  36  64  88 120 168 206 240 312 372
#
# _framework density 19.068004999999999
#
# number of rings (size 3 to 8) (size 9 to 14) (size 15 to 20)
#    0.545    1.091    5.455    0.545    0.000    0.727 
#    6.545    0.909    2.000    0.000    0.000    0.000 
#    0.000    0.000    0.000    0.000    0.000    0.000 
#
# Total GULP energy -545076.683667 kJ/mol
# GULP energy per Si atom -12388.106447 kJ/mol
# Density = 1.902460 g / cm^3
# Si number density = 19.068005 Si / 1000 Ang^3
#
#
#
# Elastic Constant Matrix: (Units=GPa)
#
#
# Indices 1 2 3 4 5 6 
#
# 1 100.8322 25.9288 11.2698 0.0000 0.0000 0.0000
# 2 25.9288 128.5335 29.6377 0.0000 0.0000 0.0000
# 3 11.2698 29.6377 65.6913 0.0000 0.0000 0.0000
# 4 0.0000 0.0000 0.0000 15.0709 0.0000 0.0000
# 5 0.0000 0.0000 0.0000 0.0000 27.9464 0.0000
# 6 0.0000 0.0000 0.0000 0.0000 0.0000 37.7805
#
#
#
# Elastic Compliance Matrix: (Units=1/GPa)
#
#
# Indices 1 2 3 4 5 6 
#
# 1 0.010512 -0.001903 -0.000945 0.000000 0.000000 0.000000
# 2 -0.001903 0.009028 -0.003747 0.000000 0.000000 0.000000
# 3 -0.000945 -0.003747 0.017075 0.000000 0.000000 0.000000
# 4 0.000000 0.000000 0.000000 0.066353 0.000000 0.000000
# 5 0.000000 0.000000 0.000000 0.000000 0.035783 0.000000
# 6 0.000000 0.000000 0.000000 0.000000 0.000000 0.026469
#
#
# Mechanical properties :
#
#
# Convention : Reuss Voigt Hill
#
# Bulk Modulus (GPa) = 42.68648 47.63663 45.16155
# Shear Modulus (GPa) = 26.85032 31.37428 29.11230
#
# Velocity S-wave (km/s) = 3.75658 4.06074 3.91162
# Velocity P-wave (km/s) = 6.42269 6.85732 6.64356
#
# Compressibility (1/GPa) = 0.02342662
#
# Stress axis : x y z
#
# Youngs Moduli (GPa) = 95.12605 110.76879 58.56451
#
# Poissons Ratio (x) = 0.21076 0.05535
# Poissons Ratio (y) = 0.18100 0.21942
# Poissons Ratio (z) = 0.08990 0.41501
#
# Static dielectric constant tensor:
#      x y z
#    x 3.738960 0.000000 0.000000 
#    y 0.000000 3.873570 0.000000 
#    z 0.000000 0.000000 2.976990 
# 
# 
# High freq. dielectric constant tensor:
#      x y z
#    x 1.766350 0.000000 0.000000 
#    y 0.000000 1.761440 0.000000 
#    z 0.000000 0.000000 1.677010 
# 
# From -- ./inp_files/18863.got.cif
#   From: 2010.03.12/outbox.cif.g09.slc.cpg/sg62_10_cif.got.tgz:18863.got - 2010.04.10 19:12:36.
