data_PCOD8253821
_publ_section_title
;
Structure prediction by ZEFSAII (Michael W. Deem and Ramdas Pophale) SiO2 
 PCOD8253821
Probable space group: P N M A
;
_chemical_formula_sum "Si O2"
_cell_formula_units_Z 56
_cell_length_a 16.562067
_cell_length_b 8.963469
_cell_length_c 19.666349
_cell_angle_alpha 90.000000
_cell_angle_beta 90.000000
_cell_angle_gamma 90.000000
_cell_volume 2919.539799
_symmetry_space_group_name_H-M "P N M A"
_symmetry_group_IT_number 62
_symmetry_cell_setting 'orthorhombic'
loop_
_space_group_symop_operation_xyz
x,y,z
1/2-x,-y,1/2+z
1/2+x,1/2-y,1/2-z
-x,1/2+y,-z
-x,-y,-z
1/2+x,y,1/2-z
1/2-x,1/2+y,1/2+z
x,1/2-y,z
loop_
_atom_site_type_symbol
_atom_site_label
_atom_site_fract_x
_atom_site_fract_y
_atom_site_fract_z
Si Si1 0.751448 0.423756 0.755753
Si Si2 0.252888 0.574748 0.022636
Si Si3 0.353400 0.926066 0.638136
Si Si4 0.191276 0.079421 0.891422
Si Si5 0.486367 0.576557 0.337983
Si Si6 0.064434 0.074584 0.548077
Si Si7 0.579365 0.426733 0.801473
O O1 0.765342 0.250000 0.771825
O O2 0.825335 0.516027 0.787661
O O3 0.745891 0.450707 0.675029
O O4 0.670315 0.486306 0.791391
O O5 0.243550 0.750000 0.035436
O O6 0.219838 0.533593 0.948785
O O7 0.203423 0.489890 0.079871
O O8 0.346014 0.524873 0.026834
O O9 0.350903 0.750000 0.635201
O O10 0.444736 0.980986 0.625184
O O11 0.202708 0.250000 0.915736
O O12 0.097595 0.048286 0.876323
O O13 0.510313 0.750000 0.340531
O O14 0.478288 0.518893 0.259688
O O15 0.054116 0.250000 0.541816
O O16 0.046181 0.021181 0.625457
O O17 0.000000 0.000000 0.500000
O O18 0.586184 0.250000 0.795962
#
# Coordination Sequence:
#
# PCOD8253821 Si02
#       7
#     8   8   8   8   8   8   8
#     4   9  17  36  62  82 108 149 194 239 290 349
#     4  11  23  40  61  83 118 161 197 238 294 356
#     4  12  24  36  56  87 120 153 198 247 290 347
#     4   9  20  38  62  89 117 150 196 247 294 351
#     4   9  19  37  61  85 110 149 195 243 294 344
#     4  10  21  37  58  84 114 150 191 235 285 345
#     4   8  15  34  60  80 103 141 191 232 274 339
#
# _framework density 19.181104999999999
#
# number of rings (size 3 to 8) (size 9 to 14) (size 15 to 20)
#    0.000    2.286    1.429    3.429    0.000    4.000 
#    0.000    7.143    0.000    0.000    0.000    0.000 
#    0.000    0.000    0.000    0.000    0.000    0.000 
#
# Total GULP energy -694373.521605 kJ/mol
# GULP energy per Si atom -12399.527172 kJ/mol
# Density = 1.913745 g / cm^3
# Si number density = 19.181105 Si / 1000 Ang^3
#
#
#
# Elastic Constant Matrix: (Units=GPa)
#
#
# Indices 1 2 3 4 5 6 
#
# 1 98.3860 44.6022 61.2842 0.0000 0.0000 0.0000
# 2 44.6022 77.0949 48.8182 0.0000 0.0000 0.0000
# 3 61.2842 48.8182 107.2540 0.0000 0.0000 0.0000
# 4 0.0000 0.0000 0.0000 32.8147 0.0000 0.0000
# 5 0.0000 0.0000 0.0000 0.0000 28.5167 0.0000
# 6 0.0000 0.0000 0.0000 0.0000 0.0000 27.5816
#
#
#
# Elastic Compliance Matrix: (Units=1/GPa)
#
#
# Indices 1 2 3 4 5 6 
#
# 1 0.017158 -0.005224 -0.007426 0.000000 0.000000 0.000000
# 2 -0.005224 0.019814 -0.006034 0.000000 0.000000 0.000000
# 3 -0.007426 -0.006034 0.016313 0.000000 0.000000 0.000000
# 4 0.000000 0.000000 0.000000 0.030474 0.000000 0.000000
# 5 0.000000 0.000000 0.000000 0.000000 0.035067 0.000000
# 6 0.000000 0.000000 0.000000 0.000000 0.000000 0.036256
#
#
# Mechanical properties :
#
#
# Convention : Reuss Voigt Hill
#
# Bulk Modulus (GPa) = 62.82408 65.79380 64.30894
# Shear Modulus (GPa) = 25.28367 26.31797 25.80082
#
# Velocity S-wave (km/s) = 3.63458 3.70818 3.67156
# Velocity P-wave (km/s) = 7.10195 7.26016 7.18149
#
# Compressibility (1/GPa) = 0.01591746
#
# Stress axis : x y z
#
# Youngs Moduli (GPa) = 58.28153 50.46941 61.30017
#
# Poissons Ratio (x) = 0.26366 0.45522
# Poissons Ratio (y) = 0.30447 0.36986
# Poissons Ratio (z) = 0.43281 0.30451
#
# Static dielectric constant tensor:
#      x y z
#    x 3.507180 0.000000 0.000000 
#    y 0.000000 3.243410 0.000000 
#    z 0.000000 0.000000 3.678800 
# 
# 
# High freq. dielectric constant tensor:
#      x y z
#    x 1.746790 0.000000 0.000000 
#    y 0.000000 1.721590 0.000000 
#    z 0.000000 0.000000 1.753850 
# 
# From -- ./inp_files/27241.got.cif
#   From: 2010.03.12/outbox.cif.g09.slc.cpg/sg62_14_cif.got.tgz:27241.got - 2010.04.10 19:12:36.
