data_PCOD8253623
_publ_section_title
;
Structure prediction by ZEFSAII (Michael W. Deem and Ramdas Pophale) SiO2 
 PCOD8253623
Probable space group: P N M A
;
_chemical_formula_sum "Si O2"
_cell_formula_units_Z 56
_cell_length_a 16.999010
_cell_length_b 21.247267
_cell_length_c 7.840166
_cell_angle_alpha 90.000000
_cell_angle_beta 90.000000
_cell_angle_gamma 90.000000
_cell_volume 2831.730789
_symmetry_space_group_name_H-M "P N M A"
_symmetry_group_IT_number 62
_symmetry_cell_setting 'orthorhombic'
loop_
_space_group_symop_operation_xyz
x,y,z
1/2-x,-y,1/2+z
1/2+x,1/2-y,1/2-z
-x,1/2+y,-z
-x,-y,-z
1/2+x,y,1/2-z
1/2-x,1/2+y,1/2+z
x,1/2-y,z
loop_
_atom_site_type_symbol
_atom_site_label
_atom_site_fract_x
_atom_site_fract_y
_atom_site_fract_z
Si Si1 0.415647 0.321449 0.066494
Si Si2 0.671281 0.637782 0.590355
Si Si3 0.919347 0.021164 0.079385
Si Si4 0.490133 0.561757 0.888157
Si Si5 0.314407 0.946926 0.879951
Si Si6 0.792298 0.181158 0.731187
Si Si7 0.792363 0.944615 0.232044
O O1 0.448602 0.250000 0.064928
O O2 0.371347 0.330247 0.249062
O O3 0.488111 0.369918 0.031894
O O4 0.360295 0.332853 0.904362
O O5 0.628152 0.578517 0.493463
O O6 0.755820 0.611394 0.658391
O O7 0.679318 0.684225 0.429324
O O8 0.940156 0.054021 0.255598
O O9 0.861557 0.961580 0.099087
O O10 0.000000 0.000000 0.000000
O O11 0.500000 0.500000 0.000000
O O12 0.402303 0.565488 0.806927
O O13 0.325798 0.956946 0.080838
O O14 0.283557 0.011156 0.794880
O O15 0.755843 0.250000 0.691720
O O16 0.726223 0.128387 0.704368
#
# Coordination Sequence:
#
# PCOD8253623 Si02
#       7
#     8   8   8   8   8   8   8
#     4  10  22  40  60  84 117 157 198 240 293 354
#     4   9  21  38  58  86 116 148 197 241 287 349
#     4  10  22  34  55  88 115 151 185 245 303 340
#     4  11  21  35  58  83 117 152 192 241 294 345
#     4  10  21  34  57  87 111 152 183 248 296 336
#     4  10  21  36  61  84 112 159 194 233 292 349
#     4  10  21  36  55  85 117 141 196 241 289 350
#
# _framework density 19.775891999999999
#
# number of rings (size 3 to 8) (size 9 to 14) (size 15 to 20)
#    0.000    2.000    1.429    1.286   12.000    0.000 
#    0.000    3.571    0.000    6.000    0.000    0.000 
#    0.000    0.000    0.000    0.000    0.000    0.000 
#
# Total GULP energy -693742.844962 kJ/mol
# GULP energy per Si atom -12388.265089 kJ/mol
# Density = 1.973088 g / cm^3
# Si number density = 19.775892 Si / 1000 Ang^3
#
#
#
# Elastic Constant Matrix: (Units=GPa)
#
#
# Indices 1 2 3 4 5 6 
#
# 1 98.2093 50.2505 2.4482 0.0000 0.0000 0.0000
# 2 50.2505 134.4613 26.7406 0.0000 0.0000 0.0000
# 3 2.4482 26.7406 46.1291 0.0000 0.0000 0.0000
# 4 0.0000 0.0000 0.0000 26.9806 0.0000 0.0000
# 5 0.0000 0.0000 0.0000 0.0000 24.3564 0.0000
# 6 0.0000 0.0000 0.0000 0.0000 0.0000 24.3789
#
#
#
# Elastic Compliance Matrix: (Units=1/GPa)
#
#
# Indices 1 2 3 4 5 6 
#
# 1 0.012815 -0.005260 0.002369 0.000000 0.000000 0.000000
# 2 -0.005260 0.010565 -0.005846 0.000000 0.000000 0.000000
# 3 0.002369 -0.005846 0.024941 0.000000 0.000000 0.000000
# 4 0.000000 0.000000 0.000000 0.037064 0.000000 0.000000
# 5 0.000000 0.000000 0.000000 0.000000 0.041057 0.000000
# 6 0.000000 0.000000 0.000000 0.000000 0.000000 0.041019
#
#
# Mechanical properties :
#
#
# Convention : Reuss Voigt Hill
#
# Bulk Modulus (GPa) = 32.41677 48.63091 40.52384
# Shear Modulus (GPa) = 25.61254 28.43389 27.02321
#
# Velocity S-wave (km/s) = 3.60271 3.79595 3.70059
# Velocity P-wave (km/s) = 5.80807 6.62244 6.22858
#
# Compressibility (1/GPa) = 0.03084823
#
# Stress axis : x y z
#
# Youngs Moduli (GPa) = 78.03481 94.64809 40.09441
#
# Poissons Ratio (x) = 0.49788 -0.09499
# Poissons Ratio (y) = 0.41049 0.23437
# Poissons Ratio (z) = -0.18488 0.55327
#
# Static dielectric constant tensor:
#      x y z
#    x 3.132870 0.000000 0.000000 
#    y 0.000000 3.746970 0.000000 
#    z 0.000000 0.000000 3.455220 
# 
# 
# High freq. dielectric constant tensor:
#      x y z
#    x 1.760880 0.000000 0.000000 
#    y 0.000000 1.771500 0.000000 
#    z 0.000000 0.000000 1.771550 
# 
# From -- ./inp_files/6774.got.cif
#   From: 2010.03.12/outbox.cif.g09.slc.cpg/sg62_4_cif.got.tgz:6774.got - 2010.04.10 19:12:36.
