data_PCOD8253374
_publ_section_title
;
Structure prediction by ZEFSAII (Michael W. Deem and Ramdas Pophale) SiO2 
 PCOD8253374
Probable space group: P N M A
;
_chemical_formula_sum "Si O2"
_cell_formula_units_Z 48
_cell_length_a 9.951239
_cell_length_b 8.975730
_cell_length_c 26.603501
_cell_angle_alpha 90.000000
_cell_angle_beta 90.000000
_cell_angle_gamma 90.000000
_cell_volume 2376.214984
_symmetry_space_group_name_H-M "P N M A"
_symmetry_group_IT_number 62
_symmetry_cell_setting 'orthorhombic'
loop_
_space_group_symop_operation_xyz
x,y,z
1/2-x,-y,1/2+z
1/2+x,1/2-y,1/2-z
-x,1/2+y,-z
-x,-y,-z
1/2+x,y,1/2-z
1/2-x,1/2+y,1/2+z
x,1/2-y,z
loop_
_atom_site_type_symbol
_atom_site_label
_atom_site_fract_x
_atom_site_fract_y
_atom_site_fract_z
Si Si1 0.631721 0.926523 0.226078
Si Si2 0.981447 0.425047 0.617580
Si Si3 0.968177 0.422840 0.095430
Si Si4 0.762891 0.074599 0.539182
Si Si5 0.266885 0.074885 0.075121
Si Si6 0.907477 0.424824 0.209619
O O1 0.634266 0.750000 0.234686
O O2 0.576554 0.970460 0.171441
O O3 0.541550 0.005072 0.267733
O O4 0.780694 0.990843 0.233278
O O5 0.998569 0.250000 0.612188
O O6 0.880928 0.488058 0.574889
O O7 0.126565 0.498207 0.611643
O O8 0.965025 0.250000 0.081609
O O9 0.120232 0.482686 0.091489
O O10 0.879543 0.506394 0.054333
O O11 0.909302 0.454735 0.150301
O O12 0.748663 0.250000 0.545364
O O13 0.796636 0.028290 0.482324
O O14 0.279651 0.250000 0.082907
O O15 0.900536 0.250000 0.222202
#
# Coordination Sequence:
#
# PCOD8253374 Si02
#       6
#     8   8   8   8   8   8
#     4  11  24  43  65  91 122 158 202 253 307 366
#     4  10  22  39  59  87 120 156 200 247 298 357
#     4  10  22  39  59  88 121 155 198 246 299 357
#     4  10  20  38  61  86 120 160 202 248 297 352
#     4  10  22  37  58  89 123 160 201 247 296 352
#     4  11  24  42  64  91 122 159 202 252 308 367
#
# _framework density 20.200192000000001
#
# number of rings (size 3 to 8) (size 9 to 14) (size 15 to 20)
#    0.000    1.667    1.667    2.000    2.333    4.000 
#    0.000    0.000    0.000    0.000    0.000    0.000 
#    0.000    0.000    0.000    0.000    0.000    0.000 
#
# Total GULP energy -595498.260191 kJ/mol
# GULP energy per Si atom -12406.213754 kJ/mol
# Density = 2.015422 g / cm^3
# Si number density = 20.200192 Si / 1000 Ang^3
#
#
#
# Elastic Constant Matrix: (Units=GPa)
#
#
# Indices 1 2 3 4 5 6 
#
# 1 96.8276 16.8795 -3.7343 0.0000 0.0000 0.0000
# 2 16.8795 44.9646 22.3484 0.0000 0.0000 0.0000
# 3 -3.7343 22.3484 28.9200 0.0000 0.0000 0.0000
# 4 0.0000 0.0000 0.0000 22.3347 0.0000 0.0000
# 5 0.0000 0.0000 0.0000 0.0000 42.1286 0.0000
# 6 0.0000 0.0000 0.0000 0.0000 0.0000 39.4655
#
#
#
# Elastic Compliance Matrix: (Units=1/GPa)
#
#
# Indices 1 2 3 4 5 6 
#
# 1 0.012160 -0.008678 0.008276 0.000000 0.000000 0.000000
# 2 -0.008678 0.042302 -0.033810 0.000000 0.000000 0.000000
# 3 0.008276 -0.033810 0.061774 0.000000 0.000000 0.000000
# 4 0.000000 0.000000 0.000000 0.044773 0.000000 0.000000
# 5 0.000000 0.000000 0.000000 0.000000 0.023737 0.000000
# 6 0.000000 0.000000 0.000000 0.000000 0.000000 0.025339
#
#
# Mechanical properties :
#
#
# Convention : Reuss Voigt Hill
#
# Bulk Modulus (GPa) = 20.91534 26.85551 23.88543
# Shear Modulus (GPa) = 16.98110 29.80035 23.39072
#
# Velocity S-wave (km/s) = 2.90253 3.84507 3.40655
# Velocity P-wave (km/s) = 4.64859 5.74772 5.22712
#
# Compressibility (1/GPa) = 0.04781179
#
# Stress axis : x y z
#
# Youngs Moduli (GPa) = 82.23924 23.63969 16.18804
#
# Poissons Ratio (x) = 0.20515 -0.13398
# Poissons Ratio (y) = 0.71369 0.54732
# Poissons Ratio (z) = -0.68064 0.79926
#
# Static dielectric constant tensor:
#      x y z
#    x 3.754990 0.000000 0.000000 
#    y 0.000000 3.531830 0.000000 
#    z 0.000000 0.000000 3.711630 
# 
# 
# High freq. dielectric constant tensor:
#      x y z
#    x 1.803940 0.000000 0.000000 
#    y 0.000000 1.781050 0.000000 
#    z 0.000000 0.000000 1.794540 
# 
# From -- ./inp_files/31914.got.cif
#   From: 2010.03.12/outbox.cif.g09.slc.cpg/sg62_16_cif.got.tgz:31914.got - 2010.04.10 19:12:36.
