data_PCOD8253529
_publ_section_title
;
Structure prediction by ZEFSAII (Michael W. Deem and Ramdas Pophale) SiO2 
 PCOD8253529
Probable space group: P N M A
;
_chemical_formula_sum "Si O2"
_cell_formula_units_Z 40
_cell_length_a 13.869512
_cell_length_b 14.170439
_cell_length_c 9.865172
_cell_angle_alpha 90.000000
_cell_angle_beta 90.000000
_cell_angle_gamma 90.000000
_cell_volume 1938.872037
_symmetry_space_group_name_H-M "P N M A"
_symmetry_group_IT_number 62
_symmetry_cell_setting 'orthorhombic'
loop_
_space_group_symop_operation_xyz
x,y,z
1/2-x,-y,1/2+z
1/2+x,1/2-y,1/2-z
-x,1/2+y,-z
-x,-y,-z
1/2+x,y,1/2-z
1/2-x,1/2+y,1/2+z
x,1/2-y,z
loop_
_atom_site_type_symbol
_atom_site_label
_atom_site_fract_x
_atom_site_fract_y
_atom_site_fract_z
Si Si1 0.198329 0.401651 0.214131
Si Si2 0.924126 0.250000 0.863549
Si Si3 0.899226 0.750000 0.932676
Si Si4 0.603902 0.556230 0.898157
Si Si5 0.725809 0.750000 0.608145
Si Si6 0.953103 0.250000 0.302231
Si Si7 0.569385 0.559034 0.193067
O O1 0.170993 0.340329 0.079433
O O2 0.300410 0.451226 0.190049
O O3 0.208238 0.342288 0.357137
O O4 0.114853 0.479321 0.212376
O O5 0.923043 0.341161 0.768418
O O6 0.828712 0.250000 0.961822
O O7 0.026237 0.250000 0.943175
O O8 0.955617 0.750000 0.792172
O O9 0.543420 0.653966 0.887873
O O10 0.540467 0.467709 0.845811
O O11 0.632040 0.553496 0.055976
O O12 0.646805 0.750000 0.724204
#
# Coordination Sequence:
#
# PCOD8253529 Si02
#       7
#     8   4   4   8   4   4   8
#     4  10  21  40  68  92 122 174 218 257 323 392
#     4  11  25  41  62  99 132 164 211 286 322 365
#     4  10  20  39  64  93 120 161 215 269 322 375
#     4  10  22  40  63  89 128 167 212 262 316 395
#     4   8  20  38  61  92 124 159 207 260 319 376
#     4   9  15  38  61  82 116 160 203 255 309 378
#     4  11  24  40  62  95 128 172 212 263 331 377
#
# _framework density 20.630552999999999
#
# number of rings (size 3 to 8) (size 9 to 14) (size 15 to 20)
#    0.000    2.000    2.000    1.200    2.800    2.400 
#    0.000    1.000    0.000    0.000    0.000    0.000 
#    0.000    0.000    0.000    0.000    0.000    0.000 
#
# Total GULP energy -495592.413755 kJ/mol
# GULP energy per Si atom -12389.810344 kJ/mol
# Density = 2.058360 g / cm^3
# Si number density = 20.630553 Si / 1000 Ang^3
#
#
#
# Elastic Constant Matrix: (Units=GPa)
#
#
# Indices 1 2 3 4 5 6 
#
# 1 73.6564 34.5215 31.2403 0.0000 0.0000 0.0000
# 2 34.5215 132.0160 49.9227 0.0000 0.0000 0.0000
# 3 31.2403 49.9227 87.9837 0.0000 0.0000 0.0000
# 4 0.0000 0.0000 0.0000 23.2194 0.0000 0.0000
# 5 0.0000 0.0000 0.0000 0.0000 21.3809 0.0000
# 6 0.0000 0.0000 0.0000 0.0000 0.0000 16.8874
#
#
#
# Elastic Compliance Matrix: (Units=1/GPa)
#
#
# Indices 1 2 3 4 5 6 
#
# 1 0.016710 -0.002707 -0.004397 0.000000 0.000000 0.000000
# 2 -0.002707 0.010083 -0.004760 0.000000 0.000000 0.000000
# 3 -0.004397 -0.004760 0.015628 0.000000 0.000000 0.000000
# 4 0.000000 0.000000 0.000000 0.043067 0.000000 0.000000
# 5 0.000000 0.000000 0.000000 0.000000 0.046771 0.000000
# 6 0.000000 0.000000 0.000000 0.000000 0.000000 0.059216
#
#
# Mechanical properties :
#
#
# Convention : Reuss Voigt Hill
#
# Bulk Modulus (GPa) = 53.49696 58.33613 55.91654
# Shear Modulus (GPa) = 22.58013 24.16232 23.37123
#
# Velocity S-wave (km/s) = 3.31191 3.42598 3.36943
# Velocity P-wave (km/s) = 6.37277 6.63233 6.50384
#
# Compressibility (1/GPa) = 0.01869265
#
# Stress axis : x y z
#
# Youngs Moduli (GPa) = 59.84345 99.18063 63.98788
#
# Poissons Ratio (x) = 0.26845 0.28139
# Poissons Ratio (y) = 0.16198 0.30458
# Poissons Ratio (z) = 0.26316 0.47209
#
# Static dielectric constant tensor:
#      x y z
#    x 3.873760 0.000000 0.000000 
#    y 0.000000 3.956920 0.000000 
#    z 0.000000 0.000000 3.480980 
# 
# 
# High freq. dielectric constant tensor:
#      x y z
#    x 1.814460 0.000000 0.000000 
#    y 0.000000 1.812770 0.000000 
#    z 0.000000 0.000000 1.778650 
# 
# From -- ./inp_files/6170.got.cif
#   From: 2010.03.12/outbox.cif.g09.slc.cpg/sg62_4_cif.got.tgz:6170.got - 2010.04.10 19:12:36.
