data_PCOD8253099
_publ_section_title
;
Structure prediction by ZEFSAII (Michael W. Deem and Ramdas Pophale) SiO2 
 PCOD8253099
Probable space group: P N M A
;
_chemical_formula_sum "Si O2"
_cell_formula_units_Z 48
_cell_length_a 28.841890
_cell_length_b 8.730289
_cell_length_c 10.226264
_cell_angle_alpha 90.000000
_cell_angle_beta 90.000000
_cell_angle_gamma 90.000000
_cell_volume 2574.953181
_symmetry_space_group_name_H-M "P N M A"
_symmetry_group_IT_number 62
_symmetry_cell_setting 'orthorhombic'
loop_
_space_group_symop_operation_xyz
x,y,z
1/2-x,-y,1/2+z
1/2+x,1/2-y,1/2-z
-x,1/2+y,-z
-x,-y,-z
1/2+x,y,1/2-z
1/2-x,1/2+y,1/2+z
x,1/2-y,z
loop_
_atom_site_type_symbol
_atom_site_label
_atom_site_fract_x
_atom_site_fract_y
_atom_site_fract_z
Si Si1 0.887845 0.574419 0.218708
Si Si2 0.526782 0.929771 0.121271
Si Si3 0.218344 0.430073 0.504135
Si Si4 0.614110 0.075501 0.022146
Si Si5 0.788958 0.069659 0.222614
Si Si6 0.978887 0.430851 0.129268
O O1 0.889875 0.750000 0.173187
O O2 0.900121 0.559111 0.371033
O O3 0.837079 0.510933 0.188341
O O4 0.925066 0.477662 0.137765
O O5 0.518095 0.750000 0.125646
O O6 0.581453 0.966220 0.108149
O O7 0.508370 0.003594 0.252350
O O8 0.500000 0.000000 0.000000
O O9 0.219160 0.250000 0.534286
O O10 0.166948 0.479041 0.457883
O O11 0.253389 0.478971 0.390734
O O12 0.231615 0.515475 0.638399
O O13 0.607527 0.250000 0.069341
O O14 0.796653 0.250000 0.226621
O O15 0.982910 0.250000 0.127268
O O16 0.000000 0.500000 0.000000
#
# Coordination Sequence:
#
# PCOD8253099 Si02
#       6
#     8   8   8   8   8   8
#     4  10  20  37  61  86 117 156 194 236 289 350
#     4  12  23  37  60  89 118 153 196 240 286 340
#     4   9  20  38  58  83 117 152 191 241 290 344
#     4   9  18  35  59  84 114 150 195 244 288 337
#     4  10  20  36  60  87 115 152 194 240 291 346
#     4  12  25  42  62  86 119 156 195 242 294 352
#
# _framework density 18.641114999999999
#
# number of rings (size 3 to 8) (size 9 to 14) (size 15 to 20)
#    0.000    1.667    1.667    5.000    0.000    4.000 
#    3.000    0.000    0.000    0.000    0.000    0.000 
#    0.000    0.000    0.000    0.000    0.000    0.000 
#
# Total GULP energy -595386.095923 kJ/mol
# GULP energy per Si atom -12403.876998 kJ/mol
# Density = 1.859869 g / cm^3
# Si number density = 18.641115 Si / 1000 Ang^3
#
#
#
# Elastic Constant Matrix: (Units=GPa)
#
#
# Indices 1 2 3 4 5 6 
#
# 1 121.7992 60.2081 79.3668 0.0000 0.0000 0.0000
# 2 60.2081 139.8332 66.3298 0.0000 0.0000 0.0000
# 3 79.3668 66.3298 129.2926 0.0000 0.0000 0.0000
# 4 0.0000 0.0000 0.0000 31.5056 0.0000 0.0000
# 5 0.0000 0.0000 0.0000 0.0000 35.6428 0.0000
# 6 0.0000 0.0000 0.0000 0.0000 0.0000 33.9850
#
#
#
# Elastic Compliance Matrix: (Units=1/GPa)
#
#
# Indices 1 2 3 4 5 6 
#
# 1 0.014391 -0.002651 -0.007474 0.000000 0.000000 0.000000
# 2 -0.002651 0.009940 -0.003472 0.000000 0.000000 0.000000
# 3 -0.007474 -0.003472 0.014103 0.000000 0.000000 0.000000
# 4 0.000000 0.000000 0.000000 0.031740 0.000000 0.000000
# 5 0.000000 0.000000 0.000000 0.000000 0.028056 0.000000
# 6 0.000000 0.000000 0.000000 0.000000 0.000000 0.029425
#
#
# Mechanical properties :
#
#
# Convention : Reuss Voigt Hill
#
# Bulk Modulus (GPa) = 88.96521 89.19270 89.07895
# Shear Modulus (GPa) = 31.52673 32.56137 32.04405
#
# Velocity S-wave (km/s) = 4.11694 4.18395 4.15058
# Velocity P-wave (km/s) = 8.39213 8.44344 8.41782
#
# Compressibility (1/GPa) = 0.01124035
#
# Stress axis : x y z
#
# Youngs Moduli (GPa) = 69.48889 100.60605 70.90491
#
# Poissons Ratio (x) = 0.26671 0.52993
# Poissons Ratio (y) = 0.18422 0.24618
# Poissons Ratio (z) = 0.51935 0.34930
#
# Static dielectric constant tensor:
#      x y z
#    x 3.569160 0.000000 0.000000 
#    y 0.000000 3.563700 0.000000 
#    z 0.000000 0.000000 3.266840 
# 
# 
# High freq. dielectric constant tensor:
#      x y z
#    x 1.735420 0.000000 0.000000 
#    y 0.000000 1.733420 0.000000 
#    z 0.000000 0.000000 1.709580 
# 
# From -- ./inp_files/10189.got.cif
#   From: 2010.03.12/outbox.cif.g09.slc.cpg/sg62_6_cif.got.tgz:10189.got - 2010.04.10 19:12:36.
