data_PCOD8253992
_publ_section_title
;
Structure prediction by ZEFSAII (Michael W. Deem and Ramdas Pophale) SiO2 
 PCOD8253992
Probable space group: P N M A
;
_chemical_formula_sum "Si O2"
_cell_formula_units_Z 64
_cell_length_a 15.422446
_cell_length_b 8.949267
_cell_length_c 23.547448
_cell_angle_alpha 90.000000
_cell_angle_beta 90.000000
_cell_angle_gamma 90.000000
_cell_volume 3250.009049
_symmetry_space_group_name_H-M "P N M A"
_symmetry_group_IT_number 62
_symmetry_cell_setting 'orthorhombic'
loop_
_space_group_symop_operation_xyz
x,y,z
1/2-x,-y,1/2+z
1/2+x,1/2-y,1/2-z
-x,1/2+y,-z
-x,-y,-z
1/2+x,y,1/2-z
1/2-x,1/2+y,1/2+z
x,1/2-y,z
loop_
_atom_site_type_symbol
_atom_site_label
_atom_site_fract_x
_atom_site_fract_y
_atom_site_fract_z
Si Si1 0.136071 0.075829 0.004208
Si Si2 0.995609 0.576802 0.203814
Si Si3 0.340428 0.923268 0.210477
Si Si4 0.316223 0.573478 0.005552
Si Si5 0.022467 0.576297 0.915005
Si Si6 0.834675 0.425370 0.728804
Si Si7 0.614100 0.425278 0.116548
Si Si8 0.082832 0.573279 0.604025
O O1 0.155579 0.250000 0.997106
O O2 0.099994 0.013871 0.944737
O O3 0.068109 0.042272 0.054138
O O4 0.222923 0.991293 0.022006
O O5 0.002022 0.750000 0.185779
O O6 0.914789 0.545963 0.244089
O O7 0.984756 0.474713 0.149267
O O8 0.081623 0.522622 0.236039
O O9 0.337878 0.750000 0.192539
O O10 0.249972 0.976751 0.237050
O O11 0.355064 0.021546 0.154781
O O12 0.315725 0.750000 0.014092
O O13 0.388731 0.503317 0.045800
O O14 0.339696 0.526927 0.941599
O O15 0.046387 0.750000 0.917979
O O16 0.835210 0.250000 0.718639
O O17 0.832996 0.499600 0.667200
O O18 0.617824 0.250000 0.125680
O O19 0.514772 0.480779 0.116767
O O20 0.088919 0.750000 0.596578
#
# Coordination Sequence:
#
# PCOD8253992 Si02
#       8
#     8   8   8   8   8   8   8   8
#     4  10  22  41  61  88 121 157 201 250 298 355
#     4  10  21  38  60  89 124 160 200 246 298 357
#     4  10  22  40  61  90 122 158 202 245 297 360
#     4  11  24  40  62  90 120 156 199 248 302 360
#     4  10  22  39  61  87 121 160 199 244 301 356
#     4  10  22  39  62  90 120 159 201 243 299 358
#     4  10  23  42  62  88 120 154 197 248 303 357
#     4  11  23  41  63  89 119 155 198 247 302 357
#
# _framework density 19.692252
#
# number of rings (size 3 to 8) (size 9 to 14) (size 15 to 20)
#    0.000    1.750    1.250    1.875    3.500    4.500 
#    0.000    0.000    0.000    0.000    0.000    0.000 
#    0.000    0.000    0.000    0.000    0.000    0.000 
#
# Total GULP energy -794038.770847 kJ/mol
# GULP energy per Si atom -12406.855794 kJ/mol
# Density = 1.964743 g / cm^3
# Si number density = 19.692252 Si / 1000 Ang^3
#
#
#
# Elastic Constant Matrix: (Units=GPa)
#
#
# Indices 1 2 3 4 5 6 
#
# 1 85.2039 21.6431 8.6593 0.0000 0.0000 0.0000
# 2 21.6431 60.7812 28.3114 0.0000 0.0000 0.0000
# 3 8.6593 28.3114 66.8757 0.0000 0.0000 0.0000
# 4 0.0000 0.0000 0.0000 41.8044 0.0000 0.0000
# 5 0.0000 0.0000 0.0000 0.0000 -46.7378 0.0000
# 6 0.0000 0.0000 0.0000 0.0000 0.0000 14.3070
#
#
#
# Elastic Compliance Matrix: (Units=1/GPa)
#
#
# Indices 1 2 3 4 5 6 
#
# 1 0.012910 -0.004756 0.000342 0.000000 0.000000 0.000000
# 2 -0.004756 0.022246 -0.008802 0.000000 0.000000 0.000000
# 3 0.000342 -0.008802 0.018635 0.000000 0.000000 0.000000
# 4 0.000000 0.000000 0.000000 0.023921 0.000000 0.000000
# 5 0.000000 0.000000 0.000000 0.000000 -0.021396 0.000000
# 6 0.000000 0.000000 0.000000 0.000000 0.000000 0.069896
#
#
# Mechanical properties :
#
#
# Convention : Reuss Voigt Hill
#
# Bulk Modulus (GPa) = 36.55160 36.67647 36.61403
# Shear Modulus (GPa) = 30.90936 12.15787 21.53362
#
# Velocity S-wave (km/s) = 3.96614 2.48744 3.31041
# Velocity P-wave (km/s) = 6.29090 5.18797 5.76587
#
# Compressibility (1/GPa) = 0.02735859
#
# Stress axis : x y z
#
# Youngs Moduli (GPa) = 77.45947 44.95213 53.66245
#
# Poissons Ratio (x) = 0.21380 -0.01835
# Poissons Ratio (y) = 0.36842 0.47232
# Poissons Ratio (z) = -0.02648 0.39566
#
# Static dielectric constant tensor:
#      x y z
#    x 3.755940 0.000000 0.000000 
#    y 0.000000 3.516450 0.000000 
#    z 0.000000 0.000000 3.556620 
# 
# 
# High freq. dielectric constant tensor:
#      x y z
#    x 1.778350 0.000000 0.000000 
#    y 0.000000 1.766840 0.000000 
#    z 0.000000 0.000000 1.775830 
# 
# From -- ./inp_files/29804.got.cif
#   From: 2010.03.12/outbox.cif.g09.slc.cpg/sg62_15_cif.got.tgz:29804.got - 2010.04.10 19:12:36.
