data_PCOD8253473
_publ_section_title
;
Structure prediction by ZEFSAII (Michael W. Deem and Ramdas Pophale) SiO2 
 PCOD8253473
Probable space group: P N M A
;
_chemical_formula_sum "Si O2"
_cell_formula_units_Z 48
_cell_length_a 11.951425
_cell_length_b 21.555206
_cell_length_c 9.046702
_cell_angle_alpha 90.000000
_cell_angle_beta 90.000000
_cell_angle_gamma 90.000000
_cell_volume 2330.570007
_symmetry_space_group_name_H-M "P N M A"
_symmetry_group_IT_number 62
_symmetry_cell_setting 'orthorhombic'
loop_
_space_group_symop_operation_xyz
x,y,z
1/2-x,-y,1/2+z
1/2+x,1/2-y,1/2-z
-x,1/2+y,-z
-x,-y,-z
1/2+x,y,1/2-z
1/2-x,1/2+y,1/2+z
x,1/2-y,z
loop_
_atom_site_type_symbol
_atom_site_label
_atom_site_fract_x
_atom_site_fract_y
_atom_site_fract_z
Si Si1 0.543739 0.062917 0.576190
Si Si2 0.822921 0.630938 0.578392
Si Si3 0.253268 0.089941 0.109420
Si Si4 0.097316 0.023602 0.606661
Si Si5 0.440892 0.319354 0.114848
Si Si6 0.413169 0.179953 0.457706
O O1 0.670126 0.074110 0.523113
O O2 0.540774 0.055231 0.751938
O O3 0.470841 0.124725 0.548363
O O4 0.500000 0.000000 0.500000
O O5 0.816099 0.615578 0.752049
O O6 0.820254 0.568860 0.481825
O O7 0.720956 0.674484 0.528734
O O8 0.939597 0.664863 0.544074
O O9 0.342018 0.139520 0.045764
O O10 0.324627 0.031484 0.164859
O O11 0.000000 0.000000 0.500000
O O12 0.408016 0.250000 0.073563
O O13 0.449739 0.329956 0.289597
O O14 0.447009 0.250000 0.511263
#
# Coordination Sequence:
#
# PCOD8253473 Si02
#       6
#     8   8   8   8   8   8
#     4  12  24  42  67  96 132 171 217 272 327 391
#     4  11  21  41  63  94 127 166 218 266 325 391
#     4  11  22  40  64  96 127 164 215 271 327 385
#     4  12  24  40  66  93 132 165 212 271 328 390
#     4  10  20  38  66  95 125 167 217 267 316 386
#     4  10  22  40  65  96 130 171 216 268 328 391
#
# _framework density 20.595821999999998
#
# number of rings (size 3 to 8) (size 9 to 14) (size 15 to 20)
#    0.000    1.000    3.333    5.500    0.000    2.667 
#    0.000    1.667    0.000    0.000    0.000    0.000 
#    0.000    0.000    0.000    0.000    0.000    0.000 
#
# Total GULP energy -595287.351931 kJ/mol
# GULP energy per Si atom -12401.819832 kJ/mol
# Density = 2.054894 g / cm^3
# Si number density = 20.595822 Si / 1000 Ang^3
#
#
#
# Elastic Constant Matrix: (Units=GPa)
#
#
# Indices 1 2 3 4 5 6 
#
# 1 132.4153 68.8461 39.5534 0.0000 0.0000 0.0000
# 2 68.8461 150.5073 31.2287 0.0000 0.0000 0.0000
# 3 39.5534 31.2287 71.3440 0.0000 0.0000 0.0000
# 4 0.0000 0.0000 0.0000 26.0804 0.0000 0.0000
# 5 0.0000 0.0000 0.0000 0.0000 24.3008 0.0000
# 6 0.0000 0.0000 0.0000 0.0000 0.0000 38.5315
#
#
#
# Elastic Compliance Matrix: (Units=1/GPa)
#
#
# Indices 1 2 3 4 5 6 
#
# 1 0.010979 -0.004135 -0.004277 0.000000 0.000000 0.000000
# 2 -0.004135 0.008865 -0.001588 0.000000 0.000000 0.000000
# 3 -0.004277 -0.001588 0.017083 0.000000 0.000000 0.000000
# 4 0.000000 0.000000 0.000000 0.038343 0.000000 0.000000
# 5 0.000000 0.000000 0.000000 0.000000 0.041151 0.000000
# 6 0.000000 0.000000 0.000000 0.000000 0.000000 0.025953
#
#
# Mechanical properties :
#
#
# Convention : Reuss Voigt Hill
#
# Bulk Modulus (GPa) = 59.07568 70.39142 64.73355
# Shear Modulus (GPa) = 29.75894 32.09176 30.92535
#
# Velocity S-wave (km/s) = 3.80531 3.95165 3.87917
# Velocity P-wave (km/s) = 6.93201 7.42108 7.18071
#
# Compressibility (1/GPa) = 0.01692744
#
# Stress axis : x y z
#
# Youngs Moduli (GPa) = 91.07959 112.80213 58.53784
#
# Poissons Ratio (x) = 0.46642 0.25037
# Poissons Ratio (y) = 0.37660 0.09296
# Poissons Ratio (z) = 0.38956 0.17914
#
# Static dielectric constant tensor:
#      x y z
#    x 3.806900 0.000000 0.000000 
#    y 0.000000 4.292880 0.000000 
#    z 0.000000 0.000000 3.436430 
# 
# 
# High freq. dielectric constant tensor:
#      x y z
#    x 1.819930 0.000000 0.000000 
#    y 0.000000 1.819240 0.000000 
#    z 0.000000 0.000000 1.774680 
# 
# From -- ./inp_files/5319.got.cif
#   From: 2010.03.12/outbox.cif.g09.slc.cpg/sg62_3_cif.got.tgz:5319.got - 2010.04.10 19:12:36.
