data_PCOD8253302
_publ_section_title
;
Structure prediction by ZEFSAII (Michael W. Deem and Ramdas Pophale) SiO2 
 PCOD8253302
Probable space group: P N M A
;
_chemical_formula_sum "Si O2"
_cell_formula_units_Z 40
_cell_length_a 8.861638
_cell_length_b 21.916726
_cell_length_c 10.354633
_cell_angle_alpha 90.000000
_cell_angle_beta 90.000000
_cell_angle_gamma 90.000000
_cell_volume 2011.057064
_symmetry_space_group_name_H-M "P N M A"
_symmetry_group_IT_number 62
_symmetry_cell_setting 'orthorhombic'
loop_
_space_group_symop_operation_xyz
x,y,z
1/2-x,-y,1/2+z
1/2+x,1/2-y,1/2-z
-x,1/2+y,-z
-x,-y,-z
1/2+x,y,1/2-z
1/2-x,1/2+y,1/2+z
x,1/2-y,z
loop_
_atom_site_type_symbol
_atom_site_label
_atom_site_fract_x
_atom_site_fract_y
_atom_site_fract_z
Si Si1 0.729626 0.351252 0.228157
Si Si2 0.998389 0.417301 0.102435
Si Si3 0.957337 0.441159 0.586668
Si Si4 0.117464 0.049896 0.844446
Si Si5 0.540712 0.815000 0.931116
O O1 0.634635 0.404225 0.298950
O O2 0.614480 0.309912 0.148596
O O3 0.817106 0.312444 0.335043
O O4 0.849551 0.378064 0.126892
O O5 0.961210 0.486565 0.128223
O O6 0.053831 0.404580 0.955396
O O7 0.796634 0.454557 0.648931
O O8 0.954855 0.377592 0.510045
O O9 0.000000 0.500000 0.500000
O O10 0.077704 0.429267 0.699898
O O11 0.549753 0.750000 0.010331
#
# Coordination Sequence:
#
# PCOD8253302 Si02
#       5
#     8   8   8   8   8
#     4  10  20  39  64  90 123 163 207 258 315 370
#     4  10  20  37  62  94 126 161 206 255 317 376
#     4  12  26  42  65  93 128 169 211 263 315 374
#     4  11  24  37  61  95 128 165 205 261 315 371
#     4  11  23  41  65  92 126 165 211 259 315 374
#
# _framework density 19.890038000000001
#
# number of rings (size 3 to 8) (size 9 to 14) (size 15 to 20)
#    0.000    1.200    2.000    5.400    8.400    0.000 
#    0.000    1.000    0.000    0.000    0.000    0.000 
#    0.000    0.000    0.000    0.000    0.000    0.000 
#
# Total GULP energy -495724.217816 kJ/mol
# GULP energy per Si atom -12393.105445 kJ/mol
# Density = 1.984477 g / cm^3
# Si number density = 19.890038 Si / 1000 Ang^3
#
#
#
# Elastic Constant Matrix: (Units=GPa)
#
#
# Indices 1 2 3 4 5 6 
#
# 1 144.0829 29.5788 43.6390 0.0000 0.0000 0.0000
# 2 29.5788 114.2216 32.7587 0.0000 0.0000 0.0000
# 3 43.6390 32.7587 97.8665 0.0000 0.0000 0.0000
# 4 0.0000 0.0000 0.0000-1342.7609 0.0000 0.0000
# 5 0.0000 0.0000 0.0000 0.0000 37.6214 0.0000
# 6 0.0000 0.0000 0.0000 0.0000 0.0000 -42.4286
#
#
#
# Elastic Compliance Matrix: (Units=1/GPa)
#
#
# Indices 1 2 3 4 5 6 
#
# 1 0.008166 -0.001184 -0.003245 0.000000 0.000000 0.000000
# 2 -0.001184 0.009856 -0.002771 0.000000 0.000000 0.000000
# 3 -0.003245 -0.002771 0.012593 0.000000 0.000000 0.000000
# 4 0.000000 0.000000 0.000000 -0.000745 0.000000 0.000000
# 5 0.000000 0.000000 0.000000 0.000000 0.026581 0.000000
# 6 0.000000 0.000000 0.000000 0.000000 0.000000 -0.023569
#
#
# Mechanical properties :
#
#
# Convention : Reuss Voigt Hill
#
# Bulk Modulus (GPa) = 61.67290 63.12489 62.39890
# Shear Modulus (GPa) = 94.89885 -252.83397 -78.96756
#
# Velocity S-wave (km/s) = 6.91486 -11.28680 -6.30779
# Velocity P-wave (km/s) = 9.73797 11.74947 4.64876
#
# Compressibility (1/GPa) = 0.01621458
#
# Stress axis : x y z
#
# Youngs Moduli (GPa) = 122.45329 101.45772 79.41181
#
# Poissons Ratio (x) = 0.12013 0.25770
# Poissons Ratio (y) = 0.14499 0.22007
# Poissons Ratio (z) = 0.39737 0.28116
#
# Static dielectric constant tensor:
#      x y z
#    x 3.965170 0.000000 0.000000 
#    y 0.000000 3.415280 0.000000 
#    z 0.000000 0.000000 3.941220 
# 
# 
# High freq. dielectric constant tensor:
#      x y z
#    x 1.801680 0.000000 0.000000 
#    y 0.000000 1.759350 0.000000 
#    z 0.000000 0.000000 1.765080 
# 
# From -- ./inp_files/4275.got.cif
#   From: 2010.03.12/outbox.cif.g09.slc.cpg/sg62_3_cif.got.tgz:4275.got - 2010.04.10 19:12:36.
