data_PCOD8253687
_publ_section_title
;
Structure prediction by ZEFSAII (Michael W. Deem and Ramdas Pophale) SiO2 
 PCOD8253687
Probable space group: P N M A
;
_chemical_formula_sum "Si O2"
_cell_formula_units_Z 56
_cell_length_a 9.275219
_cell_length_b 20.494087
_cell_length_c 14.479175
_cell_angle_alpha 90.000000
_cell_angle_beta 90.000000
_cell_angle_gamma 90.000000
_cell_volume 2752.305040
_symmetry_space_group_name_H-M "P N M A"
_symmetry_group_IT_number 62
_symmetry_cell_setting 'orthorhombic'
loop_
_space_group_symop_operation_xyz
x,y,z
1/2-x,-y,1/2+z
1/2+x,1/2-y,1/2-z
-x,1/2+y,-z
-x,-y,-z
1/2+x,y,1/2-z
1/2-x,1/2+y,1/2+z
x,1/2-y,z
loop_
_atom_site_type_symbol
_atom_site_label
_atom_site_fract_x
_atom_site_fract_y
_atom_site_fract_z
Si Si1 0.061629 0.177691 0.912502
Si Si2 0.395757 0.553704 0.286511
Si Si3 0.070691 0.388636 0.374113
Si Si4 0.712197 0.881898 0.964067
Si Si5 0.550364 0.423518 0.333496
Si Si6 0.597742 0.533889 0.129205
Si Si7 0.149793 0.823979 0.930889
O O1 0.069907 0.250000 0.867261
O O2 0.073055 0.122973 0.834627
O O3 0.190055 0.174073 0.989154
O O4 0.909060 0.168419 0.964635
O O5 0.482510 0.495317 0.335533
O O6 0.450243 0.557119 0.180418
O O7 0.226128 0.536956 0.293482
O O8 0.102418 0.397136 0.265598
O O9 0.077535 0.462181 0.414221
O O10 0.182581 0.342342 0.426499
O O11 0.914172 0.356316 0.396284
O O12 0.815887 0.927985 0.903500
O O13 0.633943 0.919997 0.045434
O O14 0.431461 0.371883 0.362751
O O15 0.128034 0.750000 0.896350
#
# Coordination Sequence:
#
# PCOD8253687 Si02
#       7
#     8   8   8   8   8   8   8
#     4   9  21  41  61  84 117 158 202 245 301 372
#     4  10  21  37  61  84 120 155 201 253 303 351
#     4  11  21  35  55  87 120 149 196 250 301 349
#     4  10  22  36  60  87 118 156 197 250 301 349
#     4  10  21  37  58  83 118 162 199 242 296 365
#     4  10  22  36  57  90 116 154 196 253 298 359
#     4  10  21  36  55  82 116 155 198 238 295 366
#
# _framework density 20.346582000000001
#
# number of rings (size 3 to 8) (size 9 to 14) (size 15 to 20)
#    0.000    2.000    1.429    1.286    8.000    4.000 
#    0.000    5.714    0.000    0.000    0.000    0.000 
#    0.000    0.000    0.000    0.000    0.000    0.000 
#
# Total GULP energy -694131.934725 kJ/mol
# GULP energy per Si atom -12395.213120 kJ/mol
# Density = 2.030027 g / cm^3
# Si number density = 20.346582 Si / 1000 Ang^3
#
#
#
# Elastic Constant Matrix: (Units=GPa)
#
#
# Indices 1 2 3 4 5 6 
#
# 1 95.2825 18.0369 17.5793 0.0000 0.0000 0.0000
# 2 18.0369 106.1947 19.0410 0.0000 0.0000 0.0000
# 3 17.5793 19.0410 53.1478 0.0000 0.0000 0.0000
# 4 0.0000 0.0000 0.0000 20.9967 0.0000 0.0000
# 5 0.0000 0.0000 0.0000 0.0000 32.7343 0.0000
# 6 0.0000 0.0000 0.0000 0.0000 0.0000 16.7334
#
#
#
# Elastic Compliance Matrix: (Units=1/GPa)
#
#
# Indices 1 2 3 4 5 6 
#
# 1 0.011353 -0.001341 -0.003275 0.000000 0.000000 0.000000
# 2 -0.001341 0.010222 -0.003218 0.000000 0.000000 0.000000
# 3 -0.003275 -0.003218 0.021052 0.000000 0.000000 0.000000
# 4 0.000000 0.000000 0.000000 0.047627 0.000000 0.000000
# 5 0.000000 0.000000 0.000000 0.000000 0.030549 0.000000
# 6 0.000000 0.000000 0.000000 0.000000 0.000000 0.059761
#
#
# Mechanical properties :
#
#
# Convention : Reuss Voigt Hill
#
# Bulk Modulus (GPa) = 37.09503 40.43772 38.76638
# Shear Modulus (GPa) = 24.36444 27.42406 25.89425
#
# Velocity S-wave (km/s) = 3.46420 3.67529 3.57130
# Velocity P-wave (km/s) = 5.85424 6.15856 6.00833
#
# Compressibility (1/GPa) = 0.02695779
#
# Stress axis : x y z
#
# Youngs Moduli (GPa) = 88.08120 97.83277 47.50217
#
# Poissons Ratio (x) = 0.13121 0.15556
# Poissons Ratio (y) = 0.11813 0.15288
# Poissons Ratio (z) = 0.28844 0.31487
#
# Static dielectric constant tensor:
#      x y z
#    x 3.992770 0.000000 0.000000 
#    y 0.000000 3.597150 0.000000 
#    z 0.000000 0.000000 3.537040 
# 
# 
# High freq. dielectric constant tensor:
#      x y z
#    x 1.807580 0.000000 0.000000 
#    y 0.000000 1.780550 0.000000 
#    z 0.000000 0.000000 1.782390 
# 
# From -- ./inp_files/17210.got.cif
#   From: 2010.03.12/outbox.cif.g09.slc.cpg/sg62_9_cif.got.tgz:17210.got - 2010.04.10 19:12:36.
