data_PCOD8253902
_publ_section_title
;
Structure prediction by ZEFSAII (Michael W. Deem and Ramdas Pophale) SiO2 
 PCOD8253902
Probable space group: P N M A
;
_chemical_formula_sum "Si O2"
_cell_formula_units_Z 40
_cell_length_a 10.282627
_cell_length_b 8.675967
_cell_length_c 20.422541
_cell_angle_alpha 90.000000
_cell_angle_beta 90.000000
_cell_angle_gamma 90.000000
_cell_volume 1821.930265
_symmetry_space_group_name_H-M "P N M A"
_symmetry_group_IT_number 62
_symmetry_cell_setting 'orthorhombic'
loop_
_space_group_symop_operation_xyz
x,y,z
1/2-x,-y,1/2+z
1/2+x,1/2-y,1/2-z
-x,1/2+y,-z
-x,-y,-z
1/2+x,y,1/2-z
1/2-x,1/2+y,1/2+z
x,1/2-y,z
loop_
_atom_site_type_symbol
_atom_site_label
_atom_site_fract_x
_atom_site_fract_y
_atom_site_fract_z
Si Si1 0.904998 0.427561 0.092650
Si Si2 0.934305 0.072005 0.436756
Si Si3 0.164463 0.571405 0.054765
Si Si4 0.699920 0.429049 0.719097
Si Si5 0.032946 0.073353 0.296301
O O1 0.890917 0.250000 0.113408
O O2 0.829051 0.532835 0.143709
O O3 0.056534 0.472059 0.092214
O O4 0.840833 0.460405 0.022634
O O5 0.902261 0.250000 0.450755
O O6 0.029864 0.053602 0.374933
O O7 0.803238 0.981421 0.418881
O O8 0.000000 0.000000 0.500000
O O9 0.140906 0.750000 0.070878
O O10 0.682783 0.250000 0.733088
O O11 0.603119 0.520305 0.766149
O O12 0.848564 0.476222 0.734237
O O13 0.055843 0.250000 0.277133
#
# Coordination Sequence:
#
# PCOD8253902 Si02
#       5
#     8   8   8   8   8
#     4  10  21  39  63  92 130 173 214 262 326 393
#     4  11  24  41  65  94 128 170 216 269 331 393
#     4  10  21  37  62  95 129 168 216 268 322 385
#     4  12  26  44  68  98 131 170 220 278 329 386
#     4  11  26  47  69  95 132 179 222 266 331 402
#
# _framework density 21.954737999999999
#
# number of rings (size 3 to 8) (size 9 to 14) (size 15 to 20)
#    0.000    1.200    0.000    5.400    2.800   10.400 
#    0.000    0.000    0.000    0.000    0.000    0.000 
#    0.000    0.000    0.000    0.000    0.000    0.000 
#
# Total GULP energy -496308.436981 kJ/mol
# GULP energy per Si atom -12407.710925 kJ/mol
# Density = 2.190477 g / cm^3
# Si number density = 21.954738 Si / 1000 Ang^3
#
#
#
# Elastic Constant Matrix: (Units=GPa)
#
#
# Indices 1 2 3 4 5 6 
#
# 1 106.9211 13.3742 18.4627 0.0000 0.0000 0.0000
# 2 13.3742 79.6526 24.5886 0.0000 0.0000 0.0000
# 3 18.4627 24.5886 58.7547 0.0000 0.0000 0.0000
# 4 0.0000 0.0000 0.0000 34.8692 0.0000 0.0000
# 5 0.0000 0.0000 0.0000 0.0000 31.3535 0.0000
# 6 0.0000 0.0000 0.0000 0.0000 0.0000 43.0323
#
#
#
# Elastic Compliance Matrix: (Units=1/GPa)
#
#
# Indices 1 2 3 4 5 6 
#
# 1 0.009934 -0.000809 -0.002783 0.000000 0.000000 0.000000
# 2 -0.000809 0.014483 -0.005807 0.000000 0.000000 0.000000
# 3 -0.002783 -0.005807 0.020325 0.000000 0.000000 0.000000
# 4 0.000000 0.000000 0.000000 0.028679 0.000000 0.000000
# 5 0.000000 0.000000 0.000000 0.000000 0.031894 0.000000
# 6 0.000000 0.000000 0.000000 0.000000 0.000000 0.023238
#
#
# Mechanical properties :
#
#
# Convention : Reuss Voigt Hill
#
# Bulk Modulus (GPa) = 38.54446 39.79772 39.17109
# Shear Modulus (GPa) = 32.05145 34.44454 33.24799
#
# Velocity S-wave (km/s) = 3.82499 3.96522 3.89574
# Velocity P-wave (km/s) = 6.09113 6.25543 6.17383
#
# Compressibility (1/GPa) = 0.02594407
#
# Stress axis : x y z
#
# Youngs Moduli (GPa) = 100.65970 69.04701 49.20141
#
# Poissons Ratio (x) = 0.05585 0.13694
# Poissons Ratio (y) = 0.08142 0.28570
# Poissons Ratio (z) = 0.28016 0.40094
#
# Static dielectric constant tensor:
#      x y z
#    x 3.667630 0.000000 0.000000 
#    y 0.000000 4.040170 0.000000 
#    z 0.000000 0.000000 4.354470 
# 
# 
# High freq. dielectric constant tensor:
#      x y z
#    x 1.873680 0.000000 0.000000 
#    y 0.000000 1.872180 0.000000 
#    z 0.000000 0.000000 1.864480 
# 
# From -- ./inp_files/26462.got.cif
#   From: 2010.03.12/outbox.cif.g09.slc.cpg/sg62_14_cif.got.tgz:26462.got - 2010.04.10 19:12:36.
