data_PCOD8253355
_publ_section_title
;
Structure prediction by ZEFSAII (Michael W. Deem and Ramdas Pophale) SiO2 
 PCOD8253355
Probable space group: P N M A
;
_chemical_formula_sum "Si O2"
_cell_formula_units_Z 48
_cell_length_a 15.083795
_cell_length_b 20.136227
_cell_length_c 8.407997
_cell_angle_alpha 90.000000
_cell_angle_beta 90.000000
_cell_angle_gamma 90.000000
_cell_volume 2553.766984
_symmetry_space_group_name_H-M "P N M A"
_symmetry_group_IT_number 62
_symmetry_cell_setting 'orthorhombic'
loop_
_space_group_symop_operation_xyz
x,y,z
1/2-x,-y,1/2+z
1/2+x,1/2-y,1/2-z
-x,1/2+y,-z
-x,-y,-z
1/2+x,y,1/2-z
1/2-x,1/2+y,1/2+z
x,1/2-y,z
loop_
_atom_site_type_symbol
_atom_site_label
_atom_site_fract_x
_atom_site_fract_y
_atom_site_fract_z
Si Si1 0.326895 0.562824 0.165799
Si Si2 0.679567 0.173866 0.085732
Si Si3 0.237699 0.942302 0.479152
Si Si4 0.521058 0.173691 0.320662
Si Si5 0.167842 0.674190 0.676365
Si Si6 0.934197 0.940941 0.039067
O O1 0.323900 0.501761 0.042679
O O2 0.242473 0.557881 0.286370
O O3 0.418012 0.561205 0.269564
O O4 0.325165 0.631779 0.073936
O O5 0.671624 0.250000 0.032940
O O6 0.601503 0.154649 0.205856
O O7 0.773002 0.158591 0.169361
O O8 0.196295 0.872302 0.531238
O O9 0.338312 0.951494 0.546009
O O10 0.526041 0.250000 0.377711
O O11 0.432584 0.159122 0.222371
O O12 0.524029 0.128188 0.477809
O O13 0.181814 0.750000 0.619937
O O14 0.000000 0.000000 0.000000
#
# Coordination Sequence:
#
# PCOD8253355 Si02
#       6
#     8   8   8   8   8   8
#     4  10  22  36  57  83 115 154 187 241 290 338
#     4  10  20  38  60  86 117 149 193 240 292 347
#     4  10  21  37  57  82 117 150 194 238 283 349
#     4  10  21  38  62  86 114 152 194 241 291 352
#     4  10  20  38  63  87 113 152 194 238 291 349
#     4  10  22  37  58  85 115 154 193 240 286 348
#
# _framework density 18.795763000000001
#
# number of rings (size 3 to 8) (size 9 to 14) (size 15 to 20)
#    1.000    1.000    1.667    2.000    2.333    1.333 
#    3.000    1.667    0.000    6.000    0.000    0.000 
#    0.000    0.000    0.000    0.000    0.000    0.000 
#
# Total GULP energy -595034.712935 kJ/mol
# GULP energy per Si atom -12396.556519 kJ/mol
# Density = 1.875298 g / cm^3
# Si number density = 18.795763 Si / 1000 Ang^3
#
#
#
# Elastic Constant Matrix: (Units=GPa)
#
#
# Indices 1 2 3 4 5 6 
#
# 1 63.2292 33.0008 12.3706 0.0000 0.0000 0.0000
# 2 33.0008 116.9440 56.8525 0.0000 0.0000 0.0000
# 3 12.3706 56.8525 72.9862 0.0000 0.0000 0.0000
# 4 0.0000 0.0000 0.0000 43.3163 0.0000 0.0000
# 5 0.0000 0.0000 0.0000 0.0000 17.9497 0.0000
# 6 0.0000 0.0000 0.0000 0.0000 0.0000 28.6356
#
#
#
# Elastic Compliance Matrix: (Units=1/GPa)
#
#
# Indices 1 2 3 4 5 6 
#
# 1 0.018650 -0.005997 0.001511 0.000000 0.000000 0.000000
# 2 -0.005997 0.015691 -0.011206 0.000000 0.000000 0.000000
# 3 0.001511 -0.011206 0.022174 0.000000 0.000000 0.000000
# 4 0.000000 0.000000 0.000000 0.023086 0.000000 0.000000
# 5 0.000000 0.000000 0.000000 0.000000 0.055711 0.000000
# 6 0.000000 0.000000 0.000000 0.000000 0.000000 0.034922
#
#
# Mechanical properties :
#
#
# Convention : Reuss Voigt Hill
#
# Bulk Modulus (GPa) = 39.79352 50.84524 45.31938
# Shear Modulus (GPa) = 23.80981 28.04270 25.92625
#
# Velocity S-wave (km/s) = 3.56303 3.86679 3.71801
# Velocity P-wave (km/s) = 6.17611 6.85903 6.52651
#
# Compressibility (1/GPa) = 0.02512972
#
# Stress axis : x y z
#
# Youngs Moduli (GPa) = 53.61910 63.72880 45.09703
#
# Poissons Ratio (x) = 0.38220 -0.06812
# Poissons Ratio (y) = 0.32157 0.50537
# Poissons Ratio (z) = -0.08099 0.71417
#
# Static dielectric constant tensor:
#      x y z
#    x 3.466740 0.000000 0.000000 
#    y 0.000000 3.490930 0.000000 
#    z 0.000000 0.000000 3.180310 
# 
# 
# High freq. dielectric constant tensor:
#      x y z
#    x 1.726920 0.000000 0.000000 
#    y 0.000000 1.740810 0.000000 
#    z 0.000000 0.000000 1.709240 
# 
# From -- ./inp_files/6637.got.cif
#   From: 2010.03.12/outbox.cif.g09.slc.cpg/sg62_4_cif.got.tgz:6637.got - 2010.04.10 19:12:36.
