data_PCOD8253070
_publ_section_title
;
Structure prediction by ZEFSAII (Michael W. Deem and Ramdas Pophale) SiO2 
 PCOD8253070
Probable space group: P N M A
;
_chemical_formula_sum "Si O2"
_cell_formula_units_Z 48
_cell_length_a 9.926482
_cell_length_b 9.167916
_cell_length_c 27.685323
_cell_angle_alpha 90.000000
_cell_angle_beta 90.000000
_cell_angle_gamma 90.000000
_cell_volume 2519.507060
_symmetry_space_group_name_H-M "P N M A"
_symmetry_group_IT_number 62
_symmetry_cell_setting 'orthorhombic'
loop_
_space_group_symop_operation_xyz
x,y,z
1/2-x,-y,1/2+z
1/2+x,1/2-y,1/2-z
-x,1/2+y,-z
-x,-y,-z
1/2+x,y,1/2-z
1/2-x,1/2+y,1/2+z
x,1/2-y,z
loop_
_atom_site_type_symbol
_atom_site_label
_atom_site_fract_x
_atom_site_fract_y
_atom_site_fract_z
Si Si1 0.743610 0.079387 0.540826
Si Si2 0.767883 0.418443 0.431049
Si Si3 0.531262 0.919054 0.603422
Si Si4 0.597023 0.580684 0.708551
Si Si5 0.596145 0.079427 0.208566
Si Si6 0.516997 0.578343 0.111493
O O1 0.713109 0.250000 0.543006
O O2 0.762690 0.026231 0.486071
O O3 0.878101 0.036784 0.569561
O O4 0.614071 0.000007 0.562209
O O5 0.812710 0.250000 0.428780
O O6 0.625619 0.442691 0.405552
O O7 0.872445 0.514884 0.401631
O O8 0.572324 0.750000 0.600966
O O9 0.567883 0.987926 0.655802
O O10 0.561709 0.750000 0.704575
O O11 0.498762 0.514048 0.749262
O O12 0.750116 0.553095 0.724749
O O13 0.567563 0.250000 0.198702
O O14 0.569364 0.991433 0.160401
O O15 0.504432 0.750000 0.118632
#
# Coordination Sequence:
#
# PCOD8253070 Si02
#       6
#     8   8   8   8   8   8
#     4  10  21  38  57  82 116 154 191 233 288 342
#     4  10  22  37  58  85 115 152 194 238 281 335
#     4  10  20  36  59  87 113 144 190 237 286 340
#     4   9  19  34  58  87 109 139 183 232 281 333
#     4  10  20  37  60  83 111 144 185 234 284 334
#     4  11  23  38  56  82 117 152 192 234 282 341
#
# _framework density 19.051347
#
# number of rings (size 3 to 8) (size 9 to 14) (size 15 to 20)
#    0.000    2.000    1.667    1.500    2.333    2.000 
#    0.000    1.667    0.000    0.000    0.000    0.000 
#    0.000    0.000    0.000    0.000    0.000    0.000 
#
# Total GULP energy -595380.463477 kJ/mol
# GULP energy per Si atom -12403.759656 kJ/mol
# Density = 1.900799 g / cm^3
# Si number density = 19.051347 Si / 1000 Ang^3
#
#
#
# Elastic Constant Matrix: (Units=GPa)
#
#
# Indices 1 2 3 4 5 6 
#
# 1 97.4851 34.4181 39.2049 0.0000 0.0000 0.0000
# 2 34.4181 43.0378 25.8288 0.0000 0.0000 0.0000
# 3 39.2049 25.8288 73.2216 0.0000 0.0000 0.0000
# 4 0.0000 0.0000 0.0000 28.6057 0.0000 0.0000
# 5 0.0000 0.0000 0.0000 0.0000 41.6947 0.0000
# 6 0.0000 0.0000 0.0000 0.0000 0.0000 6.1191
#
#
#
# Elastic Compliance Matrix: (Units=1/GPa)
#
#
# Indices 1 2 3 4 5 6 
#
# 1 0.015625 -0.009482 -0.005021 0.000000 0.000000 0.000000
# 2 -0.009482 0.035230 -0.007350 0.000000 0.000000 0.000000
# 3 -0.005021 -0.007350 0.018938 0.000000 0.000000 0.000000
# 4 0.000000 0.000000 0.000000 0.034958 0.000000 0.000000
# 5 0.000000 0.000000 0.000000 0.000000 0.023984 0.000000
# 6 0.000000 0.000000 0.000000 0.000000 0.000000 0.163422
#
#
# Mechanical properties :
#
#
# Convention : Reuss Voigt Hill
#
# Bulk Modulus (GPa) = 38.33487 45.84978 42.09233
# Shear Modulus (GPa) = 14.51126 22.90342 18.70734
#
# Velocity S-wave (km/s) = 2.76287 3.47103 3.13700
# Velocity P-wave (km/s) = 5.50849 6.33898 5.93828
#
# Compressibility (1/GPa) = 0.02608591
#
# Stress axis : x y z
#
# Youngs Moduli (GPa) = 63.99931 28.38519 52.80258
#
# Poissons Ratio (x) = 0.26916 0.26514
# Poissons Ratio (y) = 0.60686 0.38811
# Poissons Ratio (z) = 0.32136 0.20863
#
# Static dielectric constant tensor:
#      x y z
#    x 3.543410 0.000000 0.000000 
#    y 0.000000 3.262540 0.000000 
#    z 0.000000 0.000000 3.740220 
# 
# 
# High freq. dielectric constant tensor:
#      x y z
#    x 1.753890 0.000000 0.000000 
#    y 0.000000 1.712900 0.000000 
#    z 0.000000 0.000000 1.754290 
# 
# From -- ./inp_files/31987.got.cif
#   From: 2010.03.12/outbox.cif.g09.slc.cpg/sg62_16_cif.got.tgz:31987.got - 2010.04.10 19:12:36.
