data_PCOD8253799
_publ_section_title
;
Structure prediction by ZEFSAII (Michael W. Deem and Ramdas Pophale) SiO2 
 PCOD8253799
Probable space group: P N M A
;
_chemical_formula_sum "Si O2"
_cell_formula_units_Z 64
_cell_length_a 25.761481
_cell_length_b 9.081933
_cell_length_c 14.529588
_cell_angle_alpha 90.000000
_cell_angle_beta 90.000000
_cell_angle_gamma 90.000000
_cell_volume 3399.401172
_symmetry_space_group_name_H-M "P N M A"
_symmetry_group_IT_number 62
_symmetry_cell_setting 'orthorhombic'
loop_
_space_group_symop_operation_xyz
x,y,z
1/2-x,-y,1/2+z
1/2+x,1/2-y,1/2-z
-x,1/2+y,-z
-x,-y,-z
1/2+x,y,1/2-z
1/2-x,1/2+y,1/2+z
x,1/2-y,z
loop_
_atom_site_type_symbol
_atom_site_label
_atom_site_fract_x
_atom_site_fract_y
_atom_site_fract_z
Si Si1 0.670418 0.920714 0.019607
Si Si2 0.446771 0.420124 0.481440
Si Si3 0.999338 0.422090 0.402599
Si Si4 0.388235 0.420584 0.168090
Si Si5 0.872008 0.578345 0.149841
Si Si6 0.862175 0.419686 0.864309
Si Si7 0.710573 0.420111 0.497264
Si Si8 0.108600 0.076459 0.322491
O O1 0.663167 0.750000 0.046791
O O2 0.644880 0.022612 0.095658
O O3 0.643622 0.956143 0.923251
O O4 0.730381 0.965255 0.013764
O O5 0.500000 0.500000 0.500000
O O6 0.456848 0.250000 0.459059
O O7 0.420826 0.493065 0.392592
O O8 0.411433 0.442485 0.570537
O O9 0.999268 0.250000 0.424089
O O10 0.049139 0.469465 0.342762
O O11 0.000000 0.500000 0.500000
O O12 0.948149 0.467281 0.346017
O O13 0.383449 0.250000 0.195468
O O14 0.362748 0.518476 0.247839
O O15 0.885310 0.750000 0.152199
O O16 0.820402 0.545637 0.091078
O O17 0.851496 0.250000 0.842504
O O18 0.811197 0.484997 0.912785
O O19 0.872871 0.502949 0.770632
O O20 0.705097 0.250000 0.469291
O O21 0.114354 0.250000 0.312362
#
# Coordination Sequence:
#
# PCOD8253799 Si02
#       8
#     8   8   8   8   8   8   8   8
#     4  10  21  39  62  85 114 153 195 240 290 340
#     4  10  21  37  57  83 113 148 191 235 284 340
#     4  10  21  37  57  82 113 151 189 236 289 338
#     4  10  21  37  57  84 115 150 191 235 287 342
#     4  10  21  37  57  83 115 150 189 235 285 339
#     4  10  22  39  59  84 114 151 192 235 286 342
#     4   9  20  40  62  85 115 150 190 240 292 336
#     4  11  23  37  57  87 119 153 193 235 286 342
#
# _framework density 18.826846
#
# number of rings (size 3 to 8) (size 9 to 14) (size 15 to 20)
#    0.000    2.000    1.250    1.500    1.750    5.000 
#    0.000    2.500    0.000    0.000    0.000    0.000 
#    0.000    0.000    0.000    0.000    0.000    0.000 
#
# Total GULP energy -793909.171587 kJ/mol
# GULP energy per Si atom -12404.830806 kJ/mol
# Density = 1.878399 g / cm^3
# Si number density = 18.826846 Si / 1000 Ang^3
#
#
#
# Elastic Constant Matrix: (Units=GPa)
#
#
# Indices 1 2 3 4 5 6 
#
# 1 133.5978 57.2122 56.3632 0.0000 0.0000 0.0000
# 2 57.2122 96.1629 64.5003 0.0000 0.0000 0.0000
# 3 56.3632 64.5003 126.4618 0.0000 0.0000 0.0000
# 4 0.0000 0.0000 0.0000 41.4838 0.0000 0.0000
# 5 0.0000 0.0000 0.0000 0.0000 25.2065 0.0000
# 6 0.0000 0.0000 0.0000 0.0000 0.0000 28.5363
#
#
#
# Elastic Compliance Matrix: (Units=1/GPa)
#
#
# Indices 1 2 3 4 5 6 
#
# 1 0.010453 -0.004703 -0.002260 0.000000 0.000000 0.000000
# 2 -0.004703 0.017922 -0.007045 0.000000 0.000000 0.000000
# 3 -0.002260 -0.007045 0.012508 0.000000 0.000000 0.000000
# 4 0.000000 0.000000 0.000000 0.024106 0.000000 0.000000
# 5 0.000000 0.000000 0.000000 0.000000 0.039672 0.000000
# 6 0.000000 0.000000 0.000000 0.000000 0.000000 0.035043
#
#
# Mechanical properties :
#
#
# Convention : Reuss Voigt Hill
#
# Bulk Modulus (GPa) = 77.71739 79.15265 78.43502
# Shear Modulus (GPa) = 29.06823 30.92180 29.99501
#
# Velocity S-wave (km/s) = 3.93361 4.05709 3.99583
# Velocity P-wave (km/s) = 7.87406 8.00502 7.93981
#
# Compressibility (1/GPa) = 0.01286713
#
# Stress axis : x y z
#
# Youngs Moduli (GPa) = 95.66997 55.79606 79.94864
#
# Poissons Ratio (x) = 0.26240 0.18068
# Poissons Ratio (y) = 0.44993 0.56324
# Poissons Ratio (z) = 0.21621 0.39309
#
# Static dielectric constant tensor:
#      x y z
#    x 3.735880 0.000000 0.000000 
#    y 0.000000 3.512940 0.000000 
#    z 0.000000 0.000000 3.740790 
# 
# 
# High freq. dielectric constant tensor:
#      x y z
#    x 1.737100 0.000000 0.000000 
#    y 0.000000 1.736320 0.000000 
#    z 0.000000 0.000000 1.736060 
# 
# From -- ./inp_files/20935.got.cif
#   From: 2010.03.12/outbox.cif.g09.slc.cpg/sg62_11_cif.got.tgz:20935.got - 2010.04.10 19:12:36.
