data_PCOD8253567
_publ_section_title
;
Structure prediction by ZEFSAII (Michael W. Deem and Ramdas Pophale) SiO2 
 PCOD8253567
Probable space group: P N M A
;
_chemical_formula_sum "Si O2"
_cell_formula_units_Z 56
_cell_length_a 8.599077
_cell_length_b 19.615832
_cell_length_c 15.066940
_cell_angle_alpha 90.000000
_cell_angle_beta 90.000000
_cell_angle_gamma 90.000000
_cell_volume 2541.462055
_symmetry_space_group_name_H-M "P N M A"
_symmetry_group_IT_number 62
_symmetry_cell_setting 'orthorhombic'
loop_
_space_group_symop_operation_xyz
x,y,z
1/2-x,-y,1/2+z
1/2+x,1/2-y,1/2-z
-x,1/2+y,-z
-x,-y,-z
1/2+x,y,1/2-z
1/2-x,1/2+y,1/2+z
x,1/2-y,z
loop_
_atom_site_type_symbol
_atom_site_label
_atom_site_fract_x
_atom_site_fract_y
_atom_site_fract_z
Si Si1 0.521370 0.750000 0.615937
Si Si2 0.624790 0.329354 0.818468
Si Si3 0.333849 0.546792 0.684528
Si Si4 0.943290 0.398567 0.832582
Si Si5 0.054873 0.670384 0.493503
Si Si6 0.294472 0.250000 0.222018
Si Si7 0.528638 0.886126 0.829283
Si Si8 0.593940 0.374321 0.485107
O O1 0.384995 0.750000 0.691405
O O2 0.684958 0.750000 0.670459
O O3 0.516529 0.815095 0.552658
O O4 0.605484 0.250000 0.798330
O O5 0.803463 0.344980 0.839148
O O6 0.575311 0.370568 0.731884
O O7 0.517406 0.352541 0.900323
O O8 0.383501 0.470335 0.705802
O O9 0.146867 0.550490 0.683011
O O10 0.388983 0.600350 0.761204
O O11 0.399659 0.567311 0.588917
O O12 0.018009 0.408070 0.929002
O O13 0.022551 0.750000 0.511410
O O14 0.971489 0.622731 0.568786
O O15 0.238826 0.657009 0.491585
O O16 0.375346 0.316924 0.184080
#
# Coordination Sequence:
#
# PCOD8253567 Si02
#       8
#     4   8   8   8   8   4   8   8
#     4  12  22  38  66 103 135 176 210 263 325 373
#     4  11  26  45  68  94 117 165 221 282 333 368
#     4  11  24  41  62  93 132 178 209 251 328 393
#     4  12  26  46  64  90 129 166 220 275 318 393
#     4  10  20  40  65  96 129 161 207 266 328 375
#     4  12  18  40  62  97 137 166 212 255 309 367
#     4  11  20  38  64  95 132 172 207 256 314 387
#     4  11  22  40  66  95 131 170 212 260 323 381
#
# _framework density 22.034559999999999
#
# number of rings (size 3 to 8) (size 9 to 14) (size 15 to 20)
#    0.000    0.857    5.714    2.571    2.000    2.286 
#    2.571    7.857    0.000    0.000    0.000    0.000 
#    0.000    0.000    0.000    0.000    0.000    0.000 
#
# Total GULP energy -694544.001330 kJ/mol
# GULP energy per Si atom -12402.571452 kJ/mol
# Density = 2.198441 g / cm^3
# Si number density = 22.034560 Si / 1000 Ang^3
#
#
#
# Elastic Constant Matrix: (Units=GPa)
#
#
# Indices 1 2 3 4 5 6 
#
# 1 39.3353 8.8284 26.6074 0.0000 0.0000 0.0000
# 2 8.8284 60.7496 27.4496 0.0000 0.0000 0.0000
# 3 26.6074 27.4496 104.5321 0.0000 0.0000 0.0000
# 4 0.0000 0.0000 0.0000 27.7354 0.0000 0.0000
# 5 0.0000 0.0000 0.0000 0.0000 35.5532 0.0000
# 6 0.0000 0.0000 0.0000 0.0000 0.0000 27.7697
#
#
#
# Elastic Compliance Matrix: (Units=1/GPa)
#
#
# Indices 1 2 3 4 5 6 
#
# 1 0.030770 -0.001058 -0.007554 0.000000 0.000000 0.000000
# 2 -0.001058 0.018713 -0.004645 0.000000 0.000000 0.000000
# 3 -0.007554 -0.004645 0.012709 0.000000 0.000000 0.000000
# 4 0.000000 0.000000 0.000000 0.036055 0.000000 0.000000
# 5 0.000000 0.000000 0.000000 0.000000 0.028127 0.000000
# 6 0.000000 0.000000 0.000000 0.000000 0.000000 0.036010
#
#
# Mechanical properties :
#
#
# Convention : Reuss Voigt Hill
#
# Bulk Modulus (GPa) = 28.02849 36.70974 32.36912
# Shear Modulus (GPa) = 24.90145 27.66045 26.28095
#
# Velocity S-wave (km/s) = 3.36536 3.54689 3.45732
# Velocity P-wave (km/s) = 5.27719 5.78534 5.53710
#
# Compressibility (1/GPa) = 0.03567798
#
# Stress axis : x y z
#
# Youngs Moduli (GPa) = 32.49937 53.43740 78.68474
#
# Poissons Ratio (x) = 0.05655 0.59440
# Poissons Ratio (y) = 0.03439 0.36547
# Poissons Ratio (z) = 0.24551 0.24820
#
# Static dielectric constant tensor:
#      x y z
#    x 3.863570 0.000000 0.000000 
#    y 0.000000 3.806140 0.000000 
#    z 0.000000 0.000000 4.207540 
# 
# 
# High freq. dielectric constant tensor:
#      x y z
#    x 1.856560 0.000000 0.000000 
#    y 0.000000 1.862850 0.000000 
#    z 0.000000 0.000000 1.877590 
# 
# From -- ./inp_files/17244.got.cif
#   From: 2010.03.12/outbox.cif.g09.slc.cpg/sg62_9_cif.got.tgz:17244.got - 2010.04.10 19:12:36.
