data_PCOD8253377
_publ_section_title
;
Structure prediction by ZEFSAII (Michael W. Deem and Ramdas Pophale) SiO2 
 PCOD8253377
Probable space group: P N M A
;
_chemical_formula_sum "Si O2"
_cell_formula_units_Z 64
_cell_length_a 30.630225
_cell_length_b 9.013944
_cell_length_c 11.897165
_cell_angle_alpha 90.000000
_cell_angle_beta 90.000000
_cell_angle_gamma 90.000000
_cell_volume 3284.796940
_symmetry_space_group_name_H-M "P N M A"
_symmetry_group_IT_number 62
_symmetry_cell_setting 'orthorhombic'
loop_
_space_group_symop_operation_xyz
x,y,z
1/2-x,-y,1/2+z
1/2+x,1/2-y,1/2-z
-x,1/2+y,-z
-x,-y,-z
1/2+x,y,1/2-z
1/2-x,1/2+y,1/2+z
x,1/2-y,z
loop_
_atom_site_type_symbol
_atom_site_label
_atom_site_fract_x
_atom_site_fract_y
_atom_site_fract_z
Si Si1 0.165784 0.574800 0.998328
Si Si2 0.039295 0.419086 0.771117
Si Si3 0.293842 0.574924 0.291440
Si Si4 0.547130 0.423456 0.247127
Si Si5 0.873959 0.577008 0.364411
Si Si6 0.077108 0.080194 0.004646
Si Si7 0.378648 0.073893 0.897543
Si Si8 0.197537 0.574298 0.237096
O O1 0.169743 0.750000 0.990982
O O2 0.198053 0.504032 0.908876
O O3 0.116600 0.527295 0.974288
O O4 0.179512 0.511727 0.119800
O O5 0.026904 0.250000 0.742559
O O6 0.085354 0.461492 0.715355
O O7 0.041828 0.441864 0.905827
O O8 0.001953 0.523990 0.720085
O O9 0.294719 0.750000 0.311427
O O10 0.329815 0.529060 0.199390
O O11 0.246637 0.515751 0.252619
O O12 0.551056 0.250000 0.223156
O O13 0.556737 0.464965 0.376327
O O14 0.579762 0.507821 0.165526
O O15 0.872961 0.750000 0.396353
O O16 0.877577 0.480651 0.475630
O O17 0.093984 0.250000 0.005705
O O18 0.382706 0.250000 0.894609
O O19 0.334383 0.018313 0.836259
O O20 0.197519 0.750000 0.234037
#
# Coordination Sequence:
#
# PCOD8253377 Si02
#       8
#     8   8   8   8   8   8   8   8
#     4  11  21  36  61  92 122 152 196 245 292 345
#     4  10  21  39  61  86 118 155 194 238 298 353
#     4  10  21  41  63  85 121 161 196 241 297 351
#     4  11  23  38  61  91 118 151 198 243 291 352
#     4  10  22  40  62  85 115 157 199 241 290 349
#     4  10  20  38  61  88 121 157 193 234 293 356
#     4  11  23  41  61  84 119 158 196 244 297 347
#     4   9  21  39  60  87 120 158 194 239 297 347
#
# _framework density 19.483699999999999
#
# number of rings (size 3 to 8) (size 9 to 14) (size 15 to 20)
#    0.000    1.750    2.500    1.500    1.750    2.500 
#    0.000    1.875    0.000    0.000    0.000    0.000 
#    0.000    0.000    0.000    0.000    0.000    0.000 
#
# Total GULP energy -793809.984465 kJ/mol
# GULP energy per Si atom -12403.281007 kJ/mol
# Density = 1.943935 g / cm^3
# Si number density = 19.483700 Si / 1000 Ang^3
#
#
#
# Elastic Constant Matrix: (Units=GPa)
#
#
# Indices 1 2 3 4 5 6 
#
# 1 116.8207 30.6636 31.0369 0.0000 0.0000 0.0000
# 2 30.6636 53.7632 37.5692 0.0000 0.0000 0.0000
# 3 31.0369 37.5692 107.9659 0.0000 0.0000 0.0000
# 4 0.0000 0.0000 0.0000 33.2676 0.0000 0.0000
# 5 0.0000 0.0000 0.0000 0.0000 24.0108 0.0000
# 6 0.0000 0.0000 0.0000 0.0000 0.0000 21.2238
#
#
#
# Elastic Compliance Matrix: (Units=1/GPa)
#
#
# Indices 1 2 3 4 5 6 
#
# 1 0.010183 -0.004971 -0.001198 0.000000 0.000000 0.000000
# 2 -0.004971 0.027003 -0.007967 0.000000 0.000000 0.000000
# 3 -0.001198 -0.007967 0.012379 0.000000 0.000000 0.000000
# 4 0.000000 0.000000 0.000000 0.030059 0.000000 0.000000
# 5 0.000000 0.000000 0.000000 0.000000 0.041648 0.000000
# 6 0.000000 0.000000 0.000000 0.000000 0.000000 0.047117
#
#
# Mechanical properties :
#
#
# Convention : Reuss Voigt Hill
#
# Bulk Modulus (GPa) = 46.96369 53.00990 49.98680
# Shear Modulus (GPa) = 24.53894 27.65246 26.09570
#
# Velocity S-wave (km/s) = 3.55274 3.77140 3.66370
# Velocity P-wave (km/s) = 6.40201 6.79933 6.60366
#
# Compressibility (1/GPa) = 0.02129304
#
# Stress axis : x y z
#
# Youngs Moduli (GPa) = 98.20181 37.03339 80.78330
#
# Poissons Ratio (x) = 0.18410 0.09674
# Poissons Ratio (y) = 0.48817 0.64361
# Poissons Ratio (z) = 0.11760 0.29505
#
# Static dielectric constant tensor:
#      x y z
#    x 3.719370 0.000000 0.000000 
#    y 0.000000 3.385240 0.000000 
#    z 0.000000 0.000000 3.635490 
# 
# 
# High freq. dielectric constant tensor:
#      x y z
#    x 1.767540 0.000000 0.000000 
#    y 0.000000 1.745760 0.000000 
#    z 0.000000 0.000000 1.765560 
# 
# From -- ./inp_files/15808.got.cif
#   From: 2010.03.12/outbox.cif.g09.slc.cpg/sg62_8_cif.got.tgz:15808.got - 2010.04.10 19:12:36.
