data_PCOD8253587
_publ_section_title
;
Structure prediction by ZEFSAII (Michael W. Deem and Ramdas Pophale) SiO2 
 PCOD8253587
Probable space group: P N M A
;
_chemical_formula_sum "Si O2"
_cell_formula_units_Z 64
_cell_length_a 17.626678
_cell_length_b 20.386682
_cell_length_c 8.776349
_cell_angle_alpha 90.000000
_cell_angle_beta 90.000000
_cell_angle_gamma 90.000000
_cell_volume 3153.776442
_symmetry_space_group_name_H-M "P N M A"
_symmetry_group_IT_number 62
_symmetry_cell_setting 'orthorhombic'
loop_
_space_group_symop_operation_xyz
x,y,z
1/2-x,-y,1/2+z
1/2+x,1/2-y,1/2-z
-x,1/2+y,-z
-x,-y,-z
1/2+x,y,1/2-z
1/2-x,1/2+y,1/2+z
x,1/2-y,z
loop_
_atom_site_type_symbol
_atom_site_label
_atom_site_fract_x
_atom_site_fract_y
_atom_site_fract_z
Si Si1 0.150796 0.500007 0.446873
Si Si2 0.616618 0.676111 0.415740
Si Si3 0.215077 0.176622 0.618106
Si Si4 0.704985 0.457245 0.731648
Si Si5 0.964202 0.400038 0.649279
Si Si6 0.973379 0.675976 0.908711
Si Si7 0.918695 0.638532 0.581272
Si Si8 0.055683 0.450981 0.911913
O O1 0.213244 0.519586 0.322234
O O2 0.191524 0.491753 0.607259
O O3 0.089129 0.557291 0.460001
O O4 0.105521 0.436325 0.388856
O O5 0.611662 0.750000 0.359641
O O6 0.703242 0.657829 0.456116
O O7 0.587584 0.636368 0.270969
O O8 0.564115 0.664422 0.565195
O O9 0.216158 0.250000 0.690934
O O10 0.197680 0.122083 0.746965
O O11 0.154637 0.176798 0.480962
O O12 0.640758 0.479504 0.608894
O O13 0.013616 0.353075 0.541290
O O14 0.023805 0.445024 0.740886
O O15 0.951664 0.750000 0.965073
O O16 0.949912 0.670634 0.734201
O O17 0.933244 0.619893 0.008435
O O18 0.000000 0.500000 0.000000
#
# Coordination Sequence:
#
# PCOD8253587 Si02
#       8
#     8   8   8   8   8   8   8   8
#     4  11  24  40  61  90 130 161 213 260 316 385
#     4   9  20  39  64  89 121 165 211 254 309 382
#     4  10  20  41  67  91 124 165 211 257 315 380
#     4  11  25  42  62  96 124 167 211 262 322 376
#     4  11  21  40  61  87 126 163 210 262 313 377
#     4  10  23  41  63  96 131 164 210 264 322 383
#     4  11  23  39  62  95 126 166 209 263 320 374
#     4  11  24  40  66  92 124 172 216 263 323 372
#
# _framework density 20.293130999999999
#
# number of rings (size 3 to 8) (size 9 to 14) (size 15 to 20)
#    0.000    1.500    3.750    1.500    5.250    2.500 
#    0.000    0.000    0.000    0.000    0.000    0.000 
#    0.000    0.000    0.000    0.000    0.000    0.000 
#
# Total GULP energy -793322.715168 kJ/mol
# GULP energy per Si atom -12395.667424 kJ/mol
# Density = 2.024694 g / cm^3
# Si number density = 20.293131 Si / 1000 Ang^3
#
#
#
# Elastic Constant Matrix: (Units=GPa)
#
#
# Indices 1 2 3 4 5 6 
#
# 1 121.5393 34.4732 41.9722 0.0000 0.0000 0.0000
# 2 34.4732 78.0526 34.5060 0.0000 0.0000 0.0000
# 3 41.9722 34.5060 84.7378 0.0000 0.0000 0.0000
# 4 0.0000 0.0000 0.0000 23.6335 0.0000 0.0000
# 5 0.0000 0.0000 0.0000 0.0000 40.3387 0.0000
# 6 0.0000 0.0000 0.0000 0.0000 0.0000 26.2475
#
#
#
# Elastic Compliance Matrix: (Units=1/GPa)
#
#
# Indices 1 2 3 4 5 6 
#
# 1 0.010414 -0.002828 -0.004006 0.000000 0.000000 0.000000
# 2 -0.002828 0.016393 -0.005274 0.000000 0.000000 0.000000
# 3 -0.004006 -0.005274 0.015933 0.000000 0.000000 0.000000
# 4 0.000000 0.000000 0.000000 0.042313 0.000000 0.000000
# 5 0.000000 0.000000 0.000000 0.000000 0.024790 0.000000
# 6 0.000000 0.000000 0.000000 0.000000 0.000000 0.038099
#
#
# Mechanical properties :
#
#
# Convention : Reuss Voigt Hill
#
# Bulk Modulus (GPa) = 53.99075 56.24807 55.11941
# Shear Modulus (GPa) = 28.03740 29.60248 28.81994
#
# Velocity S-wave (km/s) = 3.72105 3.82349 3.77262
# Velocity P-wave (km/s) = 6.71750 6.87533 6.79687
#
# Compressibility (1/GPa) = 0.01852169
#
# Stress axis : x y z
#
# Youngs Moduli (GPa) = 96.02907 61.00269 62.76151
#
# Poissons Ratio (x) = 0.17252 0.25145
# Poissons Ratio (y) = 0.27158 0.33103
# Poissons Ratio (z) = 0.38473 0.32175
#
# Static dielectric constant tensor:
#      x y z
#    x 3.976070 0.000000 0.000000 
#    y 0.000000 3.793230 0.000000 
#    z 0.000000 0.000000 3.479980 
# 
# 
# High freq. dielectric constant tensor:
#      x y z
#    x 1.810230 0.000000 0.000000 
#    y 0.000000 1.793950 0.000000 
#    z 0.000000 0.000000 1.772370 
# 
# From -- ./inp_files/8104.got.cif
#   From: 2010.03.12/outbox.cif.g09.slc.cpg/sg62_5_cif.got.tgz:8104.got - 2010.04.10 19:12:36.
