data_PCOD8253841
_publ_section_title
;
Structure prediction by ZEFSAII (Michael W. Deem and Ramdas Pophale) SiO2 
 PCOD8253841
Probable space group: P N M A
;
_chemical_formula_sum "Si O2"
_cell_formula_units_Z 56
_cell_length_a 17.690997
_cell_length_b 13.362450
_cell_length_c 12.570918
_cell_angle_alpha 90.000000
_cell_angle_beta 90.000000
_cell_angle_gamma 90.000000
_cell_volume 2971.702951
_symmetry_space_group_name_H-M "P N M A"
_symmetry_group_IT_number 62
_symmetry_cell_setting 'orthorhombic'
loop_
_space_group_symop_operation_xyz
x,y,z
1/2-x,-y,1/2+z
1/2+x,1/2-y,1/2-z
-x,1/2+y,-z
-x,-y,-z
1/2+x,y,1/2-z
1/2-x,1/2+y,1/2+z
x,1/2-y,z
loop_
_atom_site_type_symbol
_atom_site_label
_atom_site_fract_x
_atom_site_fract_y
_atom_site_fract_z
Si Si1 0.725542 0.862763 0.069293
Si Si2 0.460041 0.998794 0.165908
Si Si3 0.065130 0.034793 0.145854
Si Si4 0.559322 0.634534 0.032482
Si Si5 0.222504 0.136732 0.166038
Si Si6 0.060065 0.632202 0.983443
Si Si7 0.170429 0.525093 0.820146
O O1 0.745827 0.750000 0.105906
O O2 0.637899 0.887930 0.094912
O O3 0.781391 0.936660 0.128907
O O4 0.731756 0.872932 0.942758
O O5 0.488816 0.900804 0.103897
O O6 0.527126 0.039508 0.239369
O O7 0.386966 0.972914 0.237024
O O8 0.439632 0.083988 0.082389
O O9 0.150828 0.065790 0.159418
O O10 0.022342 0.112044 0.067183
O O11 0.062549 0.922259 0.097906
O O12 0.548910 0.750000 0.009214
O O13 0.196490 0.250000 0.188009
O O14 0.275485 0.103400 0.262516
O O15 0.072891 0.750000 0.999958
O O16 0.125328 0.585983 0.909517
#
# Coordination Sequence:
#
# PCOD8253841 Si02
#       7
#     8   8   8   8   8   8   8
#     4  10  21  38  61  86 117 158 197 236 292 356
#     4  10  22  37  60  86 114 151 193 239 290 341
#     4  10  21  38  56  85 120 153 191 244 293 350
#     4  10  21  40  61  84 115 153 197 239 286 349
#     4  11  21  36  60  86 114 155 197 238 293 355
#     4  10  21  37  58  87 119 153 194 243 296 348
#     4  11  21  38  62  88 119 152 195 246 293 350
#
# _framework density 18.844414
#
# number of rings (size 3 to 8) (size 9 to 14) (size 15 to 20)
#    0.000    1.714    2.857    1.714    0.000    4.000 
#    0.000    0.714    0.000    0.857    0.000    0.000 
#    0.000    0.000    0.000    0.000    0.000    0.000 
#
# Total GULP energy -694493.859238 kJ/mol
# GULP energy per Si atom -12401.676058 kJ/mol
# Density = 1.880152 g / cm^3
# Si number density = 18.844414 Si / 1000 Ang^3
#
#
#
# Elastic Constant Matrix: (Units=GPa)
#
#
# Indices 1 2 3 4 5 6 
#
# 1 92.9228 54.4433 27.7133 0.0000 0.0000 0.0000
# 2 54.4433 122.4110 36.5009 0.0000 0.0000 0.0000
# 3 27.7133 36.5009 56.6516 0.0000 0.0000 0.0000
# 4 0.0000 0.0000 0.0000 18.4025 0.0000 0.0000
# 5 0.0000 0.0000 0.0000 0.0000 31.9724 0.0000
# 6 0.0000 0.0000 0.0000 0.0000 0.0000 27.0145
#
#
#
# Elastic Compliance Matrix: (Units=1/GPa)
#
#
# Indices 1 2 3 4 5 6 
#
# 1 0.015191 -0.005620 -0.003810 0.000000 0.000000 0.000000
# 2 -0.005620 0.012191 -0.005106 0.000000 0.000000 0.000000
# 3 -0.003810 -0.005106 0.022805 0.000000 0.000000 0.000000
# 4 0.000000 0.000000 0.000000 0.054340 0.000000 0.000000
# 5 0.000000 0.000000 0.000000 0.000000 0.031277 0.000000
# 6 0.000000 0.000000 0.000000 0.000000 0.000000 0.037017
#
#
# Mechanical properties :
#
#
# Convention : Reuss Voigt Hill
#
# Bulk Modulus (GPa) = 47.35837 56.58894 51.97365
# Shear Modulus (GPa) = 23.93128 25.69975 24.81551
#
# Velocity S-wave (km/s) = 3.56749 3.69695 3.63280
# Velocity P-wave (km/s) = 6.49270 6.95112 6.72581
#
# Compressibility (1/GPa) = 0.02111559
#
# Stress axis : x y z
#
# Youngs Moduli (GPa) = 65.82950 82.02652 43.84978
#
# Poissons Ratio (x) = 0.46100 0.16707
# Poissons Ratio (y) = 0.36997 0.22388
# Poissons Ratio (z) = 0.25082 0.41879
#
# Static dielectric constant tensor:
#      x y z
#    x 3.603170 0.000000 0.000000 
#    y 0.000000 3.320530 0.000000 
#    z 0.000000 0.000000 3.515300 
# 
# 
# High freq. dielectric constant tensor:
#      x y z
#    x 1.744950 0.000000 0.000000 
#    y 0.000000 1.724230 0.000000 
#    z 0.000000 0.000000 1.734070 
# 
# From -- ./inp_files/14800.got.cif
#   From: 2010.03.12/outbox.cif.g09.slc.cpg/sg62_8_cif.got.tgz:14800.got - 2010.04.10 19:12:36.
