data_PCOD8253699
_publ_section_title
;
Structure prediction by ZEFSAII (Michael W. Deem and Ramdas Pophale) SiO2 
 PCOD8253699
Probable space group: P N M A
;
_chemical_formula_sum "Si O2"
_cell_formula_units_Z 48
_cell_length_a 15.090517
_cell_length_b 8.778747
_cell_length_c 18.736565
_cell_angle_alpha 90.000000
_cell_angle_beta 90.000000
_cell_angle_gamma 90.000000
_cell_volume 2482.142016
_symmetry_space_group_name_H-M "P N M A"
_symmetry_group_IT_number 62
_symmetry_cell_setting 'orthorhombic'
loop_
_space_group_symop_operation_xyz
x,y,z
1/2-x,-y,1/2+z
1/2+x,1/2-y,1/2-z
-x,1/2+y,-z
-x,-y,-z
1/2+x,y,1/2-z
1/2-x,1/2+y,1/2+z
x,1/2-y,z
loop_
_atom_site_type_symbol
_atom_site_label
_atom_site_fract_x
_atom_site_fract_y
_atom_site_fract_z
Si Si1 0.402035 0.071764 0.685164
Si Si2 0.255255 0.069596 0.578374
Si Si3 0.262534 0.571517 0.428611
Si Si4 0.902289 0.429434 0.342088
Si Si5 0.087857 0.572937 0.345335
Si Si6 0.900252 0.930473 0.190950
O O1 0.400245 0.250000 0.672335
O O2 0.330628 0.999980 0.631087
O O3 0.376210 0.030194 0.766433
O O4 0.501508 0.012104 0.668838
O O5 0.246226 0.250000 0.585460
O O6 0.282738 0.025025 0.498650
O O7 0.162007 0.992914 0.596920
O O8 0.274066 0.750000 0.444414
O O9 0.163707 0.534331 0.401902
O O10 0.332239 0.515879 0.369312
O O11 0.895063 0.250000 0.339472
O O12 0.872620 0.496675 0.266062
O O13 0.001578 0.475716 0.364327
O O14 0.060910 0.750000 0.346739
O O15 0.897347 0.750000 0.202168
#
# Coordination Sequence:
#
# PCOD8253699 Si02
#       6
#     8   8   8   8   8   8
#     4   8  16  33  58  82 102 136 182 218 256 315
#     4  11  22  36  54  78 112 150 182 216 265 321
#     4  10  21  36  56  82 111 144 180 220 267 320
#     4  11  22  36  56  82 108 136 179 229 272 316
#     4   9  18  36  59  79 103 138 180 222 268 321
#     4   9  18  37  61  81 106 141 179 218 266 322
#
# _framework density 19.338135999999999
#
# number of rings (size 3 to 8) (size 9 to 14) (size 15 to 20)
#    0.000    2.333    0.000    4.000    0.000    5.333 
#    0.000   10.000    0.000    0.000    0.000    0.000 
#    0.000    0.000    0.000    0.000    0.000    0.000 
#
# Total GULP energy -595267.282571 kJ/mol
# GULP energy per Si atom -12401.401720 kJ/mol
# Density = 1.929412 g / cm^3
# Si number density = 19.338136 Si / 1000 Ang^3
#
#
#
# Elastic Constant Matrix: (Units=GPa)
#
#
# Indices 1 2 3 4 5 6 
#
# 1 62.8728 22.4650 26.9638 0.0000 0.0000 0.0000
# 2 22.4650 60.5868 22.4631 0.0000 0.0000 0.0000
# 3 26.9638 22.4631 69.5482 0.0000 0.0000 0.0000
# 4 0.0000 0.0000 0.0000 33.0178 0.0000 0.0000
# 5 0.0000 0.0000 0.0000 0.0000 24.6112 0.0000
# 6 0.0000 0.0000 0.0000 0.0000 0.0000 17.4535
#
#
#
# Elastic Compliance Matrix: (Units=1/GPa)
#
#
# Indices 1 2 3 4 5 6 
#
# 1 0.020462 -0.005278 -0.006228 0.000000 0.000000 0.000000
# 2 -0.005278 0.020112 -0.004450 0.000000 0.000000 0.000000
# 3 -0.006228 -0.004450 0.018230 0.000000 0.000000 0.000000
# 4 0.000000 0.000000 0.000000 0.030287 0.000000 0.000000
# 5 0.000000 0.000000 0.000000 0.000000 0.040632 0.000000
# 6 0.000000 0.000000 0.000000 0.000000 0.000000 0.057295
#
#
# Mechanical properties :
#
#
# Convention : Reuss Voigt Hill
#
# Bulk Modulus (GPa) = 37.18500 37.42126 37.30313
# Shear Modulus (GPa) = 21.93997 23.09088 22.51543
#
# Velocity S-wave (km/s) = 3.37195 3.45927 3.41589
# Velocity P-wave (km/s) = 5.86777 5.94545 5.90674
#
# Compressibility (1/GPa) = 0.02689256
#
# Stress axis : x y z
#
# Youngs Moduli (GPa) = 48.87078 49.72159 54.85321
#
# Poissons Ratio (x) = 0.26243 0.34165
# Poissons Ratio (y) = 0.25793 0.24408
# Poissons Ratio (z) = 0.30439 0.22124
#
# Static dielectric constant tensor:
#      x y z
#    x 3.781890 0.000000 0.000000 
#    y 0.000000 3.230940 0.000000 
#    z 0.000000 0.000000 3.512430 
# 
# 
# High freq. dielectric constant tensor:
#      x y z
#    x 1.764140 0.000000 0.000000 
#    y 0.000000 1.727460 0.000000 
#    z 0.000000 0.000000 1.750460 
# 
# From -- ./inp_files/23637.got.cif
#   From: 2010.03.12/outbox.cif.g09.slc.cpg/sg62_12_cif.got.tgz:23637.got - 2010.04.10 19:12:36.
