data_PCOD8253404
_publ_section_title
;
Structure prediction by ZEFSAII (Michael W. Deem and Ramdas Pophale) SiO2 
 PCOD8253404
Probable space group: P N M A
;
_chemical_formula_sum "Si O2"
_cell_formula_units_Z 48
_cell_length_a 12.710898
_cell_length_b 8.820816
_cell_length_c 21.739608
_cell_angle_alpha 90.000000
_cell_angle_beta 90.000000
_cell_angle_gamma 90.000000
_cell_volume 2437.455555
_symmetry_space_group_name_H-M "P N M A"
_symmetry_group_IT_number 62
_symmetry_cell_setting 'orthorhombic'
loop_
_space_group_symop_operation_xyz
x,y,z
1/2-x,-y,1/2+z
1/2+x,1/2-y,1/2-z
-x,1/2+y,-z
-x,-y,-z
1/2+x,y,1/2-z
1/2-x,1/2+y,1/2+z
x,1/2-y,z
loop_
_atom_site_type_symbol
_atom_site_label
_atom_site_fract_x
_atom_site_fract_y
_atom_site_fract_z
Si Si1 0.574354 0.428965 0.380004
Si Si2 0.775812 0.572279 0.431989
Si Si3 0.999458 0.078318 0.765585
Si Si4 0.368137 0.920611 0.376526
Si Si5 0.170158 0.073835 0.430505
Si Si6 0.960937 0.072522 0.361813
O O1 0.579035 0.250000 0.373366
O O2 0.666102 0.485931 0.424438
O O3 0.587519 0.506468 0.312267
O O4 0.461269 0.480334 0.408860
O O5 0.756352 0.750000 0.425246
O O6 0.820649 0.526927 0.498540
O O7 0.857768 0.519553 0.380524
O O8 0.966881 0.250000 0.747552
O O9 0.111179 0.077816 0.802506
O O10 0.006109 0.973261 0.706447
O O11 0.374929 0.750000 0.402540
O O12 0.253899 0.986305 0.389069
O O13 0.191577 0.250000 0.420352
O O14 0.054349 0.027843 0.408235
O O15 0.935647 0.250000 0.364014
#
# Coordination Sequence:
#
# PCOD8253404 Si02
#       6
#     8   8   8   8   8   8
#     4  10  20  38  62  89 118 151 194 244 295 350
#     4  11  23  40  60  85 119 158 198 243 292 350
#     4   9  20  39  60  89 120 152 193 240 295 352
#     4   9  20  38  61  89 118 151 194 239 295 355
#     4  10  23  40  60  86 118 156 199 243 292 348
#     4  11  23  39  60  88 119 156 199 243 291 346
#
# _framework density 19.692665000000002
#
# number of rings (size 3 to 8) (size 9 to 14) (size 15 to 20)
#    1.000    1.000    0.000    3.500    0.000    4.667 
#    0.000    3.333    0.000    0.000    0.000    0.000 
#    0.000    0.000    0.000    0.000    0.000    0.000 
#
# Total GULP energy -595088.967086 kJ/mol
# GULP energy per Si atom -12397.686814 kJ/mol
# Density = 1.964784 g / cm^3
# Si number density = 19.692665 Si / 1000 Ang^3
#
#
#
# Elastic Constant Matrix: (Units=GPa)
#
#
# Indices 1 2 3 4 5 6 
#
# 1 62.7270 35.4428 3.1265 0.0000 0.0000 0.0000
# 2 35.4428 89.5744 22.8748 0.0000 0.0000 0.0000
# 3 3.1265 22.8748 54.2912 0.0000 0.0000 0.0000
# 4 0.0000 0.0000 0.0000 26.1567 0.0000 0.0000
# 5 0.0000 0.0000 0.0000 0.0000 30.8650 0.0000
# 6 0.0000 0.0000 0.0000 0.0000 0.0000 37.0789
#
#
#
# Elastic Compliance Matrix: (Units=1/GPa)
#
#
# Indices 1 2 3 4 5 6 
#
# 1 0.020843 -0.008898 0.002549 0.000000 0.000000 0.000000
# 2 -0.008898 0.016309 -0.006359 0.000000 0.000000 0.000000
# 3 0.002549 -0.006359 0.020952 0.000000 0.000000 0.000000
# 4 0.000000 0.000000 0.000000 0.038231 0.000000 0.000000
# 5 0.000000 0.000000 0.000000 0.000000 0.032399 0.000000
# 6 0.000000 0.000000 0.000000 0.000000 0.000000 0.026970
#
#
# Mechanical properties :
#
#
# Convention : Reuss Voigt Hill
#
# Bulk Modulus (GPa) = 30.59358 36.60900 33.60129
# Shear Modulus (GPa) = 26.03969 28.49668 27.26818
#
# Velocity S-wave (km/s) = 3.64030 3.80816 3.72518
# Velocity P-wave (km/s) = 5.76526 6.16171 5.96678
#
# Compressibility (1/GPa) = 0.03268660
#
# Stress axis : x y z
#
# Youngs Moduli (GPa) = 47.97847 61.31757 47.72885
#
# Poissons Ratio (x) = 0.54560 -0.12165
# Poissons Ratio (y) = 0.42691 0.30351
# Poissons Ratio (z) = -0.12228 0.38992
#
# Static dielectric constant tensor:
#      x y z
#    x 3.435110 0.000000 0.000000 
#    y 0.000000 3.590950 0.000000 
#    z 0.000000 0.000000 3.447820 
# 
# 
# High freq. dielectric constant tensor:
#      x y z
#    x 1.759120 0.000000 0.000000 
#    y 0.000000 1.780530 0.000000 
#    z 0.000000 0.000000 1.758000 
# 
# From -- ./inp_files/29243.got.cif
#   From: 2010.03.12/outbox.cif.g09.slc.cpg/sg62_15_cif.got.tgz:29243.got - 2010.04.10 19:12:36.
