data_PCOD8253284
_publ_section_title
;
Structure prediction by ZEFSAII (Michael W. Deem and Ramdas Pophale) SiO2 
 PCOD8253284
Probable space group: P N M A
;
_chemical_formula_sum "Si O2"
_cell_formula_units_Z 44
_cell_length_a 9.885356
_cell_length_b 12.137670
_cell_length_c 18.015531
_cell_angle_alpha 90.000000
_cell_angle_beta 90.000000
_cell_angle_gamma 90.000000
_cell_volume 2161.596891
_symmetry_space_group_name_H-M "P N M A"
_symmetry_group_IT_number 62
_symmetry_cell_setting 'orthorhombic'
loop_
_space_group_symop_operation_xyz
x,y,z
1/2-x,-y,1/2+z
1/2+x,1/2-y,1/2-z
-x,1/2+y,-z
-x,-y,-z
1/2+x,y,1/2-z
1/2-x,1/2+y,1/2+z
x,1/2-y,z
loop_
_atom_site_type_symbol
_atom_site_label
_atom_site_fract_x
_atom_site_fract_y
_atom_site_fract_z
Si Si1 0.887275 0.250000 0.815731
Si Si2 0.273828 0.479317 0.832162
Si Si3 0.208742 0.569060 0.982608
Si Si4 0.084305 0.374814 0.062080
Si Si5 0.522521 0.517022 0.300072
Si Si6 0.363869 0.250000 0.856993
Si Si7 0.154132 0.250000 0.577785
O O1 0.905355 0.250000 0.728452
O O2 0.732107 0.250000 0.843301
O O3 0.954297 0.365108 0.842270
O O4 0.137309 0.493180 0.783885
O O5 0.401273 0.496887 0.778231
O O6 0.276037 0.358950 0.870899
O O7 0.274582 0.564848 0.900328
O O8 0.193473 0.446875 0.016946
O O9 0.308091 0.641006 0.032361
O O10 0.060731 0.624087 0.978901
O O11 0.138656 0.250000 0.065633
O O12 0.071289 0.421158 0.145413
O O13 0.495447 0.250000 0.908599
#
# Coordination Sequence:
#
# PCOD8253284 Si02
#       7
#     4   8   8   8   8   4   4
#     4  10  21  34  60  90 120 160 204 248 323 362
#     4  10  23  39  61  94 122 166 215 257 318 373
#     4  10  22  38  64  90 128 169 209 264 320 385
#     4  10  20  37  61  93 122 168 219 260 311 385
#     4  10  21  38  62  89 126 164 211 270 310 373
#     4  10  25  36  64  92 122 164 203 269 310 388
#     4  12  22  42  62  92 134 164 201 265 333 366
#
# _framework density 20.355322999999999
#
# number of rings (size 3 to 8) (size 9 to 14) (size 15 to 20)
#    0.000    1.818    2.727    0.545   11.455    0.727 
#    1.636    0.000    0.000    0.000    0.000    0.000 
#    0.000    0.000    0.000    0.000    0.000    0.000 
#
# Total GULP energy -545479.470822 kJ/mol
# GULP energy per Si atom -12397.260701 kJ/mol
# Density = 2.030899 g / cm^3
# Si number density = 20.355323 Si / 1000 Ang^3
#
#
#
# Elastic Constant Matrix: (Units=GPa)
#
#
# Indices 1 2 3 4 5 6 
#
# 1 98.7565 27.9137 56.9762 0.0000 0.0000 0.0000
# 2 27.9137 127.8260 43.0874 0.0000 0.0000 0.0000
# 3 56.9762 43.0874 94.5742 0.0000 0.0000 0.0000
# 4 0.0000 0.0000 0.0000 24.5355 0.0000 0.0000
# 5 0.0000 0.0000 0.0000 0.0000 37.3722 0.0000
# 6 0.0000 0.0000 0.0000 0.0000 0.0000 20.1523
#
#
#
# Elastic Compliance Matrix: (Units=1/GPa)
#
#
# Indices 1 2 3 4 5 6 
#
# 1 0.015529 -0.000281 -0.009228 0.000000 0.000000 0.000000
# 2 -0.000281 0.009248 -0.004044 0.000000 0.000000 0.000000
# 3 -0.009228 -0.004044 0.017975 0.000000 0.000000 0.000000
# 4 0.000000 0.000000 0.000000 0.040757 0.000000 0.000000
# 5 0.000000 0.000000 0.000000 0.000000 0.026758 0.000000
# 6 0.000000 0.000000 0.000000 0.000000 0.000000 0.049622
#
#
# Mechanical properties :
#
#
# Convention : Reuss Voigt Hill
#
# Bulk Modulus (GPa) = 63.90886 64.12348 64.01617
# Shear Modulus (GPa) = 26.01329 29.29062 27.65196
#
# Velocity S-wave (km/s) = 3.57874 3.79749 3.68973
# Velocity P-wave (km/s) = 6.96716 7.12729 7.04768
#
# Compressibility (1/GPa) = 0.01564728
#
# Stress axis : x y z
#
# Youngs Moduli (GPa) = 64.39582 108.13626 55.63201
#
# Poissons Ratio (x) = 0.03035 0.51335
# Poissons Ratio (y) = 0.01808 0.22498
# Poissons Ratio (z) = 0.59421 0.43731
#
# Static dielectric constant tensor:
#      x y z
#    x 3.407660 0.000000 0.000000 
#    y 0.000000 3.989990 0.000000 
#    z 0.000000 0.000000 3.558550 
# 
# 
# High freq. dielectric constant tensor:
#      x y z
#    x 1.774230 0.000000 0.000000 
#    y 0.000000 1.792250 0.000000 
#    z 0.000000 0.000000 1.795510 
# 
# From -- ./inp_files/22977.got.cif
#   From: 2010.03.12/outbox.cif.g09.slc.cpg/sg62_12_cif.got.tgz:22977.got - 2010.04.10 19:12:36.
