data_PCOD8253808
_publ_section_title
;
Structure prediction by ZEFSAII (Michael W. Deem and Ramdas Pophale) SiO2 
 PCOD8253808
Probable space group: P N M A
;
_chemical_formula_sum "Si O2"
_cell_formula_units_Z 64
_cell_length_a 15.485797
_cell_length_b 8.483343
_cell_length_c 24.032144
_cell_angle_alpha 90.000000
_cell_angle_beta 90.000000
_cell_angle_gamma 90.000000
_cell_volume 3157.134662
_symmetry_space_group_name_H-M "P N M A"
_symmetry_group_IT_number 62
_symmetry_cell_setting 'orthorhombic'
loop_
_space_group_symop_operation_xyz
x,y,z
1/2-x,-y,1/2+z
1/2+x,1/2-y,1/2-z
-x,1/2+y,-z
-x,-y,-z
1/2+x,y,1/2-z
1/2-x,1/2+y,1/2+z
x,1/2-y,z
loop_
_atom_site_type_symbol
_atom_site_label
_atom_site_fract_x
_atom_site_fract_y
_atom_site_fract_z
Si Si1 0.836996 0.566523 0.249235
Si Si2 0.912182 0.065939 0.632739
Si Si3 0.590380 0.435685 0.365266
Si Si4 0.250839 0.437467 0.065172
Si Si5 0.348990 0.566322 0.753808
Si Si6 0.407994 0.935179 0.369536
Si Si7 0.252761 0.062144 0.940102
Si Si8 0.907488 0.065612 0.358388
O O1 0.810950 0.750000 0.247244
O O2 0.752439 0.460012 0.254700
O O3 0.887412 0.516778 0.193688
O O4 0.898961 0.530118 0.300967
O O5 0.928232 0.250000 0.623479
O O6 0.836954 0.000539 0.592596
O O7 0.885388 0.037489 0.696290
O O8 0.998701 0.972130 0.616500
O O9 0.598177 0.250000 0.367328
O O10 0.665959 0.506743 0.404333
O O11 0.603208 0.493407 0.301939
O O12 0.498092 0.489041 0.388457
O O13 0.247863 0.250000 0.062958
O O14 0.335691 0.494180 0.098118
O O15 0.254602 0.505433 0.002632
O O16 0.366854 0.750000 0.765638
O O17 0.416575 0.750000 0.376445
O O18 0.332754 0.002454 0.409332
O O19 0.252116 0.250000 0.938710
O O20 0.897396 0.250000 0.346118
#
# Coordination Sequence:
#
# PCOD8253808 Si02
#       8
#     8   8   8   8   8   8   8   8
#     4  11  21  36  59  87 118 153 189 233 288 348
#     4  11  22  38  59  87 117 152 194 237 289 348
#     4  10  21  37  57  85 114 148 189 228 281 340
#     4   9  19  38  60  80 111 154 195 237 287 341
#     4  11  21  36  59  87 118 153 189 233 288 348
#     4  10  21  37  57  85 114 148 189 228 281 340
#     4   9  19  38  60  80 111 154 195 237 287 341
#     4  11  22  38  59  87 117 152 194 237 289 348
#
# _framework density 20.271547000000002
#
# number of rings (size 3 to 8) (size 9 to 14) (size 15 to 20)
#    0.000    1.750    2.500    2.250    0.000    5.000 
#    0.000    0.000    0.000    5.250    0.000    0.000 
#    0.000    0.000    0.000    0.000    0.000    0.000 
#
# Total GULP energy -793847.460194 kJ/mol
# GULP energy per Si atom -12403.866566 kJ/mol
# Density = 2.022541 g / cm^3
# Si number density = 20.271547 Si / 1000 Ang^3
#
#
#
# Elastic Constant Matrix: (Units=GPa)
#
#
# Indices 1 2 3 4 5 6 
#
# 1 171.9071 11.4243 75.6211 0.0000 0.0000 0.0000
# 2 11.4243 22.5812 20.6331 0.0000 0.0000 0.0000
# 3 75.6211 20.6331 158.3884 0.0000 0.0000 0.0000
# 4 0.0000 0.0000 0.0000 19.3116 0.0000 0.0000
# 5 0.0000 0.0000 0.0000 0.0000 17.2963 0.0000
# 6 0.0000 0.0000 0.0000 0.0000 0.0000 32.5411
#
#
#
# Elastic Compliance Matrix: (Units=1/GPa)
#
#
# Indices 1 2 3 4 5 6 
#
# 1 0.007370 -0.000583 -0.003443 0.000000 0.000000 0.000000
# 2 -0.000583 0.050314 -0.006276 0.000000 0.000000 0.000000
# 3 -0.003443 -0.006276 0.008775 0.000000 0.000000 0.000000
# 4 0.000000 0.000000 0.000000 0.051782 0.000000 0.000000
# 5 0.000000 0.000000 0.000000 0.000000 0.057816 0.000000
# 6 0.000000 0.000000 0.000000 0.000000 0.000000 0.030730
#
#
# Mechanical properties :
#
#
# Convention : Reuss Voigt Hill
#
# Bulk Modulus (GPa) = 21.80754 63.13706 42.47230
# Shear Modulus (GPa) = 20.60351 30.17636 25.38993
#
# Velocity S-wave (km/s) = 3.19152 3.86243 3.54289
# Velocity P-wave (km/s) = 4.93580 7.14874 6.14274
#
# Compressibility (1/GPa) = 0.04585569
#
# Stress axis : x y z
#
# Youngs Moduli (GPa) = 135.67804 19.87511 113.96007
#
# Poissons Ratio (x) = 0.01158 0.39236
# Poissons Ratio (y) = 0.07908 0.71522
# Poissons Ratio (z) = 0.46714 0.12474
#
# Static dielectric constant tensor:
#      x y z
#    x 3.884200 0.000000 0.000000 
#    y 0.000000 3.284610 0.000000 
#    z 0.000000 0.000000 3.827490 
# 
# 
# High freq. dielectric constant tensor:
#      x y z
#    x 1.806970 0.000000 0.000000 
#    y 0.000000 1.762710 0.000000 
#    z 0.000000 0.000000 1.789770 
# 
# From -- ./inp_files/29871.got.cif
#   From: 2010.03.12/outbox.cif.g09.slc.cpg/sg62_15_cif.got.tgz:29871.got - 2010.04.10 19:12:36.
