data_PCOD8253883
_publ_section_title
;
Structure prediction by ZEFSAII (Michael W. Deem and Ramdas Pophale) SiO2 
 PCOD8253883
Probable space group: P N M A
;
_chemical_formula_sum "Si O2"
_cell_formula_units_Z 40
_cell_length_a 10.286074
_cell_length_b 8.858275
_cell_length_c 20.922873
_cell_angle_alpha 90.000000
_cell_angle_beta 90.000000
_cell_angle_gamma 90.000000
_cell_volume 1906.426744
_symmetry_space_group_name_H-M "P N M A"
_symmetry_group_IT_number 62
_symmetry_cell_setting 'orthorhombic'
loop_
_space_group_symop_operation_xyz
x,y,z
1/2-x,-y,1/2+z
1/2+x,1/2-y,1/2-z
-x,1/2+y,-z
-x,-y,-z
1/2+x,y,1/2-z
1/2-x,1/2+y,1/2+z
x,1/2-y,z
loop_
_atom_site_type_symbol
_atom_site_label
_atom_site_fract_x
_atom_site_fract_y
_atom_site_fract_z
Si Si1 0.309410 0.576032 0.791391
Si Si2 0.322005 0.075964 0.050144
Si Si3 0.077156 0.575945 0.411120
Si Si4 0.979837 0.076426 0.189525
Si Si5 0.055490 0.927335 0.063723
O O1 0.341429 0.750000 0.807819
O O2 0.333742 0.473198 0.852749
O O3 0.401713 0.519386 0.733990
O O4 0.157379 0.556257 0.772993
O O5 0.293410 0.250000 0.065671
O O6 0.448484 0.025575 0.089079
O O7 0.203617 0.976001 0.074873
O O8 0.339973 0.047497 0.974917
O O9 0.036274 0.750000 0.405418
O O10 0.001972 0.250000 0.170185
O O11 0.973330 0.979348 0.125033
O O12 0.043451 0.750000 0.056366
O O13 0.000000 0.000000 0.000000
#
# Coordination Sequence:
#
# PCOD8253883 Si02
#       5
#     8   8   8   8   8
#     4  10  22  40  63  90 124 167 211 256 309 376
#     4  10  21  38  62  91 125 165 207 256 314 375
#     4  10  21  37  60  92 126 162 206 256 312 370
#     4  10  23  42  64  93 126 168 215 258 313 378
#     4  12  25  41  63  92 125 164 211 265 321 377
#
# _framework density 20.981662
#
# number of rings (size 3 to 8) (size 9 to 14) (size 15 to 20)
#    0.000    1.600    0.000    4.200    2.800    7.200 
#    0.000    0.000    0.000    0.000    0.000    0.000 
#    0.000    0.000    0.000    0.000    0.000    0.000 
#
# Total GULP energy -496231.912343 kJ/mol
# GULP energy per Si atom -12405.797809 kJ/mol
# Density = 2.093391 g / cm^3
# Si number density = 20.981662 Si / 1000 Ang^3
#
#
#
# Elastic Constant Matrix: (Units=GPa)
#
#
# Indices 1 2 3 4 5 6 
#
# 1 119.2107 38.5228 51.0559 0.0000 0.0000 0.0000
# 2 38.5228 100.1588 37.3933 0.0000 0.0000 0.0000
# 3 51.0559 37.3933 90.2234 0.0000 0.0000 0.0000
# 4 0.0000 0.0000 0.0000 32.9079 0.0000 0.0000
# 5 0.0000 0.0000 0.0000 0.0000 32.3226 0.0000
# 6 0.0000 0.0000 0.0000 0.0000 0.0000 32.9420
#
#
#
# Elastic Compliance Matrix: (Units=1/GPa)
#
#
# Indices 1 2 3 4 5 6 
#
# 1 0.011526 -0.002364 -0.005543 0.000000 0.000000 0.000000
# 2 -0.002364 0.012297 -0.003759 0.000000 0.000000 0.000000
# 3 -0.005543 -0.003759 0.015778 0.000000 0.000000 0.000000
# 4 0.000000 0.000000 0.000000 0.030388 0.000000 0.000000
# 5 0.000000 0.000000 0.000000 0.000000 0.030938 0.000000
# 6 0.000000 0.000000 0.000000 0.000000 0.000000 0.030356
#
#
# Mechanical properties :
#
#
# Convention : Reuss Voigt Hill
#
# Bulk Modulus (GPa) = 61.46231 62.61522 62.03877
# Shear Modulus (GPa) = 31.24272 31.80923 31.52597
#
# Velocity S-wave (km/s) = 3.86301 3.89787 3.88048
# Velocity P-wave (km/s) = 7.01812 7.08276 7.05051
#
# Compressibility (1/GPa) = 0.01627013
#
# Stress axis : x y z
#
# Youngs Moduli (GPa) = 86.75832 81.32334 63.37941
#
# Poissons Ratio (x) = 0.19224 0.35130
# Poissons Ratio (y) = 0.20508 0.23822
# Poissons Ratio (z) = 0.48089 0.30567
#
# Static dielectric constant tensor:
#      x y z
#    x 3.939630 0.000000 0.000000 
#    y 0.000000 3.742140 0.000000 
#    z 0.000000 0.000000 3.660380 
# 
# 
# High freq. dielectric constant tensor:
#      x y z
#    x 1.835940 0.000000 0.000000 
#    y 0.000000 1.818570 0.000000 
#    z 0.000000 0.000000 1.814670 
# 
# From -- ./inp_files/22797.got.cif
#   From: 2010.03.12/outbox.cif.g09.slc.cpg/sg62_12_cif.got.tgz:22797.got - 2010.04.10 19:12:36.
