data_PCOD8253884
_publ_section_title
;
Structure prediction by ZEFSAII (Michael W. Deem and Ramdas Pophale) SiO2 
 PCOD8253884
Probable space group: P N M A
;
_chemical_formula_sum "Si O2"
_cell_formula_units_Z 40
_cell_length_a 21.080052
_cell_length_b 8.961737
_cell_length_c 10.127438
_cell_angle_alpha 90.000000
_cell_angle_beta 90.000000
_cell_angle_gamma 90.000000
_cell_volume 1913.213627
_symmetry_space_group_name_H-M "P N M A"
_symmetry_group_IT_number 62
_symmetry_cell_setting 'orthorhombic'
loop_
_space_group_symop_operation_xyz
x,y,z
1/2-x,-y,1/2+z
1/2+x,1/2-y,1/2-z
-x,1/2+y,-z
-x,-y,-z
1/2+x,y,1/2-z
1/2-x,1/2+y,1/2+z
x,1/2-y,z
loop_
_atom_site_type_symbol
_atom_site_label
_atom_site_fract_x
_atom_site_fract_y
_atom_site_fract_z
Si Si1 0.537817 0.422332 0.687681
Si Si2 0.415514 0.922814 0.602539
Si Si3 0.938416 0.077624 0.441780
Si Si4 0.800644 0.079213 0.523804
Si Si5 0.787178 0.423681 0.822309
O O1 0.534104 0.250000 0.725898
O O2 0.573974 0.451258 0.552021
O O3 0.466060 0.483254 0.685737
O O4 0.577267 0.509573 0.798369
O O5 0.423793 0.750000 0.638949
O O6 0.345819 0.975794 0.635781
O O7 0.954389 0.250000 0.426913
O O8 0.876423 0.050918 0.532200
O O9 0.000000 0.000000 0.500000
O O10 0.786735 0.250000 0.481948
O O11 0.771173 0.046039 0.668240
O O12 0.771691 0.970449 0.413570
O O13 0.802900 0.250000 0.844615
#
# Coordination Sequence:
#
# PCOD8253884 Si02
#       5
#     8   8   8   8   8
#     4  10  21  37  60  92 127 163 209 259 311 378
#     4  10  21  38  62  91 127 166 206 258 315 375
#     4  11  23  40  64  91 126 166 210 266 322 380
#     4  10  25  45  63  92 129 166 213 263 316 381
#     4  11  24  42  66  92 125 167 212 264 318 377
#
# _framework density 20.907232
#
# number of rings (size 3 to 8) (size 9 to 14) (size 15 to 20)
#    0.000    1.600    0.000    3.600    2.800    7.200 
#    0.000    0.000    0.000    0.000    0.000    0.000 
#    0.000    0.000    0.000    0.000    0.000    0.000 
#
# Total GULP energy -496191.588745 kJ/mol
# GULP energy per Si atom -12404.789719 kJ/mol
# Density = 2.085965 g / cm^3
# Si number density = 20.907232 Si / 1000 Ang^3
#
#
#
# Elastic Constant Matrix: (Units=GPa)
#
#
# Indices 1 2 3 4 5 6 
#
# 1 65.0986 23.0160 37.3465 0.0000 0.0000 0.0000
# 2 23.0160 88.4367 49.9489 0.0000 0.0000 0.0000
# 3 37.3465 49.9489 104.8208 0.0000 0.0000 0.0000
# 4 0.0000 0.0000 0.0000 35.8227 0.0000 0.0000
# 5 0.0000 0.0000 0.0000 0.0000 33.3376 0.0000
# 6 0.0000 0.0000 0.0000 0.0000 0.0000 39.4778
#
#
#
# Elastic Compliance Matrix: (Units=1/GPa)
#
#
# Indices 1 2 3 4 5 6 
#
# 1 0.019466 -0.001572 -0.006187 0.000000 0.000000 0.000000
# 2 -0.001572 0.015598 -0.006873 0.000000 0.000000 0.000000
# 3 -0.006187 -0.006873 0.015019 0.000000 0.000000 0.000000
# 4 0.000000 0.000000 0.000000 0.027915 0.000000 0.000000
# 5 0.000000 0.000000 0.000000 0.000000 0.029996 0.000000
# 6 0.000000 0.000000 0.000000 0.000000 0.000000 0.025331
#
#
# Mechanical properties :
#
#
# Convention : Reuss Voigt Hill
#
# Bulk Modulus (GPa) = 48.02788 53.21989 50.62388
# Shear Modulus (GPa) = 29.49342 31.59725 30.54534
#
# Velocity S-wave (km/s) = 3.75998 3.89177 3.82644
# Velocity P-wave (km/s) = 6.47083 6.76055 6.61728
#
# Compressibility (1/GPa) = 0.02082124
#
# Stress axis : x y z
#
# Youngs Moduli (GPa) = 51.37088 64.10914 66.58095
#
# Poissons Ratio (x) = 0.10078 0.41191
# Poissons Ratio (y) = 0.08076 0.45760
# Poissons Ratio (z) = 0.31781 0.44061
#
# Static dielectric constant tensor:
#      x y z
#    x 3.629550 0.000000 0.000000 
#    y 0.000000 3.866310 0.000000 
#    z 0.000000 0.000000 4.096100 
# 
# 
# High freq. dielectric constant tensor:
#      x y z
#    x 1.814620 0.000000 0.000000 
#    y 0.000000 1.828380 0.000000 
#    z 0.000000 0.000000 1.829270 
# 
# From -- ./inp_files/14627.got.cif
#   From: 2010.03.12/outbox.cif.g09.slc.cpg/sg62_8_cif.got.tgz:14627.got - 2010.04.10 19:12:36.
