data_PCOD8253651
_publ_section_title
;
Structure prediction by ZEFSAII (Michael W. Deem and Ramdas Pophale) SiO2 
 PCOD8253651
Probable space group: P N M A
;
_chemical_formula_sum "Si O2"
_cell_formula_units_Z 48
_cell_length_a 9.087440
_cell_length_b 21.939599
_cell_length_c 12.880646
_cell_angle_alpha 90.000000
_cell_angle_beta 90.000000
_cell_angle_gamma 90.000000
_cell_volume 2568.076085
_symmetry_space_group_name_H-M "P N M A"
_symmetry_group_IT_number 62
_symmetry_cell_setting 'orthorhombic'
loop_
_space_group_symop_operation_xyz
x,y,z
1/2-x,-y,1/2+z
1/2+x,1/2-y,1/2-z
-x,1/2+y,-z
-x,-y,-z
1/2+x,y,1/2-z
1/2-x,1/2+y,1/2+z
x,1/2-y,z
loop_
_atom_site_type_symbol
_atom_site_label
_atom_site_fract_x
_atom_site_fract_y
_atom_site_fract_z
Si Si1 0.778793 0.037380 0.051683
Si Si2 0.865193 0.990491 0.754958
Si Si3 0.474760 0.180587 0.795752
Si Si4 0.835991 0.818178 0.105134
Si Si5 0.623798 0.061456 0.852932
Si Si6 0.582108 0.078273 0.464746
O O1 0.722150 0.046861 0.167689
O O2 0.905574 0.086724 0.025008
O O3 0.641947 0.042042 0.972949
O O4 0.858498 0.971594 0.046196
O O5 0.883486 0.941299 0.846771
O O6 0.779942 0.050708 0.795777
O O7 0.014211 0.015724 0.705714
O O8 0.517191 0.250000 0.829674
O O9 0.515733 0.172290 0.673732
O O10 0.303655 0.167337 0.819988
O O11 0.573905 0.131575 0.856829
O O12 0.824567 0.750000 0.062126
O O13 0.840172 0.859430 0.001557
#
# Coordination Sequence:
#
# PCOD8253651 Si02
#       6
#     8   8   8   8   8   8
#     4  10  21  35  55  87 112 149 181 229 287 331
#     4  11  21  37  56  85 114 148 188 229 282 336
#     4  10  21  36  56  85 115 149 187 226 280 333
#     4  10  22  38  58  82 113 152 188 231 279 333
#     4  11  21  33  57  83 119 146 185 230 280 337
#     4  10  21  37  57  83 116 143 186 233 283 336
#
# _framework density 18.691036
#
# number of rings (size 3 to 8) (size 9 to 14) (size 15 to 20)
#    0.000    1.667    1.667    3.500    7.000    1.333 
#    0.000    0.000    0.000    2.000    0.000    0.000 
#    0.000    0.000    0.000    0.000    0.000    0.000 
#
# Total GULP energy -594891.190153 kJ/mol
# GULP energy per Si atom -12393.566462 kJ/mol
# Density = 1.864849 g / cm^3
# Si number density = 18.691036 Si / 1000 Ang^3
#
#
#
# Elastic Constant Matrix: (Units=GPa)
#
#
# Indices 1 2 3 4 5 6 
#
# 1 90.2231 49.4514 57.8736 0.0000 0.0000 0.0000
# 2 49.4514 96.8443 54.9336 0.0000 0.0000 0.0000
# 3 57.8736 54.9336 128.2706 0.0000 0.0000 0.0000
# 4 0.0000 0.0000 0.0000 24.5752 0.0000 0.0000
# 5 0.0000 0.0000 0.0000 0.0000 29.4710 0.0000
# 6 0.0000 0.0000 0.0000 0.0000 0.0000 25.1319
#
#
#
# Elastic Compliance Matrix: (Units=1/GPa)
#
#
# Indices 1 2 3 4 5 6 
#
# 1 0.017917 -0.006028 -0.005502 0.000000 0.000000 0.000000
# 2 -0.006028 0.015667 -0.003990 0.000000 0.000000 0.000000
# 3 -0.005502 -0.003990 0.011987 0.000000 0.000000 0.000000
# 4 0.000000 0.000000 0.000000 0.040691 0.000000 0.000000
# 5 0.000000 0.000000 0.000000 0.000000 0.033932 0.000000
# 6 0.000000 0.000000 0.000000 0.000000 0.000000 0.039790
#
#
# Mechanical properties :
#
#
# Convention : Reuss Voigt Hill
#
# Bulk Modulus (GPa) = 68.81776 71.09502 69.95639
# Shear Modulus (GPa) = 25.52734 26.04093 25.78413
#
# Velocity S-wave (km/s) = 3.69962 3.73665 3.71818
# Velocity P-wave (km/s) = 7.42618 7.53235 7.47945
#
# Compressibility (1/GPa) = 0.01453113
#
# Stress axis : x y z
#
# Youngs Moduli (GPa) = 55.81308 63.82816 83.42112
#
# Poissons Ratio (x) = 0.38474 0.45901
# Poissons Ratio (y) = 0.33643 0.33285
# Poissons Ratio (z) = 0.30710 0.25467
#
# Static dielectric constant tensor:
#      x y z
#    x 3.667000 0.000000 0.000000 
#    y 0.000000 3.247710 0.000000 
#    z 0.000000 0.000000 3.325790 
# 
# 
# High freq. dielectric constant tensor:
#      x y z
#    x 1.740660 0.000000 0.000000 
#    y 0.000000 1.697700 0.000000 
#    z 0.000000 0.000000 1.714850 
# 
# From -- ./inp_files/11294.got.cif
#   From: 2010.03.12/outbox.cif.g09.slc.cpg/sg62_6_cif.got.tgz:11294.got - 2010.04.10 19:12:36.
