data_PCOD8253165
_publ_section_title
;
Structure prediction by ZEFSAII (Michael W. Deem and Ramdas Pophale) SiO2 
 PCOD8253165
Probable space group: P N M A
;
_chemical_formula_sum "Si O2"
_cell_formula_units_Z 48
_cell_length_a 18.074554
_cell_length_b 17.515926
_cell_length_c 8.328541
_cell_angle_alpha 90.000000
_cell_angle_beta 90.000000
_cell_angle_gamma 90.000000
_cell_volume 2636.754036
_symmetry_space_group_name_H-M "P N M A"
_symmetry_group_IT_number 62
_symmetry_cell_setting 'orthorhombic'
loop_
_space_group_symop_operation_xyz
x,y,z
1/2-x,-y,1/2+z
1/2+x,1/2-y,1/2-z
-x,1/2+y,-z
-x,-y,-z
1/2+x,y,1/2-z
1/2-x,1/2+y,1/2+z
x,1/2-y,z
loop_
_atom_site_type_symbol
_atom_site_label
_atom_site_fract_x
_atom_site_fract_y
_atom_site_fract_z
Si Si1 0.560743 0.946030 0.079712
Si Si2 0.338655 0.460350 0.375867
Si Si3 0.417835 0.836078 0.642806
Si Si4 0.680338 0.025417 0.275610
Si Si5 0.032778 0.436900 0.877751
Si Si6 0.573727 0.837713 0.794831
O O1 0.524962 0.913056 0.242266
O O2 0.634897 0.990721 0.127510
O O3 0.587204 0.877505 0.966161
O O4 0.500000 0.000000 0.000000
O O5 0.264506 0.467108 0.274871
O O6 0.326454 0.472493 0.566003
O O7 0.393262 0.525179 0.303145
O O8 0.377373 0.378278 0.344004
O O9 0.387791 0.750000 0.639213
O O10 0.350272 0.889869 0.692304
O O11 0.447074 0.858723 0.466848
O O12 0.486271 0.845413 0.763820
O O13 0.000000 0.500000 0.000000
O O14 0.598998 0.750000 0.802680
#
# Coordination Sequence:
#
# PCOD8253165 Si02
#       6
#     8   8   8   8   8   8
#     4  12  19  35  61  86 115 149 194 247 278 346
#     4  11  21  37  57  86 114 152 195 241 286 348
#     4  10  20  37  58  82 115 151 188 233 291 345
#     4  11  22  36  60  87 112 154 199 237 292 346
#     4  11  18  37  60  86 110 151 195 242 283 341
#     4  11  22  36  57  86 116 151 190 235 293 343
#
# _framework density 18.2042
#
# number of rings (size 3 to 8) (size 9 to 14) (size 15 to 20)
#    0.000    1.000    8.333    1.000    0.000    1.333 
#    0.000    0.833    0.000    4.000    0.000    0.000 
#    0.000    0.000    0.000    0.000    0.000    0.000 
#
# Total GULP energy -595159.732616 kJ/mol
# GULP energy per Si atom -12399.161096 kJ/mol
# Density = 1.816277 g / cm^3
# Si number density = 18.204200 Si / 1000 Ang^3
#
#
#
# Elastic Constant Matrix: (Units=GPa)
#
#
# Indices 1 2 3 4 5 6 
#
# 1 100.6345 43.6974 33.5391 0.0000 0.0000 0.0000
# 2 43.6974 133.1050 63.4631 0.0000 0.0000 0.0000
# 3 33.5391 63.4631 84.2197 0.0000 0.0000 0.0000
# 4 0.0000 0.0000 0.0000 28.6488 0.0000 0.0000
# 5 0.0000 0.0000 0.0000 0.0000 36.5808 0.0000
# 6 0.0000 0.0000 0.0000 0.0000 0.0000 21.2318
#
#
#
# Elastic Compliance Matrix: (Units=1/GPa)
#
#
# Indices 1 2 3 4 5 6 
#
# 1 0.012005 -0.002594 -0.002826 0.000000 0.000000 0.000000
# 2 -0.002594 0.012286 -0.008225 0.000000 0.000000 0.000000
# 3 -0.002826 -0.008225 0.019197 0.000000 0.000000 0.000000
# 4 0.000000 0.000000 0.000000 0.034905 0.000000 0.000000
# 5 0.000000 0.000000 0.000000 0.000000 0.027337 0.000000
# 6 0.000000 0.000000 0.000000 0.000000 0.000000 0.047099
#
#
# Mechanical properties :
#
#
# Convention : Reuss Voigt Hill
#
# Bulk Modulus (GPa) = 61.73597 66.59536 64.16567
# Shear Modulus (GPa) = 26.95133 29.10958 28.03046
#
# Velocity S-wave (km/s) = 3.85190 4.00316 3.92826
# Velocity P-wave (km/s) = 7.33277 7.61767 7.47658
#
# Compressibility (1/GPa) = 0.01619801
#
# Stress axis : x y z
#
# Youngs Moduli (GPa) = 83.29780 81.39348 52.09057
#
# Poissons Ratio (x) = 0.21110 0.14723
# Poissons Ratio (y) = 0.21604 0.42845
# Poissons Ratio (z) = 0.23544 0.66948
#
# Static dielectric constant tensor:
#      x y z
#    x 3.513380 0.000000 0.000000 
#    y 0.000000 3.281550 0.000000 
#    z 0.000000 0.000000 3.561120 
# 
# 
# High freq. dielectric constant tensor:
#      x y z
#    x 1.710250 0.000000 0.000000 
#    y 0.000000 1.685380 0.000000 
#    z 0.000000 0.000000 1.709700 
# 
# From -- ./inp_files/7799.got.cif
#   From: 2010.03.12/outbox.cif.g09.slc.cpg/sg62_4_cif.got.tgz:7799.got - 2010.04.10 19:12:36.
