data_PCOD8253890
_publ_section_title
;
Structure prediction by ZEFSAII (Michael W. Deem and Ramdas Pophale) SiO2 
 PCOD8253890
Probable space group: P N M A
;
_chemical_formula_sum "Si O2"
_cell_formula_units_Z 56
_cell_length_a 19.267214
_cell_length_b 8.938022
_cell_length_c 16.349346
_cell_angle_alpha 90.000000
_cell_angle_beta 90.000000
_cell_angle_gamma 90.000000
_cell_volume 2815.533670
_symmetry_space_group_name_H-M "P N M A"
_symmetry_group_IT_number 62
_symmetry_cell_setting 'orthorhombic'
loop_
_space_group_symop_operation_xyz
x,y,z
1/2-x,-y,1/2+z
1/2+x,1/2-y,1/2-z
-x,1/2+y,-z
-x,-y,-z
1/2+x,y,1/2-z
1/2-x,1/2+y,1/2+z
x,1/2-y,z
loop_
_atom_site_type_symbol
_atom_site_label
_atom_site_fract_x
_atom_site_fract_y
_atom_site_fract_z
Si Si1 0.693041 0.077569 0.823450
Si Si2 0.887376 0.077525 0.179389
Si Si3 0.335751 0.574408 0.481267
Si Si4 0.180171 0.578854 0.512593
Si Si5 0.646389 0.923386 0.351673
Si Si6 0.965524 0.576854 0.742460
Si Si7 0.040766 0.923741 0.427225
O O1 0.673188 0.250000 0.811695
O O2 0.775120 0.051150 0.823209
O O3 0.662042 0.984518 0.749563
O O4 0.661096 0.022120 0.909228
O O5 0.868644 0.250000 0.166364
O O6 0.967437 0.054719 0.201480
O O7 0.875471 0.990194 0.095912
O O8 0.348268 0.750000 0.484681
O O9 0.254241 0.533110 0.474478
O O10 0.368643 0.503811 0.562571
O O11 0.181753 0.750000 0.543379
O O12 0.123117 0.555316 0.442306
O O13 0.628496 0.750000 0.361951
O O14 0.599049 0.993160 0.281956
O O15 0.946903 0.750000 0.730587
O O16 0.981725 0.504751 0.655208
O O17 0.020593 0.750000 0.421786
O O18 0.000000 0.000000 0.500000
#
# Coordination Sequence:
#
# PCOD8253890 Si02
#       7
#     8   8   8   8   8   8   8
#     4  10  21  37  61  90 120 154 197 246 297 356
#     4  11  24  40  59  86 121 158 200 248 299 356
#     4  10  21  39  63  89 117 153 200 249 301 357
#     4   9  20  38  59  85 118 153 192 243 297 352
#     4  10  22  41  63  89 121 156 199 250 304 360
#     4  11  25  42  60  87 121 161 205 248 301 361
#     4  11  23  39  60  88 124 161 200 248 300 359
#
# _framework density 19.889657
#
# number of rings (size 3 to 8) (size 9 to 14) (size 15 to 20)
#    0.000    1.714    0.000    3.429    2.000    9.714 
#    0.000    0.000    0.000    0.000    0.000    0.000 
#    0.000    0.000    0.000    0.000    0.000    0.000 
#
# Total GULP energy -694759.149858 kJ/mol
# GULP energy per Si atom -12406.413390 kJ/mol
# Density = 1.984439 g / cm^3
# Si number density = 19.889657 Si / 1000 Ang^3
#
#
#
# Elastic Constant Matrix: (Units=GPa)
#
#
# Indices 1 2 3 4 5 6 
#
# 1 48.6386 35.5922 18.0479 0.0000 0.0000 0.0000
# 2 35.5922 121.9950 38.1567 0.0000 0.0000 0.0000
# 3 18.0479 38.1567 64.4657 0.0000 0.0000 0.0000
# 4 0.0000 0.0000 0.0000 40.1710 0.0000 0.0000
# 5 0.0000 0.0000 0.0000 0.0000 31.4980 0.0000
# 6 0.0000 0.0000 0.0000 0.0000 0.0000 32.1811
#
#
#
# Elastic Compliance Matrix: (Units=1/GPa)
#
#
# Indices 1 2 3 4 5 6 
#
# 1 0.026778 -0.006710 -0.003525 0.000000 0.000000 0.000000
# 2 -0.006710 0.011741 -0.005071 0.000000 0.000000 0.000000
# 3 -0.003525 -0.005071 0.019500 0.000000 0.000000 0.000000
# 4 0.000000 0.000000 0.000000 0.024894 0.000000 0.000000
# 5 0.000000 0.000000 0.000000 0.000000 0.031748 0.000000
# 6 0.000000 0.000000 0.000000 0.000000 0.000000 0.031074
#
#
# Mechanical properties :
#
#
# Convention : Reuss Voigt Hill
#
# Bulk Modulus (GPa) = 36.48666 46.52143 41.50405
# Shear Modulus (GPa) = 26.95676 30.32351 28.64013
#
# Velocity S-wave (km/s) = 3.68545 3.90883 3.79879
# Velocity P-wave (km/s) = 6.04106 6.61910 6.33668
#
# Compressibility (1/GPa) = 0.02740728
#
# Stress axis : x y z
#
# Youngs Moduli (GPa) = 37.34411 85.17420 51.28111
#
# Poissons Ratio (x) = 0.57151 0.18078
# Poissons Ratio (y) = 0.25058 0.26003
# Poissons Ratio (z) = 0.13165 0.43189
#
# Static dielectric constant tensor:
#      x y z
#    x 3.689210 0.000000 0.000000 
#    y 0.000000 3.813180 0.000000 
#    z 0.000000 0.000000 3.576900 
# 
# 
# High freq. dielectric constant tensor:
#      x y z
#    x 1.779740 0.000000 0.000000 
#    y 0.000000 1.791560 0.000000 
#    z 0.000000 0.000000 1.779890 
# 
# From -- ./inp_files/20381.got.cif
#   From: 2010.03.12/outbox.cif.g09.slc.cpg/sg62_11_cif.got.tgz:20381.got - 2010.04.10 19:12:36.
