data_PCOD8253669
_publ_section_title
;
Structure prediction by ZEFSAII (Michael W. Deem and Ramdas Pophale) SiO2 
 PCOD8253669
Probable space group: P N M A
;
_chemical_formula_sum "Si O2"
_cell_formula_units_Z 56
_cell_length_a 8.689957
_cell_length_b 20.156881
_cell_length_c 16.390687
_cell_angle_alpha 90.000000
_cell_angle_beta 90.000000
_cell_angle_gamma 90.000000
_cell_volume 2871.032550
_symmetry_space_group_name_H-M "P N M A"
_symmetry_group_IT_number 62
_symmetry_cell_setting 'orthorhombic'
loop_
_space_group_symop_operation_xyz
x,y,z
1/2-x,-y,1/2+z
1/2+x,1/2-y,1/2-z
-x,1/2+y,-z
-x,-y,-z
1/2+x,y,1/2-z
1/2-x,1/2+y,1/2+z
x,1/2-y,z
loop_
_atom_site_type_symbol
_atom_site_label
_atom_site_fract_x
_atom_site_fract_y
_atom_site_fract_z
Si Si1 0.395768 0.901791 0.241113
Si Si2 0.338279 0.325537 0.846535
Si Si3 0.756607 0.399226 0.179840
Si Si4 0.268160 0.674693 0.524543
Si Si5 0.145459 0.505782 0.202483
Si Si6 0.941848 0.172420 0.320600
Si Si7 0.010710 0.437116 0.059103
O O1 0.511135 0.863440 0.182846
O O2 0.317145 0.853541 0.306495
O O3 0.478748 0.960850 0.289595
O O4 0.267585 0.936012 0.183749
O O5 0.353543 0.250000 0.818842
O O6 0.333541 0.333302 0.943617
O O7 0.688361 0.467681 0.214593
O O8 0.617085 0.349158 0.161374
O O9 0.878228 0.367103 0.242599
O O10 0.844967 0.416775 0.095891
O O11 0.329921 0.750000 0.532877
O O12 0.161055 0.656097 0.600856
O O13 0.416794 0.627346 0.515841
O O14 0.135133 0.454601 0.128737
O O15 0.940973 0.250000 0.299511
O O16 0.000000 0.500000 0.000000
#
# Coordination Sequence:
#
# PCOD8253669 Si02
#       7
#     8   8   8   8   8   8   8
#     4  10  21  35  64  85 118 159 204 255 314 365
#     4  10  21  40  62  89 120 160 211 259 311 378
#     4  12  22  40  62  91 128 162 211 259 301 374
#     4  10  23  42  61  88 131 168 205 264 322 371
#     4  11  20  38  57  89 120 155 200 251 303 363
#     4  11  22  39  65  94 125 172 213 255 316 378
#     4  12  25  40  63  94 128 165 211 256 320 378
#
# _framework density 19.505175999999999
#
# number of rings (size 3 to 8) (size 9 to 14) (size 15 to 20)
#    0.000    1.143    4.286    1.714    2.000    3.429 
#    0.000    1.429    0.000    7.714    0.000    0.000 
#    0.000    0.000    0.000    0.000    0.000    0.000 
#
# Total GULP energy -694515.540781 kJ/mol
# GULP energy per Si atom -12402.063228 kJ/mol
# Density = 1.946078 g / cm^3
# Si number density = 19.505176 Si / 1000 Ang^3
#
#
#
# Elastic Constant Matrix: (Units=GPa)
#
#
# Indices 1 2 3 4 5 6 
#
# 1 87.7235 32.2691 23.7024 0.0000 0.0000 0.0000
# 2 32.2691 88.6554 24.9493 0.0000 0.0000 0.0000
# 3 23.7024 24.9493 59.2756 0.0000 0.0000 0.0000
# 4 0.0000 0.0000 0.0000 35.1602 0.0000 0.0000
# 5 0.0000 0.0000 0.0000 0.0000 28.8250 0.0000
# 6 0.0000 0.0000 0.0000 0.0000 0.0000 39.0398
#
#
#
# Elastic Compliance Matrix: (Units=1/GPa)
#
#
# Indices 1 2 3 4 5 6 
#
# 1 0.013911 -0.003968 -0.003892 0.000000 0.000000 0.000000
# 2 -0.003968 0.013927 -0.004275 0.000000 0.000000 0.000000
# 3 -0.003892 -0.004275 0.020226 0.000000 0.000000 0.000000
# 4 0.000000 0.000000 0.000000 0.028441 0.000000 0.000000
# 5 0.000000 0.000000 0.000000 0.000000 0.034692 0.000000
# 6 0.000000 0.000000 0.000000 0.000000 0.000000 0.025615
#
#
# Mechanical properties :
#
#
# Convention : Reuss Voigt Hill
#
# Bulk Modulus (GPa) = 42.02926 44.16621 43.09774
# Shear Modulus (GPa) = 29.58330 30.92060 30.25195
#
# Velocity S-wave (km/s) = 3.89870 3.98584 3.94251
# Velocity P-wave (km/s) = 6.47000 6.62382 6.54737
#
# Compressibility (1/GPa) = 0.02379295
#
# Stress axis : x y z
#
# Youngs Moduli (GPa) = 71.88689 71.80289 49.44065
#
# Poissons Ratio (x) = 0.28491 0.19244
# Poissons Ratio (y) = 0.28524 0.21137
# Poissons Ratio (z) = 0.27981 0.30698
#
# Static dielectric constant tensor:
#      x y z
#    x 3.595980 0.000000 0.000000 
#    y 0.000000 3.757890 0.000000 
#    z 0.000000 0.000000 3.410810 
# 
# 
# High freq. dielectric constant tensor:
#      x y z
#    x 1.764880 0.000000 0.000000 
#    y 0.000000 1.780720 0.000000 
#    z 0.000000 0.000000 1.744030 
# 
# From -- ./inp_files/17185.got.cif
#   From: 2010.03.12/outbox.cif.g09.slc.cpg/sg62_9_cif.got.tgz:17185.got - 2010.04.10 19:12:36.
