data_PCOD8253488
_publ_section_title
;
Structure prediction by ZEFSAII (Michael W. Deem and Ramdas Pophale) SiO2 
 PCOD8253488
Probable space group: P N M A
;
_chemical_formula_sum "Si O2"
_cell_formula_units_Z 48
_cell_length_a 8.783170
_cell_length_b 16.551715
_cell_length_c 16.212530
_cell_angle_alpha 90.000000
_cell_angle_beta 90.000000
_cell_angle_gamma 90.000000
_cell_volume 2356.921299
_symmetry_space_group_name_H-M "P N M A"
_symmetry_group_IT_number 62
_symmetry_cell_setting 'orthorhombic'
loop_
_space_group_symop_operation_xyz
x,y,z
1/2-x,-y,1/2+z
1/2+x,1/2-y,1/2-z
-x,1/2+y,-z
-x,-y,-z
1/2+x,y,1/2-z
1/2-x,1/2+y,1/2+z
x,1/2-y,z
loop_
_atom_site_type_symbol
_atom_site_label
_atom_site_fract_x
_atom_site_fract_y
_atom_site_fract_z
Si Si1 0.380910 0.923125 0.659840
Si Si2 0.431299 0.940612 0.900028
Si Si3 0.014698 0.938209 0.260503
Si Si4 0.298486 0.344589 0.295803
Si Si5 0.264060 0.841479 0.332091
Si Si6 0.285384 0.077420 0.996447
O O1 0.547199 0.886779 0.676207
O O2 0.247423 0.870180 0.702852
O O3 0.350518 0.926909 0.562453
O O4 0.377840 0.013878 0.695999
O O5 0.342749 0.869700 0.853580
O O6 0.520837 0.000488 0.836511
O O7 0.305833 0.991384 0.951131
O O8 0.554351 0.899750 0.960211
O O9 0.097003 0.858285 0.295381
O O10 0.867172 0.908129 0.212653
O O11 0.324114 0.250000 0.301015
O O12 0.314601 0.750000 0.313427
O O13 0.262235 0.854535 0.430540
#
# Coordination Sequence:
#
# PCOD8253488 Si02
#       6
#     8   8   8   8   8   8
#     4  11  21  38  61  85 114 153 197 236 279 342
#     4   9  20  40  62  83 110 152 198 237 281 339
#     4  10  20  39  61  80 107 150 198 229 268 340
#     4  11  23  37  58  87 118 153 190 235 290 343
#     4  11  23  37  57  85 115 147 184 236 292 334
#     4  10  21  37  59  85 114 147 191 239 286 340
#
# _framework density 20.365549000000001
#
# number of rings (size 3 to 8) (size 9 to 14) (size 15 to 20)
#    0.000    1.667    0.000    7.000    0.000    4.667 
#    0.000    0.000    0.000    5.000    0.000    0.000 
#    0.000    0.000    0.000    0.000    0.000    0.000 
#
# Total GULP energy -595189.369445 kJ/mol
# GULP energy per Si atom -12399.778530 kJ/mol
# Density = 2.031920 g / cm^3
# Si number density = 20.365549 Si / 1000 Ang^3
#
#
#
# Elastic Constant Matrix: (Units=GPa)
#
#
# Indices 1 2 3 4 5 6 
#
# 1 66.9094 22.8337 44.6214 0.0000 0.0000 0.0000
# 2 22.8337 88.1218 42.4109 0.0000 0.0000 0.0000
# 3 44.6214 42.4109 129.9115 0.0000 0.0000 0.0000
# 4 0.0000 0.0000 0.0000 20.7409 0.0000 0.0000
# 5 0.0000 0.0000 0.0000 0.0000 43.5905 0.0000
# 6 0.0000 0.0000 0.0000 0.0000 0.0000 18.5349
#
#
#
# Elastic Compliance Matrix: (Units=1/GPa)
#
#
# Indices 1 2 3 4 5 6 
#
# 1 0.019738 -0.002197 -0.006062 0.000000 0.000000 0.000000
# 2 -0.002197 0.013708 -0.003720 0.000000 0.000000 0.000000
# 3 -0.006062 -0.003720 0.010994 0.000000 0.000000 0.000000
# 4 0.000000 0.000000 0.000000 0.048214 0.000000 0.000000
# 5 0.000000 0.000000 0.000000 0.000000 0.022941 0.000000
# 6 0.000000 0.000000 0.000000 0.000000 0.000000 0.053952
#
#
# Mechanical properties :
#
#
# Convention : Reuss Voigt Hill
#
# Bulk Modulus (GPa) = 48.82573 56.07500 52.45036
# Shear Modulus (GPa) = 24.95834 28.24504 26.60169
#
# Velocity S-wave (km/s) = 3.50454 3.72815 3.61807
# Velocity P-wave (km/s) = 6.35629 6.79163 6.57756
#
# Compressibility (1/GPa) = 0.02048101
#
# Stress axis : x y z
#
# Youngs Moduli (GPa) = 50.66295 72.95157 90.95499
#
# Poissons Ratio (x) = 0.16026 0.55141
# Poissons Ratio (y) = 0.11130 0.33840
# Poissons Ratio (z) = 0.30714 0.27142
#
# Static dielectric constant tensor:
#      x y z
#    x 3.558910 0.000000 0.000000 
#    y 0.000000 3.420750 0.000000 
#    z 0.000000 0.000000 3.911920 
# 
# 
# High freq. dielectric constant tensor:
#      x y z
#    x 1.798150 0.000000 0.000000 
#    y 0.000000 1.775330 0.000000 
#    z 0.000000 0.000000 1.804730 
# 
# From -- ./inp_files/16969.got.cif
#   From: 2010.03.12/outbox.cif.g09.slc.cpg/sg62_9_cif.got.tgz:16969.got - 2010.04.10 19:12:36.
