data_PCOD8253464
_publ_section_title
;
Structure prediction by ZEFSAII (Michael W. Deem and Ramdas Pophale) SiO2 
 PCOD8253464
Probable space group: P N M A
;
_chemical_formula_sum "Si O2"
_cell_formula_units_Z 36
_cell_length_a 14.458058
_cell_length_b 14.113471
_cell_length_c 8.470717
_cell_angle_alpha 90.000000
_cell_angle_beta 90.000000
_cell_angle_gamma 90.000000
_cell_volume 1728.478454
_symmetry_space_group_name_H-M "P N M A"
_symmetry_group_IT_number 62
_symmetry_cell_setting 'orthorhombic'
loop_
_space_group_symop_operation_xyz
x,y,z
1/2-x,-y,1/2+z
1/2+x,1/2-y,1/2-z
-x,1/2+y,-z
-x,-y,-z
1/2+x,y,1/2-z
1/2-x,1/2+y,1/2+z
x,1/2-y,z
loop_
_atom_site_type_symbol
_atom_site_label
_atom_site_fract_x
_atom_site_fract_y
_atom_site_fract_z
Si Si1 0.512072 0.250000 0.765445
Si Si2 0.290127 0.042252 0.691233
Si Si3 0.871800 0.449314 0.155103
Si Si4 0.392020 0.250000 0.448157
Si Si5 0.767802 0.750000 0.320313
Si Si6 0.526441 0.955313 0.163328
O O1 0.471035 0.250000 0.585931
O O2 0.622181 0.250000 0.796968
O O3 0.472054 0.341995 0.851571
O O4 0.326009 0.032055 0.513580
O O5 0.266506 0.149630 0.750397
O O6 0.371889 0.005442 0.802293
O O7 0.203631 0.972248 0.710089
O O8 0.906276 0.340931 0.163643
O O9 0.959183 0.516370 0.191422
O O10 0.284124 0.250000 0.508129
O O11 0.500000 0.000000 0.000000
#
# Coordination Sequence:
#
# PCOD8253464 Si02
#       6
#     4   8   8   4   4   8
#     4  12  22  43  68  97 134 179 221 275 350 395
#     4  11  22  40  67  95 130 174 222 277 332 399
#     4  11  23  44  66  97 132 176 226 272 341 395
#     4  10  24  43  67  94 139 178 223 284 332 398
#     4  10  20  38  65  93 125 175 218 263 336 405
#     4  12  25  41  67 100 134 177 226 276 334 408
#
# _framework density 20.827566999999998
#
# number of rings (size 3 to 8) (size 9 to 14) (size 15 to 20)
#    0.000    0.889    6.667    2.000    3.111    0.889 
#    0.000    5.556    0.000    0.000    0.000    0.000 
#    0.000    0.000    0.000    0.000    0.000    0.000 
#
# Total GULP energy -445981.115842 kJ/mol
# GULP energy per Si atom -12388.364329 kJ/mol
# Density = 2.078016 g / cm^3
# Si number density = 20.827567 Si / 1000 Ang^3
#
#
#
# Elastic Constant Matrix: (Units=GPa)
#
#
# Indices 1 2 3 4 5 6 
#
# 1 98.4570 14.5666 4.0291 0.0000 0.0000 0.0000
# 2 14.5666 125.9952 42.1689 0.0000 0.0000 0.0000
# 3 4.0291 42.1689 59.7111 0.0000 0.0000 0.0000
# 4 0.0000 0.0000 0.0000 35.4201 0.0000 0.0000
# 5 0.0000 0.0000 0.0000 0.0000 40.0661 0.0000
# 6 0.0000 0.0000 0.0000 0.0000 0.0000 27.2828
#
#
#
# Elastic Compliance Matrix: (Units=1/GPa)
#
#
# Indices 1 2 3 4 5 6 
#
# 1 0.010335 -0.001259 0.000192 0.000000 0.000000 0.000000
# 2 -0.001259 0.010547 -0.007363 0.000000 0.000000 0.000000
# 3 0.000192 -0.007363 0.021934 0.000000 0.000000 0.000000
# 4 0.000000 0.000000 0.000000 0.028233 0.000000 0.000000
# 5 0.000000 0.000000 0.000000 0.000000 0.024959 0.000000
# 6 0.000000 0.000000 0.000000 0.000000 0.000000 0.036653
#
#
# Mechanical properties :
#
#
# Convention : Reuss Voigt Hill
#
# Bulk Modulus (GPa) = 38.52797 45.07695 41.80246
# Shear Modulus (GPa) = 31.61081 35.44706 33.52893
#
# Velocity S-wave (km/s) = 3.90004 4.12992 4.01663
# Velocity P-wave (km/s) = 6.23050 6.66570 6.45177
#
# Compressibility (1/GPa) = 0.02595517
#
# Stress axis : x y z
#
# Youngs Moduli (GPa) = 96.75719 94.81568 45.59037
#
# Poissons Ratio (x) = 0.11938 -0.00874
# Poissons Ratio (y) = 0.12182 0.33570
# Poissons Ratio (z) = -0.01856 0.69816
#
# Static dielectric constant tensor:
#      x y z
#    x 4.237170 0.000000 0.000000 
#    y 0.000000 4.175130 0.000000 
#    z 0.000000 0.000000 3.512480 
# 
# 
# High freq. dielectric constant tensor:
#      x y z
#    x 1.835800 0.000000 0.000000 
#    y 0.000000 1.825340 0.000000 
#    z 0.000000 0.000000 1.784750 
# 
# From -- ./inp_files/6035.got.cif
#   From: 2010.03.12/outbox.cif.g09.slc.cpg/sg62_4_cif.got.tgz:6035.got - 2010.04.10 19:12:36.
