data_PCOD8253542
_publ_section_title
;
Structure prediction by ZEFSAII (Michael W. Deem and Ramdas Pophale) SiO2 
 PCOD8253542
Probable space group: P N M A
;
_chemical_formula_sum "Si O2"
_cell_formula_units_Z 48
_cell_length_a 10.152621
_cell_length_b 14.222101
_cell_length_c 16.224986
_cell_angle_alpha 90.000000
_cell_angle_beta 90.000000
_cell_angle_gamma 90.000000
_cell_volume 2342.751709
_symmetry_space_group_name_H-M "P N M A"
_symmetry_group_IT_number 62
_symmetry_cell_setting 'orthorhombic'
loop_
_space_group_symop_operation_xyz
x,y,z
1/2-x,-y,1/2+z
1/2+x,1/2-y,1/2-z
-x,1/2+y,-z
-x,-y,-z
1/2+x,y,1/2-z
1/2-x,1/2+y,1/2+z
x,1/2-y,z
loop_
_atom_site_type_symbol
_atom_site_label
_atom_site_fract_x
_atom_site_fract_y
_atom_site_fract_z
Si Si1 0.590103 0.550049 0.567454
Si Si2 0.916502 0.250000 0.149550
Si Si3 0.464663 0.080816 0.116075
Si Si4 0.111691 0.250000 0.307280
Si Si5 0.432866 0.959457 0.258276
Si Si6 0.338120 0.443077 0.957280
Si Si7 0.811669 0.145348 0.706581
O O1 0.500000 0.500000 0.500000
O O2 0.568158 0.660774 0.587439
O O3 0.564771 0.494090 0.649894
O O4 0.737561 0.530640 0.535063
O O5 0.772915 0.250000 0.197356
O O6 0.035575 0.250000 0.218198
O O7 0.569497 0.160621 0.138466
O O8 0.392628 0.048001 0.200075
O O9 0.527998 0.986497 0.078455
O O10 0.360021 0.110730 0.045077
O O11 0.578347 0.925279 0.238231
O O12 0.324322 0.878280 0.246566
O O13 0.289194 0.365118 0.891844
O O14 0.853803 0.250000 0.729459
#
# Coordination Sequence:
#
# PCOD8253542 Si02
#       7
#     8   4   8   4   8   8   8
#     4  11  24  44  64  94 140 171 219 280 337 411
#     4  12  26  46  70 110 131 181 228 284 355 409
#     4  10  20  39  66  94 124 172 210 270 332 393
#     4  12  24  40  76 102 139 163 236 288 329 421
#     4  10  22  39  65  88 127 167 211 269 333 385
#     4   9  21  39  62  91 130 168 213 266 334 387
#     4  10  21  39  60  89 125 166 220 265 315 400
#
# _framework density 20.488727000000001
#
# number of rings (size 3 to 8) (size 9 to 14) (size 15 to 20)
#    0.000    1.667    3.333    0.500    3.500    1.333 
#    7.500    0.000    0.000    0.000    0.000    0.000 
#    0.000    0.000    0.000    0.000    0.000    0.000 
#
# Total GULP energy -594723.512214 kJ/mol
# GULP energy per Si atom -12390.073171 kJ/mol
# Density = 2.044209 g / cm^3
# Si number density = 20.488727 Si / 1000 Ang^3
#
#
#
# Elastic Constant Matrix: (Units=GPa)
#
#
# Indices 1 2 3 4 5 6 
#
# 1 87.9020 23.3188 47.2750 0.0000 0.0000 0.0000
# 2 23.3188 87.2372 19.5540 0.0000 0.0000 0.0000
# 3 47.2750 19.5540 100.5011 0.0000 0.0000 0.0000
# 4 0.0000 0.0000 0.0000 22.3781 0.0000 0.0000
# 5 0.0000 0.0000 0.0000 0.0000 29.3671 0.0000
# 6 0.0000 0.0000 0.0000 0.0000 0.0000 27.7040
#
#
#
# Elastic Compliance Matrix: (Units=1/GPa)
#
#
# Indices 1 2 3 4 5 6 
#
# 1 0.015804 -0.002675 -0.006914 0.000000 0.000000 0.000000
# 2 -0.002675 0.012438 -0.001162 0.000000 0.000000 0.000000
# 3 -0.006914 -0.001162 0.013428 0.000000 0.000000 0.000000
# 4 0.000000 0.000000 0.000000 0.044686 0.000000 0.000000
# 5 0.000000 0.000000 0.000000 0.000000 0.034052 0.000000
# 6 0.000000 0.000000 0.000000 0.000000 0.000000 0.036096
#
#
# Mechanical properties :
#
#
# Convention : Reuss Voigt Hill
#
# Bulk Modulus (GPa) = 49.57829 50.65954 50.11891
# Shear Modulus (GPa) = 27.06663 28.25602 27.66133
#
# Velocity S-wave (km/s) = 3.63857 3.71765 3.67832
# Velocity P-wave (km/s) = 6.47322 6.57322 6.52341
#
# Compressibility (1/GPa) = 0.02017012
#
# Stress axis : x y z
#
# Youngs Moduli (GPa) = 63.27421 80.39613 74.46904
#
# Poissons Ratio (x) = 0.21504 0.51486
# Poissons Ratio (y) = 0.16925 0.08652
# Poissons Ratio (z) = 0.43746 0.09341
#
# Static dielectric constant tensor:
#      x y z
#    x 3.712050 0.000000 0.000000 
#    y 0.000000 3.669930 0.000000 
#    z 0.000000 0.000000 4.136110 
# 
# 
# High freq. dielectric constant tensor:
#      x y z
#    x 1.796390 0.000000 0.000000 
#    y 0.000000 1.791380 0.000000 
#    z 0.000000 0.000000 1.807600 
# 
# From -- ./inp_files/18026.got.cif
#   From: 2010.03.12/outbox.cif.g09.slc.cpg/sg62_10_cif.got.tgz:18026.got - 2010.04.10 19:12:36.
