data_PCOD8253791
_publ_section_title
;
Structure prediction by ZEFSAII (Michael W. Deem and Ramdas Pophale) SiO2 
 PCOD8253791
Probable space group: P N M A
;
_chemical_formula_sum "Si O2"
_cell_formula_units_Z 64
_cell_length_a 19.973022
_cell_length_b 20.077272
_cell_length_c 8.129808
_cell_angle_alpha 90.000000
_cell_angle_beta 90.000000
_cell_angle_gamma 90.000000
_cell_volume 3260.083864
_symmetry_space_group_name_H-M "P N M A"
_symmetry_group_IT_number 62
_symmetry_cell_setting 'orthorhombic'
loop_
_space_group_symop_operation_xyz
x,y,z
1/2-x,-y,1/2+z
1/2+x,1/2-y,1/2-z
-x,1/2+y,-z
-x,-y,-z
1/2+x,y,1/2-z
1/2-x,1/2+y,1/2+z
x,1/2-y,z
loop_
_atom_site_type_symbol
_atom_site_label
_atom_site_fract_x
_atom_site_fract_y
_atom_site_fract_z
Si Si1 0.694573 0.673528 0.885185
Si Si2 0.077592 0.436187 0.892646
Si Si3 0.923938 0.326058 0.152310
Si Si4 0.922407 0.063813 0.892647
Si Si5 0.076062 0.173942 0.152309
Si Si6 0.310614 0.941858 0.130477
Si Si7 0.305427 0.826472 0.885185
Si Si8 0.189386 0.941858 0.369522
O O1 0.699867 0.750000 0.942747
O O2 0.622003 0.657113 0.808423
O O3 0.750000 0.656641 0.750000
O O4 0.706191 0.627917 0.043243
O O5 0.120108 0.434970 0.727344
O O6 1.000000 0.437982 0.841470
O O7 0.097392 0.500000 0.999999
O O8 0.095656 0.370667 0.996762
O O9 0.913048 0.250000 0.095882
O O10 1.000000 0.340227 0.208128
O O11 0.904343 0.370667 0.996763
O O12 0.879891 0.065030 0.727346
O O13 0.086952 0.250000 0.095881
O O14 0.122003 0.157113 0.308421
O O15 0.250000 0.960855 0.250000
O O16 0.293810 0.872083 0.043242
O O17 0.319696 0.000000 0.999999
O O18 0.300133 0.750000 0.942747
#
# Coordination Sequence:
#
# PCOD8253791 Si02
#       8
#     8   8   8   8   8   8   8   8
#     4  10  21  37  57  80 108 142 178 218 265 317
#     4  10  21  37  57  80 108 142 178 218 265 317
#     4   9  18  35  58  81 108 142 176 213 262 319
#     4  10  21  37  57  80 108 142 178 218 265 317
#     4   9  18  35  58  81 108 142 176 213 262 319
#     4  12  24  37  56  80 108 142 180 224 268 313
#     4  10  21  37  57  80 108 142 178 218 265 317
#     4  12  24  37  56  80 108 142 180 224 268 313
#
# _framework density 19.631397
#
# number of rings (size 3 to 8) (size 9 to 14) (size 15 to 20)
#    0.000    1.750    0.000    4.500    0.000    3.000 
#    0.000    0.000    0.000    0.000    0.000    0.000 
#    0.000    0.000    0.000    0.000    0.000    0.000 
#
# Total GULP energy -793980.314550 kJ/mol
# GULP energy per Si atom -12405.942415 kJ/mol
# Density = 1.958672 g / cm^3
# Si number density = 19.631397 Si / 1000 Ang^3
#
#
#
# Elastic Constant Matrix: (Units=GPa)
#
#
# Indices 1 2 3 4 5 6 
#
# 1 66.0954 19.9977 20.8712 0.0000 0.0000 0.0000
# 2 19.9977 91.2302 34.7085 0.0000 0.0000 0.0000
# 3 20.8712 34.7085 68.2449 0.0000 0.0000 0.0000
# 4 0.0000 0.0000 0.0000 43.7721 0.0000 0.0000
# 5 0.0000 0.0000 0.0000 0.0000 39.9031 0.0000
# 6 0.0000 0.0000 0.0000 0.0000 0.0000 22.8193
#
#
#
# Elastic Compliance Matrix: (Units=1/GPa)
#
#
# Indices 1 2 3 4 5 6 
#
# 1 0.017089 -0.002179 -0.004118 0.000000 0.000000 0.000000
# 2 -0.002179 0.013869 -0.006387 0.000000 0.000000 0.000000
# 3 -0.004118 -0.006387 0.019161 0.000000 0.000000 0.000000
# 4 0.000000 0.000000 0.000000 0.022846 0.000000 0.000000
# 5 0.000000 0.000000 0.000000 0.000000 0.025061 0.000000
# 6 0.000000 0.000000 0.000000 0.000000 0.000000 0.043823
#
#
# Mechanical properties :
#
#
# Convention : Reuss Voigt Hill
#
# Bulk Modulus (GPa) = 40.40339 41.85837 41.13088
# Shear Modulus (GPa) = 28.49535 31.29842 29.89689
#
# Velocity S-wave (km/s) = 3.81401 3.99721 3.90668
# Velocity P-wave (km/s) = 6.32624 6.53238 6.43014
#
# Compressibility (1/GPa) = 0.02475040
#
# Stress axis : x y z
#
# Youngs Moduli (GPa) = 58.51584 72.10354 52.18956
#
# Poissons Ratio (x) = 0.15714 0.21492
# Poissons Ratio (y) = 0.12752 0.33334
# Poissons Ratio (z) = 0.24097 0.46053
#
# Static dielectric constant tensor:
#      x y z
#    x 3.748810 0.000000 0.000000 
#    y 0.000000 3.762510 0.000000 
#    z 0.000000 0.000000 3.374700 
# 
# 
# High freq. dielectric constant tensor:
#      x y z
#    x 1.781390 0.000000 0.000000 
#    y 0.000000 1.781180 0.000000 
#    z 0.000000 0.000000 1.747190 
# 
# From -- ./inp_files/8101.got.cif
#   From: 2010.03.12/outbox.cif.g09.slc.cpg/sg62_5_cif.got.tgz:8101.got - 2010.04.10 19:12:36.
