data_PCOD8253648
_publ_section_title
;
Structure prediction by ZEFSAII (Michael W. Deem and Ramdas Pophale) SiO2 
 PCOD8253648
Probable space group: P N M A
;
_chemical_formula_sum "Si O2"
_cell_formula_units_Z 48
_cell_length_a 15.272172
_cell_length_b 8.641337
_cell_length_c 19.046788
_cell_angle_alpha 90.000000
_cell_angle_beta 90.000000
_cell_angle_gamma 90.000000
_cell_volume 2513.642420
_symmetry_space_group_name_H-M "P N M A"
_symmetry_group_IT_number 62
_symmetry_cell_setting 'orthorhombic'
loop_
_space_group_symop_operation_xyz
x,y,z
1/2-x,-y,1/2+z
1/2+x,1/2-y,1/2-z
-x,1/2+y,-z
-x,-y,-z
1/2+x,y,1/2-z
1/2-x,1/2+y,1/2+z
x,1/2-y,z
loop_
_atom_site_type_symbol
_atom_site_label
_atom_site_fract_x
_atom_site_fract_y
_atom_site_fract_z
Si Si1 0.151853 0.565846 0.322276
Si Si2 0.500655 0.067324 0.923133
Si Si3 0.662452 0.432202 0.830469
Si Si4 0.846939 0.568643 0.172107
Si Si5 0.997555 0.066188 0.922670
Si Si6 0.848843 0.931937 0.828622
O O1 0.148771 0.750000 0.312000
O O2 0.248740 0.508627 0.345366
O O3 0.125230 0.491627 0.248352
O O4 0.084199 0.507043 0.380964
O O5 0.498098 0.250000 0.927333
O O6 0.588111 0.011512 0.883939
O O7 0.500000 0.000000 0.000000
O O8 0.682494 0.250000 0.836221
O O9 0.629292 0.473962 0.752261
O O10 0.749607 0.525765 0.848674
O O11 0.848943 0.750000 0.161067
O O12 0.919040 0.495705 0.120119
O O13 0.000776 0.250000 0.925310
O O14 0.909026 0.013763 0.885746
O O15 0.000000 0.000000 0.000000
O O16 0.862515 0.750000 0.832800
#
# Coordination Sequence:
#
# PCOD8253648 Si02
#       6
#     8   8   8   8   8   8
#     4   9  18  37  60  80 104 141 182 222 270 329
#     4  10  21  35  55  82 114 149 183 220 272 329
#     4   9  18  36  58  80 105 141 184 224 268 324
#     4   8  16  33  59  81 101 135 181 222 263 318
#     4  11  22  37  55  80 114 150 183 221 269 328
#     4  11  22  36  56  83 108 138 181 231 279 322
#
# _framework density 19.095796
#
# number of rings (size 3 to 8) (size 9 to 14) (size 15 to 20)
#    0.000    2.333    0.000    4.000    0.000    5.333 
#    0.000   11.667    0.000    0.000    0.000    0.000 
#    0.000    0.000    0.000    0.000    0.000    0.000 
#
# Total GULP energy -595199.568380 kJ/mol
# GULP energy per Si atom -12399.991008 kJ/mol
# Density = 1.905233 g / cm^3
# Si number density = 19.095796 Si / 1000 Ang^3
#
#
#
# Elastic Constant Matrix: (Units=GPa)
#
#
# Indices 1 2 3 4 5 6 
#
# 1 113.2348 31.6641 99.8478 0.0000 0.0000 0.0000
# 2 31.6641 52.1669 34.3872 0.0000 0.0000 0.0000
# 3 99.8478 34.3872 166.9961 0.0000 0.0000 0.0000
# 4 0.0000 0.0000 0.0000 33.8044 0.0000 0.0000
# 5 0.0000 0.0000 0.0000 0.0000 20.6244 0.0000
# 6 0.0000 0.0000 0.0000 0.0000 0.0000 18.8607
#
#
#
# Elastic Compliance Matrix: (Units=1/GPa)
#
#
# Indices 1 2 3 4 5 6 
#
# 1 0.019685 -0.004848 -0.010771 0.000000 0.000000 0.000000
# 2 -0.004848 0.023374 -0.001914 0.000000 0.000000 0.000000
# 3 -0.010771 -0.001914 0.012823 0.000000 0.000000 0.000000
# 4 0.000000 0.000000 0.000000 0.029582 0.000000 0.000000
# 5 0.000000 0.000000 0.000000 0.000000 0.048486 0.000000
# 6 0.000000 0.000000 0.000000 0.000000 0.000000 0.053020
#
#
# Mechanical properties :
#
#
# Convention : Reuss Voigt Hill
#
# Bulk Modulus (GPa) = 48.04528 73.79957 60.92243
# Shear Modulus (GPa) = 21.83643 25.75781 23.79712
#
# Velocity S-wave (km/s) = 3.38527 3.67669 3.53398
# Velocity P-wave (km/s) = 6.36355 7.53359 6.97315
#
# Compressibility (1/GPa) = 0.02081370
#
# Stress axis : x y z
#
# Youngs Moduli (GPa) = 50.80062 42.78294 77.98718
#
# Poissons Ratio (x) = 0.20741 0.84003
# Poissons Ratio (y) = 0.24628 0.14930
# Poissons Ratio (z) = 0.54719 0.08190
#
# Static dielectric constant tensor:
#      x y z
#    x 3.412490 0.000000 0.000000 
#    y 0.000000 3.245530 0.000000 
#    z 0.000000 0.000000 3.442430 
# 
# 
# High freq. dielectric constant tensor:
#      x y z
#    x 1.758970 0.000000 0.000000 
#    y 0.000000 1.719340 0.000000 
#    z 0.000000 0.000000 1.741620 
# 
# From -- ./inp_files/23763.got.cif
#   From: 2010.03.12/outbox.cif.g09.slc.cpg/sg62_12_cif.got.tgz:23763.got - 2010.04.10 19:12:36.
