data_PCOD8253033
_publ_section_title
;
Structure prediction by ZEFSAII (Michael W. Deem and Ramdas Pophale) SiO2 
 PCOD8253033
Probable space group: P N M A
;
_chemical_formula_sum "Si O2"
_cell_formula_units_Z 64
_cell_length_a 12.120954
_cell_length_b 8.590960
_cell_length_c 29.392011
_cell_angle_alpha 90.000000
_cell_angle_beta 90.000000
_cell_angle_gamma 90.000000
_cell_volume 3060.608651
_symmetry_space_group_name_H-M "P N M A"
_symmetry_group_IT_number 62
_symmetry_cell_setting 'orthorhombic'
loop_
_space_group_symop_operation_xyz
x,y,z
1/2-x,-y,1/2+z
1/2+x,1/2-y,1/2-z
-x,1/2+y,-z
-x,-y,-z
1/2+x,y,1/2-z
1/2-x,1/2+y,1/2+z
x,1/2-y,z
loop_
_atom_site_type_symbol
_atom_site_label
_atom_site_fract_x
_atom_site_fract_y
_atom_site_fract_z
Si Si1 0.764680 0.069815 0.339321
Si Si2 0.811972 0.568808 0.436282
Si Si3 0.464373 0.433983 0.681489
Si Si4 0.541894 0.070023 0.062920
Si Si5 0.950228 0.927691 0.278389
Si Si6 0.378704 0.429304 0.850971
Si Si7 0.743346 0.431587 0.522242
Si Si8 0.852605 0.565950 0.114827
O O1 0.770345 0.250000 0.351887
O O2 0.773735 0.974383 0.385986
O O3 0.648691 0.027896 0.316369
O O4 0.859940 0.032884 0.303152
O O5 0.836157 0.750000 0.437532
O O6 0.720410 0.522300 0.474646
O O7 0.920449 0.477547 0.453350
O O8 0.439353 0.250000 0.679196
O O9 0.536961 0.474687 0.725902
O O10 0.535089 0.495063 0.637987
O O11 0.564450 0.250000 0.051980
O O12 0.544857 0.035889 0.116853
O O13 0.632588 0.963506 0.038943
O O14 0.910045 0.750000 0.283340
O O15 0.072045 0.949175 0.300562
O O16 0.387462 0.250000 0.867357
O O17 0.252191 0.487585 0.854394
O O18 0.726259 0.250000 0.513483
O O19 0.660811 0.492428 0.562469
O O20 0.856182 0.750000 0.115121
#
# Coordination Sequence:
#
# PCOD8253033 Si02
#       8
#     8   8   8   8   8   8   8   8
#     4  12  26  43  62  89 128 165 203 252 311 368
#     4  12  23  38  59  85 118 158 209 261 309 366
#     4  10  22  41  67  93 119 159 208 253 300 359
#     4  11  20  32  52  84 123 162 198 243 303 366
#     4  10  21  37  65  94 121 157 204 252 302 365
#     4   9  17  32  55  86 120 157 198 247 299 352
#     4  10  20  36  58  86 122 162 204 253 312 371
#     4   8  17  35  60  88 121 156 200 252 300 356
#
# _framework density 20.910872000000001
#
# number of rings (size 3 to 8) (size 9 to 14) (size 15 to 20)
#    0.000    1.750    1.250    4.875    1.750    0.500 
#    0.000    3.750    0.000    0.000    0.000    0.000 
#    0.000    0.000    0.000    0.000    0.000    0.000 
#
# Total GULP energy -793460.234404 kJ/mol
# GULP energy per Si atom -12397.816163 kJ/mol
# Density = 2.086328 g / cm^3
# Si number density = 20.910872 Si / 1000 Ang^3
#
#
#
# Elastic Constant Matrix: (Units=GPa)
#
#
# Indices 1 2 3 4 5 6 
#
# 1 67.0348 13.7372 18.2296 0.0000 0.0000 0.0000
# 2 13.7372 67.6072 17.3750 0.0000 0.0000 0.0000
# 3 18.2296 17.3750 96.8270 0.0000 0.0000 0.0000
# 4 0.0000 0.0000 0.0000 28.1903 0.0000 0.0000
# 5 0.0000 0.0000 0.0000 0.0000 18.7345 0.0000
# 6 0.0000 0.0000 0.0000 0.0000 0.0000 20.5682
#
#
#
# Elastic Compliance Matrix: (Units=1/GPa)
#
#
# Indices 1 2 3 4 5 6 
#
# 1 0.016154 -0.002622 -0.002571 0.000000 0.000000 0.000000
# 2 -0.002622 0.015932 -0.002365 0.000000 0.000000 0.000000
# 3 -0.002571 -0.002365 0.011236 0.000000 0.000000 0.000000
# 4 0.000000 0.000000 0.000000 0.035473 0.000000 0.000000
# 5 0.000000 0.000000 0.000000 0.000000 0.053377 0.000000
# 6 0.000000 0.000000 0.000000 0.000000 0.000000 0.048619
#
#
# Mechanical properties :
#
#
# Convention : Reuss Voigt Hill
#
# Bulk Modulus (GPa) = 35.45293 36.68364 36.06828
# Shear Modulus (GPa) = 24.35352 25.64042 24.99697
#
# Velocity S-wave (km/s) = 3.41638 3.50548 3.46121
# Velocity P-wave (km/s) = 5.70555 5.82799 5.76709
#
# Compressibility (1/GPa) = 0.02820641
#
# Stress axis : x y z
#
# Youngs Moduli (GPa) = 61.90416 62.76720 88.99839
#
# Poissons Ratio (x) = 0.16455 0.22880
# Poissons Ratio (y) = 0.16229 0.21051
# Poissons Ratio (z) = 0.15915 0.14846
#
# Static dielectric constant tensor:
#      x y z
#    x 3.683940 0.000000 0.000000 
#    y 0.000000 3.547380 0.000000 
#    z 0.000000 0.000000 4.068340 
# 
# 
# High freq. dielectric constant tensor:
#      x y z
#    x 1.796940 0.000000 0.000000 
#    y 0.000000 1.796870 0.000000 
#    z 0.000000 0.000000 1.831210 
# 
# From -- ./inp_files/32536.got.cif
#   From: 2010.03.12/outbox.cif.g09.slc.cpg/sg62_17_cif.got.tgz:32536.got - 2010.04.10 19:12:36.
