data_PCOD8253430
_publ_section_title
;
Structure prediction by ZEFSAII (Michael W. Deem and Ramdas Pophale) SiO2 
 PCOD8253430
Probable space group: P N M A
;
_chemical_formula_sum "Si O2"
_cell_formula_units_Z 48
_cell_length_a 11.869911
_cell_length_b 8.646657
_cell_length_c 23.335570
_cell_angle_alpha 90.000000
_cell_angle_beta 90.000000
_cell_angle_gamma 90.000000
_cell_volume 2395.047371
_symmetry_space_group_name_H-M "P N M A"
_symmetry_group_IT_number 62
_symmetry_cell_setting 'orthorhombic'
loop_
_space_group_symop_operation_xyz
x,y,z
1/2-x,-y,1/2+z
1/2+x,1/2-y,1/2-z
-x,1/2+y,-z
-x,-y,-z
1/2+x,y,1/2-z
1/2-x,1/2+y,1/2+z
x,1/2-y,z
loop_
_atom_site_type_symbol
_atom_site_label
_atom_site_fract_x
_atom_site_fract_y
_atom_site_fract_z
Si Si1 0.010536 0.929099 0.886863
Si Si2 0.782268 0.070344 0.918402
Si Si3 0.405608 0.430446 0.156280
Si Si4 0.666094 0.929698 0.717421
Si Si5 0.354946 0.428483 0.853897
Si Si6 0.303467 0.928608 0.460135
O O1 0.023081 0.750000 0.902594
O O2 0.061144 0.965263 0.824378
O O3 0.880329 0.976046 0.886314
O O4 0.074333 0.026324 0.935673
O O5 0.806571 0.250000 0.910790
O O6 0.664137 0.026968 0.889847
O O7 0.774292 0.030512 0.985143
O O8 0.383347 0.250000 0.146751
O O9 0.369627 0.483323 0.219675
O O10 0.536259 0.464686 0.147084
O O11 0.699157 0.750000 0.715230
O O12 0.774700 0.027962 0.699150
O O13 0.389596 0.250000 0.848612
O O14 0.291117 0.463814 0.913027
O O15 0.306380 0.750000 0.478149
#
# Coordination Sequence:
#
# PCOD8253430 Si02
#       6
#     8   8   8   8   8   8
#     4  10  20  38  63  91 121 157 199 247 299 355
#     4  12  25  39  58  89 123 158 201 250 301 353
#     4  11  24  41  61  87 120 161 203 244 294 356
#     4   9  21  40  63  87 116 157 200 240 290 355
#     4  10  22  40  63  90 119 153 196 246 301 353
#     4  10  21  40  63  88 120 159 200 246 299 358
#
# _framework density 20.041357000000001
#
# number of rings (size 3 to 8) (size 9 to 14) (size 15 to 20)
#    0.000    1.667    0.000    4.000    2.333    4.667 
#    0.000    0.000    0.000    0.000    0.000    0.000 
#    0.000    0.000    0.000    0.000    0.000    0.000 
#
# Total GULP energy -595550.498141 kJ/mol
# GULP energy per Si atom -12407.302045 kJ/mol
# Density = 1.999574 g / cm^3
# Si number density = 20.041357 Si / 1000 Ang^3
#
#
#
# Elastic Constant Matrix: (Units=GPa)
#
#
# Indices 1 2 3 4 5 6 
#
# 1 104.0396 23.1202 26.2544 0.0000 0.0000 0.0000
# 2 23.1202 63.1160 29.9343 0.0000 0.0000 0.0000
# 3 26.2544 29.9343 64.5847 0.0000 0.0000 0.0000
# 4 0.0000 0.0000 0.0000 29.0009 0.0000 0.0000
# 5 0.0000 0.0000 0.0000 0.0000 21.1701 0.0000
# 6 0.0000 0.0000 0.0000 0.0000 0.0000 38.4457
#
#
#
# Elastic Compliance Matrix: (Units=1/GPa)
#
#
# Indices 1 2 3 4 5 6 
#
# 1 0.010997 -0.002446 -0.003337 0.000000 0.000000 0.000000
# 2 -0.002446 0.020852 -0.008670 0.000000 0.000000 0.000000
# 3 -0.003337 -0.008670 0.020859 0.000000 0.000000 0.000000
# 4 0.000000 0.000000 0.000000 0.034482 0.000000 0.000000
# 5 0.000000 0.000000 0.000000 0.000000 0.047236 0.000000
# 6 0.000000 0.000000 0.000000 0.000000 0.000000 0.026011
#
#
# Mechanical properties :
#
#
# Convention : Reuss Voigt Hill
#
# Bulk Modulus (GPa) = 42.01391 43.37312 42.69351
# Shear Modulus (GPa) = 25.34508 27.88544 26.61526
#
# Velocity S-wave (km/s) = 3.56003 3.73419 3.64815
# Velocity P-wave (km/s) = 6.15691 6.34673 6.25254
#
# Compressibility (1/GPa) = 0.02380164
#
# Stress axis : x y z
#
# Youngs Moduli (GPa) = 90.93120 47.95714 47.94165
#
# Poissons Ratio (x) = 0.11730 0.15998
# Poissons Ratio (y) = 0.22240 0.41567
# Poissons Ratio (z) = 0.30343 0.41581
#
# Static dielectric constant tensor:
#      x y z
#    x 3.554310 0.000000 0.000000 
#    y 0.000000 3.624100 0.000000 
#    z 0.000000 0.000000 3.675710 
# 
# 
# High freq. dielectric constant tensor:
#      x y z
#    x 1.784580 0.000000 0.000000 
#    y 0.000000 1.789880 0.000000 
#    z 0.000000 0.000000 1.787050 
# 
# From -- ./inp_files/29214.got.cif
#   From: 2010.03.12/outbox.cif.g09.slc.cpg/sg62_15_cif.got.tgz:29214.got - 2010.04.10 19:12:36.
