data_PCOD8253339
_publ_section_title
;
Structure prediction by ZEFSAII (Michael W. Deem and Ramdas Pophale) SiO2 
 PCOD8253339
Probable space group: P N M A
;
_chemical_formula_sum "Si O2"
_cell_formula_units_Z 64
_cell_length_a 18.956799
_cell_length_b 17.818325
_cell_length_c 9.869657
_cell_angle_alpha 90.000000
_cell_angle_beta 90.000000
_cell_angle_gamma 90.000000
_cell_volume 3333.757005
_symmetry_space_group_name_H-M "P N M A"
_symmetry_group_IT_number 62
_symmetry_cell_setting 'orthorhombic'
loop_
_space_group_symop_operation_xyz
x,y,z
1/2-x,-y,1/2+z
1/2+x,1/2-y,1/2-z
-x,1/2+y,-z
-x,-y,-z
1/2+x,y,1/2-z
1/2-x,1/2+y,1/2+z
x,1/2-y,z
loop_
_atom_site_type_symbol
_atom_site_label
_atom_site_fract_x
_atom_site_fract_y
_atom_site_fract_z
Si Si1 0.023350 0.834672 0.648837
Si Si2 0.098596 0.908809 0.885027
Si Si3 0.249527 0.072948 0.279088
Si Si4 0.260885 0.436339 0.964073
Si Si5 0.898137 0.921276 0.042647
Si Si6 0.881782 0.664947 0.774702
Si Si7 0.028930 0.662826 0.132182
Si Si8 0.109455 0.837031 0.390663
O O1 0.048036 0.750000 0.689423
O O2 0.055849 0.896743 0.747604
O O3 0.048570 0.854473 0.499025
O O4 0.938359 0.839613 0.653140
O O5 0.180208 0.895820 0.849297
O O6 0.084590 0.990587 0.948455
O O7 0.071052 0.848489 0.992762
O O8 0.194286 0.141003 0.280434
O O9 0.217902 0.007376 0.372901
O O10 0.261570 0.043768 0.124711
O O11 0.183481 0.407192 0.916561
O O12 0.316777 0.372345 0.933819
O O13 0.952996 0.878226 0.139170
O O14 0.909971 0.890819 0.891077
O O15 0.876299 0.750000 0.831738
O O16 0.013283 0.750000 0.154379
O O17 0.079246 0.630415 0.250294
O O18 0.126092 0.750000 0.376924
#
# Coordination Sequence:
#
# PCOD8253339 Si02
#       8
#     8   8   8   8   8   8   8   8
#     4  10  20  38  59  86 120 152 197 248 293 352
#     4  11  21  38  61  89 116 155 203 244 299 351
#     4  10  23  39  61  89 119 158 195 253 297 360
#     4  10  22  41  61  85 121 155 198 245 300 351
#     4  10  22  37  60  89 119 152 196 250 295 356
#     4  10  21  38  62  90 117 156 199 248 301 349
#     4  11  23  39  60  88 122 159 198 249 299 356
#     4  10  23  40  60  87 122 162 199 243 301 356
#
# _framework density 19.197559999999999
#
# number of rings (size 3 to 8) (size 9 to 14) (size 15 to 20)
#    0.000    1.750    2.500    1.125    5.250    3.500 
#    4.500    1.250    0.000    0.000    0.000    0.000 
#    0.000    0.000    0.000    0.000    0.000    0.000 
#
# Total GULP energy -793539.844200 kJ/mol
# GULP energy per Si atom -12399.060066 kJ/mol
# Density = 1.915387 g / cm^3
# Si number density = 19.197560 Si / 1000 Ang^3
#
#
#
# Elastic Constant Matrix: (Units=GPa)
#
#
# Indices 1 2 3 4 5 6 
#
# 1 95.0681 36.6464 28.0815 0.0000 0.0000 0.0000
# 2 36.6464 61.1331 22.0856 0.0000 0.0000 0.0000
# 3 28.0815 22.0856 75.2512 0.0000 0.0000 0.0000
# 4 0.0000 0.0000 0.0000 25.9896 0.0000 0.0000
# 5 0.0000 0.0000 0.0000 0.0000 27.1590 0.0000
# 6 0.0000 0.0000 0.0000 0.0000 0.0000 33.0379
#
#
#
# Elastic Compliance Matrix: (Units=1/GPa)
#
#
# Indices 1 2 3 4 5 6 
#
# 1 0.014321 -0.007443 -0.003160 0.000000 0.000000 0.000000
# 2 -0.007443 0.022167 -0.003728 0.000000 0.000000 0.000000
# 3 -0.003160 -0.003728 0.015562 0.000000 0.000000 0.000000
# 4 0.000000 0.000000 0.000000 0.038477 0.000000 0.000000
# 5 0.000000 0.000000 0.000000 0.000000 0.036820 0.000000
# 6 0.000000 0.000000 0.000000 0.000000 0.000000 0.030268
#
#
# Mechanical properties :
#
#
# Convention : Reuss Voigt Hill
#
# Bulk Modulus (GPa) = 42.75768 45.00884 43.88326
# Shear Modulus (GPa) = 25.76339 26.87988 26.32163
#
# Velocity S-wave (km/s) = 3.66732 3.74595 3.70684
# Velocity P-wave (km/s) = 6.34454 6.49657 6.42101
#
# Compressibility (1/GPa) = 0.02338761
#
# Stress axis : x y z
#
# Youngs Moduli (GPa) = 69.82561 45.11288 64.25879
#
# Poissons Ratio (x) = 0.33580 0.20304
# Poissons Ratio (y) = 0.51975 0.23956
# Poissons Ratio (z) = 0.22063 0.16818
#
# Static dielectric constant tensor:
#      x y z
#    x 3.672340 0.000000 0.000000 
#    y 0.000000 3.469830 0.000000 
#    z 0.000000 0.000000 3.551260 
# 
# 
# High freq. dielectric constant tensor:
#      x y z
#    x 1.761190 0.000000 0.000000 
#    y 0.000000 1.740770 0.000000 
#    z 0.000000 0.000000 1.739290 
# 
# From -- ./inp_files/8869.got.cif
#   From: 2010.03.12/outbox.cif.g09.slc.cpg/sg62_5_cif.got.tgz:8869.got - 2010.04.10 19:12:36.
