data_PCOD8253875
_publ_section_title
;
Structure prediction by ZEFSAII (Michael W. Deem and Ramdas Pophale) SiO2 
 PCOD8253875
Probable space group: P N M A
;
_chemical_formula_sum "Si O2"
_cell_formula_units_Z 64
_cell_length_a 30.798004
_cell_length_b 8.670664
_cell_length_c 11.961240
_cell_angle_alpha 90.000000
_cell_angle_beta 90.000000
_cell_angle_gamma 90.000000
_cell_volume 3194.119297
_symmetry_space_group_name_H-M "P N M A"
_symmetry_group_IT_number 62
_symmetry_cell_setting 'orthorhombic'
loop_
_space_group_symop_operation_xyz
x,y,z
1/2-x,-y,1/2+z
1/2+x,1/2-y,1/2-z
-x,1/2+y,-z
-x,-y,-z
1/2+x,y,1/2-z
1/2-x,1/2+y,1/2+z
x,1/2-y,z
loop_
_atom_site_type_symbol
_atom_site_label
_atom_site_fract_x
_atom_site_fract_y
_atom_site_fract_z
Si Si1 0.668700 0.574705 0.984172
Si Si2 0.067675 0.926655 0.517109
Si Si3 0.301919 0.930761 0.239574
Si Si4 0.546592 0.067952 0.212027
Si Si5 0.458794 0.931405 0.247331
Si Si6 0.621621 0.066304 0.606548
Si Si7 0.371734 0.567119 0.645480
Si Si8 0.294160 0.432479 0.780555
O O1 0.680966 0.750000 0.952689
O O2 0.618203 0.557784 0.009369
O O3 0.682915 0.463737 0.885376
O O4 0.693432 0.518335 0.094431
O O5 0.053952 0.750000 0.540484
O O6 0.042481 0.988629 0.408926
O O7 0.056072 0.030823 0.622191
O O8 0.299730 0.750000 0.258346
O O9 0.336580 0.001824 0.327233
O O10 0.254009 0.999604 0.259580
O O11 0.549162 0.250000 0.196894
O O12 0.588386 0.005154 0.279428
O O13 0.503249 0.019607 0.278994
O O14 0.466267 0.750000 0.258931
O O15 0.422134 0.992054 0.332975
O O16 0.622945 0.250000 0.610122
O O17 0.622372 0.003175 0.480271
O O18 0.371611 0.750000 0.644651
O O19 0.326088 0.508918 0.691528
O O20 0.297227 0.250000 0.764663
#
# Coordination Sequence:
#
# PCOD8253875 Si02
#       8
#     8   8   8   8   8   8   8   8
#     4  10  21  37  60  87 119 152 189 237 289 337
#     4  11  21  37  60  86 118 153 190 237 289 343
#     4  10  21  38  61  86 117 153 192 235 283 341
#     4  11  23  38  58  87 118 149 191 240 288 346
#     4  11  22  38  61  85 114 152 192 238 288 346
#     4   9  20  39  60  83 112 151 194 233 283 340
#     4  10  22  40  62  84 113 154 196 237 283 343
#     4  10  22  39  59  88 120 153 190 237 290 338
#
# _framework density 20.036822999999998
#
# number of rings (size 3 to 8) (size 9 to 14) (size 15 to 20)
#    0.000    1.750    2.500    1.500    1.750    2.500 
#    0.000    1.875    0.000    0.000    0.000    0.000 
#    0.000    0.000    0.000    0.000    0.000    0.000 
#
# Total GULP energy -793824.413449 kJ/mol
# GULP energy per Si atom -12403.506460 kJ/mol
# Density = 1.999122 g / cm^3
# Si number density = 20.036823 Si / 1000 Ang^3
#
#
#
# Elastic Constant Matrix: (Units=GPa)
#
#
# Indices 1 2 3 4 5 6 
#
# 1 108.0869 19.2240 39.7503 0.0000 0.0000 0.0000
# 2 19.2240 24.0792 11.8149 0.0000 0.0000 0.0000
# 3 39.7503 11.8149 122.1024 0.0000 0.0000 0.0000
# 4 0.0000 0.0000 0.0000 22.3912 0.0000 0.0000
# 5 0.0000 0.0000 0.0000 0.0000 20.6769 0.0000
# 6 0.0000 0.0000 0.0000 0.0000 0.0000 27.5637
#
#
#
# Elastic Compliance Matrix: (Units=1/GPa)
#
#
# Indices 1 2 3 4 5 6 
#
# 1 0.011787 -0.007903 -0.003073 0.000000 0.000000 0.000000
# 2 -0.007903 0.048898 -0.002159 0.000000 0.000000 0.000000
# 3 -0.003073 -0.002159 0.009399 0.000000 0.000000 0.000000
# 4 0.000000 0.000000 0.000000 0.044660 0.000000 0.000000
# 5 0.000000 0.000000 0.000000 0.000000 0.048363 0.000000
# 6 0.000000 0.000000 0.000000 0.000000 0.000000 0.036280
#
#
# Mechanical properties :
#
#
# Convention : Reuss Voigt Hill
#
# Bulk Modulus (GPa) = 22.82268 43.98299 33.40283
# Shear Modulus (GPa) = 20.81060 26.35830 23.58445
#
# Velocity S-wave (km/s) = 3.22626 3.63091 3.43455
# Velocity P-wave (km/s) = 5.02925 6.29100 5.69518
#
# Compressibility (1/GPa) = 0.04381607
#
# Stress axis : x y z
#
# Youngs Moduli (GPa) = 84.83611 20.45058 106.39390
#
# Poissons Ratio (x) = 0.16162 0.32691
# Poissons Ratio (y) = 0.67046 0.22967
# Poissons Ratio (z) = 0.26067 0.04415
#
# Static dielectric constant tensor:
#      x y z
#    x 3.996380 0.000000 0.000000 
#    y 0.000000 3.373490 0.000000 
#    z 0.000000 0.000000 3.664680 
# 
# 
# High freq. dielectric constant tensor:
#      x y z
#    x 1.801070 0.000000 0.000000 
#    y 0.000000 1.759730 0.000000 
#    z 0.000000 0.000000 1.782940 
# 
# From -- ./inp_files/15855.got.cif
#   From: 2010.03.12/outbox.cif.g09.slc.cpg/sg62_8_cif.got.tgz:15855.got - 2010.04.10 19:12:36.
