data_PCOD8253715
_publ_section_title
;
Structure prediction by ZEFSAII (Michael W. Deem and Ramdas Pophale) SiO2 
 PCOD8253715
Probable space group: P N M A
;
_chemical_formula_sum "Si O2"
_cell_formula_units_Z 64
_cell_length_a 32.204275
_cell_length_b 9.294675
_cell_length_c 10.957945
_cell_angle_alpha 90.000000
_cell_angle_beta 90.000000
_cell_angle_gamma 90.000000
_cell_volume 3280.022717
_symmetry_space_group_name_H-M "P N M A"
_symmetry_group_IT_number 62
_symmetry_cell_setting 'orthorhombic'
loop_
_space_group_symop_operation_xyz
x,y,z
1/2-x,-y,1/2+z
1/2+x,1/2-y,1/2-z
-x,1/2+y,-z
-x,-y,-z
1/2+x,y,1/2-z
1/2-x,1/2+y,1/2+z
x,1/2-y,z
loop_
_atom_site_type_symbol
_atom_site_label
_atom_site_fract_x
_atom_site_fract_y
_atom_site_fract_z
Si Si1 0.605406 0.588014 0.625809
Si Si2 0.510959 0.582018 0.626278
Si Si3 0.336036 0.414380 0.145500
Si Si4 0.668623 0.082551 0.496182
Si Si5 0.888170 0.416065 0.581656
Si Si6 0.816270 0.410415 0.769220
Si Si7 0.026144 0.076837 0.391124
Si Si8 0.774550 0.585446 0.213751
O O1 0.608503 0.750000 0.577013
O O2 0.558524 0.546147 0.654890
O O3 0.631289 0.564140 0.747194
O O4 0.623653 0.487957 0.519559
O O5 0.500000 0.500000 0.500000
O O6 0.502694 0.750000 0.602093
O O7 0.487977 0.533565 0.752378
O O8 0.323192 0.250000 0.124131
O O9 0.293139 0.498852 0.170481
O O10 0.359811 0.474752 0.028031
O O11 0.661766 0.250000 0.496805
O O12 0.702401 0.028486 0.593602
O O13 0.686138 0.033453 0.368360
O O14 0.902653 0.250000 0.559381
O O15 0.859010 0.427446 0.698465
O O16 0.926973 0.521129 0.597140
O O17 0.814235 0.250000 0.826799
O O18 0.774515 0.436206 0.690177
O O19 0.023521 0.250000 0.408239
O O20 0.000000 0.000000 0.500000
O O21 0.785948 0.750000 0.238291
#
# Coordination Sequence:
#
# PCOD8253715 Si02
#       8
#     8   8   8   8   8   8   8   8
#     4   9  18  36  59  82 111 148 189 229 283 347
#     4  10  23  40  61  89 121 157 199 247 297 359
#     4   9  18  35  61  86 111 149 195 240 285 342
#     4  10  21  36  57  83 113 145 188 240 285 336
#     4  10  22  39  61  87 119 158 198 241 296 353
#     4  10  22  38  56  80 116 156 191 234 291 351
#     4  11  24  43  66  94 127 160 201 252 307 368
#     4   9  20  37  56  82 114 150 192 240 290 340
#
# _framework density 19.512060000000002
#
# number of rings (size 3 to 8) (size 9 to 14) (size 15 to 20)
#    0.000    2.250    0.000    1.500    3.500    5.500 
#    0.000    2.500    0.000    0.000    0.000    0.000 
#    0.000    0.000    0.000    0.000    0.000    0.000 
#
# Total GULP energy -793249.423835 kJ/mol
# GULP energy per Si atom -12394.522247 kJ/mol
# Density = 1.946765 g / cm^3
# Si number density = 19.512060 Si / 1000 Ang^3
#
#
#
# Elastic Constant Matrix: (Units=GPa)
#
#
# Indices 1 2 3 4 5 6 
#
# 1 95.6474 39.0599 33.2895 0.0000 0.0000 0.0000
# 2 39.0599 65.6792 42.4292 0.0000 0.0000 0.0000
# 3 33.2895 42.4292 96.7845 0.0000 0.0000 0.0000
# 4 0.0000 0.0000 0.0000 31.5530 0.0000 0.0000
# 5 0.0000 0.0000 0.0000 0.0000 25.2003 0.0000
# 6 0.0000 0.0000 0.0000 0.0000 0.0000 33.3809
#
#
#
# Elastic Compliance Matrix: (Units=1/GPa)
#
#
# Indices 1 2 3 4 5 6 
#
# 1 0.013989 -0.007270 -0.001625 0.000000 0.000000 0.000000
# 2 -0.007270 0.025019 -0.008468 0.000000 0.000000 0.000000
# 3 -0.001625 -0.008468 0.014603 0.000000 0.000000 0.000000
# 4 0.000000 0.000000 0.000000 0.031693 0.000000 0.000000
# 5 0.000000 0.000000 0.000000 0.000000 0.039682 0.000000
# 6 0.000000 0.000000 0.000000 0.000000 0.000000 0.029957
#
#
# Mechanical properties :
#
#
# Convention : Reuss Voigt Hill
#
# Bulk Modulus (GPa) = 52.94584 54.18536 53.56560
# Shear Modulus (GPa) = 25.51491 27.58234 26.54863
#
# Velocity S-wave (km/s) = 3.62006 3.76387 3.69267
# Velocity P-wave (km/s) = 6.68334 6.83516 6.75968
#
# Compressibility (1/GPa) = 0.01888722
#
# Stress axis : x y z
#
# Youngs Moduli (GPa) = 71.48266 39.96938 68.47872
#
# Poissons Ratio (x) = 0.29058 0.11125
# Poissons Ratio (y) = 0.51969 0.57984
# Poissons Ratio (z) = 0.11613 0.33844
#
# Static dielectric constant tensor:
#      x y z
#    x 3.739510 0.000000 0.000000 
#    y 0.000000 3.598940 0.000000 
#    z 0.000000 0.000000 3.654210 
# 
# 
# High freq. dielectric constant tensor:
#      x y z
#    x 1.769850 0.000000 0.000000 
#    y 0.000000 1.753650 0.000000 
#    z 0.000000 0.000000 1.759330 
# 
# From -- ./inp_files/15812.got.cif
#   From: 2010.03.12/outbox.cif.g09.slc.cpg/sg62_8_cif.got.tgz:15812.got - 2010.04.10 19:12:36.
