data_PCOD8253412
_publ_section_title
;
Structure prediction by ZEFSAII (Michael W. Deem and Ramdas Pophale) SiO2 
 PCOD8253412
Probable space group: P N M A
;
_chemical_formula_sum "Si O2"
_cell_formula_units_Z 64
_cell_length_a 8.677330
_cell_length_b 16.748674
_cell_length_c 21.766747
_cell_angle_alpha 90.000000
_cell_angle_beta 90.000000
_cell_angle_gamma 90.000000
_cell_volume 3163.443432
_symmetry_space_group_name_H-M "P N M A"
_symmetry_group_IT_number 62
_symmetry_cell_setting 'orthorhombic'
loop_
_space_group_symop_operation_xyz
x,y,z
1/2-x,-y,1/2+z
1/2+x,1/2-y,1/2-z
-x,1/2+y,-z
-x,-y,-z
1/2+x,y,1/2-z
1/2-x,1/2+y,1/2+z
x,1/2-y,z
loop_
_atom_site_type_symbol
_atom_site_label
_atom_site_fract_x
_atom_site_fract_y
_atom_site_fract_z
Si Si1 0.508822 0.658253 0.838431
Si Si2 0.641952 0.515904 0.457009
Si Si3 0.531586 0.488476 0.325697
Si Si4 0.249414 0.069686 0.771021
Si Si5 0.030609 0.156924 0.680386
Si Si6 0.355549 0.840867 0.047687
Si Si7 0.663500 0.159323 0.280583
Si Si8 0.935834 0.422855 0.464406
O O1 0.508428 0.750000 0.862861
O O2 0.366062 0.641797 0.792294
O O3 0.659626 0.641347 0.797050
O O4 0.500889 0.595659 0.895334
O O5 0.500000 0.500000 0.500000
O O6 0.577304 0.528488 0.389279
O O7 0.725925 0.598224 0.477711
O O8 0.752932 0.437799 0.459867
O O9 0.652511 0.516812 0.274818
O O10 0.356673 0.511992 0.311541
O O11 0.551077 0.392743 0.324589
O O12 0.142018 0.132688 0.735730
O O13 0.363891 0.116110 0.816187
O O14 0.001652 0.250000 0.683482
O O15 0.108273 0.131437 0.616686
O O16 0.294843 0.750000 0.044746
O O17 0.511631 0.848272 0.006682
O O18 0.617609 0.250000 0.295377
O O19 0.000000 0.500000 0.500000
#
# Coordination Sequence:
#
# PCOD8253412 Si02
#       8
#     8   8   8   8   8   8   8   8
#     4  10  20  39  61  90 123 158 203 259 320 376
#     4  11  24  43  62  91 123 168 210 263 316 374
#     4  11  21  39  60  89 128 159 207 253 312 374
#     4  10  22  35  62  92 124 162 202 246 315 377
#     4  10  20  38  62  92 127 159 206 255 306 370
#     4  10  22  43  65  90 123 164 213 263 314 376
#     4  10  21  37  61  90 122 158 200 253 316 376
#     4  10  22  40  66  86 120 164 217 259 309 381
#
# _framework density 20.231119
#
# number of rings (size 3 to 8) (size 9 to 14) (size 15 to 20)
#    0.000    1.750    2.500    1.500    1.750    1.000 
#    6.750    2.500    0.000    0.000    0.000    0.000 
#    0.000    0.000    0.000    0.000    0.000    0.000 
#
# Total GULP energy -793377.559639 kJ/mol
# GULP energy per Si atom -12396.524369 kJ/mol
# Density = 2.018507 g / cm^3
# Si number density = 20.231119 Si / 1000 Ang^3
#
#
#
# Elastic Constant Matrix: (Units=GPa)
#
#
# Indices 1 2 3 4 5 6 
#
# 1 106.6112 48.1958 42.8011 0.0000 0.0000 0.0000
# 2 48.1958 87.7049 49.5020 0.0000 0.0000 0.0000
# 3 42.8011 49.5020 85.8121 0.0000 0.0000 0.0000
# 4 0.0000 0.0000 0.0000 35.2166 0.0000 0.0000
# 5 0.0000 0.0000 0.0000 0.0000 35.8352 0.0000
# 6 0.0000 0.0000 0.0000 0.0000 0.0000 29.0694
#
#
#
# Elastic Compliance Matrix: (Units=1/GPa)
#
#
# Indices 1 2 3 4 5 6 
#
# 1 0.013171 -0.005234 -0.003550 0.000000 0.000000 0.000000
# 2 -0.005234 0.018987 -0.008342 0.000000 0.000000 0.000000
# 3 -0.003550 -0.008342 0.018236 0.000000 0.000000 0.000000
# 4 0.000000 0.000000 0.000000 0.028396 0.000000 0.000000
# 5 0.000000 0.000000 0.000000 0.000000 0.027905 0.000000
# 6 0.000000 0.000000 0.000000 0.000000 0.000000 0.034400
#
#
# Mechanical properties :
#
#
# Convention : Reuss Voigt Hill
#
# Bulk Modulus (GPa) = 61.95190 62.34733 62.14962
# Shear Modulus (GPa) = 27.66574 29.33286 28.49930
#
# Velocity S-wave (km/s) = 3.70196 3.81187 3.75732
# Velocity P-wave (km/s) = 6.99723 7.08931 7.04342
#
# Compressibility (1/GPa) = 0.01614156
#
# Stress axis : x y z
#
# Youngs Moduli (GPa) = 75.92213 52.66897 54.83578
#
# Poissons Ratio (x) = 0.27568 0.19468
# Poissons Ratio (y) = 0.39739 0.45744
# Poissons Ratio (z) = 0.26954 0.43936
#
# Static dielectric constant tensor:
#      x y z
#    x 3.719480 0.000000 0.000000 
#    y 0.000000 3.842000 0.000000 
#    z 0.000000 0.000000 4.682380 
# 
# 
# High freq. dielectric constant tensor:
#      x y z
#    x 1.785590 0.000000 0.000000 
#    y 0.000000 1.795440 0.000000 
#    z 0.000000 0.000000 1.786330 
# 
# From -- ./inp_files/26196.got.cif
#   From: 2010.03.12/outbox.cif.g09.slc.cpg/sg62_14_cif.got.tgz:26196.got - 2010.04.10 19:12:36.
