data_PCOD8253385
_publ_section_title
;
Structure prediction by ZEFSAII (Michael W. Deem and Ramdas Pophale) SiO2 
 PCOD8253385
Probable space group: P N M A
;
_chemical_formula_sum "Si O2"
_cell_formula_units_Z 56
_cell_length_a 14.935211
_cell_length_b 8.432922
_cell_length_c 21.342071
_cell_angle_alpha 90.000000
_cell_angle_beta 90.000000
_cell_angle_gamma 90.000000
_cell_volume 2687.979835
_symmetry_space_group_name_H-M "P N M A"
_symmetry_group_IT_number 62
_symmetry_cell_setting 'orthorhombic'
loop_
_space_group_symop_operation_xyz
x,y,z
1/2-x,-y,1/2+z
1/2+x,1/2-y,1/2-z
-x,1/2+y,-z
-x,-y,-z
1/2+x,y,1/2-z
1/2-x,1/2+y,1/2+z
x,1/2-y,z
loop_
_atom_site_type_symbol
_atom_site_label
_atom_site_fract_x
_atom_site_fract_y
_atom_site_fract_z
Si Si1 0.764579 0.432502 0.534262
Si Si2 0.832516 0.438688 0.664389
Si Si3 0.053823 0.567095 0.134307
Si Si4 0.573844 0.566806 0.546243
Si Si5 0.809177 0.437845 0.266174
Si Si6 0.263468 0.938280 0.599949
Si Si7 0.514385 0.436707 0.239804
O O1 0.787574 0.250000 0.539061
O O2 0.812719 0.511221 0.594609
O O3 0.659681 0.458342 0.541135
O O4 0.792137 0.489976 0.463317
O O5 0.836731 0.250000 0.664821
O O6 0.754404 0.488689 0.713130
O O7 0.930440 0.511280 0.678474
O O8 0.030683 0.750000 0.124275
O O9 0.140923 0.524310 0.093680
O O10 0.071352 0.524616 0.206349
O O11 0.968627 0.459201 0.115015
O O12 0.500000 0.500000 0.500000
O O13 0.597112 0.750000 0.534240
O O14 0.801068 0.250000 0.260793
O O15 0.783716 0.495344 0.336361
O O16 0.911809 0.495581 0.259254
O O17 0.279045 0.750000 0.600126
O O18 0.520322 0.250000 0.248227
#
# Coordination Sequence:
#
# PCOD8253385 Si02
#       7
#     8   8   8   8   8   8   8
#     4  10  22  39  59  85 121 161 201 252 310 365
#     4  11  23  39  61  91 125 160 200 254 312 367
#     4  12  23  36  57  87 118 154 198 247 306 367
#     4  12  23  35  54  83 120 158 197 244 300 368
#     4  10  22  40  64  90 117 158 209 256 303 362
#     4  10  20  38  62  85 116 157 200 247 301 358
#     4  11  23  40  62  89 121 160 205 254 308 366
#
# _framework density 20.833487999999999
#
# number of rings (size 3 to 8) (size 9 to 14) (size 15 to 20)
#    0.000    1.143    2.857    4.286    0.000    4.571 
#    0.000    0.714    0.000    0.000    0.000    0.000 
#    0.000    0.000    0.000    0.000    0.000    0.000 
#
# Total GULP energy -694071.702470 kJ/mol
# GULP energy per Si atom -12394.137544 kJ/mol
# Density = 2.078607 g / cm^3
# Si number density = 20.833488 Si / 1000 Ang^3
#
#
#
# Elastic Constant Matrix: (Units=GPa)
#
#
# Indices 1 2 3 4 5 6 
#
# 1 67.8640 13.8716 20.3428 0.0000 0.0000 0.0000
# 2 13.8716 44.1864 25.1186 0.0000 0.0000 0.0000
# 3 20.3428 25.1186 135.7059 0.0000 0.0000 0.0000
# 4 0.0000 0.0000 0.0000 23.7399 0.0000 0.0000
# 5 0.0000 0.0000 0.0000 0.0000 33.3739 0.0000
# 6 0.0000 0.0000 0.0000 0.0000 0.0000 26.5986
#
#
#
# Elastic Compliance Matrix: (Units=1/GPa)
#
#
# Indices 1 2 3 4 5 6 
#
# 1 0.016069 -0.004107 -0.001649 0.000000 0.000000 0.000000
# 2 -0.004107 0.026343 -0.004260 0.000000 0.000000 0.000000
# 3 -0.001649 -0.004260 0.008405 0.000000 0.000000 0.000000
# 4 0.000000 0.000000 0.000000 0.042123 0.000000 0.000000
# 5 0.000000 0.000000 0.000000 0.000000 0.029964 0.000000
# 6 0.000000 0.000000 0.000000 0.000000 0.000000 0.037596
#
#
# Mechanical properties :
#
#
# Convention : Reuss Voigt Hill
#
# Bulk Modulus (GPa) = 32.48452 40.71359 36.59905
# Shear Modulus (GPa) = 26.20645 29.30403 27.75524
#
# Velocity S-wave (km/s) = 3.55054 3.75451 3.65395
# Velocity P-wave (km/s) = 5.69515 6.19516 5.95041
#
# Compressibility (1/GPa) = 0.03078389
#
# Stress axis : x y z
#
# Youngs Moduli (GPa) = 62.23125 37.96121 118.98332
#
# Poissons Ratio (x) = 0.15593 0.19615
# Poissons Ratio (y) = 0.25561 0.50689
# Poissons Ratio (z) = 0.10259 0.16172
#
# Static dielectric constant tensor:
#      x y z
#    x 3.729790 0.000000 0.000000 
#    y 0.000000 3.597780 0.000000 
#    z 0.000000 0.000000 -3.679540 
# 
# 
# High freq. dielectric constant tensor:
#      x y z
#    x 1.792900 0.000000 0.000000 
#    y 0.000000 1.804440 0.000000 
#    z 0.000000 0.000000 1.838900 
# 
# From -- ./inp_files/27128.got.cif
#   From: 2010.03.12/outbox.cif.g09.slc.cpg/sg62_14_cif.got.tgz:27128.got - 2010.04.10 19:12:36.
