data_PCOD8253614
_publ_section_title
;
Structure prediction by ZEFSAII (Michael W. Deem and Ramdas Pophale) SiO2 
 PCOD8253614
Probable space group: P N M A
;
_chemical_formula_sum "Si O2"
_cell_formula_units_Z 40
_cell_length_a 5.035886
_cell_length_b 28.543007
_cell_length_c 15.800148
_cell_angle_alpha 90.000000
_cell_angle_beta 90.000000
_cell_angle_gamma 90.000000
_cell_volume 2271.102677
_symmetry_space_group_name_H-M "P N M A"
_symmetry_group_IT_number 62
_symmetry_cell_setting 'orthorhombic'
loop_
_space_group_symop_operation_xyz
x,y,z
1/2-x,-y,1/2+z
1/2+x,1/2-y,1/2-z
-x,1/2+y,-z
-x,-y,-z
1/2+x,y,1/2-z
1/2-x,1/2+y,1/2+z
x,1/2-y,z
loop_
_atom_site_type_symbol
_atom_site_label
_atom_site_fract_x
_atom_site_fract_y
_atom_site_fract_z
Si Si1 0.535449 0.303993 0.195319
Si Si2 0.722723 0.026279 0.055586
Si Si3 0.475881 0.598095 0.460333
Si Si4 0.963188 0.875880 0.548190
Si Si5 0.305682 0.547436 0.306036
O O1 0.748355 0.316253 0.267518
O O2 0.559849 0.250000 0.167950
O O3 0.589411 0.334091 0.112350
O O4 0.973852 0.044553 0.997413
O O5 0.584158 0.073664 0.092665
O O6 0.830092 0.998739 0.136791
O O7 0.500000 0.000000 0.000000
O O8 0.259303 0.627019 0.512744
O O9 0.373394 0.592665 0.364214
O O10 0.750523 0.627263 0.469653
O O11 0.504883 0.548367 0.227207
#
# Coordination Sequence:
#
# PCOD8253614 Si02
#       5
#     8   8   8   8   8
#     4  10  21  38  57  83 117 141 172 228 278 313
#     4  10  21  36  54  69 107 149 180 225 271 307
#     4  10  21  37  51  70 102 141 180 219 262 318
#     4  10  21  33  59  70 102 147 183 209 265 327
#     4  12  23  32  49  73 101 136 179 219 264 305
#
# _framework density 17.612589
#
# number of rings (size 3 to 8) (size 9 to 14) (size 15 to 20)
#    1.200    0.400    2.000    4.200    2.800    1.600 
#    0.000    0.000    0.000    0.000    0.000    0.000 
#    0.000   16.000    0.000    0.000    0.000    0.000 
#
# Total GULP energy -495708.786988 kJ/mol
# GULP energy per Si atom -12392.719675 kJ/mol
# Density = 1.757250 g / cm^3
# Si number density = 17.612589 Si / 1000 Ang^3
#
#
#
# Elastic Constant Matrix: (Units=GPa)
#
#
# Indices 1 2 3 4 5 6 
#
# 1 91.5526 20.6911 21.5481 0.0000 0.0000 0.0000
# 2 20.6911 61.3253 37.6735 0.0000 0.0000 0.0000
# 3 21.5481 37.6735 76.1839 0.0000 0.0000 0.0000
# 4 0.0000 0.0000 0.0000 32.4205 0.0000 0.0000
# 5 0.0000 0.0000 0.0000 0.0000 35.0659 0.0000
# 6 0.0000 0.0000 0.0000 0.0000 0.0000 18.7511
#
#
#
# Elastic Compliance Matrix: (Units=1/GPa)
#
#
# Indices 1 2 3 4 5 6 
#
# 1 0.012034 -0.002828 -0.002005 0.000000 0.000000 0.000000
# 2 -0.002828 0.024087 -0.011111 0.000000 0.000000 0.000000
# 3 -0.002005 -0.011111 0.019188 0.000000 0.000000 0.000000
# 4 0.000000 0.000000 0.000000 0.030845 0.000000 0.000000
# 5 0.000000 0.000000 0.000000 0.000000 0.028518 0.000000
# 6 0.000000 0.000000 0.000000 0.000000 0.000000 0.053330
#
#
# Mechanical properties :
#
#
# Convention : Reuss Voigt Hill
#
# Bulk Modulus (GPa) = 42.70002 43.20968 42.95485
# Shear Modulus (GPa) = 24.07367 27.19077 25.63222
#
# Velocity S-wave (km/s) = 3.70110 3.93342 3.81902
# Velocity P-wave (km/s) = 6.52387 6.72426 6.62482
#
# Compressibility (1/GPa) = 0.02341919
#
# Stress axis : x y z
#
# Youngs Moduli (GPa) = 83.09908 41.51702 52.11685
#
# Poissons Ratio (x) = 0.11743 0.10449
# Poissons Ratio (y) = 0.23505 0.57907
# Poissons Ratio (z) = 0.16661 0.46129
#
# Static dielectric constant tensor:
#      x y z
#    x 3.439870 0.000000 0.000000 
#    y 0.000000 2.987980 0.000000 
#    z 0.000000 0.000000 3.037820 
# 
# 
# High freq. dielectric constant tensor:
#      x y z
#    x 1.708120 0.000000 0.000000 
#    y 0.000000 1.641140 0.000000 
#    z 0.000000 0.000000 1.661290 
# 
# From -- ./inp_files/16258.got.cif
#   From: 2010.03.12/outbox.cif.g09.slc.cpg/sg62_9_cif.got.tgz:16258.got - 2010.04.10 19:12:36.
