data_PCOD8253661
_publ_section_title
;
Structure prediction by ZEFSAII (Michael W. Deem and Ramdas Pophale) SiO2 
 PCOD8253661
Probable space group: P N M A
;
_chemical_formula_sum "Si O2"
_cell_formula_units_Z 48
_cell_length_a 11.998965
_cell_length_b 15.727878
_cell_length_c 11.800623
_cell_angle_alpha 90.000000
_cell_angle_beta 90.000000
_cell_angle_gamma 90.000000
_cell_volume 2226.993012
_symmetry_space_group_name_H-M "P N M A"
_symmetry_group_IT_number 62
_symmetry_cell_setting 'orthorhombic'
loop_
_space_group_symop_operation_xyz
x,y,z
1/2-x,-y,1/2+z
1/2+x,1/2-y,1/2-z
-x,1/2+y,-z
-x,-y,-z
1/2+x,y,1/2-z
1/2-x,1/2+y,1/2+z
x,1/2-y,z
loop_
_atom_site_type_symbol
_atom_site_label
_atom_site_fract_x
_atom_site_fract_y
_atom_site_fract_z
Si Si1 0.682659 0.350915 0.310102
Si Si2 0.695202 0.653328 0.406972
Si Si3 0.374171 0.590684 0.933418
Si Si4 0.266143 0.845954 0.328593
Si Si5 0.127489 0.598341 0.525207
Si Si6 0.960102 0.851211 0.019809
O O1 0.685134 0.250000 0.284414
O O2 0.662875 0.404883 0.196837
O O3 0.799976 0.379814 0.364115
O O4 0.582457 0.376637 0.395020
O O5 0.662398 0.750000 0.379989
O O6 0.794912 0.652959 0.496217
O O7 0.730899 0.607294 0.288723
O O8 0.582994 0.609862 0.458006
O O9 0.500895 0.621406 0.945413
O O10 0.356343 0.498312 0.986285
O O11 0.297484 0.750000 0.296439
O O12 0.165249 0.844758 0.418769
O O13 0.375012 0.889698 0.385599
O O14 0.956627 0.750000 0.027515
#
# Coordination Sequence:
#
# PCOD8253661 Si02
#       6
#     8   8   8   8   8   8
#     4  10  22  42  68  92 122 169 216 265 321 383
#     4  10  21  35  59  92 119 152 205 259 307 376
#     4  11  25  40  61  92 125 164 210 258 318 379
#     4   9  19  37  62  86 117 160 200 251 313 375
#     4  10  24  44  61  89 129 165 206 260 319 376
#     4   8  17  36  57  87 119 151 203 258 310 368
#
# _framework density 21.553729000000001
#
# number of rings (size 3 to 8) (size 9 to 14) (size 15 to 20)
#    0.000    2.333    0.000    2.000    7.000    2.667 
#    0.000    3.333    0.000    0.000    0.000    0.000 
#    0.000    0.000    0.000    0.000    0.000    0.000 
#
# Total GULP energy -595034.870013 kJ/mol
# GULP energy per Si atom -12396.559792 kJ/mol
# Density = 2.150467 g / cm^3
# Si number density = 21.553729 Si / 1000 Ang^3
#
#
#
# Elastic Constant Matrix: (Units=GPa)
#
#
# Indices 1 2 3 4 5 6 
#
# 1 173.9175 13.2858 89.1870 0.0000 0.0000 0.0000
# 2 13.2858 26.2960 4.5172 0.0000 0.0000 0.0000
# 3 89.1870 4.5172 170.1899 0.0000 0.0000 0.0000
# 4 0.0000 0.0000 0.0000 20.5205 0.0000 0.0000
# 5 0.0000 0.0000 0.0000 0.0000 29.1830 0.0000
# 6 0.0000 0.0000 0.0000 0.0000 0.0000 20.1000
#
#
#
# Elastic Compliance Matrix: (Units=1/GPa)
#
#
# Indices 1 2 3 4 5 6 
#
# 1 0.008155 -0.003402 -0.004183 0.000000 0.000000 0.000000
# 2 -0.003402 0.039622 0.000731 0.000000 0.000000 0.000000
# 3 -0.004183 0.000731 0.008049 0.000000 0.000000 0.000000
# 4 0.000000 0.000000 0.000000 0.048732 0.000000 0.000000
# 5 0.000000 0.000000 0.000000 0.000000 0.034267 0.000000
# 6 0.000000 0.000000 0.000000 0.000000 0.000000 0.049751
#
#
# Mechanical properties :
#
#
# Convention : Reuss Voigt Hill
#
# Bulk Modulus (GPa) = 23.74316 64.93150 44.33733
# Shear Modulus (GPa) = 23.11373 31.52159 27.31766
#
# Velocity S-wave (km/s) = 3.27827 3.82837 3.56395
# Velocity P-wave (km/s) = 5.03678 7.05214 6.12788
#
# Compressibility (1/GPa) = 0.04211740
#
# Stress axis : x y z
#
# Youngs Moduli (GPa) = 122.62519 25.23870 124.24517
#
# Poissons Ratio (x) = 0.08585 0.51975
# Poissons Ratio (y) = 0.41712 -0.09081
# Poissons Ratio (z) = 0.51297 -0.01845
#
# Static dielectric constant tensor:
#      x y z
#    x 4.126200 0.000000 0.000000 
#    y 0.000000 3.491210 0.000000 
#    z 0.000000 0.000000 3.980080 
# 
# 
# High freq. dielectric constant tensor:
#      x y z
#    x 1.852640 0.000000 0.000000 
#    y 0.000000 1.815270 0.000000 
#    z 0.000000 0.000000 1.855680 
# 
# From -- ./inp_files/12219.got.cif
#   From: 2010.03.12/outbox.cif.g09.slc.cpg/sg62_7_cif.got.tgz:12219.got - 2010.04.10 19:12:36.
