data_PCOD8253225
_publ_section_title
;
Structure prediction by ZEFSAII (Michael W. Deem and Ramdas Pophale) SiO2 
 PCOD8253225
Probable space group: P N M A
;
_chemical_formula_sum "Si O2"
_cell_formula_units_Z 48
_cell_length_a 23.319329
_cell_length_b 8.827211
_cell_length_c 12.011162
_cell_angle_alpha 90.000000
_cell_angle_beta 90.000000
_cell_angle_gamma 90.000000
_cell_volume 2472.433287
_symmetry_space_group_name_H-M "P N M A"
_symmetry_group_IT_number 62
_symmetry_cell_setting 'orthorhombic'
loop_
_space_group_symop_operation_xyz
x,y,z
1/2-x,-y,1/2+z
1/2+x,1/2-y,1/2-z
-x,1/2+y,-z
-x,-y,-z
1/2+x,y,1/2-z
1/2-x,1/2+y,1/2+z
x,1/2-y,z
loop_
_atom_site_type_symbol
_atom_site_label
_atom_site_fract_x
_atom_site_fract_y
_atom_site_fract_z
Si Si1 0.217392 0.573421 0.843941
Si Si2 0.372103 0.929388 0.500286
Si Si3 0.917525 0.429348 0.783367
Si Si4 0.352718 0.928802 0.156872
Si Si5 0.846709 0.926004 0.597597
Si Si6 0.545058 0.428440 0.691092
O O1 0.203388 0.750000 0.855720
O O2 0.186320 0.485968 0.944183
O O3 0.197397 0.513240 0.724012
O O4 0.284525 0.540156 0.852551
O O5 0.369111 0.750000 0.511504
O O6 0.426026 0.982737 0.424462
O O7 0.377339 0.001530 0.621436
O O8 0.917215 0.250000 0.793829
O O9 0.893527 0.477684 0.663977
O O10 0.981762 0.498636 0.795621
O O11 0.342619 0.750000 0.171212
O O12 0.414475 0.978546 0.206224
O O13 0.349501 0.980695 0.029742
O O14 0.862723 0.750000 0.607027
O O15 0.539332 0.250000 0.690525
#
# Coordination Sequence:
#
# PCOD8253225 Si02
#       6
#     8   8   8   8   8   8
#     4  10  21  37  57  84 113 143 187 236 280 332
#     4  10  20  37  60  84 113 151 188 229 287 336
#     4  11  22  35  55  85 117 147 189 237 278 326
#     4   9  19  39  61  79 108 151 190 227 281 337
#     4  10  23  39  55  81 115 151 187 229 282 338
#     4   8  17  35  58  83 111 147 189 232 277 333
#
# _framework density 19.414072999999998
#
# number of rings (size 3 to 8) (size 9 to 14) (size 15 to 20)
#    0.000    2.333    0.000    3.000    2.333    2.667 
#    0.000    7.500    0.000    0.000    0.000    0.000 
#    0.000    0.000    0.000    0.000    0.000    0.000 
#
# Total GULP energy -595312.072150 kJ/mol
# GULP energy per Si atom -12402.334836 kJ/mol
# Density = 1.936989 g / cm^3
# Si number density = 19.414073 Si / 1000 Ang^3
#
#
#
# Elastic Constant Matrix: (Units=GPa)
#
#
# Indices 1 2 3 4 5 6 
#
# 1 60.3257 25.3055 27.4657 0.0000 0.0000 0.0000
# 2 25.3055 60.2854 31.6532 0.0000 0.0000 0.0000
# 3 27.4657 31.6532 125.3628 0.0000 0.0000 0.0000
# 4 0.0000 0.0000 0.0000 32.8892 0.0000 0.0000
# 5 0.0000 0.0000 0.0000 0.0000 21.7792 0.0000
# 6 0.0000 0.0000 0.0000 0.0000 0.0000 25.4327
#
#
#
# Elastic Compliance Matrix: (Units=1/GPa)
#
#
# Indices 1 2 3 4 5 6 
#
# 1 0.020897 -0.007341 -0.002725 0.000000 0.000000 0.000000
# 2 -0.007341 0.021702 -0.003871 0.000000 0.000000 0.000000
# 3 -0.002725 -0.003871 0.009551 0.000000 0.000000 0.000000
# 4 0.000000 0.000000 0.000000 0.030405 0.000000 0.000000
# 5 0.000000 0.000000 0.000000 0.000000 0.045915 0.000000
# 6 0.000000 0.000000 0.000000 0.000000 0.000000 0.039319
#
#
# Mechanical properties :
#
#
# Convention : Reuss Voigt Hill
#
# Bulk Modulus (GPa) = 41.19310 46.09142 43.64226
# Shear Modulus (GPa) = 24.53923 26.79019 25.66471
#
# Velocity S-wave (km/s) = 3.55912 3.71878 3.63983
# Velocity P-wave (km/s) = 6.17690 6.49861 6.33979
#
# Compressibility (1/GPa) = 0.02427591
#
# Stress axis : x y z
#
# Youngs Moduli (GPa) = 47.85463 46.07898 104.69825
#
# Poissons Ratio (x) = 0.33827 0.28527
# Poissons Ratio (y) = 0.35130 0.40531
# Poissons Ratio (z) = 0.13039 0.17838
#
# Static dielectric constant tensor:
#      x y z
#    x 3.722300 0.000000 0.000000 
#    y 0.000000 3.370200 0.000000 
#    z 0.000000 0.000000 3.603060 
# 
# 
# High freq. dielectric constant tensor:
#      x y z
#    x 1.759060 0.000000 0.000000 
#    y 0.000000 1.742660 0.000000 
#    z 0.000000 0.000000 1.761380 
# 
# From -- ./inp_files/15083.got.cif
#   From: 2010.03.12/outbox.cif.g09.slc.cpg/sg62_8_cif.got.tgz:15083.got - 2010.04.10 19:12:36.
