data_PCOD8253436
_publ_section_title
;
Structure prediction by ZEFSAII (Michael W. Deem and Ramdas Pophale) SiO2 
 PCOD8253436
Probable space group: P N M A
;
_chemical_formula_sum "Si O2"
_cell_formula_units_Z 56
_cell_length_a 16.186730
_cell_length_b 13.988194
_cell_length_c 12.086225
_cell_angle_alpha 90.000000
_cell_angle_beta 90.000000
_cell_angle_gamma 90.000000
_cell_volume 2736.600767
_symmetry_space_group_name_H-M "P N M A"
_symmetry_group_IT_number 62
_symmetry_cell_setting 'orthorhombic'
loop_
_space_group_symop_operation_xyz
x,y,z
1/2-x,-y,1/2+z
1/2+x,1/2-y,1/2-z
-x,1/2+y,-z
-x,-y,-z
1/2+x,y,1/2-z
1/2-x,1/2+y,1/2+z
x,1/2-y,z
loop_
_atom_site_type_symbol
_atom_site_label
_atom_site_fract_x
_atom_site_fract_y
_atom_site_fract_z
Si Si1 0.870238 0.022598 0.431302
Si Si2 0.590137 0.358585 0.498248
Si Si3 0.400217 0.857600 0.751764
Si Si4 0.069748 0.639285 0.132840
Si Si5 0.197555 0.533171 0.988502
Si Si6 0.207515 0.860634 0.762991
Si Si7 0.464656 0.455172 0.857433
O O1 0.843439 0.099172 0.340160
O O2 0.913833 0.076880 0.534057
O O3 0.793158 0.961566 0.477029
O O4 0.936953 0.948931 0.379159
O O5 0.616100 0.250000 0.526396
O O6 0.562058 0.368130 0.370828
O O7 0.512768 0.393450 0.570182
O O8 0.669018 0.423568 0.527903
O O9 0.415234 0.750000 0.798007
O O10 0.303331 0.879323 0.740587
O O11 0.443596 0.933699 0.830996
O O12 0.088126 0.750000 0.114417
O O13 0.060409 0.617430 0.261924
O O14 0.146407 0.579536 0.088028
O O15 0.180038 0.588876 0.875687
O O16 0.185567 0.750000 0.774902
#
# Coordination Sequence:
#
# PCOD8253436 Si02
#       7
#     8   8   8   8   8   8   8
#     4  11  25  40  67  92 129 175 221 254 324 386
#     4  10  21  38  64  96 127 164 210 267 328 383
#     4  10  20  38  63  92 127 164 211 269 321 380
#     4  11  24  42  65  97 131 167 215 270 331 387
#     4  12  22  41  68  96 130 168 214 279 324 381
#     4  11  23  40  64  97 130 166 219 267 317 385
#     4  11  23  45  62  91 135 177 210 265 323 389
#
# _framework density 20.463342999999998
#
# number of rings (size 3 to 8) (size 9 to 14) (size 15 to 20)
#    0.000    1.143    4.286    1.714    2.000    1.143 
#    0.000    3.571    0.000    0.857    0.000    0.000 
#    0.000    0.000    0.000    0.000    0.000    0.000 
#
# Total GULP energy -694662.235684 kJ/mol
# GULP energy per Si atom -12404.682780 kJ/mol
# Density = 2.041677 g / cm^3
# Si number density = 20.463343 Si / 1000 Ang^3
#
#
#
# Elastic Constant Matrix: (Units=GPa)
#
#
# Indices 1 2 3 4 5 6 
#
# 1 124.8972 42.0055 45.4660 0.0000 0.0000 0.0000
# 2 42.0055 86.2613 33.9263 0.0000 0.0000 0.0000
# 3 45.4660 33.9263 121.7335 0.0000 0.0000 0.0000
# 4 0.0000 0.0000 0.0000 24.2614 0.0000 0.0000
# 5 0.0000 0.0000 0.0000 0.0000 35.8376 0.0000
# 6 0.0000 0.0000 0.0000 0.0000 0.0000 20.9608
#
#
#
# Elastic Compliance Matrix: (Units=1/GPa)
#
#
# Indices 1 2 3 4 5 6 
#
# 1 0.010340 -0.003949 -0.002761 0.000000 0.000000 0.000000
# 2 -0.003949 0.014528 -0.002574 0.000000 0.000000 0.000000
# 3 -0.002761 -0.002574 0.009963 0.000000 0.000000 0.000000
# 4 0.000000 0.000000 0.000000 0.041218 0.000000 0.000000
# 5 0.000000 0.000000 0.000000 0.000000 0.027904 0.000000
# 6 0.000000 0.000000 0.000000 0.000000 0.000000 0.047708
#
#
# Mechanical properties :
#
#
# Convention : Reuss Voigt Hill
#
# Bulk Modulus (GPa) = 61.49039 63.96530 62.72785
# Shear Modulus (GPa) = 28.46566 30.31157 29.38862
#
# Velocity S-wave (km/s) = 3.73373 3.85289 3.79378
# Velocity P-wave (km/s) = 6.97868 7.14978 7.06475
#
# Compressibility (1/GPa) = 0.01626270
#
# Stress axis : x y z
#
# Youngs Moduli (GPa) = 96.71257 68.83244 100.36839
#
# Poissons Ratio (x) = 0.27183 0.27714
# Poissons Ratio (y) = 0.38193 0.25834
# Poissons Ratio (z) = 0.26705 0.17717
#
# Static dielectric constant tensor:
#      x y z
#    x 3.791350 0.000000 0.000000 
#    y 0.000000 3.631890 0.000000 
#    z 0.000000 0.000000 3.812030 
# 
# 
# High freq. dielectric constant tensor:
#      x y z
#    x 1.804420 0.000000 0.000000 
#    y 0.000000 1.789230 0.000000 
#    z 0.000000 0.000000 1.810740 
# 
# From -- ./inp_files/13357.got.cif
#   From: 2010.03.12/outbox.cif.g09.slc.cpg/sg62_7_cif.got.tgz:13357.got - 2010.04.10 19:12:36.
