data_PCOD8253369
_publ_section_title
;
Structure prediction by ZEFSAII (Michael W. Deem and Ramdas Pophale) SiO2 
 PCOD8253369
Probable space group: P N M A
;
_chemical_formula_sum "Si O2"
_cell_formula_units_Z 56
_cell_length_a 11.954973
_cell_length_b 14.494967
_cell_length_c 16.676100
_cell_angle_alpha 90.000000
_cell_angle_beta 90.000000
_cell_angle_gamma 90.000000
_cell_volume 2889.750325
_symmetry_space_group_name_H-M "P N M A"
_symmetry_group_IT_number 62
_symmetry_cell_setting 'orthorhombic'
loop_
_space_group_symop_operation_xyz
x,y,z
1/2-x,-y,1/2+z
1/2+x,1/2-y,1/2-z
-x,1/2+y,-z
-x,-y,-z
1/2+x,y,1/2-z
1/2-x,1/2+y,1/2+z
x,1/2-y,z
loop_
_atom_site_type_symbol
_atom_site_label
_atom_site_fract_x
_atom_site_fract_y
_atom_site_fract_z
Si Si1 0.025779 0.147447 0.176997
Si Si2 0.135490 0.518974 0.355471
Si Si3 0.713198 0.500547 0.310595
Si Si4 0.552184 0.854141 0.016590
Si Si5 0.207802 0.647393 0.897021
Si Si6 0.196813 0.146871 0.564264
Si Si7 0.433252 0.093313 0.163568
O O1 0.068143 0.250000 0.150242
O O2 0.113448 0.065878 0.159028
O O3 0.916697 0.117338 0.126858
O O4 0.997510 0.156359 0.271814
O O5 0.181095 0.557310 0.270409
O O6 0.144055 0.588948 0.430649
O O7 0.199230 0.422784 0.366167
O O8 0.003256 0.500602 0.347983
O O9 0.749992 0.576557 0.373726
O O10 0.815480 0.431029 0.295866
O O11 0.564646 0.750000 0.045957
O O12 0.424316 0.888219 0.031248
O O13 0.582233 0.858686 0.922710
O O14 0.234817 0.750000 0.862248
O O15 0.214269 0.649561 0.992792
O O16 0.184749 0.250000 0.601501
#
# Coordination Sequence:
#
# PCOD8253369 Si02
#       7
#     8   8   8   8   8   8   8
#     4  10  23  38  56  87 125 159 193 235 297 368
#     4  11  21  36  60  85 121 149 195 243 295 347
#     4  11  23  37  60  86 122 159 195 243 295 349
#     4  11  22  36  61  92 120 151 197 253 300 342
#     4  10  20  38  61  85 115 157 197 237 293 358
#     4  10  21  39  63  86 114 157 205 246 290 346
#     4  11  20  37  59  91 119 152 190 248 301 354
#
# _framework density 19.378837000000001
#
# number of rings (size 3 to 8) (size 9 to 14) (size 15 to 20)
#    0.000    1.429    4.286    1.714    0.000    4.571 
#    0.000    0.000    0.000    0.857    0.000    0.000 
#    0.000    0.000    0.000    0.000    0.000    0.000 
#
# Total GULP energy -693996.937610 kJ/mol
# GULP energy per Si atom -12392.802457 kJ/mol
# Density = 1.933473 g / cm^3
# Si number density = 19.378837 Si / 1000 Ang^3
#
#
#
# Elastic Constant Matrix: (Units=GPa)
#
#
# Indices 1 2 3 4 5 6 
#
# 1 90.7718 37.8074 29.1343 0.0000 0.0000 0.0000
# 2 37.8074 65.3019 26.0045 0.0000 0.0000 0.0000
# 3 29.1343 26.0045 67.5570 0.0000 0.0000 0.0000
# 4 0.0000 0.0000 0.0000 26.8105 0.0000 0.0000
# 5 0.0000 0.0000 0.0000 0.0000 35.1398 0.0000
# 6 0.0000 0.0000 0.0000 0.0000 0.0000 26.3389
#
#
#
# Elastic Compliance Matrix: (Units=1/GPa)
#
#
# Indices 1 2 3 4 5 6 
#
# 1 0.015286 -0.007352 -0.003762 0.000000 0.000000 0.000000
# 2 -0.007352 0.021622 -0.005152 0.000000 0.000000 0.000000
# 3 -0.003762 -0.005152 0.018408 0.000000 0.000000 0.000000
# 4 0.000000 0.000000 0.000000 0.037299 0.000000 0.000000
# 5 0.000000 0.000000 0.000000 0.000000 0.028458 0.000000
# 6 0.000000 0.000000 0.000000 0.000000 0.000000 0.037967
#
#
# Mechanical properties :
#
#
# Convention : Reuss Voigt Hill
#
# Bulk Modulus (GPa) = 43.89221 45.50255 44.69738
# Shear Modulus (GPa) = 25.10455 26.37012 25.73734
#
# Velocity S-wave (km/s) = 3.60316 3.69286 3.64829
# Velocity P-wave (km/s) = 6.32527 6.45868 6.39232
#
# Compressibility (1/GPa) = 0.02278309
#
# Stress axis : x y z
#
# Youngs Moduli (GPa) = 65.41757 46.24973 54.32404
#
# Poissons Ratio (x) = 0.34003 0.20439
# Poissons Ratio (y) = 0.48095 0.27989
# Poissons Ratio (z) = 0.24612 0.23829
#
# Static dielectric constant tensor:
#      x y z
#    x 3.562490 0.000000 0.000000 
#    y 0.000000 3.467390 0.000000 
#    z 0.000000 0.000000 3.558760 
# 
# 
# High freq. dielectric constant tensor:
#      x y z
#    x 1.746450 0.000000 0.000000 
#    y 0.000000 1.745660 0.000000 
#    z 0.000000 0.000000 1.753500 
# 
# From -- ./inp_files/18090.got.cif
#   From: 2010.03.12/outbox.cif.g09.slc.cpg/sg62_10_cif.got.tgz:18090.got - 2010.04.10 19:12:36.
