data_PCOD8253847
_publ_section_title
;
Structure prediction by ZEFSAII (Michael W. Deem and Ramdas Pophale) SiO2 
 PCOD8253847
Probable space group: P N M A
;
_chemical_formula_sum "Si O2"
_cell_formula_units_Z 64
_cell_length_a 19.929233
_cell_length_b 28.770126
_cell_length_c 5.197837
_cell_angle_alpha 90.000000
_cell_angle_beta 90.000000
_cell_angle_gamma 90.000000
_cell_volume 2980.265840
_symmetry_space_group_name_H-M "P N M A"
_symmetry_group_IT_number 62
_symmetry_cell_setting 'orthorhombic'
loop_
_space_group_symop_operation_xyz
x,y,z
1/2-x,-y,1/2+z
1/2+x,1/2-y,1/2-z
-x,1/2+y,-z
-x,-y,-z
1/2+x,y,1/2-z
1/2-x,1/2+y,1/2+z
x,1/2-y,z
loop_
_atom_site_type_symbol
_atom_site_label
_atom_site_fract_x
_atom_site_fract_y
_atom_site_fract_z
Si Si1 0.790563 0.048066 0.383801
Si Si2 0.852823 0.970133 0.050579
Si Si3 0.570362 0.120987 0.563467
Si Si4 0.130618 0.874897 0.868123
Si Si5 0.097865 0.949670 0.246130
Si Si6 0.233921 0.803785 0.014646
Si Si7 0.512466 0.890245 0.947885
Si Si8 0.181767 0.195774 0.009232
O O1 0.710756 0.044286 0.377234
O O2 0.807041 0.092848 0.213417
O O3 0.824367 0.055114 0.662541
O O4 0.825196 0.000858 0.283527
O O5 0.908070 0.000124 0.889938
O O6 0.886833 0.923568 0.157744
O O7 0.522137 0.133659 0.803813
O O8 0.614001 0.166508 0.508958
O O9 0.536924 0.106309 0.293794
O O10 0.162226 0.829235 0.994184
O O11 0.079390 0.860909 0.636401
O O12 0.084534 0.905691 0.059245
O O13 0.041969 0.941980 0.471137
O O14 0.215794 0.750000 0.019714
O O15 0.281918 0.815917 0.776107
O O16 0.269458 0.819356 0.277610
O O17 0.162345 0.250000 0.989134
#
# Coordination Sequence:
#
# PCOD8253847 Si02
#       8
#     8   8   8   8   8   8   8   8
#     4  10  21  37  58  93 124 158 208 260 328 378
#     4  11  23  36  62  93 126 162 215 266 321 381
#     4  12  26  41  67  92 125 176 220 254 304 391
#     4  10  22  41  67  85 129 171 200 268 316 364
#     4  10  22  42  60  86 129 170 204 275 309 362
#     4  10  22  40  70 103 127 154 204 262 332 392
#     4  11  25  45  60  92 128 171 224 249 304 370
#     4  10  23  44  67 100 132 158 200 267 329 376
#
# _framework density 21.474592999999999
#
# number of rings (size 3 to 8) (size 9 to 14) (size 15 to 20)
#    0.000    1.500    2.500    1.500    7.000    1.000 
#    0.000    1.250    0.000    0.750    0.000    0.000 
#    0.000    0.000    0.000    0.000    0.000    0.000 
#
# Total GULP energy -793256.924230 kJ/mol
# GULP energy per Si atom -12394.639441 kJ/mol
# Density = 2.142572 g / cm^3
# Si number density = 21.474593 Si / 1000 Ang^3
#
#
#
# Elastic Constant Matrix: (Units=GPa)
#
#
# Indices 1 2 3 4 5 6 
#
# 1 73.5413 43.6656 14.8891 0.0000 0.0000 0.0000
# 2 43.6656 79.9811 18.2459 0.0000 0.0000 0.0000
# 3 14.8891 18.2459 85.1911 0.0000 0.0000 0.0000
# 4 0.0000 0.0000 0.0000 14.7737 0.0000 0.0000
# 5 0.0000 0.0000 0.0000 0.0000 32.6319 0.0000
# 6 0.0000 0.0000 0.0000 0.0000 0.0000 20.1279
#
#
#
# Elastic Compliance Matrix: (Units=1/GPa)
#
#
# Indices 1 2 3 4 5 6 
#
# 1 0.020242 -0.010770 -0.001231 0.000000 0.000000 0.000000
# 2 -0.010770 0.018876 -0.002160 0.000000 0.000000 0.000000
# 3 -0.001231 -0.002160 0.012416 0.000000 0.000000 0.000000
# 4 0.000000 0.000000 0.000000 0.067688 0.000000 0.000000
# 5 0.000000 0.000000 0.000000 0.000000 0.030645 0.000000
# 6 0.000000 0.000000 0.000000 0.000000 0.000000 0.049682
#
#
# Mechanical properties :
#
#
# Convention : Reuss Voigt Hill
#
# Bulk Modulus (GPa) = 43.08378 43.59054 43.33716
# Shear Modulus (GPa) = 21.22158 24.30088 22.76123
#
# Velocity S-wave (km/s) = 3.14700 3.36759 3.25916
# Velocity P-wave (km/s) = 5.77157 5.95513 5.86407
#
# Compressibility (1/GPa) = 0.02321059
#
# Stress axis : x y z
#
# Youngs Moduli (GPa) = 49.40241 52.97791 80.54016
#
# Poissons Ratio (x) = 0.57058 0.09915
# Poissons Ratio (y) = 0.53208 0.17400
# Poissons Ratio (z) = 0.06082 0.11445
#
# Static dielectric constant tensor:
#      x y z
#    x 3.813050 0.000000 0.000000 
#    y 0.000000 3.715500 0.000000 
#    z 0.000000 0.000000 4.136410 
# 
# 
# High freq. dielectric constant tensor:
#      x y z
#    x 1.840030 0.000000 0.000000 
#    y 0.000000 1.816300 0.000000 
#    z 0.000000 0.000000 1.858180 
# 
# From -- ./inp_files/1892.got.cif
#   From: 2010.03.12/outbox.cif.g09.slc.cpg/sg62_1_cif.got.tgz:1892.got - 2010.04.10 19:12:36.
