data_PCOD8253375
_publ_section_title
;
Structure prediction by ZEFSAII (Michael W. Deem and Ramdas Pophale) SiO2 
 PCOD8253375
Probable space group: P N M A
;
_chemical_formula_sum "Si O2"
_cell_formula_units_Z 64
_cell_length_a 22.818966
_cell_length_b 8.616162
_cell_length_c 16.239264
_cell_angle_alpha 90.000000
_cell_angle_beta 90.000000
_cell_angle_gamma 90.000000
_cell_volume 3192.832675
_symmetry_space_group_name_H-M "P N M A"
_symmetry_group_IT_number 62
_symmetry_cell_setting 'orthorhombic'
loop_
_space_group_symop_operation_xyz
x,y,z
1/2-x,-y,1/2+z
1/2+x,1/2-y,1/2-z
-x,1/2+y,-z
-x,-y,-z
1/2+x,y,1/2-z
1/2-x,1/2+y,1/2+z
x,1/2-y,z
loop_
_atom_site_type_symbol
_atom_site_label
_atom_site_fract_x
_atom_site_fract_y
_atom_site_fract_z
Si Si1 0.640191 0.425123 0.099146
Si Si2 0.481390 0.069816 0.911946
Si Si3 0.327866 0.072597 0.471528
Si Si4 0.546060 0.065286 0.565777
Si Si5 0.951843 0.930927 0.251633
Si Si6 0.748725 0.578047 0.691220
Si Si7 0.324910 0.575258 0.187058
Si Si8 0.280230 0.072231 0.033472
O O1 0.615576 0.250000 0.090173
O O2 0.587188 0.545073 0.102940
O O3 0.681415 0.442041 0.179155
O O4 0.682324 0.460564 0.023857
O O5 0.496580 0.250000 0.917361
O O6 0.513749 0.995913 0.830898
O O7 0.500000 0.000000 0.000000
O O8 0.339755 0.250000 0.497554
O O9 0.288727 0.058915 0.390892
O O10 0.389517 0.987490 0.461299
O O11 0.287407 0.986993 0.540358
O O12 0.543923 0.250000 0.564264
O O13 0.531490 0.004388 0.659782
O O14 0.500000 0.000000 0.500000
O O15 0.965632 0.750000 0.251386
O O16 0.883779 0.967551 0.264560
O O17 0.736652 0.750000 0.728092
O O18 0.728938 0.439767 0.750177
O O19 0.326939 0.750000 0.151100
O O20 0.313541 0.445171 0.119350
O O21 0.282027 0.250000 0.003724
#
# Coordination Sequence:
#
# PCOD8253375 Si02
#       8
#     8   8   8   8   8   8   8   8
#     4  10  21  39  58  82 118 156 195 245 300 357
#     4  11  22  39  62  90 124 167 209 255 310 374
#     4  10  20  38  61  87 117 153 195 250 307 364
#     4  11  22  41  64  89 119 163 212 265 317 372
#     4   9  21  39  61  88 122 162 208 254 308 371
#     4   9  19  35  57  82 114 149 188 242 301 355
#     4  11  20  35  59  87 117 153 197 247 302 362
#     4  11  22  36  58  89 120 155 196 244 301 371
#
# _framework density 20.044896999999999
#
# number of rings (size 3 to 8) (size 9 to 14) (size 15 to 20)
#    0.000    1.750    1.250    4.500    0.000    3.500 
#    2.250    4.375    0.000    0.000    0.000    0.000 
#    0.000    0.000    0.000    0.000    0.000    0.000 
#
# Total GULP energy -793080.536744 kJ/mol
# GULP energy per Si atom -12391.883387 kJ/mol
# Density = 1.999927 g / cm^3
# Si number density = 20.044897 Si / 1000 Ang^3
#
#
#
# Elastic Constant Matrix: (Units=GPa)
#
#
# Indices 1 2 3 4 5 6 
#
# 1 101.5217 21.9227 44.5028 0.0000 0.0000 0.0000
# 2 21.9227 60.7640 24.5771 0.0000 0.0000 0.0000
# 3 44.5028 24.5771 110.7563 0.0000 0.0000 0.0000
# 4 0.0000 0.0000 0.0000 28.7547 0.0000 0.0000
# 5 0.0000 0.0000 0.0000 0.0000 28.6792 0.0000
# 6 0.0000 0.0000 0.0000 0.0000 0.0000 34.4161
#
#
#
# Elastic Compliance Matrix: (Units=1/GPa)
#
#
# Indices 1 2 3 4 5 6 
#
# 1 0.012343 -0.002689 -0.004363 0.000000 0.000000 0.000000
# 2 -0.002689 0.018665 -0.003062 0.000000 0.000000 0.000000
# 3 -0.004363 -0.003062 0.011461 0.000000 0.000000 0.000000
# 4 0.000000 0.000000 0.000000 0.034777 0.000000 0.000000
# 5 0.000000 0.000000 0.000000 0.000000 0.034869 0.000000
# 6 0.000000 0.000000 0.000000 0.000000 0.000000 0.029056
#
#
# Mechanical properties :
#
#
# Convention : Reuss Voigt Hill
#
# Bulk Modulus (GPa) = 44.95677 50.56081 47.75879
# Shear Modulus (GPa) = 29.61865 30.50595 30.06230
#
# Velocity S-wave (km/s) = 3.84815 3.90536 3.87686
# Velocity P-wave (km/s) = 6.49777 6.75384 6.62704
#
# Compressibility (1/GPa) = 0.02224359
#
# Stress axis : x y z
#
# Youngs Moduli (GPa) = 81.01598 53.57495 87.25001
#
# Poissons Ratio (x) = 0.14404 0.38067
# Poissons Ratio (y) = 0.21782 0.26713
# Poissons Ratio (z) = 0.35347 0.16403
#
# Static dielectric constant tensor:
#      x y z
#    x 3.825170 0.000000 0.000000 
#    y 0.000000 3.561430 0.000000 
#    z 0.000000 0.000000 3.975500 
# 
# 
# High freq. dielectric constant tensor:
#      x y z
#    x 1.783800 0.000000 0.000000 
#    y 0.000000 1.776310 0.000000 
#    z 0.000000 0.000000 1.775860 
# 
# From -- ./inp_files/20965.got.cif
#   From: 2010.03.12/outbox.cif.g09.slc.cpg/sg62_11_cif.got.tgz:20965.got - 2010.04.10 19:12:36.
