data_PCOD8253463
_publ_section_title
;
Structure prediction by ZEFSAII (Michael W. Deem and Ramdas Pophale) SiO2 
 PCOD8253463
Probable space group: P N M A
;
_chemical_formula_sum "Si O2"
_cell_formula_units_Z 48
_cell_length_a 9.528008
_cell_length_b 8.537536
_cell_length_c 28.771691
_cell_angle_alpha 90.000000
_cell_angle_beta 90.000000
_cell_angle_gamma 90.000000
_cell_volume 2340.453670
_symmetry_space_group_name_H-M "P N M A"
_symmetry_group_IT_number 62
_symmetry_cell_setting 'orthorhombic'
loop_
_space_group_symop_operation_xyz
x,y,z
1/2-x,-y,1/2+z
1/2+x,1/2-y,1/2-z
-x,1/2+y,-z
-x,-y,-z
1/2+x,y,1/2-z
1/2-x,1/2+y,1/2+z
x,1/2-y,z
loop_
_atom_site_type_symbol
_atom_site_label
_atom_site_fract_x
_atom_site_fract_y
_atom_site_fract_z
Si Si1 0.988193 0.932942 0.129981
Si Si2 0.284802 0.435892 0.119811
Si Si3 0.699488 0.936905 0.711084
Si Si4 0.889363 0.067113 0.035164
Si Si5 0.143257 0.932914 0.517051
Si Si6 0.018135 0.933874 0.701657
O O1 0.978622 0.750000 0.118245
O O2 0.888269 0.974510 0.172253
O O3 0.935979 0.035975 0.087155
O O4 0.148176 0.980381 0.141172
O O5 0.259057 0.250000 0.120981
O O6 0.311203 0.499888 0.067556
O O7 0.419026 0.482845 0.151464
O O8 0.691803 0.750000 0.703628
O O9 0.628558 0.990612 0.759402
O O10 0.860461 0.000666 0.709103
O O11 0.869851 0.250000 0.026978
O O12 0.746333 0.978927 0.024263
O O13 0.000000 0.000000 0.000000
O O14 0.130899 0.750000 0.522530
O O15 0.000000 0.000000 0.500000
O O16 0.004155 0.750000 0.705374
#
# Coordination Sequence:
#
# PCOD8253463 Si02
#       6
#     8   8   8   8   8   8
#     4  12  25  40  61  91 125 164 210 256 314 376
#     4  10  21  40  64  91 123 165 211 256 308 370
#     4  10  20  38  65  93 123 159 203 257 310 371
#     4  12  24  42  66  92 124 164 213 262 314 373
#     4  11  24  40  62  93 132 171 212 258 309 368
#     4   9  19  37  65  96 122 156 206 255 310 373
#
# _framework density 20.508845999999998
#
# number of rings (size 3 to 8) (size 9 to 14) (size 15 to 20)
#    0.000    1.333    1.667    4.500    2.333    3.333 
#    0.000    4.167    0.000    0.000    0.000    0.000 
#    0.000    0.000    0.000    0.000    0.000    0.000 
#
# Total GULP energy -595245.844728 kJ/mol
# GULP energy per Si atom -12400.955098 kJ/mol
# Density = 2.046217 g / cm^3
# Si number density = 20.508846 Si / 1000 Ang^3
#
#
#
# Elastic Constant Matrix: (Units=GPa)
#
#
# Indices 1 2 3 4 5 6 
#
# 1 172.9472 25.1370 46.0089 0.0000 0.0000 0.0000
# 2 25.1370 42.1113 20.6094 0.0000 0.0000 0.0000
# 3 46.0089 20.6094 96.2070 0.0000 0.0000 0.0000
# 4 0.0000 0.0000 0.0000 27.1579 0.0000 0.0000
# 5 0.0000 0.0000 0.0000 0.0000 41.9854 0.0000
# 6 0.0000 0.0000 0.0000 0.0000 0.0000 31.0534
#
#
#
# Elastic Compliance Matrix: (Units=1/GPa)
#
#
# Indices 1 2 3 4 5 6 
#
# 1 0.006908 -0.002800 -0.002704 0.000000 0.000000 0.000000
# 2 -0.002800 0.027663 -0.004587 0.000000 0.000000 0.000000
# 3 -0.002704 -0.004587 0.012670 0.000000 0.000000 0.000000
# 4 0.000000 0.000000 0.000000 0.036822 0.000000 0.000000
# 5 0.000000 0.000000 0.000000 0.000000 0.023818 0.000000
# 6 0.000000 0.000000 0.000000 0.000000 0.000000 0.032203
#
#
# Mechanical properties :
#
#
# Convention : Reuss Voigt Hill
#
# Bulk Modulus (GPa) = 36.95599 54.97512 45.96556
# Shear Modulus (GPa) = 29.53593 34.67335 32.10464
#
# Velocity S-wave (km/s) = 3.79906 4.11622 3.96081
# Velocity P-wave (km/s) = 6.10757 7.03241 6.58624
#
# Compressibility (1/GPa) = 0.02705921
#
# Stress axis : x y z
#
# Youngs Moduli (GPa) = 144.74998 36.14936 78.92722
#
# Poissons Ratio (x) = 0.10124 0.21341
# Poissons Ratio (y) = 0.40537 0.36201
# Poissons Ratio (z) = 0.39139 0.16581
#
# Static dielectric constant tensor:
#      x y z
#    x 3.653540 0.000000 0.000000 
#    y 0.000000 3.448310 0.000000 
#    z 0.000000 0.000000 3.481850 
# 
# 
# High freq. dielectric constant tensor:
#      x y z
#    x 1.819540 0.000000 0.000000 
#    y 0.000000 1.780030 0.000000 
#    z 0.000000 0.000000 1.811870 
# 
# From -- ./inp_files/31952.got.cif
#   From: 2010.03.12/outbox.cif.g09.slc.cpg/sg62_16_cif.got.tgz:31952.got - 2010.04.10 19:12:36.
