data_PCOD8253909
_publ_section_title
;
Structure prediction by ZEFSAII (Michael W. Deem and Ramdas Pophale) SiO2 
 PCOD8253909
Probable space group: P N M A
;
_chemical_formula_sum "Si O2"
_cell_formula_units_Z 64
_cell_length_a 9.941534
_cell_length_b 14.276965
_cell_length_c 21.411339
_cell_angle_alpha 90.000000
_cell_angle_beta 90.000000
_cell_angle_gamma 90.000000
_cell_volume 3039.016966
_symmetry_space_group_name_H-M "P N M A"
_symmetry_group_IT_number 62
_symmetry_cell_setting 'orthorhombic'
loop_
_space_group_symop_operation_xyz
x,y,z
1/2-x,-y,1/2+z
1/2+x,1/2-y,1/2-z
-x,1/2+y,-z
-x,-y,-z
1/2+x,y,1/2-z
1/2-x,1/2+y,1/2+z
x,1/2-y,z
loop_
_atom_site_type_symbol
_atom_site_label
_atom_site_fract_x
_atom_site_fract_y
_atom_site_fract_z
Si Si1 0.655556 0.989489 0.984371
Si Si2 0.438517 0.147503 0.213906
Si Si3 0.570571 0.855628 0.639690
Si Si4 0.308133 0.858080 0.107588
Si Si5 0.527665 0.641512 0.324838
Si Si6 0.707816 0.037286 0.611807
Si Si7 0.271153 0.855026 0.614141
Si Si8 0.038715 0.549555 0.310044
O O1 0.709914 0.089696 0.959073
O O2 0.674992 0.915737 0.929185
O O3 0.500000 0.000000 0.000000
O O4 0.736933 0.946659 0.042434
O O5 0.503337 0.250000 0.197334
O O6 0.417859 0.138660 0.286692
O O7 0.289956 0.140525 0.183813
O O8 0.529783 0.063245 0.188698
O O9 0.598080 0.750000 0.615695
O O10 0.423665 0.891969 0.617862
O O11 0.680640 0.926002 0.612790
O O12 0.338901 0.750000 0.093775
O O13 0.176503 0.871152 0.149191
O O14 0.430761 0.904093 0.144563
O O15 0.490784 0.750000 0.314908
O O16 0.426091 0.596924 0.375250
O O17 0.517280 0.588901 0.259100
O O18 0.813748 0.072307 0.663759
O O19 0.270534 0.750000 0.587727
#
# Coordination Sequence:
#
# PCOD8253909 Si02
#       8
#     8   8   8   8   8   8   8   8
#     4  12  25  47  65  96 131 174 229 274 333 397
#     4  10  21  37  64  98 132 170 215 267 330 402
#     4  10  23  39  62 100 136 169 214 272 342 405
#     4  11  25  46  71  96 136 183 227 281 335 398
#     4  11  26  45  68 103 135 174 227 282 343 400
#     4  12  26  41  70 100 134 177 221 281 329 402
#     4  10  22  42  66  92 133 180 218 269 336 404
#     4  12  23  42  70 100 138 179 220 277 345 404
#
# _framework density 21.059441
#
# number of rings (size 3 to 8) (size 9 to 14) (size 15 to 20)
#    0.000    1.000    3.750    1.875    1.750    6.000 
#    0.000    2.500    0.000    0.000    0.000    0.000 
#    0.000    0.000    0.000    0.000    0.000    0.000 
#
# Total GULP energy -793622.130081 kJ/mol
# GULP energy per Si atom -12400.345783 kJ/mol
# Density = 2.101151 g / cm^3
# Si number density = 21.059441 Si / 1000 Ang^3
#
#
#
# Elastic Constant Matrix: (Units=GPa)
#
#
# Indices 1 2 3 4 5 6 
#
# 1 94.3675 43.1333 31.7577 0.0000 0.0000 0.0000
# 2 43.1333 130.5634 34.3387 0.0000 0.0000 0.0000
# 3 31.7577 34.3387 93.3328 0.0000 0.0000 0.0000
# 4 0.0000 0.0000 0.0000 -11.1837 0.0000 0.0000
# 5 0.0000 0.0000 0.0000 0.0000 14.6749 0.0000
# 6 0.0000 0.0000 0.0000 0.0000 0.0000 28.5636
#
#
#
# Elastic Compliance Matrix: (Units=1/GPa)
#
#
# Indices 1 2 3 4 5 6 
#
# 1 0.013302 -0.003547 -0.003221 0.000000 0.000000 0.000000
# 2 -0.003547 0.009426 -0.002261 0.000000 0.000000 0.000000
# 3 -0.003221 -0.002261 0.012642 0.000000 0.000000 0.000000
# 4 0.000000 0.000000 0.000000 -0.089416 0.000000 0.000000
# 5 0.000000 0.000000 0.000000 0.000000 0.068143 0.000000
# 6 0.000000 0.000000 0.000000 0.000000 0.000000 0.035010
#
#
# Mechanical properties :
#
#
# Convention : Reuss Voigt Hill
#
# Bulk Modulus (GPa) = 57.76531 59.63592 58.70061
# Shear Modulus (GPa) = 68.55261 20.34656 44.44959
#
# Velocity S-wave (km/s) = 5.71162 3.11167 4.59919
# Velocity P-wave (km/s) = 8.42532 6.42568 7.49251
#
# Compressibility (1/GPa) = 0.01731143
#
# Stress axis : x y z
#
# Youngs Moduli (GPa) = 75.17476 106.09349 79.10034
#
# Poissons Ratio (x) = 0.37636 0.25479
# Poissons Ratio (y) = 0.26668 0.17883
# Poissons Ratio (z) = 0.24215 0.23986
#
# Static dielectric constant tensor:
#      x y z
#    x 3.817820 0.000000 0.000000 
#    y 0.000000 4.192340 0.000000 
#    z 0.000000 0.000000 3.844720 
# 
# 
# High freq. dielectric constant tensor:
#      x y z
#    x 1.827380 0.000000 0.000000 
#    y 0.000000 1.840090 0.000000 
#    z 0.000000 0.000000 1.819050 
# 
# From -- ./inp_files/29014.got.cif
#   From: 2010.03.12/outbox.cif.g09.slc.cpg/sg62_15_cif.got.tgz:29014.got - 2010.04.10 19:12:36.
