data_PCOD8253292
_publ_section_title
;
Structure prediction by ZEFSAII (Michael W. Deem and Ramdas Pophale) SiO2 
 PCOD8253292
Probable space group: P N M A
;
_chemical_formula_sum "Si O2"
_cell_formula_units_Z 32
_cell_length_a 8.988009
_cell_length_b 8.521883
_cell_length_c 20.160685
_cell_angle_alpha 90.000000
_cell_angle_beta 90.000000
_cell_angle_gamma 90.000000
_cell_volume 1544.202851
_symmetry_space_group_name_H-M "P N M A"
_symmetry_group_IT_number 62
_symmetry_cell_setting 'orthorhombic'
loop_
_space_group_symop_operation_xyz
x,y,z
1/2-x,-y,1/2+z
1/2+x,1/2-y,1/2-z
-x,1/2+y,-z
-x,-y,-z
1/2+x,y,1/2-z
1/2-x,1/2+y,1/2+z
x,1/2-y,z
loop_
_atom_site_type_symbol
_atom_site_label
_atom_site_fract_x
_atom_site_fract_y
_atom_site_fract_z
Si Si1 0.636998 0.430640 0.819904
Si Si2 0.648755 0.933417 0.575004
Si Si3 0.677250 0.067526 0.205758
Si Si4 0.308088 0.931777 0.562938
O O1 0.590198 0.250000 0.815513
O O2 0.496634 0.538615 0.803626
O O3 0.767425 0.468041 0.768099
O O4 0.695045 0.466904 0.893533
O O5 0.669253 0.750000 0.560527
O O6 0.733710 0.987720 0.640740
O O7 0.475919 0.977066 0.583558
O O8 0.719672 0.028399 0.513966
O O9 0.704616 0.250000 0.220458
O O10 0.275548 0.750000 0.575914
#
# Coordination Sequence:
#
# PCOD8253292 Si02
#       4
#     8   8   8   8
#     4  12  25  40  60  88 121 155 197 247 297 350
#     4   9  20  38  61  88 117 152 195 243 293 349
#     4  11  23  41  63  86 117 157 200 244 296 355
#     4  10  20  37  62  89 119 156 196 240 294 354
#
# _framework density 20.722669
#
# number of rings (size 3 to 8) (size 9 to 14) (size 15 to 20)
#    0.000    1.500    0.000    5.250    0.000    6.000 
#    0.000    0.000    0.000    0.000    0.000    0.000 
#    0.000    0.000    0.000    0.000    0.000    0.000 
#
# Total GULP energy -397072.343516 kJ/mol
# GULP energy per Si atom -12408.510735 kJ/mol
# Density = 2.067550 g / cm^3
# Si number density = 20.722669 Si / 1000 Ang^3
#
#
#
# Elastic Constant Matrix: (Units=GPa)
#
#
# Indices 1 2 3 4 5 6 
#
# 1 49.2589 10.0228 8.5929 0.0000 0.0000 0.0000
# 2 10.0228 63.9323 28.8533 0.0000 0.0000 0.0000
# 3 8.5929 28.8533 77.2410 0.0000 0.0000 0.0000
# 4 0.0000 0.0000 0.0000 37.9929 0.0000 0.0000
# 5 0.0000 0.0000 0.0000 0.0000 38.7618 0.0000
# 6 0.0000 0.0000 0.0000 0.0000 0.0000 28.4777
#
#
#
# Elastic Compliance Matrix: (Units=1/GPa)
#
#
# Indices 1 2 3 4 5 6 
#
# 1 0.021084 -0.002702 -0.001336 0.000000 0.000000 0.000000
# 2 -0.002702 0.019160 -0.006856 0.000000 0.000000 0.000000
# 3 -0.001336 -0.006856 0.015656 0.000000 0.000000 0.000000
# 4 0.000000 0.000000 0.000000 0.026321 0.000000 0.000000
# 5 0.000000 0.000000 0.000000 0.000000 0.025799 0.000000
# 6 0.000000 0.000000 0.000000 0.000000 0.000000 0.035115
#
#
# Mechanical properties :
#
#
# Convention : Reuss Voigt Hill
#
# Bulk Modulus (GPa) = 29.31691 31.70782 30.51237
# Shear Modulus (GPa) = 28.36173 30.57736 29.46955
#
# Velocity S-wave (km/s) = 3.70352 3.84546 3.77515
# Velocity P-wave (km/s) = 5.69790 5.92039 5.81021
#
# Compressibility (1/GPa) = 0.03411000
#
# Stress axis : x y z
#
# Youngs Moduli (GPa) = 47.42973 52.19327 63.87195
#
# Poissons Ratio (x) = 0.14105 0.08534
# Poissons Ratio (y) = 0.12817 0.43793
# Poissons Ratio (z) = 0.06337 0.35786
#
# Static dielectric constant tensor:
#      x y z
#    x 3.648910 0.000000 0.000000 
#    y 0.000000 3.630410 0.000000 
#    z 0.000000 0.000000 3.825080 
# 
# 
# High freq. dielectric constant tensor:
#      x y z
#    x 1.807510 0.000000 0.000000 
#    y 0.000000 1.810960 0.000000 
#    z 0.000000 0.000000 1.822730 
# 
# From -- ./inp_files/25531.got.cif
#   From: 2010.03.12/outbox.cif.g09.slc.cpg/sg62_13_cif.got.tgz:25531.got - 2010.04.10 19:12:36.
