data_PCOD8253719
_publ_section_title
;
Structure prediction by ZEFSAII (Michael W. Deem and Ramdas Pophale) SiO2 
 PCOD8253719
Probable space group: P N M A
;
_chemical_formula_sum "Si O2"
_cell_formula_units_Z 64
_cell_length_a 14.420534
_cell_length_b 9.014691
_cell_length_c 24.914398
_cell_angle_alpha 90.000000
_cell_angle_beta 90.000000
_cell_angle_gamma 90.000000
_cell_volume 3238.788478
_symmetry_space_group_name_H-M "P N M A"
_symmetry_group_IT_number 62
_symmetry_cell_setting 'orthorhombic'
loop_
_space_group_symop_operation_xyz
x,y,z
1/2-x,-y,1/2+z
1/2+x,1/2-y,1/2-z
-x,1/2+y,-z
-x,-y,-z
1/2+x,y,1/2-z
1/2-x,1/2+y,1/2+z
x,1/2-y,z
loop_
_atom_site_type_symbol
_atom_site_label
_atom_site_fract_x
_atom_site_fract_y
_atom_site_fract_z
Si Si1 0.789289 0.081672 0.318713
Si Si2 0.902373 0.927130 0.514675
Si Si3 0.396058 0.578210 0.363774
Si Si4 0.647929 0.425186 0.226001
Si Si5 0.455708 0.073890 0.551100
Si Si6 0.748649 0.075002 0.927992
Si Si7 0.190774 0.576059 0.385386
Si Si8 0.947228 0.081423 0.240694
O O1 0.767512 0.250000 0.336215
O O2 0.721548 0.031259 0.271182
O O3 0.893411 0.064352 0.296872
O O4 0.780273 0.977502 0.369514
O O5 0.912868 0.750000 0.515885
O O6 0.826119 0.981142 0.471347
O O7 0.869744 0.983964 0.572488
O O8 0.000000 0.000000 0.500000
O O9 0.406201 0.750000 0.352342
O O10 0.483332 0.520445 0.398171
O O11 0.300108 0.544496 0.395180
O O12 0.394021 0.503435 0.306000
O O13 0.650546 0.250000 0.211973
O O14 0.665611 0.521355 0.173632
O O15 0.550110 0.477829 0.249950
O O16 0.459474 0.250000 0.544375
O O17 0.350972 0.014026 0.557799
O O18 0.500000 0.000000 0.500000
O O19 0.751230 0.250000 0.927210
O O20 0.167546 0.750000 0.390930
O O21 0.948921 0.250000 0.221408
#
# Coordination Sequence:
#
# PCOD8253719 Si02
#       8
#     8   8   8   8   8   8   8   8
#     4  10  21  37  58  87 121 156 196 241 293 350
#     4  11  25  44  64  88 118 158 205 254 303 356
#     4  10  21  37  59  89 123 155 192 241 297 356
#     4  10  21  38  59  87 121 158 199 246 298 353
#     4  10  21  38  60  88 119 152 192 238 293 355
#     4  10  23  41  61  87 120 156 198 247 300 357
#     4  11  23  39  61  90 120 156 201 247 298 358
#     4  10  21  36  57  85 115 152 198 241 291 353
#
# _framework density 19.760476000000001
#
# number of rings (size 3 to 8) (size 9 to 14) (size 15 to 20)
#    0.000    1.750    1.250    2.250    1.750    4.000 
#    0.000    0.000    0.000    0.000    0.000    0.000 
#    0.000    0.000    0.000    0.000    0.000    0.000 
#
# Total GULP energy -793776.234574 kJ/mol
# GULP energy per Si atom -12402.753665 kJ/mol
# Density = 1.971550 g / cm^3
# Si number density = 19.760476 Si / 1000 Ang^3
#
#
#
# Elastic Constant Matrix: (Units=GPa)
#
#
# Indices 1 2 3 4 5 6 
#
# 1 110.8246 34.3223 34.6083 0.0000 0.0000 0.0000
# 2 34.3223 41.1129 28.7346 0.0000 0.0000 0.0000
# 3 34.6083 28.7346 101.8861 0.0000 0.0000 0.0000
# 4 0.0000 0.0000 0.0000 40.4808 0.0000 0.0000
# 5 0.0000 0.0000 0.0000 0.0000 30.6228 0.0000
# 6 0.0000 0.0000 0.0000 0.0000 0.0000 26.8260
#
#
#
# Elastic Compliance Matrix: (Units=1/GPa)
#
#
# Indices 1 2 3 4 5 6 
#
# 1 0.012377 -0.009210 -0.001607 0.000000 0.000000 0.000000
# 2 -0.009210 0.037148 -0.007348 0.000000 0.000000 0.000000
# 3 -0.001607 -0.007348 0.012433 0.000000 0.000000 0.000000
# 4 0.000000 0.000000 0.000000 0.024703 0.000000 0.000000
# 5 0.000000 0.000000 0.000000 0.000000 0.032655 0.000000
# 6 0.000000 0.000000 0.000000 0.000000 0.000000 0.037277
#
#
# Mechanical properties :
#
#
# Convention : Reuss Voigt Hill
#
# Bulk Modulus (GPa) = 39.01953 49.90600 44.46277
# Shear Modulus (GPa) = 24.81796 29.99649 27.40722
#
# Velocity S-wave (km/s) = 3.54777 3.90038 3.72825
# Velocity P-wave (km/s) = 6.04742 6.75235 6.40959
#
# Compressibility (1/GPa) = 0.02562819
#
# Stress axis : x y z
#
# Youngs Moduli (GPa) = 80.79265 26.91943 80.43047
#
# Poissons Ratio (x) = 0.24793 0.12924
# Poissons Ratio (y) = 0.74410 0.59103
# Poissons Ratio (z) = 0.12982 0.19781
#
# Static dielectric constant tensor:
#      x y z
#    x 4.019490 0.000000 0.000000 
#    y 0.000000 3.289010 0.000000 
#    z 0.000000 0.000000 3.724860 
# 
# 
# High freq. dielectric constant tensor:
#      x y z
#    x 1.790340 0.000000 0.000000 
#    y 0.000000 1.761500 0.000000 
#    z 0.000000 0.000000 1.774130 
# 
# From -- ./inp_files/29883.got.cif
#   From: 2010.03.12/outbox.cif.g09.slc.cpg/sg62_15_cif.got.tgz:29883.got - 2010.04.10 19:12:36.
