data_PCOD8253517
_publ_section_title
;
Structure prediction by ZEFSAII (Michael W. Deem and Ramdas Pophale) SiO2 
 PCOD8253517
Probable space group: P N M A
;
_chemical_formula_sum "Si O2"
_cell_formula_units_Z 56
_cell_length_a 21.135904
_cell_length_b 9.267082
_cell_length_c 14.625864
_cell_angle_alpha 90.000000
_cell_angle_beta 90.000000
_cell_angle_gamma 90.000000
_cell_volume 2864.741004
_symmetry_space_group_name_H-M "P N M A"
_symmetry_group_IT_number 62
_symmetry_cell_setting 'orthorhombic'
loop_
_space_group_symop_operation_xyz
x,y,z
1/2-x,-y,1/2+z
1/2+x,1/2-y,1/2-z
-x,1/2+y,-z
-x,-y,-z
1/2+x,y,1/2-z
1/2-x,1/2+y,1/2+z
x,1/2-y,z
loop_
_atom_site_type_symbol
_atom_site_label
_atom_site_fract_x
_atom_site_fract_y
_atom_site_fract_z
Si Si1 0.051329 0.410589 0.053548
Si Si2 0.160615 0.915871 0.302475
Si Si3 0.142111 0.913907 0.951254
Si Si4 0.257533 0.412313 0.971489
Si Si5 0.399356 0.084362 0.254123
Si Si6 0.463410 0.587010 0.767544
Si Si7 0.233515 0.920876 0.684091
O O1 0.052147 0.250000 0.012188
O O2 0.118346 0.488108 0.035246
O O3 0.040450 0.405820 0.159534
O O4 0.000000 0.500000 0.000000
O O5 0.157440 0.750000 0.269256
O O6 0.180207 0.924581 0.409024
O O7 0.090462 0.982718 0.304986
O O8 0.208283 0.999577 0.234261
O O9 0.146401 0.750000 0.984514
O O10 0.096212 0.929844 0.864011
O O11 0.210752 0.973049 0.924467
O O12 0.229840 0.250000 0.965655
O O13 0.268619 0.454698 0.076467
O O14 0.395723 0.250000 0.225065
O O15 0.465420 0.024144 0.210694
O O16 0.333975 0.013389 0.218709
O O17 0.454790 0.750000 0.806783
O O18 0.240275 0.750000 0.704745
#
# Coordination Sequence:
#
# PCOD8253517 Si02
#       7
#     8   8   8   8   8   8   8
#     4  11  21  33  51  79 114 148 184 229 285 345
#     4  11  23  38  56  86 121 149 185 239 293 340
#     4  11  20  34  56  82 111 146 189 234 282 342
#     4  10  22  38  57  84 116 148 187 238 294 342
#     4   9  18  35  58  82 106 142 193 234 268 329
#     4  10  21  38  56  78 112 152 192 232 279 343
#     4  10  20  39  64  84 109 153 197 234 283 343
#
# _framework density 19.548016000000001
#
# number of rings (size 3 to 8) (size 9 to 14) (size 15 to 20)
#    0.000    1.714    2.857    2.143    0.000    5.714 
#    0.000    1.429    0.000    0.000    0.000    0.000 
#    0.000    0.000    0.000    0.000    0.000    0.000 
#
# Total GULP energy -694013.947645 kJ/mol
# GULP energy per Si atom -12393.106208 kJ/mol
# Density = 1.950352 g / cm^3
# Si number density = 19.548016 Si / 1000 Ang^3
#
#
#
# Elastic Constant Matrix: (Units=GPa)
#
#
# Indices 1 2 3 4 5 6 
#
# 1 125.6700 44.1532 13.5593 0.0000 0.0000 0.0000
# 2 44.1532 101.2975 21.8521 0.0000 0.0000 0.0000
# 3 13.5593 21.8521 53.9505 0.0000 0.0000 0.0000
# 4 0.0000 0.0000 0.0000 20.6999 0.0000 0.0000
# 5 0.0000 0.0000 0.0000 0.0000 28.1378 0.0000
# 6 0.0000 0.0000 0.0000 0.0000 0.0000 31.0733
#
#
#
# Elastic Compliance Matrix: (Units=1/GPa)
#
#
# Indices 1 2 3 4 5 6 
#
# 1 0.009426 -0.003942 -0.000772 0.000000 0.000000 0.000000
# 2 -0.003942 0.012466 -0.004058 0.000000 0.000000 0.000000
# 3 -0.000772 -0.004058 0.020373 0.000000 0.000000 0.000000
# 4 0.000000 0.000000 0.000000 0.048309 0.000000 0.000000
# 5 0.000000 0.000000 0.000000 0.000000 0.035539 0.000000
# 6 0.000000 0.000000 0.000000 0.000000 0.000000 0.032182
#
#
# Mechanical properties :
#
#
# Convention : Reuss Voigt Hill
#
# Bulk Modulus (GPa) = 40.45377 48.89414 44.67395
# Shear Modulus (GPa) = 27.16207 29.40575 28.28391
#
# Velocity S-wave (km/s) = 3.73165 3.88272 3.80793
# Velocity P-wave (km/s) = 6.26949 6.72066 6.49899
#
# Compressibility (1/GPa) = 0.02471958
#
# Stress axis : x y z
#
# Youngs Moduli (GPa) = 106.09411 80.22130 49.08358
#
# Poissons Ratio (x) = 0.31621 0.03791
# Poissons Ratio (y) = 0.41820 0.19920
# Poissons Ratio (z) = 0.08194 0.32557
#
# Static dielectric constant tensor:
#      x y z
#    x 4.687570 0.000000 0.000000 
#    y 0.000000 3.569220 0.000000 
#    z 0.000000 0.000000 3.460290 
# 
# 
# High freq. dielectric constant tensor:
#      x y z
#    x 1.774040 0.000000 0.000000 
#    y 0.000000 1.749340 0.000000 
#    z 0.000000 0.000000 1.740830 
# 
# From -- ./inp_files/20332.got.cif
#   From: 2010.03.12/outbox.cif.g09.slc.cpg/sg62_11_cif.got.tgz:20332.got - 2010.04.10 19:12:36.
