data_PCOD8253495
_publ_section_title
;
Structure prediction by ZEFSAII (Michael W. Deem and Ramdas Pophale) SiO2 
 PCOD8253495
Probable space group: P N M A
;
_chemical_formula_sum "Si O2"
_cell_formula_units_Z 48
_cell_length_a 9.247634
_cell_length_b 16.653407
_cell_length_c 15.214088
_cell_angle_alpha 90.000000
_cell_angle_beta 90.000000
_cell_angle_gamma 90.000000
_cell_volume 2343.039731
_symmetry_space_group_name_H-M "P N M A"
_symmetry_group_IT_number 62
_symmetry_cell_setting 'orthorhombic'
loop_
_space_group_symop_operation_xyz
x,y,z
1/2-x,-y,1/2+z
1/2+x,1/2-y,1/2-z
-x,1/2+y,-z
-x,-y,-z
1/2+x,y,1/2-z
1/2-x,1/2+y,1/2+z
x,1/2-y,z
loop_
_atom_site_type_symbol
_atom_site_label
_atom_site_fract_x
_atom_site_fract_y
_atom_site_fract_z
Si Si1 0.605433 0.843523 0.527351
Si Si2 0.406688 0.342600 0.668168
Si Si3 0.912233 0.408114 0.332643
Si Si4 0.900838 0.592761 0.317252
Si Si5 0.070242 0.155076 0.493523
Si Si6 0.403776 0.843366 0.679848
O O1 0.613242 0.750000 0.547865
O O2 0.539192 0.861274 0.431060
O O3 0.769562 0.876842 0.533031
O O4 0.501616 0.881787 0.601431
O O5 0.356611 0.250000 0.673667
O O6 0.535072 0.360383 0.734354
O O7 0.270996 0.398507 0.690280
O O8 0.945277 0.500307 0.312148
O O9 0.744664 0.391399 0.315972
O O10 0.951743 0.388268 0.433208
O O11 0.011185 0.352849 0.270865
O O12 0.963121 0.631845 0.406099
O O13 0.056590 0.250000 0.482828
O O14 0.368894 0.750000 0.663974
#
# Coordination Sequence:
#
# PCOD8253495 Si02
#       6
#     8   8   8   8   8   8
#     4   8  18  36  60  84 109 143 192 243 285 333
#     4  10  20  39  63  87 116 156 198 239 289 354
#     4  12  24  38  57  87 121 154 194 248 300 344
#     4  11  23  39  58  88 123 154 191 246 301 344
#     4  10  20  39  62  84 113 155 198 240 291 355
#     4  11  22  39  60  84 114 156 203 244 288 352
#
# _framework density 20.486207
#
# number of rings (size 3 to 8) (size 9 to 14) (size 15 to 20)
#    0.000    1.667    0.000    6.500    0.000    2.667 
#    0.000   12.500    0.000    0.000    0.000    0.000 
#    0.000    0.000    0.000    0.000    0.000    0.000 
#
# Total GULP energy -595391.198110 kJ/mol
# GULP energy per Si atom -12403.983294 kJ/mol
# Density = 2.043958 g / cm^3
# Si number density = 20.486207 Si / 1000 Ang^3
#
#
#
# Elastic Constant Matrix: (Units=GPa)
#
#
# Indices 1 2 3 4 5 6 
#
# 1 75.6811 13.8138 34.8533 0.0000 0.0000 0.0000
# 2 13.8138 64.2702 17.4346 0.0000 0.0000 0.0000
# 3 34.8533 17.4346 97.7906 0.0000 0.0000 0.0000
# 4 0.0000 0.0000 0.0000 23.9018 0.0000 0.0000
# 5 0.0000 0.0000 0.0000 0.0000 42.4290 0.0000
# 6 0.0000 0.0000 0.0000 0.0000 0.0000 23.7640
#
#
#
# Elastic Compliance Matrix: (Units=1/GPa)
#
#
# Indices 1 2 3 4 5 6 
#
# 1 0.016048 -0.001994 -0.005364 0.000000 0.000000 0.000000
# 2 -0.001994 0.016598 -0.002248 0.000000 0.000000 0.000000
# 3 -0.005364 -0.002248 0.012539 0.000000 0.000000 0.000000
# 4 0.000000 0.000000 0.000000 0.041838 0.000000 0.000000
# 5 0.000000 0.000000 0.000000 0.000000 0.023569 0.000000
# 6 0.000000 0.000000 0.000000 0.000000 0.000000 0.042080
#
#
# Mechanical properties :
#
#
# Convention : Reuss Voigt Hill
#
# Bulk Modulus (GPa) = 38.50450 41.10505 39.80477
# Shear Modulus (GPa) = 27.69455 29.46165 28.57810
#
# Velocity S-wave (km/s) = 3.68076 3.79637 3.73901
# Velocity P-wave (km/s) = 6.07455 6.27096 6.17353
#
# Compressibility (1/GPa) = 0.02597099
#
# Stress axis : x y z
#
# Youngs Moduli (GPa) = 62.31475 60.24882 79.75400
#
# Poissons Ratio (x) = 0.12014 0.42780
# Poissons Ratio (y) = 0.12426 0.17932
# Poissons Ratio (z) = 0.33425 0.13547
#
# Static dielectric constant tensor:
#      x y z
#    x 3.622330 0.000000 0.000000 
#    y 0.000000 3.487920 0.000000 
#    z 0.000000 0.000000 3.880580 
# 
# 
# High freq. dielectric constant tensor:
#      x y z
#    x 1.794230 0.000000 0.000000 
#    y 0.000000 1.789810 0.000000 
#    z 0.000000 0.000000 1.814570 
# 
# From -- ./inp_files/16918.got.cif
#   From: 2010.03.12/outbox.cif.g09.slc.cpg/sg62_9_cif.got.tgz:16918.got - 2010.04.10 19:12:36.
