data_PCOD8253497
_publ_section_title
;
Structure prediction by ZEFSAII (Michael W. Deem and Ramdas Pophale) SiO2 
 PCOD8253497
Probable space group: P N M A
;
_chemical_formula_sum "Si O2"
_cell_formula_units_Z 48
_cell_length_a 8.703897
_cell_length_b 15.147162
_cell_length_c 18.353855
_cell_angle_alpha 90.000000
_cell_angle_beta 90.000000
_cell_angle_gamma 90.000000
_cell_volume 2419.760091
_symmetry_space_group_name_H-M "P N M A"
_symmetry_group_IT_number 62
_symmetry_cell_setting 'orthorhombic'
loop_
_space_group_symop_operation_xyz
x,y,z
1/2-x,-y,1/2+z
1/2+x,1/2-y,1/2-z
-x,1/2+y,-z
-x,-y,-z
1/2+x,y,1/2-z
1/2-x,1/2+y,1/2+z
x,1/2-y,z
loop_
_atom_site_type_symbol
_atom_site_label
_atom_site_fract_x
_atom_site_fract_y
_atom_site_fract_z
Si Si1 0.911447 0.088171 0.975255
Si Si2 0.191853 0.006668 0.156226
Si Si3 0.711475 0.348279 0.581877
Si Si4 0.642302 0.852649 0.933227
Si Si5 0.797220 0.648203 0.606245
Si Si6 0.338715 0.501567 0.304882
O O1 0.037788 0.157651 0.948306
O O2 0.797533 0.065891 0.908113
O O3 0.817388 0.130811 0.039981
O O4 0.000000 0.000000 0.000000
O O5 0.245466 0.100133 0.123999
O O6 0.304068 0.976205 0.220974
O O7 0.018596 0.014206 0.185081
O O8 0.757609 0.250000 0.609179
O O9 0.821934 0.380881 0.516442
O O10 0.725840 0.417579 0.647282
O O11 0.675377 0.750000 0.922703
O O12 0.467321 0.878369 0.918075
O O13 0.787700 0.750000 0.630345
O O14 0.750283 0.588302 0.674661
#
# Coordination Sequence:
#
# PCOD8253497 Si02
#       6
#     8   8   8   8   8   8
#     4  11  19  39  62  91 113 155 206 242 299 353
#     4  11  22  38  59  84 119 158 197 251 297 360
#     4  10  20  39  62  84 117 156 198 247 295 357
#     4  10  21  36  59  90 116 152 201 247 299 355
#     4  11  22  37  60  89 123 155 196 248 298 356
#     4  11  23  39  57  86 118 158 200 238 309 360
#
# _framework density 19.836679
#
# number of rings (size 3 to 8) (size 9 to 14) (size 15 to 20)
#    0.000    1.333    5.000    1.500    0.000    6.667 
#    0.000    4.167    0.000    0.000    0.000    0.000 
#    0.000    0.000    0.000    0.000    0.000    0.000 
#
# Total GULP energy -595282.037150 kJ/mol
# GULP energy per Si atom -12401.709107 kJ/mol
# Density = 1.979153 g / cm^3
# Si number density = 19.836679 Si / 1000 Ang^3
#
#
#
# Elastic Constant Matrix: (Units=GPa)
#
#
# Indices 1 2 3 4 5 6 
#
# 1 53.4473 19.3877 2.4096 0.0000 0.0000 0.0000
# 2 19.3877 76.8664 25.7192 0.0000 0.0000 0.0000
# 3 2.4096 25.7192 77.4278 0.0000 0.0000 0.0000
# 4 0.0000 0.0000 0.0000 20.4515 0.0000 0.0000
# 5 0.0000 0.0000 0.0000 0.0000 40.8852 0.0000
# 6 0.0000 0.0000 0.0000 0.0000 0.0000 28.6603
#
#
#
# Elastic Compliance Matrix: (Units=1/GPa)
#
#
# Indices 1 2 3 4 5 6 
#
# 1 0.020697 -0.005631 0.001226 0.000000 0.000000 0.000000
# 2 -0.005631 0.016168 -0.005195 0.000000 0.000000 0.000000
# 3 0.001226 -0.005195 0.014603 0.000000 0.000000 0.000000
# 4 0.000000 0.000000 0.000000 0.048896 0.000000 0.000000
# 5 0.000000 0.000000 0.000000 0.000000 0.024459 0.000000
# 6 0.000000 0.000000 0.000000 0.000000 0.000000 0.034891
#
#
# Mechanical properties :
#
#
# Convention : Reuss Voigt Hill
#
# Bulk Modulus (GPa) = 30.98986 33.64163 32.31575
# Shear Modulus (GPa) = 26.36154 28.68107 27.52130
#
# Velocity S-wave (km/s) = 3.64940 3.80657 3.72882
# Velocity P-wave (km/s) = 5.78048 6.02629 5.90466
#
# Compressibility (1/GPa) = 0.03226862
#
# Stress axis : x y z
#
# Youngs Moduli (GPa) = 48.31559 61.85010 68.47990
#
# Poissons Ratio (x) = 0.34826 -0.08397
# Poissons Ratio (y) = 0.27205 0.35578
# Poissons Ratio (z) = -0.05925 0.32133
#
# Static dielectric constant tensor:
#      x y z
#    x 3.792120 0.000000 0.000000 
#    y 0.000000 3.644620 0.000000 
#    z 0.000000 0.000000 3.752890 
# 
# 
# High freq. dielectric constant tensor:
#      x y z
#    x 1.777820 0.000000 0.000000 
#    y 0.000000 1.768130 0.000000 
#    z 0.000000 0.000000 1.771560 
# 
# From -- ./inp_files/22204.got.cif
#   From: 2010.03.12/outbox.cif.g09.slc.cpg/sg62_12_cif.got.tgz:22204.got - 2010.04.10 19:12:36.
