data_PCOD8253150
_publ_section_title
;
Structure prediction by ZEFSAII (Michael W. Deem and Ramdas Pophale) SiO2 
 PCOD8253150
Probable space group: P N M A
;
_chemical_formula_sum "Si O2"
_cell_formula_units_Z 64
_cell_length_a 15.578239
_cell_length_b 9.127165
_cell_length_c 23.872934
_cell_angle_alpha 90.000000
_cell_angle_beta 90.000000
_cell_angle_gamma 90.000000
_cell_volume 3394.376887
_symmetry_space_group_name_H-M "P N M A"
_symmetry_group_IT_number 62
_symmetry_cell_setting 'orthorhombic'
loop_
_space_group_symop_operation_xyz
x,y,z
1/2-x,-y,1/2+z
1/2+x,1/2-y,1/2-z
-x,1/2+y,-z
-x,-y,-z
1/2+x,y,1/2-z
1/2-x,1/2+y,1/2+z
x,1/2-y,z
loop_
_atom_site_type_symbol
_atom_site_label
_atom_site_fract_x
_atom_site_fract_y
_atom_site_fract_z
Si Si1 0.127854 0.078356 0.003385
Si Si2 0.988001 0.576298 0.212823
Si Si3 0.330976 0.076642 0.228832
Si Si4 0.320890 0.423735 0.995844
Si Si5 0.987047 0.421160 0.914757
Si Si6 0.855814 0.580762 0.728165
Si Si7 0.591438 0.418554 0.105725
Si Si8 0.102820 0.577193 0.610926
O O1 0.125517 0.250000 0.014823
O O2 0.095581 0.002527 0.060216
O O3 0.223221 0.023241 0.990412
O O4 0.070807 0.032261 0.950163
O O5 0.981943 0.750000 0.220076
O O6 0.899593 0.505149 0.232773
O O7 0.999445 0.528759 0.148582
O O8 0.069412 0.518401 0.246805
O O9 0.346112 0.250000 0.235307
O O10 0.235545 0.030656 0.247281
O O11 0.343190 0.023331 0.164718
O O12 0.328779 0.250000 0.994269
O O13 0.373063 0.484764 0.944016
O O14 0.358634 0.489515 0.053756
O O15 0.969546 0.250000 0.919455
O O16 0.875822 0.750000 0.742740
O O17 0.852007 0.558006 0.661303
O O18 0.591985 0.250000 0.086515
O O19 0.495177 0.472903 0.118769
O O20 0.109404 0.750000 0.607425
#
# Coordination Sequence:
#
# PCOD8253150 Si02
#       8
#     8   8   8   8   8   8   8   8
#     4   9  19  36  56  80 108 145 189 230 271 329
#     4  11  23  38  59  87 121 154 185 235 298 352
#     4  10  21  39  62  85 113 151 195 242 284 337
#     4  10  21  34  56  85 108 141 186 230 283 336
#     4   9  20  37  54  77 114 149 180 226 282 332
#     4  10  22  39  62  87 114 153 199 240 284 342
#     4  10  20  37  56  79 112 145 181 231 283 334
#     4   9  18  36  57  79 110 140 180 237 282 326
#
# _framework density 18.854711999999999
#
# number of rings (size 3 to 8) (size 9 to 14) (size 15 to 20)
#    0.000    2.250    1.250    0.750    3.500    2.500 
#    0.000    0.625    0.000    0.000    0.000    0.000 
#    0.000    0.000    0.000    0.000    0.000    0.000 
#
# Total GULP energy -793726.670538 kJ/mol
# GULP energy per Si atom -12401.979227 kJ/mol
# Density = 1.881180 g / cm^3
# Si number density = 18.854712 Si / 1000 Ang^3
#
#
#
# Elastic Constant Matrix: (Units=GPa)
#
#
# Indices 1 2 3 4 5 6 
#
# 1 102.4432 23.6505 39.2101 0.0000 0.0000 0.0000
# 2 23.6505 33.4819 24.6011 0.0000 0.0000 0.0000
# 3 39.2101 24.6011 118.0267 0.0000 0.0000 0.0000
# 4 0.0000 0.0000 0.0000 29.3264 0.0000 0.0000
# 5 0.0000 0.0000 0.0000 0.0000 29.7777 0.0000
# 6 0.0000 0.0000 0.0000 0.0000 0.0000 22.7887
#
#
#
# Elastic Compliance Matrix: (Units=1/GPa)
#
#
# Indices 1 2 3 4 5 6 
#
# 1 0.012351 -0.006742 -0.002698 0.000000 0.000000 0.000000
# 2 -0.006742 0.038948 -0.005879 0.000000 0.000000 0.000000
# 3 -0.002698 -0.005879 0.010594 0.000000 0.000000 0.000000
# 4 0.000000 0.000000 0.000000 0.034099 0.000000 0.000000
# 5 0.000000 0.000000 0.000000 0.000000 0.033582 0.000000
# 6 0.000000 0.000000 0.000000 0.000000 0.000000 0.043881
#
#
# Mechanical properties :
#
#
# Convention : Reuss Voigt Hill
#
# Bulk Modulus (GPa) = 31.99301 47.65280 39.82291
# Shear Modulus (GPa) = 23.30884 27.47789 25.39337
#
# Velocity S-wave (km/s) = 3.51983 3.82167 3.67385
# Velocity P-wave (km/s) = 5.78998 6.69343 6.25803
#
# Compressibility (1/GPa) = 0.03125683
#
# Stress axis : x y z
#
# Youngs Moduli (GPa) = 80.96832 25.67505 94.39123
#
# Poissons Ratio (x) = 0.17310 0.25465
# Poissons Ratio (y) = 0.54587 0.55489
# Poissons Ratio (z) = 0.21843 0.15093
#
# Static dielectric constant tensor:
#      x y z
#    x 3.640810 0.000000 0.000000 
#    y 0.000000 3.227330 0.000000 
#    z 0.000000 0.000000 3.658180 
# 
# 
# High freq. dielectric constant tensor:
#      x y z
#    x 1.740960 0.000000 0.000000 
#    y 0.000000 1.710240 0.000000 
#    z 0.000000 0.000000 1.745980 
# 
# From -- ./inp_files/29808.got.cif
#   From: 2010.03.12/outbox.cif.g09.slc.cpg/sg62_15_cif.got.tgz:29808.got - 2010.04.10 19:12:36.
