data_PCOD8253578
_publ_section_title
;
Structure prediction by ZEFSAII (Michael W. Deem and Ramdas Pophale) SiO2 
 PCOD8253578
Probable space group: P N M A
;
_chemical_formula_sum "Si O2"
_cell_formula_units_Z 56
_cell_length_a 12.681965
_cell_length_b 13.392345
_cell_length_c 14.915722
_cell_angle_alpha 90.000000
_cell_angle_beta 90.000000
_cell_angle_gamma 90.000000
_cell_volume 2533.304877
_symmetry_space_group_name_H-M "P N M A"
_symmetry_group_IT_number 62
_symmetry_cell_setting 'orthorhombic'
loop_
_space_group_symop_operation_xyz
x,y,z
1/2-x,-y,1/2+z
1/2+x,1/2-y,1/2-z
-x,1/2+y,-z
-x,-y,-z
1/2+x,y,1/2-z
1/2-x,1/2+y,1/2+z
x,1/2-y,z
loop_
_atom_site_type_symbol
_atom_site_label
_atom_site_fract_x
_atom_site_fract_y
_atom_site_fract_z
Si Si1 0.985164 0.553239 0.383529
Si Si2 0.022356 0.637208 0.931840
Si Si3 0.909349 0.634929 0.562661
Si Si4 0.664270 0.495530 0.455826
Si Si5 0.287764 0.551071 0.214102
Si Si6 0.786327 0.136245 0.603864
Si Si7 0.715095 0.641747 0.685250
O O1 0.909142 0.584612 0.465318
O O2 0.912958 0.573547 0.296608
O O3 0.010822 0.434324 0.379824
O O4 0.088639 0.620137 0.390448
O O5 0.006329 0.750000 0.966067
O O6 0.093071 0.634577 0.842465
O O7 0.908045 0.590346 0.910737
O O8 0.083836 0.577234 0.007747
O O9 0.948472 0.750000 0.563551
O O10 0.789815 0.624631 0.598197
O O11 0.729285 0.557950 0.381449
O O12 0.734114 0.442157 0.534574
O O13 0.252969 0.623620 0.293838
O O14 0.261211 0.437592 0.239321
O O15 0.763698 0.250000 0.573411
O O16 0.740555 0.750000 0.726900
#
# Coordination Sequence:
#
# PCOD8253578 Si02
#       7
#     8   8   8   8   8   8   8
#     4  11  23  40  68  98 132 174 224 280 344 406
#     4  10  21  40  69  99 134 181 228 275 336 404
#     4  10  20  40  68  96 129 175 227 281 339 401
#     4  11  24  44  70  98 138 183 227 282 342 403
#     4  12  26  42  67 101 134 177 225 278 342 408
#     4  12  27  48  68  99 140 178 227 288 344 410
#     4  10  21  39  64  97 136 171 220 280 335 402
#
# _framework density 22.105512000000001
#
# number of rings (size 3 to 8) (size 9 to 14) (size 15 to 20)
#    0.000    1.143    2.857    3.429    2.000    3.429 
#    0.000    2.857    0.000    0.000    0.000    0.000 
#    0.000    0.000    0.000    0.000    0.000    0.000 
#
# Total GULP energy -693963.562431 kJ/mol
# GULP energy per Si atom -12392.206472 kJ/mol
# Density = 2.205520 g / cm^3
# Si number density = 22.105512 Si / 1000 Ang^3
#
#
#
# Elastic Constant Matrix: (Units=GPa)
#
#
# Indices 1 2 3 4 5 6 
#
# 1 97.6070 2.6808 20.1043 0.0000 0.0000 0.0000
# 2 2.6808 78.4920 -9.4304 0.0000 0.0000 0.0000
# 3 20.1043 -9.4304 54.2619 0.0000 0.0000 0.0000
# 4 0.0000 0.0000 0.0000 16.3776 0.0000 0.0000
# 5 0.0000 0.0000 0.0000 0.0000 23.0852 0.0000
# 6 0.0000 0.0000 0.0000 0.0000 0.0000 30.5393
#
#
#
# Elastic Compliance Matrix: (Units=1/GPa)
#
#
# Indices 1 2 3 4 5 6 
#
# 1 0.011153 -0.000896 -0.004288 0.000000 0.000000 0.000000
# 2 -0.000896 0.013084 0.002606 0.000000 0.000000 0.000000
# 3 -0.004288 0.002606 0.020471 0.000000 0.000000 0.000000
# 4 0.000000 0.000000 0.000000 0.061059 0.000000 0.000000
# 5 0.000000 0.000000 0.000000 0.000000 0.043318 0.000000
# 6 0.000000 0.000000 0.000000 0.000000 0.000000 0.032745
#
#
# Mechanical properties :
#
#
# Convention : Reuss Voigt Hill
#
# Bulk Modulus (GPa) = 25.28365 28.56336 26.92351
# Shear Modulus (GPa) = 24.97886 28.46748 26.72317
#
# Velocity S-wave (km/s) = 3.36517 3.59249 3.48068
# Velocity P-wave (km/s) = 5.15380 5.49157 5.32537
#
# Compressibility (1/GPa) = 0.03955125
#
# Stress axis : x y z
#
# Youngs Moduli (GPa) = 89.66208 76.43008 48.85023
#
# Poissons Ratio (x) = 0.06849 0.20947
# Poissons Ratio (y) = 0.08035 -0.12730
# Poissons Ratio (z) = 0.38447 -0.19917
#
# Static dielectric constant tensor:
#      x y z
#    x 4.165650 0.000000 0.000000 
#    y 0.000000 4.134130 0.000000 
#    z 0.000000 0.000000 3.769450 
# 
# 
# High freq. dielectric constant tensor:
#      x y z
#    x 1.881700 0.000000 0.000000 
#    y 0.000000 1.876940 0.000000 
#    z 0.000000 0.000000 1.848720 
# 
# From -- ./inp_files/18057.got.cif
#   From: 2010.03.12/outbox.cif.g09.slc.cpg/sg62_10_cif.got.tgz:18057.got - 2010.04.10 19:12:36.
