data_PCOD8253572
_publ_section_title
;
Structure prediction by ZEFSAII (Michael W. Deem and Ramdas Pophale) SiO2 
 PCOD8253572
Probable space group: P N M A
;
_chemical_formula_sum "Si O2"
_cell_formula_units_Z 48
_cell_length_a 9.371853
_cell_length_b 8.718188
_cell_length_c 28.631269
_cell_angle_alpha 90.000000
_cell_angle_beta 90.000000
_cell_angle_gamma 90.000000
_cell_volume 2339.334336
_symmetry_space_group_name_H-M "P N M A"
_symmetry_group_IT_number 62
_symmetry_cell_setting 'orthorhombic'
loop_
_space_group_symop_operation_xyz
x,y,z
1/2-x,-y,1/2+z
1/2+x,1/2-y,1/2-z
-x,1/2+y,-z
-x,-y,-z
1/2+x,y,1/2-z
1/2-x,1/2+y,1/2+z
x,1/2-y,z
loop_
_atom_site_type_symbol
_atom_site_label
_atom_site_fract_x
_atom_site_fract_y
_atom_site_fract_z
Si Si1 0.008217 0.068767 0.633500
Si Si2 0.530025 0.067524 0.696585
Si Si3 0.711404 0.431909 0.783923
Si Si4 0.637388 0.077311 0.520808
Si Si5 0.907058 0.076949 0.460645
Si Si6 0.791689 0.431029 0.117802
O O1 0.983704 0.250000 0.635783
O O2 0.111555 0.008579 0.674251
O O3 0.855631 0.989318 0.640049
O O4 0.083472 0.024871 0.585364
O O5 0.528445 0.250000 0.692720
O O6 0.372302 0.005054 0.709953
O O7 0.642999 0.009794 0.735440
O O8 0.575549 0.998083 0.646913
O O9 0.714530 0.250000 0.784299
O O10 0.604249 0.250000 0.537636
O O11 0.745602 0.078700 0.477748
O O12 0.500000 0.000000 0.500000
O O13 0.700149 0.984285 0.564315
O O14 0.962023 0.250000 0.450582
O O15 0.000000 0.000000 0.500000
O O16 0.798281 0.250000 0.119566
#
# Coordination Sequence:
#
# PCOD8253572 Si02
#       6
#     8   8   8   8   8   8
#     4  11  22  39  64  94 125 163 209 258 310 367
#     4  10  20  40  66  93 123 159 204 255 309 371
#     4   9  20  38  66  97 123 157 203 253 308 373
#     4  11  25  43  64  91 126 166 209 257 310 367
#     4  11  23  40  63  92 125 166 211 255 306 365
#     4  12  25  41  61  90 125 166 210 257 312 370
#
# _framework density 20.518659
#
# number of rings (size 3 to 8) (size 9 to 14) (size 15 to 20)
#    0.000    1.333    1.667    4.000    2.333    4.667 
#    0.000    5.000    0.000    0.000    0.000    0.000 
#    0.000    0.000    0.000    0.000    0.000    0.000 
#
# Total GULP energy -595392.609488 kJ/mol
# GULP energy per Si atom -12404.012698 kJ/mol
# Density = 2.047196 g / cm^3
# Si number density = 20.518659 Si / 1000 Ang^3
#
#
#
# Elastic Constant Matrix: (Units=GPa)
#
#
# Indices 1 2 3 4 5 6 
#
# 1 132.1432 37.0654 28.9307 0.0000 0.0000 0.0000
# 2 37.0654 86.6962 19.0532 0.0000 0.0000 0.0000
# 3 28.9307 19.0532 86.9830 0.0000 0.0000 0.0000
# 4 0.0000 0.0000 0.0000 28.7594 0.0000 0.0000
# 5 0.0000 0.0000 0.0000 0.0000 43.8451 0.0000
# 6 0.0000 0.0000 0.0000 0.0000 0.0000 27.2362
#
#
#
# Elastic Compliance Matrix: (Units=1/GPa)
#
#
# Indices 1 2 3 4 5 6 
#
# 1 0.009003 -0.003352 -0.002260 0.000000 0.000000 0.000000
# 2 -0.003352 0.013366 -0.001813 0.000000 0.000000 0.000000
# 3 -0.002260 -0.001813 0.012645 0.000000 0.000000 0.000000
# 4 0.000000 0.000000 0.000000 0.034771 0.000000 0.000000
# 5 0.000000 0.000000 0.000000 0.000000 0.022808 0.000000
# 6 0.000000 0.000000 0.000000 0.000000 0.000000 0.036716
#
#
# Mechanical properties :
#
#
# Convention : Reuss Voigt Hill
#
# Bulk Modulus (GPa) = 49.59356 52.88010 51.23683
# Shear Modulus (GPa) = 33.13890 34.68634 33.91262
#
# Velocity S-wave (km/s) = 4.02314 4.11600 4.06984
# Velocity P-wave (km/s) = 6.76782 6.95818 6.86366
#
# Compressibility (1/GPa) = 0.02016391
#
# Stress axis : x y z
#
# Youngs Moduli (GPa) = 111.07879 74.81603 79.08096
#
# Poissons Ratio (x) = 0.25080 0.17872
# Poissons Ratio (y) = 0.37236 0.14336
# Poissons Ratio (z) = 0.25104 0.13563
#
# Static dielectric constant tensor:
#      x y z
#    x 3.971010 0.000000 0.000000 
#    y 0.000000 3.668620 0.000000 
#    z 0.000000 0.000000 3.697920 
# 
# 
# High freq. dielectric constant tensor:
#      x y z
#    x 1.815570 0.000000 0.000000 
#    y 0.000000 1.789080 0.000000 
#    z 0.000000 0.000000 1.811680 
# 
# From -- ./inp_files/31972.got.cif
#   From: 2010.03.12/outbox.cif.g09.slc.cpg/sg62_16_cif.got.tgz:31972.got - 2010.04.10 19:12:36.
