data_PCOD8253122
_publ_section_title
;
Structure prediction by ZEFSAII (Michael W. Deem and Ramdas Pophale) SiO2 
 PCOD8253122
Probable space group: P N M A
;
_chemical_formula_sum "Si O2"
_cell_formula_units_Z 64
_cell_length_a 12.705614
_cell_length_b 17.632716
_cell_length_c 15.042711
_cell_angle_alpha 90.000000
_cell_angle_beta 90.000000
_cell_angle_gamma 90.000000
_cell_volume 3370.085986
_symmetry_space_group_name_H-M "P N M A"
_symmetry_group_IT_number 62
_symmetry_cell_setting 'orthorhombic'
loop_
_space_group_symop_operation_xyz
x,y,z
1/2-x,-y,1/2+z
1/2+x,1/2-y,1/2-z
-x,1/2+y,-z
-x,-y,-z
1/2+x,y,1/2-z
1/2-x,1/2+y,1/2+z
x,1/2-y,z
loop_
_atom_site_type_symbol
_atom_site_label
_atom_site_fract_x
_atom_site_fract_y
_atom_site_fract_z
Si Si1 0.336342 0.473531 0.806989
Si Si2 0.461347 0.837077 0.955046
Si Si3 0.236731 0.974767 0.638748
Si Si4 0.927706 0.337610 0.109983
Si Si5 0.661848 0.164661 0.430859
Si Si6 0.337129 0.163544 0.928884
Si Si7 0.240027 0.427960 0.468380
Si Si8 0.024806 0.921122 0.708103
O O1 0.264418 0.470159 0.719981
O O2 0.348556 0.388047 0.841931
O O3 0.279063 0.524317 0.880067
O O4 0.446902 0.508709 0.775734
O O5 0.433912 0.750000 0.966855
O O6 0.365033 0.883431 0.997688
O O7 0.469330 0.855416 0.850065
O O8 0.569871 0.858928 0.003571
O O9 0.301662 0.895211 0.644208
O O10 0.114932 0.955362 0.645589
O O11 0.268152 0.015037 0.547282
O O12 0.902691 0.250000 0.132795
O O13 0.836201 0.370458 0.047648
O O14 0.933329 0.385484 0.200833
O O15 0.036713 0.344310 0.054813
O O16 0.688313 0.250000 0.396665
O O17 0.725195 0.149272 0.522364
O O18 0.347194 0.250000 0.896769
#
# Coordination Sequence:
#
# PCOD8253122 Si02
#       8
#     8   8   8   8   8   8   8   8
#     4  11  22  39  59  91 120 153 205 244 302 353
#     4  10  20  36  61  89 118 155 194 243 302 349
#     4  12  22  39  60  90 120 156 200 248 297 352
#     4  11  23  39  58  88 128 161 196 243 304 369
#     4  10  21  38  60  87 117 155 199 244 297 356
#     4  10  20  39  64  85 114 156 204 252 293 347
#     4  11  23  39  59  88 122 160 197 244 298 360
#     4  11  21  35  58  93 122 154 191 252 300 363
#
# _framework density 18.990613
#
# number of rings (size 3 to 8) (size 9 to 14) (size 15 to 20)
#    0.000    1.250    5.000    1.500    0.000    3.000 
#    2.250    1.250    0.000    0.750    0.000    0.000 
#    0.000    0.000    0.000    0.000    0.000    0.000 
#
# Total GULP energy -793682.545135 kJ/mol
# GULP energy per Si atom -12401.289768 kJ/mol
# Density = 1.894739 g / cm^3
# Si number density = 18.990613 Si / 1000 Ang^3
#
#
#
# Elastic Constant Matrix: (Units=GPa)
#
#
# Indices 1 2 3 4 5 6 
#
# 1 98.4446 48.8902 35.8199 0.0000 0.0000 0.0000
# 2 48.8902 108.0645 50.2443 0.0000 0.0000 0.0000
# 3 35.8199 50.2443 87.1653 0.0000 0.0000 0.0000
# 4 0.0000 0.0000 0.0000 34.6585 0.0000 0.0000
# 5 0.0000 0.0000 0.0000 0.0000 22.0457 0.0000
# 6 0.0000 0.0000 0.0000 0.0000 0.0000 27.3048
#
#
#
# Elastic Compliance Matrix: (Units=1/GPa)
#
#
# Indices 1 2 3 4 5 6 
#
# 1 0.013579 -0.004848 -0.002786 0.000000 0.000000 0.000000
# 2 -0.004848 0.014373 -0.006292 0.000000 0.000000 0.000000
# 3 -0.002786 -0.006292 0.016244 0.000000 0.000000 0.000000
# 4 0.000000 0.000000 0.000000 0.028853 0.000000 0.000000
# 5 0.000000 0.000000 0.000000 0.000000 0.045360 0.000000
# 6 0.000000 0.000000 0.000000 0.000000 0.000000 0.036624
#
#
# Mechanical properties :
#
#
# Convention : Reuss Voigt Hill
#
# Bulk Modulus (GPa) = 61.18589 62.62037 61.90313
# Shear Modulus (GPa) = 26.54853 27.38314 26.96583
#
# Velocity S-wave (km/s) = 3.74302 3.80139 3.77232
# Velocity P-wave (km/s) = 7.13927 7.23280 7.18619
#
# Compressibility (1/GPa) = 0.01634364
#
# Stress axis : x y z
#
# Youngs Moduli (GPa) = 73.64091 69.57539 61.55994
#
# Poissons Ratio (x) = 0.33733 0.17148
# Poissons Ratio (y) = 0.35704 0.38737
# Poissons Ratio (z) = 0.20514 0.43780
#
# Static dielectric constant tensor:
#      x y z
#    x 3.600770 0.000000 0.000000 
#    y 0.000000 3.554050 0.000000 
#    z 0.000000 0.000000 3.190930 
# 
# 
# High freq. dielectric constant tensor:
#      x y z
#    x 1.747850 0.000000 0.000000 
#    y 0.000000 1.742700 0.000000 
#    z 0.000000 0.000000 1.712060 
# 
# From -- ./inp_files/18272.got.cif
#   From: 2010.03.12/outbox.cif.g09.slc.cpg/sg62_10_cif.got.tgz:18272.got - 2010.04.10 19:12:36.
