data_PCOD8253134
_publ_section_title
;
Structure prediction by ZEFSAII (Michael W. Deem and Ramdas Pophale) SiO2 
 PCOD8253134
Probable space group: P N M A
;
_chemical_formula_sum "Si O2"
_cell_formula_units_Z 32
_cell_length_a 4.936995
_cell_length_b 16.017229
_cell_length_c 18.571293
_cell_angle_alpha 90.000000
_cell_angle_beta 90.000000
_cell_angle_gamma 90.000000
_cell_volume 1468.561756
_symmetry_space_group_name_H-M "P N M A"
_symmetry_group_IT_number 62
_symmetry_cell_setting 'orthorhombic'
loop_
_space_group_symop_operation_xyz
x,y,z
1/2-x,-y,1/2+z
1/2+x,1/2-y,1/2-z
-x,1/2+y,-z
-x,-y,-z
1/2+x,y,1/2-z
1/2-x,1/2+y,1/2+z
x,1/2-y,z
loop_
_atom_site_type_symbol
_atom_site_label
_atom_site_fract_x
_atom_site_fract_y
_atom_site_fract_z
Si Si1 0.088792 0.750000 0.204049
Si Si2 0.691189 0.930387 0.300713
Si Si3 0.888852 0.551886 0.934213
Si Si4 0.897545 0.250000 0.294750
Si Si5 0.903052 0.658058 0.578553
O O1 0.270390 0.750000 0.277249
O O2 0.160704 0.662993 0.163543
O O3 0.483917 0.942864 0.234751
O O4 0.652403 0.995149 0.364528
O O5 0.605725 0.593437 0.960707
O O6 0.099545 0.624957 0.916240
O O7 0.000000 0.500000 0.000000
O O8 0.578410 0.250000 0.277757
O O9 0.974814 0.167408 0.340450
O O10 0.899253 0.750000 0.540577
#
# Coordination Sequence:
#
# PCOD8253134 Si02
#       5
#     4   8   8   4   8
#     4   8  16  34  54  80 116 148 198 248 300 370
#     4  10  21  38  63  91 123 162 205 261 320 372
#     4  12  24  42  65  95 132 164 216 267 319 386
#     4  10  20  36  62  92 126 170 216 254 314 374
#     4  10  24  42  61  87 132 168 211 261 308 387
#
# _framework density 21.790029000000001
#
# number of rings (size 3 to 8) (size 9 to 14) (size 15 to 20)
#    0.750    1.000    0.000    4.500    0.000    6.000 
#    4.500    0.000    5.500    0.000    0.000    0.000 
#    0.000    0.000    0.000    0.000    0.000    0.000 
#
# Total GULP energy -396601.932642 kJ/mol
# GULP energy per Si atom -12393.810395 kJ/mol
# Density = 2.174043 g / cm^3
# Si number density = 21.790029 Si / 1000 Ang^3
#
#
#
# Elastic Constant Matrix: (Units=GPa)
#
#
# Indices 1 2 3 4 5 6 
#
# 1 82.8340 25.3323 -13.6057 0.0000 0.0000 0.0000
# 2 25.3323 142.7082 19.7720 0.0000 0.0000 0.0000
# 3 -13.6057 19.7720 33.5655 0.0000 0.0000 0.0000
# 4 0.0000 0.0000 0.0000 21.0634 0.0000 0.0000
# 5 0.0000 0.0000 0.0000 0.0000 23.8254 0.0000
# 6 0.0000 0.0000 0.0000 0.0000 0.0000 30.1953
#
#
#
# Elastic Compliance Matrix: (Units=1/GPa)
#
#
# Indices 1 2 3 4 5 6 
#
# 1 0.014528 -0.003696 0.008066 0.000000 0.000000 0.000000
# 2 -0.003696 0.008570 -0.006547 0.000000 0.000000 0.000000
# 3 0.008066 -0.006547 0.036918 0.000000 0.000000 0.000000
# 4 0.000000 0.000000 0.000000 0.047476 0.000000 0.000000
# 5 0.000000 0.000000 0.000000 0.000000 0.041972 0.000000
# 6 0.000000 0.000000 0.000000 0.000000 0.000000 0.033118
#
#
# Mechanical properties :
#
#
# Convention : Reuss Voigt Hill
#
# Bulk Modulus (GPa) = 17.96543 35.78942 26.87743
# Shear Modulus (GPa) = 24.33204 30.19076 27.26140
#
# Velocity S-wave (km/s) = 3.34527 3.72631 3.54092
# Velocity P-wave (km/s) = 4.81496 5.91390 5.39249
#
# Compressibility (1/GPa) = 0.05566245
#
# Stress axis : x y z
#
# Youngs Moduli (GPa) = 68.83434 116.67933 27.08670
#
# Poissons Ratio (x) = 0.43129 -0.21848
# Poissons Ratio (y) = 0.25444 0.17733
# Poissons Ratio (z) = -0.55522 0.76388
#
# Static dielectric constant tensor:
#      x y z
#    x 4.129260 0.000000 0.000000 
#    y 0.000000 4.433630 0.000000 
#    z 0.000000 0.000000 3.403280 
# 
# 
# High freq. dielectric constant tensor:
#      x y z
#    x 1.878540 0.000000 0.000000 
#    y 0.000000 1.876150 0.000000 
#    z 0.000000 0.000000 1.802560 
# 
# From -- ./inp_files/21435.got.cif
#   From: 2010.03.12/outbox.cif.g09.slc.cpg/sg62_11_cif.got.tgz:21435.got - 2010.04.10 19:12:36.
