data_PCOD8253724
_publ_section_title
;
Structure prediction by ZEFSAII (Michael W. Deem and Ramdas Pophale) SiO2 
 PCOD8253724
Probable space group: P N M A
;
_chemical_formula_sum "Si O2"
_cell_formula_units_Z 64
_cell_length_a 28.878557
_cell_length_b 8.907314
_cell_length_c 12.734096
_cell_angle_alpha 90.000000
_cell_angle_beta 90.000000
_cell_angle_gamma 90.000000
_cell_volume 3275.596290
_symmetry_space_group_name_H-M "P N M A"
_symmetry_group_IT_number 62
_symmetry_cell_setting 'orthorhombic'
loop_
_space_group_symop_operation_xyz
x,y,z
1/2-x,-y,1/2+z
1/2+x,1/2-y,1/2-z
-x,1/2+y,-z
-x,-y,-z
1/2+x,y,1/2-z
1/2-x,1/2+y,1/2+z
x,1/2-y,z
loop_
_atom_site_type_symbol
_atom_site_label
_atom_site_fract_x
_atom_site_fract_y
_atom_site_fract_z
Si Si1 0.388821 0.925908 0.537468
Si Si2 0.676879 0.582288 0.153250
Si Si3 0.698400 0.074207 0.947836
Si Si4 0.035201 0.073454 0.206643
Si Si5 0.572350 0.917174 0.099944
Si Si6 0.106621 0.571426 0.623802
Si Si7 0.200359 0.926797 0.116666
Si Si8 0.060026 0.072313 0.825605
O O1 0.381222 0.750000 0.538998
O O2 0.420872 0.974301 0.635901
O O3 0.411862 0.977474 0.428541
O O4 0.338509 0.000897 0.542759
O O5 0.696579 0.750000 0.129720
O O6 0.621931 0.589173 0.154189
O O7 0.693242 0.520490 0.264505
O O8 0.695214 0.462473 0.070391
O O9 0.691650 0.250000 0.928185
O O10 0.748681 0.016767 0.913060
O O11 0.659164 0.987582 0.882291
O O12 0.025672 0.250000 0.201115
O O13 0.041347 0.027585 0.329111
O O14 0.991844 0.985940 0.158630
O O15 0.550193 0.750000 0.100273
O O16 0.577584 0.977681 0.980352
O O17 0.108497 0.750000 0.630221
O O18 0.082311 0.504142 0.724514
O O19 0.195495 0.750000 0.103932
O O20 0.060032 0.250000 0.810364
#
# Coordination Sequence:
#
# PCOD8253724 Si02
#       8
#     8   8   8   8   8   8   8   8
#     4  10  23  40  59  87 119 152 196 247 294 347
#     4   9  18  35  56  79 111 151 191 236 288 341
#     4  10  21  36  57  87 118 151 193 239 293 352
#     4  11  22  37  60  90 118 150 195 244 295 351
#     4   9  18  35  60  84 110 148 192 239 290 342
#     4  10  22  41  61  84 117 156 198 243 295 351
#     4  10  21  37  59  86 115 152 197 241 290 349
#     4  11  24  41  60  84 120 161 197 239 296 354
#
# _framework density 19.538428
#
# number of rings (size 3 to 8) (size 9 to 14) (size 15 to 20)
#    0.000    2.000    1.250    2.625    0.000    7.000 
#    0.000    3.750    0.000    0.000    0.000    0.000 
#    0.000    0.000    0.000    0.000    0.000    0.000 
#
# Total GULP energy -793665.525801 kJ/mol
# GULP energy per Si atom -12401.023841 kJ/mol
# Density = 1.949396 g / cm^3
# Si number density = 19.538428 Si / 1000 Ang^3
#
#
#
# Elastic Constant Matrix: (Units=GPa)
#
#
# Indices 1 2 3 4 5 6 
#
# 1 58.3978 23.0872 25.1402 0.0000 0.0000 0.0000
# 2 23.0872 57.5541 27.9811 0.0000 0.0000 0.0000
# 3 25.1402 27.9811 89.9389 0.0000 0.0000 0.0000
# 4 0.0000 0.0000 0.0000 30.6268 0.0000 0.0000
# 5 0.0000 0.0000 0.0000 0.0000 22.2810 0.0000
# 6 0.0000 0.0000 0.0000 0.0000 0.0000 33.3080
#
#
#
# Elastic Compliance Matrix: (Units=1/GPa)
#
#
# Indices 1 2 3 4 5 6 
#
# 1 0.021459 -0.006706 -0.003912 0.000000 0.000000 0.000000
# 2 -0.006706 0.022567 -0.005146 0.000000 0.000000 0.000000
# 3 -0.003912 -0.005146 0.013813 0.000000 0.000000 0.000000
# 4 0.000000 0.000000 0.000000 0.032651 0.000000 0.000000
# 5 0.000000 0.000000 0.000000 0.000000 0.044881 0.000000
# 6 0.000000 0.000000 0.000000 0.000000 0.000000 0.030023
#
#
# Mechanical properties :
#
#
# Convention : Reuss Voigt Hill
#
# Bulk Modulus (GPa) = 38.00770 39.81196 38.90983
# Shear Modulus (GPa) = 24.30793 25.88866 25.09830
#
# Velocity S-wave (km/s) = 3.53102 3.64402 3.58797
# Velocity P-wave (km/s) = 6.00992 6.17460 6.09282
#
# Compressibility (1/GPa) = 0.02631046
#
# Stress axis : x y z
#
# Youngs Moduli (GPa) = 46.59976 44.31236 72.39423
#
# Poissons Ratio (x) = 0.29717 0.28321
# Poissons Ratio (y) = 0.31251 0.37256
# Poissons Ratio (z) = 0.18230 0.22805
#
# Static dielectric constant tensor:
#      x y z
#    x 3.576090 0.000000 0.000000 
#    y 0.000000 3.511090 0.000000 
#    z 0.000000 0.000000 3.669670 
# 
# 
# High freq. dielectric constant tensor:
#      x y z
#    x 1.759150 0.000000 0.000000 
#    y 0.000000 1.760090 0.000000 
#    z 0.000000 0.000000 1.767190 
# 
# From -- ./inp_files/15929.got.cif
#   From: 2010.03.12/outbox.cif.g09.slc.cpg/sg62_8_cif.got.tgz:15929.got - 2010.04.10 19:12:36.
