data_PCOD8253348
_publ_section_title
;
Structure prediction by ZEFSAII (Michael W. Deem and Ramdas Pophale) SiO2 
 PCOD8253348
Probable space group: P N M A
;
_chemical_formula_sum "Si O2"
_cell_formula_units_Z 48
_cell_length_a 26.914673
_cell_length_b 8.607702
_cell_length_c 10.330195
_cell_angle_alpha 90.000000
_cell_angle_beta 90.000000
_cell_angle_gamma 90.000000
_cell_volume 2393.232272
_symmetry_space_group_name_H-M "P N M A"
_symmetry_group_IT_number 62
_symmetry_cell_setting 'orthorhombic'
loop_
_space_group_symop_operation_xyz
x,y,z
1/2-x,-y,1/2+z
1/2+x,1/2-y,1/2-z
-x,1/2+y,-z
-x,-y,-z
1/2+x,y,1/2-z
1/2-x,1/2+y,1/2+z
x,1/2-y,z
loop_
_atom_site_type_symbol
_atom_site_label
_atom_site_fract_x
_atom_site_fract_y
_atom_site_fract_z
Si Si1 0.027723 0.933318 0.877490
Si Si2 0.141152 0.066055 0.375130
Si Si3 0.972810 0.933169 0.623057
Si Si4 0.636730 0.066619 0.616532
Si Si5 0.195680 0.433485 0.635085
Si Si6 0.691903 0.933122 0.373391
O O1 0.024448 0.750000 0.883584
O O2 0.999927 0.998152 0.750546
O O3 0.084198 0.984593 0.874442
O O4 0.000000 0.000000 0.000000
O O5 0.147222 0.250000 0.351732
O O6 0.084151 0.012740 0.374768
O O7 0.164430 0.012028 0.511119
O O8 0.169144 0.971045 0.265225
O O9 0.976133 0.750000 0.615810
O O10 0.000000 0.000000 0.500000
O O11 0.628621 0.250000 0.625516
O O12 0.670166 0.001466 0.734567
O O13 0.662152 0.025723 0.481741
O O14 0.196893 0.250000 0.644022
O O15 0.251703 0.496377 0.624563
O O16 0.688791 0.750000 0.401006
#
# Coordination Sequence:
#
# PCOD8253348 Si02
#       6
#     8   8   8   8   8   8
#     4  11  23  39  59  88 120 153 194 241 288 343
#     4  10  20  38  60  83 112 150 189 231 283 342
#     4  10  22  38  59  85 114 147 188 232 282 339
#     4  11  22  39  61  85 114 154 196 238 290 348
#     4   9  20  37  59  85 115 150 193 239 287 341
#     4  11  22  37  57  86 118 150 190 239 288 341
#
# _framework density 20.056556
#
# number of rings (size 3 to 8) (size 9 to 14) (size 15 to 20)
#    0.000    1.667    0.000    4.500    0.000    4.667 
#    0.000    5.000    0.000    0.000    0.000    0.000 
#    0.000    0.000    0.000    0.000    0.000    0.000 
#
# Total GULP energy -595423.970983 kJ/mol
# GULP energy per Si atom -12404.666062 kJ/mol
# Density = 2.001091 g / cm^3
# Si number density = 20.056556 Si / 1000 Ang^3
#
#
#
# Elastic Constant Matrix: (Units=GPa)
#
#
# Indices 1 2 3 4 5 6 
#
# 1 159.2359 22.2005 54.8040 0.0000 0.0000 0.0000
# 2 22.2005 29.4861 27.9988 0.0000 0.0000 0.0000
# 3 54.8040 27.9988 131.1040 0.0000 0.0000 0.0000
# 4 0.0000 0.0000 0.0000 25.2358 0.0000 0.0000
# 5 0.0000 0.0000 0.0000 0.0000 48.9402 0.0000
# 6 0.0000 0.0000 0.0000 0.0000 0.0000 21.2522
#
#
#
# Elastic Compliance Matrix: (Units=1/GPa)
#
#
# Indices 1 2 3 4 5 6 
#
# 1 0.007596 -0.003392 -0.002451 0.000000 0.000000 0.000000
# 2 -0.003392 0.044056 -0.007991 0.000000 0.000000 0.000000
# 3 -0.002451 -0.007991 0.010359 0.000000 0.000000 0.000000
# 4 0.000000 0.000000 0.000000 0.039626 0.000000 0.000000
# 5 0.000000 0.000000 0.000000 0.000000 0.020433 0.000000
# 6 0.000000 0.000000 0.000000 0.000000 0.000000 0.047054
#
#
# Mechanical properties :
#
#
# Convention : Reuss Voigt Hill
#
# Bulk Modulus (GPa) = 29.11773 58.87027 43.99400
# Shear Modulus (GPa) = 24.01081 33.40717 28.70899
#
# Velocity S-wave (km/s) = 3.46375 4.08566 3.78749
# Velocity P-wave (km/s) = 5.52685 7.18837 6.41166
#
# Compressibility (1/GPa) = 0.03434334
#
# Stress axis : x y z
#
# Youngs Moduli (GPa) = 131.63978 22.69846 96.53788
#
# Poissons Ratio (x) = 0.07699 0.23662
# Poissons Ratio (y) = 0.44653 0.77140
# Poissons Ratio (z) = 0.32266 0.18138
#
# Static dielectric constant tensor:
#      x y z
#    x 3.871030 0.000000 0.000000 
#    y 0.000000 3.435990 0.000000 
#    z 0.000000 0.000000 3.841870 
# 
# 
# High freq. dielectric constant tensor:
#      x y z
#    x 1.804290 0.000000 0.000000 
#    y 0.000000 1.766480 0.000000 
#    z 0.000000 0.000000 1.802920 
# 
# From -- ./inp_files/10155.got.cif
#   From: 2010.03.12/outbox.cif.g09.slc.cpg/sg62_6_cif.got.tgz:10155.got - 2010.04.10 19:12:36.
