data_PCOD8253633
_publ_section_title
;
Structure prediction by ZEFSAII (Michael W. Deem and Ramdas Pophale) SiO2 
 PCOD8253633
Probable space group: P N M A
;
_chemical_formula_sum "Si O2"
_cell_formula_units_Z 48
_cell_length_a 11.834577
_cell_length_b 9.377651
_cell_length_c 23.336540
_cell_angle_alpha 90.000000
_cell_angle_beta 90.000000
_cell_angle_gamma 90.000000
_cell_volume 2589.901644
_symmetry_space_group_name_H-M "P N M A"
_symmetry_group_IT_number 62
_symmetry_cell_setting 'orthorhombic'
loop_
_space_group_symop_operation_xyz
x,y,z
1/2-x,-y,1/2+z
1/2+x,1/2-y,1/2-z
-x,1/2+y,-z
-x,-y,-z
1/2+x,y,1/2-z
1/2-x,1/2+y,1/2+z
x,1/2-y,z
loop_
_atom_site_type_symbol
_atom_site_label
_atom_site_fract_x
_atom_site_fract_y
_atom_site_fract_z
Si Si1 0.289977 0.915105 0.583479
Si Si2 0.863915 0.414856 0.642990
Si Si3 0.089388 0.584653 0.666644
Si Si4 0.501500 0.915479 0.378262
Si Si5 0.158378 0.088460 0.773670
Si Si6 0.798895 0.919374 0.045540
O O1 0.324625 0.750000 0.582699
O O2 0.168032 0.938458 0.611372
O O3 0.284884 0.977055 0.518835
O O4 0.382828 0.997836 0.620246
O O5 0.900195 0.250000 0.637426
O O6 0.777375 0.434727 0.695187
O O7 0.805819 0.472219 0.584482
O O8 0.971996 0.509011 0.654977
O O9 0.066905 0.750000 0.678550
O O10 0.152058 0.520144 0.721486
O O11 0.529310 0.750000 0.387646
O O12 0.444772 0.941252 0.316785
O O13 0.417557 0.973476 0.428027
O O14 0.149764 0.250000 0.750370
O O15 0.798730 0.750000 0.049149
#
# Coordination Sequence:
#
# PCOD8253633 Si02
#       6
#     8   8   8   8   8   8
#     4  10  21  35  52  80 116 147 173 213 272 328
#     4   9  19  38  61  79 100 140 188 227 265 312
#     4  11  24  36  50  79 115 146 176 216 272 330
#     4   9  18  34  58  84 104 134 182 230 268 311
#     4   9  20  38  58  78 102 137 184 231 269 311
#     4   8  16  35  59  80 107 141 179 223 269 315
#
# _framework density 18.533522999999999
#
# number of rings (size 3 to 8) (size 9 to 14) (size 15 to 20)
#    0.000    2.667    0.000    3.000    2.333    3.333 
#    0.000    3.333    0.000    0.000    0.000    0.000 
#    0.000    0.000    0.000    0.000    0.000    0.000 
#
# Total GULP energy -595235.538786 kJ/mol
# GULP energy per Si atom -12400.740391 kJ/mol
# Density = 1.849134 g / cm^3
# Si number density = 18.533523 Si / 1000 Ang^3
#
#
#
# Elastic Constant Matrix: (Units=GPa)
#
#
# Indices 1 2 3 4 5 6 
#
# 1 100.3594 51.7081 29.9921 0.0000 0.0000 0.0000
# 2 51.7081 75.2696 37.0405 0.0000 0.0000 0.0000
# 3 29.9921 37.0405 73.2777 0.0000 0.0000 0.0000
# 4 0.0000 0.0000 0.0000 24.7754 0.0000 0.0000
# 5 0.0000 0.0000 0.0000 0.0000 18.9320 0.0000
# 6 0.0000 0.0000 0.0000 0.0000 0.0000 27.4270
#
#
#
# Elastic Compliance Matrix: (Units=1/GPa)
#
#
# Indices 1 2 3 4 5 6 
#
# 1 0.015513 -0.010027 -0.001281 0.000000 0.000000 0.000000
# 2 -0.010027 0.024165 -0.008111 0.000000 0.000000 0.000000
# 3 -0.001281 -0.008111 0.018271 0.000000 0.000000 0.000000
# 4 0.000000 0.000000 0.000000 0.040363 0.000000 0.000000
# 5 0.000000 0.000000 0.000000 0.000000 0.052821 0.000000
# 6 0.000000 0.000000 0.000000 0.000000 0.000000 0.036460
#
#
# Mechanical properties :
#
#
# Convention : Reuss Voigt Hill
#
# Bulk Modulus (GPa) = 52.32465 54.04314 53.18389
# Shear Modulus (GPa) = 21.47756 22.90462 22.19109
#
# Velocity S-wave (km/s) = 3.40788 3.51928 3.46403
# Velocity P-wave (km/s) = 6.61654 6.76289 6.69012
#
# Compressibility (1/GPa) = 0.01911145
#
# Stress axis : x y z
#
# Youngs Moduli (GPa) = 64.46189 41.38201 54.73115
#
# Poissons Ratio (x) = 0.41492 0.07012
# Poissons Ratio (y) = 0.64633 0.44393
# Poissons Ratio (z) = 0.08259 0.33566
#
# Static dielectric constant tensor:
#      x y z
#    x 3.307650 0.000000 0.000000 
#    y 0.000000 3.221510 0.000000 
#    z 0.000000 0.000000 3.592800 
# 
# 
# High freq. dielectric constant tensor:
#      x y z
#    x 1.722340 0.000000 0.000000 
#    y 0.000000 1.698590 0.000000 
#    z 0.000000 0.000000 1.725700 
# 
# From -- ./inp_files/29218.got.cif
#   From: 2010.03.12/outbox.cif.g09.slc.cpg/sg62_15_cif.got.tgz:29218.got - 2010.04.10 19:12:36.
