data_PCOD8253217
_publ_section_title
;
Structure prediction by ZEFSAII (Michael W. Deem and Ramdas Pophale) SiO2 
 PCOD8253217
Probable space group: P N M A
;
_chemical_formula_sum "Si O2"
_cell_formula_units_Z 48
_cell_length_a 12.608871
_cell_length_b 10.405669
_cell_length_c 18.614305
_cell_angle_alpha 90.000000
_cell_angle_beta 90.000000
_cell_angle_gamma 90.000000
_cell_volume 2442.266398
_symmetry_space_group_name_H-M "P N M A"
_symmetry_group_IT_number 62
_symmetry_cell_setting 'orthorhombic'
loop_
_space_group_symop_operation_xyz
x,y,z
1/2-x,-y,1/2+z
1/2+x,1/2-y,1/2-z
-x,1/2+y,-z
-x,-y,-z
1/2+x,y,1/2-z
1/2-x,1/2+y,1/2+z
x,1/2-y,z
loop_
_atom_site_type_symbol
_atom_site_label
_atom_site_fract_x
_atom_site_fract_y
_atom_site_fract_z
Si Si1 0.303105 0.601801 0.454072
Si Si2 0.928559 0.394406 0.707704
Si Si3 0.266359 0.602869 0.748411
Si Si4 0.431228 0.485992 0.324024
Si Si5 0.445126 0.394787 0.950845
Si Si6 0.138350 0.105066 0.105083
O O1 0.332207 0.750000 0.453305
O O2 0.360016 0.546780 0.384949
O O3 0.179147 0.575504 0.449310
O O4 0.346418 0.533750 0.528167
O O5 0.878941 0.250000 0.714244
O O6 0.837385 0.502852 0.706771
O O7 0.987988 0.406500 0.630904
O O8 0.012227 0.410345 0.772421
O O9 0.309101 0.750000 0.757125
O O10 0.144492 0.600354 0.773629
O O11 0.277493 0.556917 0.665171
O O12 0.519976 0.401928 0.363524
O O13 0.467002 0.250000 0.980474
O O14 0.500000 0.500000 0.000000
O O15 0.167963 0.250000 0.087735
#
# Coordination Sequence:
#
# PCOD8253217 Si02
#       6
#     8   8   8   8   8   8
#     4  10  20  37  60  82 115 156 192 237 297 351
#     4  10  22  39  60  87 119 154 199 246 296 355
#     4  10  21  37  59  86 118 155 194 243 295 347
#     4  11  20  35  60  87 118 152 198 244 299 348
#     4  10  22  40  59  85 117 156 200 243 292 352
#     4   9  20  36  54  83 117 152 197 241 289 353
#
# _framework density 19.653874999999999
#
# number of rings (size 3 to 8) (size 9 to 14) (size 15 to 20)
#    0.000    2.000    1.667    1.500    2.333    2.000 
#    0.000    0.000    0.000    2.000    0.000    0.000 
#    0.000    0.000    0.000    0.000    0.000    0.000 
#
# Total GULP energy -594769.412439 kJ/mol
# GULP energy per Si atom -12391.029426 kJ/mol
# Density = 1.960914 g / cm^3
# Si number density = 19.653875 Si / 1000 Ang^3
#
#
#
# Elastic Constant Matrix: (Units=GPa)
#
#
# Indices 1 2 3 4 5 6 
#
# 1 76.2729 22.2245 52.9311 0.0000 0.0000 0.0000
# 2 22.2245 83.1801 36.7579 0.0000 0.0000 0.0000
# 3 52.9311 36.7579 131.0427 0.0000 0.0000 0.0000
# 4 0.0000 0.0000 0.0000 24.5473 0.0000 0.0000
# 5 0.0000 0.0000 0.0000 0.0000 36.2991 0.0000
# 6 0.0000 0.0000 0.0000 0.0000 0.0000 26.3185
#
#
#
# Elastic Compliance Matrix: (Units=1/GPa)
#
#
# Indices 1 2 3 4 5 6 
#
# 1 0.018469 -0.001870 -0.006935 0.000000 0.000000 0.000000
# 2 -0.001870 0.013912 -0.003147 0.000000 0.000000 0.000000
# 3 -0.006935 -0.003147 0.011315 0.000000 0.000000 0.000000
# 4 0.000000 0.000000 0.000000 0.040738 0.000000 0.000000
# 5 0.000000 0.000000 0.000000 0.000000 0.027549 0.000000
# 6 0.000000 0.000000 0.000000 0.000000 0.000000 0.037996
#
#
# Mechanical properties :
#
#
# Convention : Reuss Voigt Hill
#
# Bulk Modulus (GPa) = 50.52667 57.14696 53.83682
# Shear Modulus (GPa) = 27.70374 29.33845 28.52109
#
# Velocity S-wave (km/s) = 3.75851 3.86781 3.81355
# Velocity P-wave (km/s) = 6.67827 7.00617 6.84418
#
# Compressibility (1/GPa) = 0.01979153
#
# Stress axis : x y z
#
# Youngs Moduli (GPa) = 54.14601 71.87793 88.37599
#
# Poissons Ratio (x) = 0.13439 0.61292
# Poissons Ratio (y) = 0.10124 0.27814
# Poissons Ratio (z) = 0.37552 0.22622
#
# Static dielectric constant tensor:
#      x y z
#    x 3.532270 0.000000 0.000000 
#    y 0.000000 3.623790 0.000000 
#    z 0.000000 0.000000 4.125040 
# 
# 
# High freq. dielectric constant tensor:
#      x y z
#    x 1.753200 0.000000 0.000000 
#    y 0.000000 1.746780 0.000000 
#    z 0.000000 0.000000 1.790810 
# 
# From -- ./inp_files/23003.got.cif
#   From: 2010.03.12/outbox.cif.g09.slc.cpg/sg62_12_cif.got.tgz:23003.got - 2010.04.10 19:12:36.
