data_PCOD8253543
_publ_section_title
;
Structure prediction by ZEFSAII (Michael W. Deem and Ramdas Pophale) SiO2 
 PCOD8253543
Probable space group: P N M A
;
_chemical_formula_sum "Si O2"
_cell_formula_units_Z 40
_cell_length_a 10.118450
_cell_length_b 8.764075
_cell_length_c 22.757063
_cell_angle_alpha 90.000000
_cell_angle_beta 90.000000
_cell_angle_gamma 90.000000
_cell_volume 2018.070283
_symmetry_space_group_name_H-M "P N M A"
_symmetry_group_IT_number 62
_symmetry_cell_setting 'orthorhombic'
loop_
_space_group_symop_operation_xyz
x,y,z
1/2-x,-y,1/2+z
1/2+x,1/2-y,1/2-z
-x,1/2+y,-z
-x,-y,-z
1/2+x,y,1/2-z
1/2-x,1/2+y,1/2+z
x,1/2-y,z
loop_
_atom_site_type_symbol
_atom_site_label
_atom_site_fract_x
_atom_site_fract_y
_atom_site_fract_z
Si Si1 0.026259 0.571784 0.808786
Si Si2 0.999043 0.072931 0.325792
Si Si3 0.724617 0.426800 0.386418
Si Si4 0.747615 0.928343 0.119279
Si Si5 0.144303 0.570795 0.997350
O O1 0.060703 0.750000 0.814093
O O2 0.993424 0.527208 0.742270
O O3 0.152660 0.477082 0.829351
O O4 0.901830 0.525410 0.848275
O O5 0.035896 0.250000 0.334764
O O6 0.853218 0.035688 0.348652
O O7 0.099791 0.969081 0.361684
O O8 0.717550 0.250000 0.403859
O O9 0.728612 0.524742 0.445688
O O10 0.759945 0.750000 0.107434
O O11 0.778237 0.016226 0.059607
O O12 0.127620 0.750000 0.994124
O O13 0.000000 0.500000 0.000000
#
# Coordination Sequence:
#
# PCOD8253543 Si02
#       5
#     8   8   8   8   8
#     4  10  20  39  67  93 122 164 209 253 302 366
#     4  10  22  41  64  93 127 166 207 250 305 367
#     4  10  21  38  64  94 124 160 207 257 305 363
#     4  12  25  40  62  93 127 165 206 255 310 364
#     4  12  24  41  65  90 120 159 207 259 310 371
#
# _framework density 19.820914999999999
#
# number of rings (size 3 to 8) (size 9 to 14) (size 15 to 20)
#    0.000    1.200    2.000    4.800    0.000    5.600 
#    0.000    2.000    0.000    0.000    0.000    0.000 
#    0.000    0.000    0.000    0.000    0.000    0.000 
#
# Total GULP energy -496298.792721 kJ/mol
# GULP energy per Si atom -12407.469818 kJ/mol
# Density = 1.977580 g / cm^3
# Si number density = 19.820915 Si / 1000 Ang^3
#
#
#
# Elastic Constant Matrix: (Units=GPa)
#
#
# Indices 1 2 3 4 5 6 
#
# 1 81.3409 30.4868 18.4528 0.0000 0.0000 0.0000
# 2 30.4868 105.1114 41.5479 0.0000 0.0000 0.0000
# 3 18.4528 41.5479 118.4376 0.0000 0.0000 0.0000
# 4 0.0000 0.0000 0.0000 30.7691 0.0000 0.0000
# 5 0.0000 0.0000 0.0000 0.0000 24.7454 0.0000
# 6 0.0000 0.0000 0.0000 0.0000 0.0000 31.9179
#
#
#
# Elastic Compliance Matrix: (Units=1/GPa)
#
#
# Indices 1 2 3 4 5 6 
#
# 1 0.013870 -0.003679 -0.000870 0.000000 0.000000 0.000000
# 2 -0.003679 0.012021 -0.003644 0.000000 0.000000 0.000000
# 3 -0.000870 -0.003644 0.009857 0.000000 0.000000 0.000000
# 4 0.000000 0.000000 0.000000 0.032500 0.000000 0.000000
# 5 0.000000 0.000000 0.000000 0.000000 0.040412 0.000000
# 6 0.000000 0.000000 0.000000 0.000000 0.000000 0.031330
#
#
# Mechanical properties :
#
#
# Convention : Reuss Voigt Hill
#
# Bulk Modulus (GPa) = 51.64720 53.98499 52.81609
# Shear Modulus (GPa) = 30.70668 31.77996 31.24332
#
# Velocity S-wave (km/s) = 3.94027 4.00854 3.97455
# Velocity P-wave (km/s) = 6.84211 6.97997 6.91138
#
# Compressibility (1/GPa) = 0.01936214
#
# Stress axis : x y z
#
# Youngs Moduli (GPa) = 72.09658 83.18732 101.44941
#
# Poissons Ratio (x) = 0.30604 0.08831
# Poissons Ratio (y) = 0.26524 0.36966
# Poissons Ratio (z) = 0.06276 0.30312
#
# Static dielectric constant tensor:
#      x y z
#    x 3.654360 0.000000 0.000000 
#    y 0.000000 3.898910 0.000000 
#    z 0.000000 0.000000 3.903720 
# 
# 
# High freq. dielectric constant tensor:
#      x y z
#    x 1.779150 0.000000 0.000000 
#    y 0.000000 1.766060 0.000000 
#    z 0.000000 0.000000 1.789510 
# 
# From -- ./inp_files/28577.got.cif
#   From: 2010.03.12/outbox.cif.g09.slc.cpg/sg62_15_cif.got.tgz:28577.got - 2010.04.10 19:12:36.
