data_PCOD8253960
_publ_section_title
;
Structure prediction by ZEFSAII (Michael W. Deem and Ramdas Pophale) SiO2 
 PCOD8253960
Probable space group: P N M A
;
_chemical_formula_sum "Si O2"
_cell_formula_units_Z 48
_cell_length_a 10.641999
_cell_length_b 9.256750
_cell_length_c 24.109396
_cell_angle_alpha 90.000000
_cell_angle_beta 90.000000
_cell_angle_gamma 90.000000
_cell_volume 2375.024417
_symmetry_space_group_name_H-M "P N M A"
_symmetry_group_IT_number 62
_symmetry_cell_setting 'orthorhombic'
loop_
_space_group_symop_operation_xyz
x,y,z
1/2-x,-y,1/2+z
1/2+x,1/2-y,1/2-z
-x,1/2+y,-z
-x,-y,-z
1/2+x,y,1/2-z
1/2-x,1/2+y,1/2+z
x,1/2-y,z
loop_
_atom_site_type_symbol
_atom_site_label
_atom_site_fract_x
_atom_site_fract_y
_atom_site_fract_z
Si Si1 0.744557 0.590735 0.115817
Si Si2 0.371734 0.581215 0.785668
Si Si3 0.756984 0.915352 0.406995
Si Si4 0.512797 0.084516 0.557507
Si Si5 0.122967 0.909472 0.500748
Si Si6 0.842296 0.419857 0.300291
O O1 0.765065 0.750000 0.142720
O O2 0.670726 0.489498 0.157440
O O3 0.876832 0.520369 0.096402
O O4 0.660972 0.607007 0.062099
O O5 0.355477 0.750000 0.793678
O O6 0.519604 0.544022 0.773449
O O7 0.274002 0.528311 0.738319
O O8 0.805361 0.750000 0.410915
O O9 0.606885 0.921582 0.401766
O O10 0.777337 0.000923 0.463923
O O11 0.829416 0.992141 0.357007
O O12 0.545902 0.250000 0.541144
O O13 0.500000 0.000000 0.500000
O O14 0.103402 0.750000 0.527073
O O15 0.000000 0.000000 0.500000
O O16 0.832197 0.250000 0.313084
#
# Coordination Sequence:
#
# PCOD8253960 Si02
#       6
#     8   8   8   8   8   8
#     4  10  22  39  59  86 121 157 196 245 301 358
#     4  10  23  42  64  90 118 155 202 252 303 362
#     4  11  23  38  60  90 122 157 201 249 303 366
#     4  10  21  38  59  89 124 158 201 247 297 359
#     4  11  22  37  59  86 120 159 199 246 303 365
#     4  10  23  43  64  89 121 157 202 253 308 364
#
# _framework density 20.210318999999998
#
# number of rings (size 3 to 8) (size 9 to 14) (size 15 to 20)
#    0.000    1.667    1.667    2.000    2.333    6.667 
#    0.000    0.000    0.000    0.000    0.000    0.000 
#    0.000    0.000    0.000    0.000    0.000    0.000 
#
# Total GULP energy -594968.446172 kJ/mol
# GULP energy per Si atom -12395.175962 kJ/mol
# Density = 2.016432 g / cm^3
# Si number density = 20.210319 Si / 1000 Ang^3
#
#
#
# Elastic Constant Matrix: (Units=GPa)
#
#
# Indices 1 2 3 4 5 6 
#
# 1 117.1523 33.9811 26.6722 0.0000 0.0000 0.0000
# 2 33.9811 77.9679 33.5530 0.0000 0.0000 0.0000
# 3 26.6722 33.5530 77.7300 0.0000 0.0000 0.0000
# 4 0.0000 0.0000 0.0000 33.1478 0.0000 0.0000
# 5 0.0000 0.0000 0.0000 0.0000 37.9445 0.0000
# 6 0.0000 0.0000 0.0000 0.0000 0.0000 26.3359
#
#
#
# Elastic Compliance Matrix: (Units=1/GPa)
#
#
# Indices 1 2 3 4 5 6 
#
# 1 0.009995 -0.003537 -0.001903 0.000000 0.000000 0.000000
# 2 -0.003537 0.017004 -0.006126 0.000000 0.000000 0.000000
# 3 -0.001903 -0.006126 0.016162 0.000000 0.000000 0.000000
# 4 0.000000 0.000000 0.000000 0.030168 0.000000 0.000000
# 5 0.000000 0.000000 0.000000 0.000000 0.026354 0.000000
# 6 0.000000 0.000000 0.000000 0.000000 0.000000 0.037971
#
#
# Mechanical properties :
#
#
# Convention : Reuss Voigt Hill
#
# Bulk Modulus (GPa) = 49.92797 51.25144 50.58970
# Shear Modulus (GPa) = 29.85731 31.39524 30.62628
#
# Velocity S-wave (km/s) = 3.84777 3.94563 3.89701
# Velocity P-wave (km/s) = 6.67071 6.79496 6.73312
#
# Compressibility (1/GPa) = 0.02002885
#
# Stress axis : x y z
#
# Youngs Moduli (GPa) = 100.04846 58.81034 61.87225
#
# Poissons Ratio (x) = 0.20803 0.11773
# Poissons Ratio (y) = 0.35391 0.37903
# Poissons Ratio (z) = 0.19037 0.36028
#
# Static dielectric constant tensor:
#      x y z
#    x 3.872400 0.000000 0.000000 
#    y 0.000000 3.661100 0.000000 
#    z 0.000000 0.000000 3.326610 
# 
# 
# High freq. dielectric constant tensor:
#      x y z
#    x 1.811570 0.000000 0.000000 
#    y 0.000000 1.789670 0.000000 
#    z 0.000000 0.000000 1.773050 
# 
# From -- ./inp_files/29227.got.cif
#   From: 2010.03.12/outbox.cif.g09.slc.cpg/sg62_15_cif.got.tgz:29227.got - 2010.04.10 19:12:36.
