data_PCOD8253064
_publ_section_title
;
Structure prediction by ZEFSAII (Michael W. Deem and Ramdas Pophale) SiO2 
 PCOD8253064
Probable space group: P N M A
;
_chemical_formula_sum "Si O2"
_cell_formula_units_Z 56
_cell_length_a 14.167826
_cell_length_b 16.097314
_cell_length_c 11.319031
_cell_angle_alpha 90.000000
_cell_angle_beta 90.000000
_cell_angle_gamma 90.000000
_cell_volume 2581.462850
_symmetry_space_group_name_H-M "P N M A"
_symmetry_group_IT_number 62
_symmetry_cell_setting 'orthorhombic'
loop_
_space_group_symop_operation_xyz
x,y,z
1/2-x,-y,1/2+z
1/2+x,1/2-y,1/2-z
-x,1/2+y,-z
-x,-y,-z
1/2+x,y,1/2-z
1/2-x,1/2+y,1/2+z
x,1/2-y,z
loop_
_atom_site_type_symbol
_atom_site_label
_atom_site_fract_x
_atom_site_fract_y
_atom_site_fract_z
Si Si1 0.987521 0.593988 0.957071
Si Si2 0.190601 0.348149 0.173983
Si Si3 0.005453 0.658773 0.199870
Si Si4 0.289808 0.155079 0.749211
Si Si5 0.880661 0.547689 0.338036
Si Si6 0.794784 0.446281 0.520242
Si Si7 0.323731 0.424064 0.355181
O O1 0.910079 0.607145 0.852994
O O2 0.089673 0.628950 0.911482
O O3 0.000000 0.500000 0.000000
O O4 0.952607 0.642699 0.074981
O O5 0.176691 0.250000 0.166831
O O6 0.234195 0.371582 0.303494
O O7 0.264383 0.379536 0.077232
O O8 0.978368 0.750000 0.245202
O O9 0.116316 0.651731 0.170176
O O10 0.975585 0.597375 0.306599
O O11 0.260264 0.250000 0.779046
O O12 0.207374 0.110645 0.677679
O O13 0.322822 0.105530 0.865566
O O14 0.878965 0.506085 0.468894
O O15 0.873947 0.471831 0.250061
O O16 0.709494 0.509001 0.548232
#
# Coordination Sequence:
#
# PCOD8253064 Si02
#       7
#     8   8   8   8   8   8   8
#     4  12  21  39  67  95 120 165 219 266 311 385
#     4  11  24  40  62  93 132 169 209 266 332 386
#     4  11  23  37  60  91 118 153 207 264 317 370
#     4  10  21  36  58  86 122 156 201 262 318 377
#     4  10  20  36  59  86 117 158 202 261 311 381
#     4  10  20  37  61  86 121 165 210 255 322 384
#     4  10  22  37  62  93 123 162 213 263 314 388
#
# _framework density 21.693127
#
# number of rings (size 3 to 8) (size 9 to 14) (size 15 to 20)
#    0.000    1.429    2.857    3.000    4.000    1.714 
#    0.000    2.857    0.000    3.429    0.000    0.000 
#    0.000    0.000    0.000    0.000    0.000    0.000 
#
# Total GULP energy -693837.021358 kJ/mol
# GULP energy per Si atom -12389.946810 kJ/mol
# Density = 2.164375 g / cm^3
# Si number density = 21.693127 Si / 1000 Ang^3
#
#
#
# Elastic Constant Matrix: (Units=GPa)
#
#
# Indices 1 2 3 4 5 6 
#
# 1 79.9878 26.0014 9.0590 0.0000 0.0000 0.0000
# 2 26.0014 115.9008 28.9707 0.0000 0.0000 0.0000
# 3 9.0590 28.9707 53.4897 0.0000 0.0000 0.0000
# 4 0.0000 0.0000 0.0000 20.8942 0.0000 0.0000
# 5 0.0000 0.0000 0.0000 0.0000 29.8309 0.0000
# 6 0.0000 0.0000 0.0000 0.0000 0.0000 29.1518
#
#
#
# Elastic Compliance Matrix: (Units=1/GPa)
#
#
# Indices 1 2 3 4 5 6 
#
# 1 0.013511 -0.002844 -0.000748 0.000000 0.000000 0.000000
# 2 -0.002844 0.010578 -0.005247 0.000000 0.000000 0.000000
# 3 -0.000748 -0.005247 0.021664 0.000000 0.000000 0.000000
# 4 0.000000 0.000000 0.000000 0.047860 0.000000 0.000000
# 5 0.000000 0.000000 0.000000 0.000000 0.033522 0.000000
# 6 0.000000 0.000000 0.000000 0.000000 0.000000 0.034303
#
#
# Mechanical properties :
#
#
# Convention : Reuss Voigt Hill
#
# Bulk Modulus (GPa) = 35.62004 41.93784 38.77894
# Shear Modulus (GPa) = 26.52870 28.33187 27.43029
#
# Velocity S-wave (km/s) = 3.50080 3.61782 3.55980
# Velocity P-wave (km/s) = 5.72682 6.06843 5.90010
#
# Compressibility (1/GPa) = 0.02807409
#
# Stress axis : x y z
#
# Youngs Moduli (GPa) = 74.01296 94.53781 46.15979
#
# Poissons Ratio (x) = 0.26888 0.03452
# Poissons Ratio (y) = 0.21051 0.24222
# Poissons Ratio (z) = 0.05535 0.49607
#
# Static dielectric constant tensor:
#      x y z
#    x 3.916680 0.000000 0.000000 
#    y 0.000000 3.956460 0.000000 
#    z 0.000000 0.000000 4.088570 
# 
# 
# High freq. dielectric constant tensor:
#      x y z
#    x 1.845790 0.000000 0.000000 
#    y 0.000000 1.848950 0.000000 
#    z 0.000000 0.000000 1.839060 
# 
# From -- ./inp_files/13380.got.cif
#   From: 2010.03.12/outbox.cif.g09.slc.cpg/sg62_7_cif.got.tgz:13380.got - 2010.04.10 19:12:36.
