data_PCOD8253458
_publ_section_title
;
Structure prediction by ZEFSAII (Michael W. Deem and Ramdas Pophale) SiO2 
 PCOD8253458
Probable space group: P N M A
;
_chemical_formula_sum "Si O2"
_cell_formula_units_Z 48
_cell_length_a 9.730403
_cell_length_b 29.801438
_cell_length_c 8.415386
_cell_angle_alpha 90.000000
_cell_angle_beta 90.000000
_cell_angle_gamma 90.000000
_cell_volume 2440.293647
_symmetry_space_group_name_H-M "P N M A"
_symmetry_group_IT_number 62
_symmetry_cell_setting 'orthorhombic'
loop_
_space_group_symop_operation_xyz
x,y,z
1/2-x,-y,1/2+z
1/2+x,1/2-y,1/2-z
-x,1/2+y,-z
-x,-y,-z
1/2+x,y,1/2-z
1/2-x,1/2+y,1/2+z
x,1/2-y,z
loop_
_atom_site_type_symbol
_atom_site_label
_atom_site_fract_x
_atom_site_fract_y
_atom_site_fract_z
Si Si1 0.755519 0.651509 0.123593
Si Si2 0.837247 0.429018 0.835135
Si Si3 0.949274 0.956536 0.411347
Si Si4 0.966958 0.358936 0.056784
Si Si5 0.498249 0.638367 0.927173
Si Si6 0.234900 0.301547 0.560150
O O1 0.737730 0.605512 0.218160
O O2 0.786758 0.690600 0.251176
O O3 0.618178 0.662717 0.026544
O O4 0.877483 0.645654 0.999773
O O5 0.714359 0.463023 0.881980
O O6 0.963905 0.454237 0.751854
O O7 0.896431 0.403854 0.989085
O O8 0.974343 0.912253 0.515667
O O9 0.000000 0.000000 0.500000
O O10 0.960236 0.362242 0.244776
O O11 0.888822 0.314956 0.991377
O O12 0.363484 0.667743 0.953420
O O13 0.206987 0.250000 0.520212
#
# Coordination Sequence:
#
# PCOD8253458 Si02
#       6
#     8   8   8   8   8   8
#     4  10  20  38  65  88 122 167 207 251 317 380
#     4  10  20  42  62  91 125 172 207 259 310 372
#     4  11  23  42  66  94 131 171 220 258 307 381
#     4  11  21  39  65  90 127 162 207 263 327 370
#     4  11  23  40  64  94 129 165 208 267 321 373
#     4  11  23  41  64  89 123 168 213 257 319 395
#
# _framework density 19.669763
#
# number of rings (size 3 to 8) (size 9 to 14) (size 15 to 20)
#    0.000    1.333    5.000    3.000    0.000    4.667 
#    3.000    3.333    0.000    0.000    0.000    0.000 
#    0.000    0.000    0.000    0.000    0.000    0.000 
#
# Total GULP energy -595297.098553 kJ/mol
# GULP energy per Si atom -12402.022887 kJ/mol
# Density = 1.962499 g / cm^3
# Si number density = 19.669763 Si / 1000 Ang^3
#
#
#
# Elastic Constant Matrix: (Units=GPa)
#
#
# Indices 1 2 3 4 5 6 
#
# 1 81.8134 21.9123 20.9431 0.0000 0.0000 0.0000
# 2 21.9123 88.1880 27.1492 0.0000 0.0000 0.0000
# 3 20.9431 27.1492 121.7097 0.0000 0.0000 0.0000
# 4 0.0000 0.0000 0.0000 17.8274 0.0000 0.0000
# 5 0.0000 0.0000 0.0000 0.0000 33.7062 0.0000
# 6 0.0000 0.0000 0.0000 0.0000 0.0000 12.1878
#
#
#
# Elastic Compliance Matrix: (Units=1/GPa)
#
#
# Indices 1 2 3 4 5 6 
#
# 1 0.013407 -0.002814 -0.001679 0.000000 0.000000 0.000000
# 2 -0.002814 0.012766 -0.002363 0.000000 0.000000 0.000000
# 3 -0.001679 -0.002363 0.009032 0.000000 0.000000 0.000000
# 4 0.000000 0.000000 0.000000 0.056094 0.000000 0.000000
# 5 0.000000 0.000000 0.000000 0.000000 0.029668 0.000000
# 6 0.000000 0.000000 0.000000 0.000000 0.000000 0.082049
#
#
# Mechanical properties :
#
#
# Convention : Reuss Voigt Hill
#
# Bulk Modulus (GPa) = 46.52993 47.96892 47.24943
# Shear Modulus (GPa) = 22.33202 27.52471 24.92836
#
# Velocity S-wave (km/s) = 3.37315 3.74484 3.56384
# Velocity P-wave (km/s) = 6.23520 6.56799 6.40376
#
# Compressibility (1/GPa) = 0.02149154
#
# Stress axis : x y z
#
# Youngs Moduli (GPa) = 74.59056 78.33139 110.71236
#
# Poissons Ratio (x) = 0.22044 0.18590
# Poissons Ratio (y) = 0.20991 0.26166
# Poissons Ratio (z) = 0.12525 0.18513
#
# Static dielectric constant tensor:
#      x y z
#    x 3.906110 0.000000 0.000000 
#    y 0.000000 3.343670 0.000000 
#    z 0.000000 0.000000 3.635770 
# 
# 
# High freq. dielectric constant tensor:
#      x y z
#    x 1.789220 0.000000 0.000000 
#    y 0.000000 1.738100 0.000000 
#    z 0.000000 0.000000 1.769420 
# 
# From -- ./inp_files/4524.got.cif
#   From: 2010.03.12/outbox.cif.g09.slc.cpg/sg62_3_cif.got.tgz:4524.got - 2010.04.10 19:12:36.
