data_PCOD8253921
_publ_section_title
;
Structure prediction by ZEFSAII (Michael W. Deem and Ramdas Pophale) SiO2 
 PCOD8253921
Probable space group: P N M A
;
_chemical_formula_sum "Si O2"
_cell_formula_units_Z 48
_cell_length_a 21.652346
_cell_length_b 9.237780
_cell_length_c 12.346546
_cell_angle_alpha 90.000000
_cell_angle_beta 90.000000
_cell_angle_gamma 90.000000
_cell_volume 2469.551301
_symmetry_space_group_name_H-M "P N M A"
_symmetry_group_IT_number 62
_symmetry_cell_setting 'orthorhombic'
loop_
_space_group_symop_operation_xyz
x,y,z
1/2-x,-y,1/2+z
1/2+x,1/2-y,1/2-z
-x,1/2+y,-z
-x,-y,-z
1/2+x,y,1/2-z
1/2-x,1/2+y,1/2+z
x,1/2-y,z
loop_
_atom_site_type_symbol
_atom_site_label
_atom_site_fract_x
_atom_site_fract_y
_atom_site_fract_z
Si Si1 0.935174 0.079543 0.514438
Si Si2 0.298361 0.079281 0.584601
Si Si3 0.866020 0.084825 0.134908
Si Si4 0.486440 0.578744 0.389106
Si Si5 0.177395 0.585872 0.631783
Si Si6 0.601688 0.579457 0.248951
O O1 0.949393 0.250000 0.519431
O O2 0.889151 0.038491 0.416517
O O3 0.900939 0.026672 0.624793
O O4 0.000000 0.000000 0.500000
O O5 0.290823 0.250000 0.592976
O O6 0.330180 0.034399 0.471987
O O7 0.339516 0.016140 0.684492
O O8 0.230725 0.012613 0.583629
O O9 0.890068 0.250000 0.121289
O O10 0.821755 0.071273 0.238538
O O11 0.922037 0.976722 0.157701
O O12 0.500000 0.500000 0.500000
O O13 0.485005 0.750000 0.406995
O O14 0.538563 0.529495 0.305089
O O15 0.190807 0.750000 0.595493
O O16 0.607578 0.750000 0.255552
#
# Coordination Sequence:
#
# PCOD8253921 Si02
#       6
#     8   8   8   8   8   8
#     4  10  21  39  61  85 115 148 187 235 286 340
#     4  10  21  38  58  80 112 154 190 228 279 339
#     4  10  21  39  58  81 116 148 184 235 286 332
#     4  11  20  34  57  85 115 148 188 234 284 337
#     4  10  23  39  58  85 116 147 186 241 287 329
#     4   9  19  36  57  81 113 150 186 230 282 338
#
# _framework density 19.436730000000001
#
# number of rings (size 3 to 8) (size 9 to 14) (size 15 to 20)
#    0.000    2.000    1.667    1.500    2.333    2.000 
#    0.000    1.667    0.000    0.000    0.000    0.000 
#    0.000    0.000    0.000    0.000    0.000    0.000 
#
# Total GULP energy -595210.964137 kJ/mol
# GULP energy per Si atom -12400.228420 kJ/mol
# Density = 1.939249 g / cm^3
# Si number density = 19.436730 Si / 1000 Ang^3
#
#
#
# Elastic Constant Matrix: (Units=GPa)
#
#
# Indices 1 2 3 4 5 6 
#
# 1 133.4027 43.6543 45.0890 0.0000 0.0000 0.0000
# 2 43.6543 48.4982 23.4654 0.0000 0.0000 0.0000
# 3 45.0890 23.4654 120.9763 0.0000 0.0000 0.0000
# 4 0.0000 0.0000 0.0000 19.1982 0.0000 0.0000
# 5 0.0000 0.0000 0.0000 0.0000 24.3745 0.0000
# 6 0.0000 0.0000 0.0000 0.0000 0.0000 39.5870
#
#
#
# Elastic Compliance Matrix: (Units=1/GPa)
#
#
# Indices 1 2 3 4 5 6 
#
# 1 0.011253 -0.008938 -0.002460 0.000000 0.000000 0.000000
# 2 -0.008938 0.029855 -0.002459 0.000000 0.000000 0.000000
# 3 -0.002460 -0.002459 0.009660 0.000000 0.000000 0.000000
# 4 0.000000 0.000000 0.000000 0.052088 0.000000 0.000000
# 5 0.000000 0.000000 0.000000 0.000000 0.041027 0.000000
# 6 0.000000 0.000000 0.000000 0.000000 0.000000 0.025261
#
#
# Mechanical properties :
#
#
# Convention : Reuss Voigt Hill
#
# Bulk Modulus (GPa) = 43.38100 58.58829 50.98464
# Shear Modulus (GPa) = 24.44475 29.34318 26.89396
#
# Velocity S-wave (km/s) = 3.55019 3.88967 3.72380
# Velocity P-wave (km/s) = 6.25881 7.09797 6.69156
#
# Compressibility (1/GPa) = 0.02305157
#
# Stress axis : x y z
#
# Youngs Moduli (GPa) = 88.86848 33.49532 103.51888
#
# Poissons Ratio (x) = 0.29939 0.25468
# Poissons Ratio (y) = 0.79434 0.25460
# Poissons Ratio (z) = 0.21863 0.08238
#
# Static dielectric constant tensor:
#      x y z
#    x -4.245240 0.000000 0.000000 
#    y 0.000000 3.577810 0.000000 
#    z 0.000000 0.000000 3.778840 
# 
# 
# High freq. dielectric constant tensor:
#      x y z
#    x 1.758090 0.000000 0.000000 
#    y 0.000000 1.732970 0.000000 
#    z 0.000000 0.000000 1.772810 
# 
# From -- ./inp_files/15131.got.cif
#   From: 2010.03.12/outbox.cif.g09.slc.cpg/sg62_8_cif.got.tgz:15131.got - 2010.04.10 19:12:36.
