data_PCOD8253086
_publ_section_title
;
Structure prediction by ZEFSAII (Michael W. Deem and Ramdas Pophale) SiO2 
 PCOD8253086
Probable space group: P N M A
;
_chemical_formula_sum "Si O2"
_cell_formula_units_Z 64
_cell_length_a 12.724678
_cell_length_b 8.877641
_cell_length_c 28.886297
_cell_angle_alpha 90.000000
_cell_angle_beta 90.000000
_cell_angle_gamma 90.000000
_cell_volume 3263.144097
_symmetry_space_group_name_H-M "P N M A"
_symmetry_group_IT_number 62
_symmetry_cell_setting 'orthorhombic'
loop_
_space_group_symop_operation_xyz
x,y,z
1/2-x,-y,1/2+z
1/2+x,1/2-y,1/2-z
-x,1/2+y,-z
-x,-y,-z
1/2+x,y,1/2-z
1/2-x,1/2+y,1/2+z
x,1/2-y,z
loop_
_atom_site_type_symbol
_atom_site_label
_atom_site_fract_x
_atom_site_fract_y
_atom_site_fract_z
Si Si1 0.089645 0.922176 0.425676
Si Si2 0.369313 0.425000 0.296018
Si Si3 0.330366 0.573058 0.560965
Si Si4 0.785052 0.428482 0.034318
Si Si5 0.544562 0.571846 0.607568
Si Si6 0.439287 0.922880 0.203341
Si Si7 0.388237 0.073735 0.108383
Si Si8 0.168334 0.582300 0.322416
O O1 0.076317 0.750000 0.441365
O O2 0.139857 0.937835 0.375579
O O3 0.167924 0.003703 0.461258
O O4 0.974516 0.997115 0.425093
O O5 0.388527 0.250000 0.285604
O O6 0.438371 0.483399 0.339616
O O7 0.393018 0.521751 0.251261
O O8 0.247780 0.451684 0.308187
O O9 0.336982 0.750000 0.549761
O O10 0.334487 0.480808 0.513749
O O11 0.430447 0.517388 0.590728
O O12 0.226348 0.532622 0.589452
O O13 0.776493 0.250000 0.035679
O O14 0.862460 0.491148 0.074594
O O15 0.551796 0.750000 0.606453
O O16 0.408196 0.750000 0.194548
O O17 0.564174 0.942011 0.207746
O O18 0.392552 0.017124 0.160953
O O19 0.410444 0.250000 0.108010
O O20 0.215068 0.750000 0.313741
#
# Coordination Sequence:
#
# PCOD8253086 Si02
#       8
#     8   8   8   8   8   8   8   8
#     4  10  20  36  60  85 114 151 192 242 295 345
#     4  11  21  35  59  88 116 150 193 242 293 348
#     4  10  22  40  59  83 120 158 193 237 294 354
#     4  11  21  36  60  89 117 151 198 245 292 349
#     4   9  20  38  58  84 118 152 193 244 291 344
#     4  10  22  39  58  84 118 153 194 240 293 354
#     4  10  21  38  60  85 115 155 198 243 297 352
#     4   9  19  36  56  79 110 148 187 237 291 341
#
# _framework density 19.612988000000001
#
# number of rings (size 3 to 8) (size 9 to 14) (size 15 to 20)
#    0.000    2.000    1.250    3.000    0.000    5.000 
#    0.000    3.125    0.000    0.000    0.000    0.000 
#    0.000    0.000    0.000    0.000    0.000    0.000 
#
# Total GULP energy -793725.130067 kJ/mol
# GULP energy per Si atom -12401.955157 kJ/mol
# Density = 1.956835 g / cm^3
# Si number density = 19.612988 Si / 1000 Ang^3
#
#
#
# Elastic Constant Matrix: (Units=GPa)
#
#
# Indices 1 2 3 4 5 6 
#
# 1 111.5525 37.9077 28.7879 0.0000 0.0000 0.0000
# 2 37.9077 63.7355 10.7891 0.0000 0.0000 0.0000
# 3 28.7879 10.7891 48.5702 0.0000 0.0000 0.0000
# 4 0.0000 0.0000 0.0000 32.7343 0.0000 0.0000
# 5 0.0000 0.0000 0.0000 0.0000 18.7471 0.0000
# 6 0.0000 0.0000 0.0000 0.0000 0.0000 28.4660
#
#
#
# Elastic Compliance Matrix: (Units=1/GPa)
#
#
# Indices 1 2 3 4 5 6 
#
# 1 0.012771 -0.006561 -0.006112 0.000000 0.000000 0.000000
# 2 -0.006561 0.019674 -0.000481 0.000000 0.000000 0.000000
# 3 -0.006112 -0.000481 0.024318 0.000000 0.000000 0.000000
# 4 0.000000 0.000000 0.000000 0.030549 0.000000 0.000000
# 5 0.000000 0.000000 0.000000 0.000000 0.053342 0.000000
# 6 0.000000 0.000000 0.000000 0.000000 0.000000 0.035130
#
#
# Mechanical properties :
#
#
# Convention : Reuss Voigt Hill
#
# Bulk Modulus (GPa) = 32.83643 42.09195 37.46419
# Shear Modulus (GPa) = 23.55772 25.74773 24.65272
#
# Velocity S-wave (km/s) = 3.46949 3.62717 3.54921
# Velocity P-wave (km/s) = 5.72960 6.24898 5.99492
#
# Compressibility (1/GPa) = 0.03045398
#
# Stress axis : x y z
#
# Youngs Moduli (GPa) = 78.29990 50.82918 41.12109
#
# Poissons Ratio (x) = 0.33351 0.25134
# Poissons Ratio (y) = 0.51375 0.01979
# Poissons Ratio (z) = 0.47859 0.02446
#
# Static dielectric constant tensor:
#      x y z
#    x 3.760470 0.000000 0.000000 
#    y 0.000000 3.485260 0.000000 
#    z 0.000000 0.000000 3.566440 
# 
# 
# High freq. dielectric constant tensor:
#      x y z
#    x 1.769660 0.000000 0.000000 
#    y 0.000000 1.759400 0.000000 
#    z 0.000000 0.000000 1.763560 
# 
# From -- ./inp_files/32439.got.cif
#   From: 2010.03.12/outbox.cif.g09.slc.cpg/sg62_17_cif.got.tgz:32439.got - 2010.04.10 19:12:36.
