data_PCOD8253644
_publ_section_title
;
Structure prediction by ZEFSAII (Michael W. Deem and Ramdas Pophale) SiO2 
 PCOD8253644
Probable space group: P N M A
;
_chemical_formula_sum "Si O2"
_cell_formula_units_Z 64
_cell_length_a 28.747119
_cell_length_b 8.970481
_cell_length_c 12.863273
_cell_angle_alpha 90.000000
_cell_angle_beta 90.000000
_cell_angle_gamma 90.000000
_cell_volume 3317.122761
_symmetry_space_group_name_H-M "P N M A"
_symmetry_group_IT_number 62
_symmetry_cell_setting 'orthorhombic'
loop_
_space_group_symop_operation_xyz
x,y,z
1/2-x,-y,1/2+z
1/2+x,1/2-y,1/2-z
-x,1/2+y,-z
-x,-y,-z
1/2+x,y,1/2-z
1/2-x,1/2+y,1/2+z
x,1/2-y,z
loop_
_atom_site_type_symbol
_atom_site_label
_atom_site_fract_x
_atom_site_fract_y
_atom_site_fract_z
Si Si1 0.389813 0.927199 0.539349
Si Si2 0.671233 0.578363 0.163198
Si Si3 0.706770 0.922273 0.944030
Si Si4 0.038073 0.077760 0.213599
Si Si5 0.572647 0.926784 0.094983
Si Si6 0.104906 0.573105 0.622002
Si Si7 0.200088 0.926778 0.117387
Si Si8 0.065558 0.923881 0.841379
O O1 0.386539 0.750000 0.537793
O O2 0.421176 0.982971 0.637208
O O3 0.338330 0.996882 0.543948
O O4 0.412487 0.980398 0.432578
O O5 0.661932 0.750000 0.185107
O O6 0.621418 0.508069 0.137641
O O7 0.692380 0.507782 0.266909
O O8 0.706351 0.556933 0.068134
O O9 0.715981 0.750000 0.913965
O O10 0.658193 0.980196 0.894486
O O11 0.747817 0.027517 0.907878
O O12 0.045565 0.250000 0.237133
O O13 0.989539 0.049280 0.155631
O O14 0.035153 0.997936 0.326658
O O15 0.568056 0.750000 0.101385
O O16 0.571047 0.980226 0.973683
O O17 0.105149 0.750000 0.617502
O O18 0.085725 0.514869 0.731654
O O19 0.195251 0.750000 0.106818
O O20 0.077919 0.750000 0.856208
#
# Coordination Sequence:
#
# PCOD8253644 Si02
#       8
#     8   8   8   8   8   8   8   8
#     4  11  23  38  54  78 110 146 188 233 277 324
#     4   8  16  32  53  74 101 137 175 216 264 318
#     4   9  18  35  56  79 107 140 176 221 273 328
#     4  10  21  35  54  82 114 145 183 234 284 323
#     4   9  16  32  58  81 104 142 185 222 266 328
#     4   8  17  35  58  81 110 147 184 223 277 335
#     4  11  21  35  56  82 105 137 182 226 273 330
#     4  10  21  38  57  80 114 152 185 226 279 336
#
# _framework density 19.293828000000001
#
# number of rings (size 3 to 8) (size 9 to 14) (size 15 to 20)
#    0.000    2.500    1.250    2.625    0.000    2.500 
#    0.000    7.500    0.000    0.000    0.000    0.000 
#    0.000    0.000    0.000    0.000    0.000    0.000 
#
# Total GULP energy -793237.141973 kJ/mol
# GULP energy per Si atom -12394.330343 kJ/mol
# Density = 1.924991 g / cm^3
# Si number density = 19.293828 Si / 1000 Ang^3
#
#
#
# Elastic Constant Matrix: (Units=GPa)
#
#
# Indices 1 2 3 4 5 6 
#
# 1 50.4992 20.0395 27.7450 0.0000 0.0000 0.0000
# 2 20.0395 49.3435 33.9886 0.0000 0.0000 0.0000
# 3 27.7450 33.9886 111.1941 0.0000 0.0000 0.0000
# 4 0.0000 0.0000 0.0000 23.3384 0.0000 0.0000
# 5 0.0000 0.0000 0.0000 0.0000 26.8635 0.0000
# 6 0.0000 0.0000 0.0000 0.0000 0.0000 26.3114
#
#
#
# Elastic Compliance Matrix: (Units=1/GPa)
#
#
# Indices 1 2 3 4 5 6 
#
# 1 0.024909 -0.007391 -0.003956 0.000000 0.000000 0.000000
# 2 -0.007391 0.027864 -0.006673 0.000000 0.000000 0.000000
# 3 -0.003956 -0.006673 0.012020 0.000000 0.000000 0.000000
# 4 0.000000 0.000000 0.000000 0.042848 0.000000 0.000000
# 5 0.000000 0.000000 0.000000 0.000000 0.037225 0.000000
# 6 0.000000 0.000000 0.000000 0.000000 0.000000 0.038006
#
#
# Mechanical properties :
#
#
# Convention : Reuss Voigt Hill
#
# Bulk Modulus (GPa) = 34.77902 41.62034 38.19968
# Shear Modulus (GPa) = 21.88211 23.92022 22.90117
#
# Velocity S-wave (km/s) = 3.37137 3.52488 3.44898
# Velocity P-wave (km/s) = 5.76368 6.17940 5.97516
#
# Compressibility (1/GPa) = 0.02875297
#
# Stress axis : x y z
#
# Youngs Moduli (GPa) = 40.14651 35.88827 83.19395
#
# Poissons Ratio (x) = 0.26525 0.32911
# Poissons Ratio (y) = 0.29673 0.55515
# Poissons Ratio (z) = 0.15882 0.23948
#
# Static dielectric constant tensor:
#      x y z
#    x 3.530980 0.000000 0.000000 
#    y 0.000000 3.169900 0.000000 
#    z 0.000000 0.000000 3.887670 
# 
# 
# High freq. dielectric constant tensor:
#      x y z
#    x 1.747990 0.000000 0.000000 
#    y 0.000000 1.719520 0.000000 
#    z 0.000000 0.000000 1.762620 
# 
# From -- ./inp_files/15928.got.cif
#   From: 2010.03.12/outbox.cif.g09.slc.cpg/sg62_8_cif.got.tgz:15928.got - 2010.04.10 19:12:36.
