data_PCOD8253423
_publ_section_title
;
Structure prediction by ZEFSAII (Michael W. Deem and Ramdas Pophale) SiO2 
 PCOD8253423
Probable space group: P N M A
;
_chemical_formula_sum "Si O2"
_cell_formula_units_Z 48
_cell_length_a 16.672282
_cell_length_b 15.392423
_cell_length_c 8.878272
_cell_angle_alpha 90.000000
_cell_angle_beta 90.000000
_cell_angle_gamma 90.000000
_cell_volume 2278.402683
_symmetry_space_group_name_H-M "P N M A"
_symmetry_group_IT_number 62
_symmetry_cell_setting 'orthorhombic'
loop_
_space_group_symop_operation_xyz
x,y,z
1/2-x,-y,1/2+z
1/2+x,1/2-y,1/2-z
-x,1/2+y,-z
-x,-y,-z
1/2+x,y,1/2-z
1/2-x,1/2+y,1/2+z
x,1/2-y,z
loop_
_atom_site_type_symbol
_atom_site_label
_atom_site_fract_x
_atom_site_fract_y
_atom_site_fract_z
Si Si1 0.914550 0.589199 0.761507
Si Si2 0.139523 0.935614 0.040713
Si Si3 0.824564 0.750000 0.284462
Si Si4 0.190074 0.750000 0.727710
Si Si5 0.828994 0.580213 0.460273
Si Si6 0.337840 0.250000 0.569289
Si Si7 0.595380 0.924475 0.791597
Si Si8 0.858060 0.750000 0.934983
O O1 0.846712 0.600491 0.634670
O O2 0.906504 0.665108 0.883924
O O3 0.001442 0.592776 0.685817
O O4 0.903735 0.497222 0.842143
O O5 0.114115 0.962930 0.873439
O O6 0.235135 0.938736 0.059835
O O7 0.108464 0.837099 0.077105
O O8 0.858130 0.662920 0.363315
O O9 0.727752 0.750000 0.297941
O O10 0.852083 0.750000 0.113593
O O11 0.140730 0.665370 0.679164
O O12 0.270870 0.750000 0.635597
O O13 0.208678 0.750000 0.907000
O O14 0.877255 0.494618 0.413667
#
# Coordination Sequence:
#
# PCOD8253423 Si02
#       8
#     8   8   4   4   8   4   8   4
#     4  12  24  39  61  92 127 164 204 259 316 364
#     4  10  20  38  63  88 119 163 210 254 303 369
#     4  10  22  38  62  90 116 150 205 262 300 352
#     4  10  21  40  65  88 117 162 209 254 308 374
#     4  11  22  41  62  87 122 165 208 254 308 371
#     4   8  18  37  59  86 117 151 197 256 304 349
#     4  11  23  40  61  92 128 161 203 260 314 362
#     4  12  23  39  64  90 116 161 213 254 306 375
#
# _framework density 21.067391000000001
#
# number of rings (size 3 to 8) (size 9 to 14) (size 15 to 20)
#    0.000    1.333    0.000    8.000    0.000    4.000 
#    0.000    0.833    0.000    2.000    0.000    0.000 
#    0.000    0.000    0.000    0.000    0.000    0.000 
#
# Total GULP energy -595411.513808 kJ/mol
# GULP energy per Si atom -12404.406538 kJ/mol
# Density = 2.101944 g / cm^3
# Si number density = 21.067391 Si / 1000 Ang^3
#
#
#
# Elastic Constant Matrix: (Units=GPa)
#
#
# Indices 1 2 3 4 5 6 
#
# 1 64.5739 15.2642 -9.7528 0.0000 0.0000 0.0000
# 2 15.2642 137.0599 39.3883 0.0000 0.0000 0.0000
# 3 -9.7528 39.3883 85.4842 0.0000 0.0000 0.0000
# 4 0.0000 0.0000 0.0000 34.9853 0.0000 0.0000
# 5 0.0000 0.0000 0.0000 0.0000 22.1856 0.0000
# 6 0.0000 0.0000 0.0000 0.0000 0.0000 16.8739
#
#
#
# Elastic Compliance Matrix: (Units=1/GPa)
#
#
# Indices 1 2 3 4 5 6 
#
# 1 0.016617 -0.002761 0.003168 0.000000 0.000000 0.000000
# 2 -0.002761 0.008868 -0.004401 0.000000 0.000000 0.000000
# 3 0.003168 -0.004401 0.014087 0.000000 0.000000 0.000000
# 4 0.000000 0.000000 0.000000 0.028583 0.000000 0.000000
# 5 0.000000 0.000000 0.000000 0.000000 0.045074 0.000000
# 6 0.000000 0.000000 0.000000 0.000000 0.000000 0.059263
#
#
# Mechanical properties :
#
#
# Convention : Reuss Voigt Hill
#
# Bulk Modulus (GPa) = 31.66102 41.87971 36.77036
# Shear Modulus (GPa) = 26.17653 30.95684 28.56668
#
# Velocity S-wave (km/s) = 3.52876 3.83746 3.68634
# Velocity P-wave (km/s) = 5.62707 6.28943 5.96744
#
# Compressibility (1/GPa) = 0.03158458
#
# Stress axis : x y z
#
# Youngs Moduli (GPa) = 60.17827 112.75966 70.98500
#
# Poissons Ratio (x) = 0.31134 -0.22489
# Poissons Ratio (y) = 0.16616 0.31243
# Poissons Ratio (z) = -0.19065 0.49629
#
# Static dielectric constant tensor:
#      x y z
#    x 3.586000 0.000000 0.000000 
#    y 0.000000 4.248030 0.000000 
#    z 0.000000 0.000000 3.707060 
# 
# 
# High freq. dielectric constant tensor:
#      x y z
#    x 1.812470 0.000000 0.000000 
#    y 0.000000 1.848690 0.000000 
#    z 0.000000 0.000000 1.818520 
# 
# From -- ./inp_files/7689.got.cif
#   From: 2010.03.12/outbox.cif.g09.slc.cpg/sg62_4_cif.got.tgz:7689.got - 2010.04.10 19:12:36.
