data_PCOD8253260
_publ_section_title
;
Structure prediction by ZEFSAII (Michael W. Deem and Ramdas Pophale) SiO2 
 PCOD8253260
Probable space group: P N M A
;
_chemical_formula_sum "Si O2"
_cell_formula_units_Z 48
_cell_length_a 11.992117
_cell_length_b 8.917795
_cell_length_c 23.275611
_cell_angle_alpha 90.000000
_cell_angle_beta 90.000000
_cell_angle_gamma 90.000000
_cell_volume 2489.169277
_symmetry_space_group_name_H-M "P N M A"
_symmetry_group_IT_number 62
_symmetry_cell_setting 'orthorhombic'
loop_
_space_group_symop_operation_xyz
x,y,z
1/2-x,-y,1/2+z
1/2+x,1/2-y,1/2-z
-x,1/2+y,-z
-x,-y,-z
1/2+x,y,1/2-z
1/2-x,1/2+y,1/2+z
x,1/2-y,z
loop_
_atom_site_type_symbol
_atom_site_label
_atom_site_fract_x
_atom_site_fract_y
_atom_site_fract_z
Si Si1 0.406733 0.077457 0.334964
Si Si2 0.688382 0.926924 0.957274
Si Si3 0.342546 0.924689 0.647224
Si Si4 0.788080 0.924366 0.577942
Si Si5 0.836466 0.925419 0.280691
Si Si6 0.994158 0.572627 0.384152
O O1 0.406723 0.250000 0.315334
O O2 0.529323 0.024068 0.354180
O O3 0.327281 0.051331 0.389010
O O4 0.366369 0.979152 0.282217
O O5 0.666304 0.750000 0.960369
O O6 0.787440 0.969095 0.913452
O O7 0.575008 0.008573 0.938003
O O8 0.724475 0.987715 0.018688
O O9 0.330253 0.750000 0.658846
O O10 0.280909 0.005559 0.699785
O O11 0.812761 0.750000 0.566585
O O12 0.885765 0.994712 0.616722
O O13 0.819789 0.750000 0.279788
O O14 0.934095 0.972552 0.324804
O O15 0.007259 0.750000 0.391462
#
# Coordination Sequence:
#
# PCOD8253260 Si02
#       6
#     8   8   8   8   8   8
#     4  10  23  40  58  83 115 154 194 233 281 343
#     4  10  20  37  61  86 114 150 191 237 286 339
#     4   9  20  40  62  83 111 151 194 232 282 346
#     4  11  23  37  56  85 118 152 191 235 283 338
#     4  10  22  38  59  86 115 147 188 240 291 337
#     4  10  21  38  59  85 116 151 190 237 288 339
#
# _framework density 19.283541
#
# number of rings (size 3 to 8) (size 9 to 14) (size 15 to 20)
#    0.000    2.000    0.000    2.500    2.333    5.333 
#    0.000    0.000    0.000    0.000    0.000    0.000 
#    0.000    0.000    0.000    0.000    0.000    0.000 
#
# Total GULP energy -595449.098495 kJ/mol
# GULP energy per Si atom -12405.189552 kJ/mol
# Density = 1.923965 g / cm^3
# Si number density = 19.283541 Si / 1000 Ang^3
#
#
#
# Elastic Constant Matrix: (Units=GPa)
#
#
# Indices 1 2 3 4 5 6 
#
# 1 118.9482 23.7273 7.3894 0.0000 0.0000 0.0000
# 2 23.7273 44.8190 4.0642 0.0000 0.0000 0.0000
# 3 7.3894 4.0642 48.2338 0.0000 0.0000 0.0000
# 4 0.0000 0.0000 0.0000 30.2544 0.0000 0.0000
# 5 0.0000 0.0000 0.0000 0.0000 23.1791 0.0000
# 6 0.0000 0.0000 0.0000 0.0000 0.0000 21.9232
#
#
#
# Elastic Compliance Matrix: (Units=1/GPa)
#
#
# Indices 1 2 3 4 5 6 
#
# 1 0.009451 -0.004909 -0.001034 0.000000 0.000000 0.000000
# 2 -0.004909 0.025034 -0.001357 0.000000 0.000000 0.000000
# 3 -0.001034 -0.001357 0.021005 0.000000 0.000000 0.000000
# 4 0.000000 0.000000 0.000000 0.033053 0.000000 0.000000
# 5 0.000000 0.000000 0.000000 0.000000 0.043142 0.000000
# 6 0.000000 0.000000 0.000000 0.000000 0.000000 0.045614
#
#
# Mechanical properties :
#
#
# Convention : Reuss Voigt Hill
#
# Bulk Modulus (GPa) = 24.45692 31.37362 27.91527
# Shear Modulus (GPa) = 24.32737 26.85936 25.59337
#
# Velocity S-wave (km/s) = 3.55570 3.73616 3.64705
# Velocity P-wave (km/s) = 5.43762 5.90904 5.67822
#
# Compressibility (1/GPa) = 0.04088822
#
# Stress axis : x y z
#
# Youngs Moduli (GPa) = 105.81379 39.94554 47.60741
#
# Poissons Ratio (x) = 0.19611 0.04923
# Poissons Ratio (y) = 0.51948 0.06462
# Poissons Ratio (z) = 0.10943 0.05422
#
# Static dielectric constant tensor:
#      x y z
#    x 3.696080 0.000000 0.000000 
#    y 0.000000 3.567460 0.000000 
#    z 0.000000 0.000000 3.478220 
# 
# 
# High freq. dielectric constant tensor:
#      x y z
#    x 1.755890 0.000000 0.000000 
#    y 0.000000 1.757960 0.000000 
#    z 0.000000 0.000000 1.752480 
# 
# From -- ./inp_files/29238.got.cif
#   From: 2010.03.12/outbox.cif.g09.slc.cpg/sg62_15_cif.got.tgz:29238.got - 2010.04.10 19:12:36.
