data_PCOD8253025
_publ_section_title
;
Structure prediction by ZEFSAII (Michael W. Deem and Ramdas Pophale) SiO2 
 PCOD8253025
Probable space group: P N M A
;
_chemical_formula_sum "Si O2"
_cell_formula_units_Z 64
_cell_length_a 15.740510
_cell_length_b 12.274928
_cell_length_c 17.038203
_cell_angle_alpha 90.000000
_cell_angle_beta 90.000000
_cell_angle_gamma 90.000000
_cell_volume 3292.012998
_symmetry_space_group_name_H-M "P N M A"
_symmetry_group_IT_number 62
_symmetry_cell_setting 'orthorhombic'
loop_
_space_group_symop_operation_xyz
x,y,z
1/2-x,-y,1/2+z
1/2+x,1/2-y,1/2-z
-x,1/2+y,-z
-x,-y,-z
1/2+x,y,1/2-z
1/2-x,1/2+y,1/2+z
x,1/2-y,z
loop_
_atom_site_type_symbol
_atom_site_label
_atom_site_fract_x
_atom_site_fract_y
_atom_site_fract_z
Si Si1 0.947065 0.964544 0.074562
Si Si2 0.555787 0.871749 0.140775
Si Si3 0.326475 0.122773 0.325769
Si Si4 0.754550 0.519728 0.829915
Si Si5 0.180427 0.462358 0.427332
Si Si6 0.378202 0.873721 0.078341
Si Si7 0.792768 0.871849 0.983940
Si Si8 0.913655 0.130101 0.812828
O O1 0.016493 0.901519 0.124146
O O2 0.903375 0.057640 0.130259
O O3 0.877127 0.885755 0.036332
O O4 0.000000 0.000000 0.000000
O O5 0.583967 0.750000 0.111149
O O6 0.472472 0.914087 0.097265
O O7 0.534660 0.865737 0.232258
O O8 0.625772 0.964712 0.130927
O O9 0.352983 0.250000 0.317594
O O10 0.299000 0.075725 0.240629
O O11 0.244055 0.114131 0.380000
O O12 0.689527 0.443404 0.874907
O O13 0.798855 0.605908 0.889968
O O14 0.833277 0.448154 0.800418
O O15 0.128072 0.382762 0.484016
O O16 0.223599 0.546434 0.485402
O O17 0.365421 0.750000 0.105379
O O18 0.760616 0.750000 0.995981
O O19 0.878478 0.250000 0.835515
#
# Coordination Sequence:
#
# PCOD8253025 Si02
#       8
#     8   8   8   8   8   8   8   8
#     4  11  23  42  61  93 125 162 211 266 312 373
#     4  10  20  36  58  85 117 155 197 248 305 363
#     4  11  24  41  63  88 125 165 204 254 315 378
#     4  11  21  40  60  87 126 160 207 254 305 374
#     4  10  20  37  59  85 120 152 199 251 300 365
#     4  10  21  36  59  87 115 154 198 249 306 357
#     4  10  21  37  60  87 119 161 206 253 310 367
#     4  11  22  38  61  88 122 161 205 256 312 369
#
# _framework density 19.440994
#
# number of rings (size 3 to 8) (size 9 to 14) (size 15 to 20)
#    0.000    1.500    2.500    3.000    0.000    1.000 
#    0.000    1.250    0.000    3.000    0.000    0.000 
#    0.000    0.000    0.000    0.000    0.000    0.000 
#
# Total GULP energy -792964.681576 kJ/mol
# GULP energy per Si atom -12390.073150 kJ/mol
# Density = 1.939674 g / cm^3
# Si number density = 19.440994 Si / 1000 Ang^3
#
#
#
# Elastic Constant Matrix: (Units=GPa)
#
#
# Indices 1 2 3 4 5 6 
#
# 1 64.1132 21.2198 27.8556 0.0000 0.0000 0.0000
# 2 21.2198 75.3583 30.2587 0.0000 0.0000 0.0000
# 3 27.8556 30.2587 111.3098 0.0000 0.0000 0.0000
# 4 0.0000 0.0000 0.0000 27.3797 0.0000 0.0000
# 5 0.0000 0.0000 0.0000 0.0000 38.5629 0.0000
# 6 0.0000 0.0000 0.0000 0.0000 0.0000 43.8801
#
#
#
# Elastic Compliance Matrix: (Units=1/GPa)
#
#
# Indices 1 2 3 4 5 6 
#
# 1 0.018393 -0.003739 -0.003586 0.000000 0.000000 0.000000
# 2 -0.003739 0.015656 -0.003320 0.000000 0.000000 0.000000
# 3 -0.003586 -0.003320 0.010784 0.000000 0.000000 0.000000
# 4 0.000000 0.000000 0.000000 0.036523 0.000000 0.000000
# 5 0.000000 0.000000 0.000000 0.000000 0.025932 0.000000
# 6 0.000000 0.000000 0.000000 0.000000 0.000000 0.022789
#
#
# Mechanical properties :
#
#
# Convention : Reuss Voigt Hill
#
# Bulk Modulus (GPa) = 42.47819 45.49439 43.98629
# Shear Modulus (GPa) = 31.40376 33.39436 32.39906
#
# Velocity S-wave (km/s) = 4.02349 4.14905 4.08675
# Velocity P-wave (km/s) = 6.59407 6.81211 6.70398
#
# Compressibility (1/GPa) = 0.02354149
#
# Stress axis : x y z
#
# Youngs Moduli (GPa) = 54.36790 63.87319 92.72954
#
# Poissons Ratio (x) = 0.23883 0.33257
# Poissons Ratio (y) = 0.20329 0.30788
# Poissons Ratio (z) = 0.19499 0.21207
#
# Static dielectric constant tensor:
#      x y z
#    x 3.574940 0.000000 0.000000 
#    y 0.000000 3.348200 0.000000 
#    z 0.000000 0.000000 3.616200 
# 
# 
# High freq. dielectric constant tensor:
#      x y z
#    x 1.754660 0.000000 0.000000 
#    y 0.000000 1.755120 0.000000 
#    z 0.000000 0.000000 1.773330 
# 
# From -- ./inp_files/24032.got.cif
#   From: 2010.03.12/outbox.cif.g09.slc.cpg/sg62_13_cif.got.tgz:24032.got - 2010.04.10 19:12:36.
