data_PCOD8253756
_publ_section_title
;
Structure prediction by ZEFSAII (Michael W. Deem and Ramdas Pophale) SiO2 
 PCOD8253756
Probable space group: P N M A
;
_chemical_formula_sum "Si O2"
_cell_formula_units_Z 48
_cell_length_a 11.723054
_cell_length_b 18.718547
_cell_length_c 11.595057
_cell_angle_alpha 90.000000
_cell_angle_beta 90.000000
_cell_angle_gamma 90.000000
_cell_volume 2544.402348
_symmetry_space_group_name_H-M "P N M A"
_symmetry_group_IT_number 62
_symmetry_cell_setting 'orthorhombic'
loop_
_space_group_symop_operation_xyz
x,y,z
1/2-x,-y,1/2+z
1/2+x,1/2-y,1/2-z
-x,1/2+y,-z
-x,-y,-z
1/2+x,y,1/2-z
1/2-x,1/2+y,1/2+z
x,1/2-y,z
loop_
_atom_site_type_symbol
_atom_site_label
_atom_site_fract_x
_atom_site_fract_y
_atom_site_fract_z
Si Si1 0.681264 0.907847 0.095551
Si Si2 0.745613 0.668858 0.321143
Si Si3 0.831399 0.931594 0.648561
Si Si4 0.386515 0.089986 0.495876
Si Si5 0.956981 0.832337 0.480286
Si Si6 0.371616 0.566838 0.585733
O O1 0.741021 0.883521 0.213086
O O2 0.579242 0.854956 0.066377
O O3 0.634998 0.988114 0.111875
O O4 0.773054 0.901792 0.994277
O O5 0.729655 0.750000 0.280190
O O6 0.647660 0.652216 0.415189
O O7 0.868542 0.654940 0.376943
O O8 0.702816 0.914350 0.609064
O O9 0.922932 0.879310 0.590365
O O10 0.836268 0.918305 0.783923
O O11 0.510177 0.107229 0.443333
O O12 0.388148 0.017203 0.568493
O O13 0.959287 0.750000 0.518839
#
# Coordination Sequence:
#
# PCOD8253756 Si02
#       6
#     8   8   8   8   8   8
#     4  11  22  36  62  93 116 151 205 248 295 352
#     4  10  21  39  60  84 120 158 194 245 303 351
#     4  10  21  38  63  86 119 157 196 246 300 352
#     4   9  20  38  57  88 121 151 193 242 294 357
#     4  10  23  41  59  86 121 161 199 241 302 360
#     4  10  21  36  60  91 116 150 197 247 293 350
#
# _framework density 18.864940000000001
#
# number of rings (size 3 to 8) (size 9 to 14) (size 15 to 20)
#    0.000    2.000    1.667    1.000    4.667    1.333 
#    0.000    3.333    0.000    0.000    0.000    0.000 
#    0.000    0.000    0.000    0.000    0.000    0.000 
#
# Total GULP energy -595433.321438 kJ/mol
# GULP energy per Si atom -12404.860863 kJ/mol
# Density = 1.882200 g / cm^3
# Si number density = 18.864940 Si / 1000 Ang^3
#
#
#
# Elastic Constant Matrix: (Units=GPa)
#
#
# Indices 1 2 3 4 5 6 
#
# 1 104.4590 36.4948 49.8870 0.0000 0.0000 0.0000
# 2 36.4948 89.4745 49.6258 0.0000 0.0000 0.0000
# 3 49.8870 49.6258 145.2501 0.0000 0.0000 0.0000
# 4 0.0000 0.0000 0.0000 23.8397 0.0000 0.0000
# 5 0.0000 0.0000 0.0000 0.0000 20.5093 0.0000
# 6 0.0000 0.0000 0.0000 0.0000 0.0000 23.4263
#
#
#
# Elastic Compliance Matrix: (Units=1/GPa)
#
#
# Indices 1 2 3 4 5 6 
#
# 1 0.012179 -0.003267 -0.003067 0.000000 0.000000 0.000000
# 2 -0.003267 0.014666 -0.003889 0.000000 0.000000 0.000000
# 3 -0.003067 -0.003889 0.009267 0.000000 0.000000 0.000000
# 4 0.000000 0.000000 0.000000 0.041947 0.000000 0.000000
# 5 0.000000 0.000000 0.000000 0.000000 0.048758 0.000000
# 6 0.000000 0.000000 0.000000 0.000000 0.000000 0.042687
#
#
# Mechanical properties :
#
#
# Convention : Reuss Voigt Hill
#
# Bulk Modulus (GPa) = 63.82882 67.91098 65.86990
# Shear Modulus (GPa) = 25.61867 27.10012 26.35940
#
# Velocity S-wave (km/s) = 3.68911 3.79427 3.74206
# Velocity P-wave (km/s) = 7.21485 7.43452 7.32551
#
# Compressibility (1/GPa) = 0.01566690
#
# Stress axis : x y z
#
# Youngs Moduli (GPa) = 82.10811 68.18709 107.91421
#
# Poissons Ratio (x) = 0.22274 0.33097
# Poissons Ratio (y) = 0.26821 0.41964
# Poissons Ratio (z) = 0.25182 0.26516
#
# Static dielectric constant tensor:
#      x y z
#    x 3.510650 0.000000 0.000000 
#    y 0.000000 3.428210 0.000000 
#    z 0.000000 0.000000 3.385460 
# 
# 
# High freq. dielectric constant tensor:
#      x y z
#    x 1.738030 0.000000 0.000000 
#    y 0.000000 1.724340 0.000000 
#    z 0.000000 0.000000 1.736830 
# 
# From -- ./inp_files/12246.got.cif
#   From: 2010.03.12/outbox.cif.g09.slc.cpg/sg62_7_cif.got.tgz:12246.got - 2010.04.10 19:12:36.
