data_PCOD8253017
_publ_section_title
;
Structure prediction by ZEFSAII (Michael W. Deem and Ramdas Pophale) SiO2 
 PCOD8253017
Probable space group: P N M A
;
_chemical_formula_sum "Si O2"
_cell_formula_units_Z 48
_cell_length_a 26.513304
_cell_length_b 10.318391
_cell_length_c 8.887172
_cell_angle_alpha 90.000000
_cell_angle_beta 90.000000
_cell_angle_gamma 90.000000
_cell_volume 2431.304857
_symmetry_space_group_name_H-M "P N M A"
_symmetry_group_IT_number 62
_symmetry_cell_setting 'orthorhombic'
loop_
_space_group_symop_operation_xyz
x,y,z
1/2-x,-y,1/2+z
1/2+x,1/2-y,1/2-z
-x,1/2+y,-z
-x,-y,-z
1/2+x,y,1/2-z
1/2-x,1/2+y,1/2+z
x,1/2-y,z
loop_
_atom_site_type_symbol
_atom_site_label
_atom_site_fract_x
_atom_site_fract_y
_atom_site_fract_z
Si Si1 0.409932 0.599129 0.881962
Si Si2 0.932624 0.605914 0.288187
Si Si3 0.614038 0.892388 0.569704
Si Si4 0.530667 0.954092 0.356691
Si Si5 0.780316 0.396131 0.925823
Si Si6 0.201597 0.101576 0.316182
O O1 0.406050 0.750000 0.898098
O O2 0.449113 0.569058 0.749293
O O3 0.354481 0.545511 0.843272
O O4 0.428385 0.546160 0.044080
O O5 0.907663 0.750000 0.275107
O O6 0.905123 0.504808 0.179103
O O7 0.991567 0.626260 0.245264
O O8 0.613795 0.750000 0.648743
O O9 0.579020 0.877674 0.420256
O O10 0.670235 0.930933 0.522325
O O11 0.500000 0.000000 0.500000
O O12 0.785396 0.250000 0.858357
O O13 0.731078 0.403678 0.028066
O O14 0.771675 0.504034 0.799139
O O15 0.201257 0.250000 0.253373
#
# Coordination Sequence:
#
# PCOD8253017 Si02
#       6
#     8   8   8   8   8   8
#     4  10  21  39  60  87 120 155 197 247 297 351
#     4  10  22  37  59  90 119 155 203 246 291 351
#     4  10  21  38  58  85 121 159 195 241 297 351
#     4  10  20  36  58  84 114 155 195 241 290 348
#     4  10  22  40  61  89 122 153 196 247 295 353
#     4  10  22  40  63  88 118 156 197 242 296 354
#
# _framework density 19.742484000000001
#
# number of rings (size 3 to 8) (size 9 to 14) (size 15 to 20)
#    0.000    2.000    1.667    1.000    2.333    6.667 
#    0.000    2.500    0.000    0.000    0.000    0.000 
#    0.000    0.000    0.000    0.000    0.000    0.000 
#
# Total GULP energy -594836.566737 kJ/mol
# GULP energy per Si atom -12392.428474 kJ/mol
# Density = 1.969755 g / cm^3
# Si number density = 19.742484 Si / 1000 Ang^3
#
#
#
# Elastic Constant Matrix: (Units=GPa)
#
#
# Indices 1 2 3 4 5 6 
#
# 1 67.6883 21.3507 29.8875 0.0000 0.0000 0.0000
# 2 21.3507 91.4042 49.3074 0.0000 0.0000 0.0000
# 3 29.8875 49.3074 103.1349 0.0000 0.0000 0.0000
# 4 0.0000 0.0000 0.0000 34.7870 0.0000 0.0000
# 5 0.0000 0.0000 0.0000 0.0000 28.5582 0.0000
# 6 0.0000 0.0000 0.0000 0.0000 0.0000 26.6424
#
#
#
# Elastic Compliance Matrix: (Units=1/GPa)
#
#
# Indices 1 2 3 4 5 6 
#
# 1 0.017155 -0.001786 -0.004117 0.000000 0.000000 0.000000
# 2 -0.001786 0.014928 -0.006620 0.000000 0.000000 0.000000
# 3 -0.004117 -0.006620 0.014054 0.000000 0.000000 0.000000
# 4 0.000000 0.000000 0.000000 0.028746 0.000000 0.000000
# 5 0.000000 0.000000 0.000000 0.000000 0.035016 0.000000
# 6 0.000000 0.000000 0.000000 0.000000 0.000000 0.037534
#
#
# Mechanical properties :
#
#
# Convention : Reuss Voigt Hill
#
# Bulk Modulus (GPa) = 47.41275 51.47985 49.44630
# Shear Modulus (GPa) = 27.85348 28.77630 28.31489
#
# Velocity S-wave (km/s) = 3.76019 3.82197 3.79121
# Velocity P-wave (km/s) = 6.55132 6.75344 6.65314
#
# Compressibility (1/GPa) = 0.02109137
#
# Stress axis : x y z
#
# Youngs Moduli (GPa) = 58.29196 66.98607 71.15431
#
# Poissons Ratio (x) = 0.11964 0.29298
# Poissons Ratio (y) = 0.10411 0.47101
# Poissons Ratio (z) = 0.24002 0.44342
#
# Static dielectric constant tensor:
#      x y z
#    x 4.002160 0.000000 0.000000 
#    y 0.000000 3.490340 0.000000 
#    z 0.000000 0.000000 3.639140 
# 
# 
# High freq. dielectric constant tensor:
#      x y z
#    x 1.781140 0.000000 0.000000 
#    y 0.000000 1.762740 0.000000 
#    z 0.000000 0.000000 1.760900 
# 
# From -- ./inp_files/10182.got.cif
#   From: 2010.03.12/outbox.cif.g09.slc.cpg/sg62_6_cif.got.tgz:10182.got - 2010.04.10 19:12:36.
