data_PCOD8253949
_publ_section_title
;
Structure prediction by ZEFSAII (Michael W. Deem and Ramdas Pophale) SiO2 
 PCOD8253949
Probable space group: P N M A
;
_chemical_formula_sum "Si O2"
_cell_formula_units_Z 40
_cell_length_a 13.222337
_cell_length_b 20.316524
_cell_length_c 7.795091
_cell_angle_alpha 90.000000
_cell_angle_beta 90.000000
_cell_angle_gamma 90.000000
_cell_volume 2094.010316
_symmetry_space_group_name_H-M "P N M A"
_symmetry_group_IT_number 62
_symmetry_cell_setting 'orthorhombic'
loop_
_space_group_symop_operation_xyz
x,y,z
1/2-x,-y,1/2+z
1/2+x,1/2-y,1/2-z
-x,1/2+y,-z
-x,-y,-z
1/2+x,y,1/2-z
1/2-x,1/2+y,1/2+z
x,1/2-y,z
loop_
_atom_site_type_symbol
_atom_site_label
_atom_site_fract_x
_atom_site_fract_y
_atom_site_fract_z
Si Si1 0.475419 0.115838 0.898363
Si Si2 0.196992 0.076062 0.673916
Si Si3 0.630012 0.674499 0.415652
Si Si4 0.280860 0.061923 0.021167
Si Si5 0.373157 0.175855 0.198439
O O1 0.585043 0.084063 0.898987
O O2 0.455975 0.153270 0.718925
O O3 0.389529 0.059177 0.920630
O O4 0.464915 0.165225 0.062283
O O5 0.266288 0.134616 0.605354
O O6 0.193794 0.075780 0.881095
O O7 0.242018 0.006057 0.615189
O O8 0.658517 0.750000 0.382175
O O9 0.587254 0.663682 0.608116
O O10 0.283499 0.123297 0.155464
O O11 0.330346 0.250000 0.179260
#
# Coordination Sequence:
#
# PCOD8253949 Si02
#       5
#     8   8   8   8   8
#     4   9  21  37  60  82 117 153 197 239 292 354
#     4  11  20  39  60  88 119 161 193 247 295 357
#     4  10  21  38  59  86 118 153 198 249 297 349
#     4   9  21  36  59  85 119 149 200 240 295 346
#     4   9  19  39  58  79 118 154 188 246 294 341
#
# _framework density 19.102101000000001
#
# number of rings (size 3 to 8) (size 9 to 14) (size 15 to 20)
#    1.200    1.200    0.000    2.400    0.000    1.600 
#    7.200    3.000    0.000    0.000    0.000    0.000 
#    0.000    0.000    0.000    0.000    0.000    0.000 
#
# Total GULP energy -495662.870766 kJ/mol
# GULP energy per Si atom -12391.571769 kJ/mol
# Density = 1.905862 g / cm^3
# Si number density = 19.102101 Si / 1000 Ang^3
#
#
#
# Elastic Constant Matrix: (Units=GPa)
#
#
# Indices 1 2 3 4 5 6 
#
# 1 39.3281 11.0626 6.9809 0.0000 0.0000 0.0000
# 2 11.0626 118.8419 42.6586 0.0000 0.0000 0.0000
# 3 6.9809 42.6586 136.8360 0.0000 0.0000 0.0000
# 4 0.0000 0.0000 0.0000 33.5682 0.0000 0.0000
# 5 0.0000 0.0000 0.0000 0.0000 14.8920 0.0000
# 6 0.0000 0.0000 0.0000 0.0000 0.0000 13.3221
#
#
#
# Elastic Compliance Matrix: (Units=1/GPa)
#
#
# Indices 1 2 3 4 5 6 
#
# 1 0.026162 -0.002203 -0.000648 0.000000 0.000000 0.000000
# 2 -0.002203 0.009660 -0.002899 0.000000 0.000000 0.000000
# 3 -0.000648 -0.002899 0.008245 0.000000 0.000000 0.000000
# 4 0.000000 0.000000 0.000000 0.029790 0.000000 0.000000
# 5 0.000000 0.000000 0.000000 0.000000 0.067150 0.000000
# 6 0.000000 0.000000 0.000000 0.000000 0.000000 0.075063
#
#
# Mechanical properties :
#
#
# Convention : Reuss Voigt Hill
#
# Bulk Modulus (GPa) = 30.70585 46.26778 38.48682
# Shear Modulus (GPa) = 20.97087 27.97672 24.47379
#
# Velocity S-wave (km/s) = 3.31695 3.83115 3.58328
# Velocity P-wave (km/s) = 5.54788 6.62149 6.10832
#
# Compressibility (1/GPa) = 0.03256709
#
# Stress axis : x y z
#
# Youngs Moduli (GPa) = 38.22377 103.51692 121.28703
#
# Poissons Ratio (x) = 0.22802 0.07859
# Poissons Ratio (y) = 0.08420 0.35164
# Poissons Ratio (z) = 0.02477 0.30012
#
# Static dielectric constant tensor:
#      x y z
#    x 2.929730 0.000000 0.000000 
#    y 0.000000 3.437870 0.000000 
#    z 0.000000 0.000000 3.704340 
# 
# 
# High freq. dielectric constant tensor:
#      x y z
#    x 1.693650 0.000000 0.000000 
#    y 0.000000 1.747800 0.000000 
#    z 0.000000 0.000000 1.760900 
# 
# From -- ./inp_files/6280.got.cif
#   From: 2010.03.12/outbox.cif.g09.slc.cpg/sg62_4_cif.got.tgz:6280.got - 2010.04.10 19:12:36.
