data_PCOD8253959
_publ_section_title
;
Structure prediction by ZEFSAII (Michael W. Deem and Ramdas Pophale) SiO2 
 PCOD8253959
Probable space group: P N M A
;
_chemical_formula_sum "Si O2"
_cell_formula_units_Z 64
_cell_length_a 13.617350
_cell_length_b 17.712159
_cell_length_c 13.801352
_cell_angle_alpha 90.000000
_cell_angle_beta 90.000000
_cell_angle_gamma 90.000000
_cell_volume 3328.784916
_symmetry_space_group_name_H-M "P N M A"
_symmetry_group_IT_number 62
_symmetry_cell_setting 'orthorhombic'
loop_
_space_group_symop_operation_xyz
x,y,z
1/2-x,-y,1/2+z
1/2+x,1/2-y,1/2-z
-x,1/2+y,-z
-x,-y,-z
1/2+x,y,1/2-z
1/2-x,1/2+y,1/2+z
x,1/2-y,z
loop_
_atom_site_type_symbol
_atom_site_label
_atom_site_fract_x
_atom_site_fract_y
_atom_site_fract_z
Si Si1 0.864346 0.837485 0.721934
Si Si2 0.176832 0.575420 0.092610
Si Si3 0.172495 0.165430 0.713262
Si Si4 0.469436 0.924166 0.322462
Si Si5 0.565293 0.912819 0.758692
Si Si6 0.679118 0.664046 0.597666
Si Si7 0.753862 0.409554 0.393217
Si Si8 0.681426 0.335487 0.574802
O O1 0.893337 0.750000 0.729122
O O2 0.789941 0.852405 0.633451
O O3 0.815232 0.861999 0.822336
O O4 0.959885 0.887921 0.700646
O O5 0.268055 0.621918 0.132464
O O6 0.085120 0.585001 0.164379
O O7 0.203948 0.488798 0.085053
O O8 0.150767 0.606988 0.987269
O O9 0.155297 0.250000 0.675684
O O10 0.230348 0.163592 0.817273
O O11 0.065992 0.125917 0.729967
O O12 0.413814 0.891729 0.419198
O O13 0.439440 0.010170 0.302140
O O14 0.604883 0.848560 0.686631
O O15 0.637376 0.920760 0.850799
O O16 0.667760 0.750000 0.561944
O O17 0.758816 0.364627 0.495054
O O18 0.647155 0.250000 0.549698
#
# Coordination Sequence:
#
# PCOD8253959 Si02
#       8
#     8   8   8   8   8   8   8   8
#     4  10  22  40  59  85 125 159 195 251 306 361
#     4  12  22  37  64  89 121 160 200 252 305 359
#     4   9  21  40  58  83 121 157 195 252 305 356
#     4  10  21  38  59  89 121 149 201 252 301 355
#     4  11  21  39  62  87 120 162 204 245 304 362
#     4  10  24  39  58  91 122 156 203 247 302 368
#     4  11  21  36  61  90 117 158 199 251 299 358
#     4   9  20  37  56  83 117 150 196 248 294 355
#
# _framework density 19.226234999999999
#
# number of rings (size 3 to 8) (size 9 to 14) (size 15 to 20)
#    0.750    1.000    2.500    1.875    1.750    4.500 
#    0.000    1.875    0.000    1.500    0.000    0.000 
#    0.000    0.000    0.000    0.000    0.000    0.000 
#
# Total GULP energy -793340.355781 kJ/mol
# GULP energy per Si atom -12395.943059 kJ/mol
# Density = 1.918248 g / cm^3
# Si number density = 19.226235 Si / 1000 Ang^3
#
#
#
# Elastic Constant Matrix: (Units=GPa)
#
#
# Indices 1 2 3 4 5 6 
#
# 1 71.7993 24.8818 1.8547 0.0000 0.0000 0.0000
# 2 24.8818 113.9017 19.7904 0.0000 0.0000 0.0000
# 3 1.8547 19.7904 28.7510 0.0000 0.0000 0.0000
# 4 0.0000 0.0000 0.0000 32.3800 0.0000 0.0000
# 5 0.0000 0.0000 0.0000 0.0000 23.5606 0.0000
# 6 0.0000 0.0000 0.0000 0.0000 0.0000 21.0513
#
#
#
# Elastic Compliance Matrix: (Units=1/GPa)
#
#
# Indices 1 2 3 4 5 6 
#
# 1 0.015123 -0.003560 0.001475 0.000000 0.000000 0.000000
# 2 -0.003560 0.010810 -0.007211 0.000000 0.000000 0.000000
# 3 0.001475 -0.007211 0.039650 0.000000 0.000000 0.000000
# 4 0.000000 0.000000 0.000000 0.030883 0.000000 0.000000
# 5 0.000000 0.000000 0.000000 0.000000 0.042444 0.000000
# 6 0.000000 0.000000 0.000000 0.000000 0.000000 0.047503
#
#
# Mechanical properties :
#
#
# Convention : Reuss Voigt Hill
#
# Bulk Modulus (GPa) = 21.28084 34.16732 27.72408
# Shear Modulus (GPa) = 22.65825 26.59338 24.62581
#
# Velocity S-wave (km/s) = 3.43666 3.72315 3.58277
# Velocity P-wave (km/s) = 5.18075 6.02430 5.61838
#
# Compressibility (1/GPa) = 0.04699063
#
# Stress axis : x y z
#
# Youngs Moduli (GPa) = 66.12313 92.50574 25.22058
#
# Poissons Ratio (x) = 0.32931 -0.03720
# Poissons Ratio (y) = 0.23539 0.18187
# Poissons Ratio (z) = -0.09752 0.66709
#
# Static dielectric constant tensor:
#      x y z
#    x 3.322270 0.000000 0.000000 
#    y 0.000000 3.650320 0.000000 
#    z 0.000000 0.000000 3.311850 
# 
# 
# High freq. dielectric constant tensor:
#      x y z
#    x 1.727400 0.000000 0.000000 
#    y 0.000000 1.768440 0.000000 
#    z 0.000000 0.000000 1.733080 
# 
# From -- ./inp_files/18255.got.cif
#   From: 2010.03.12/outbox.cif.g09.slc.cpg/sg62_10_cif.got.tgz:18255.got - 2010.04.10 19:12:36.
