data_PCOD8253187
_publ_section_title
;
Structure prediction by ZEFSAII (Michael W. Deem and Ramdas Pophale) SiO2 
 PCOD8253187
Probable space group: P N M A
;
_chemical_formula_sum "Si O2"
_cell_formula_units_Z 48
_cell_length_a 9.037147
_cell_length_b 8.699905
_cell_length_c 30.628287
_cell_angle_alpha 90.000000
_cell_angle_beta 90.000000
_cell_angle_gamma 90.000000
_cell_volume 2408.066993
_symmetry_space_group_name_H-M "P N M A"
_symmetry_group_IT_number 62
_symmetry_cell_setting 'orthorhombic'
loop_
_space_group_symop_operation_xyz
x,y,z
1/2-x,-y,1/2+z
1/2+x,1/2-y,1/2-z
-x,1/2+y,-z
-x,-y,-z
1/2+x,y,1/2-z
1/2-x,1/2+y,1/2+z
x,1/2-y,z
loop_
_atom_site_type_symbol
_atom_site_label
_atom_site_fract_x
_atom_site_fract_y
_atom_site_fract_z
Si Si1 0.821898 0.071091 0.538070
Si Si2 0.325200 0.568852 0.795896
Si Si3 0.653612 0.068561 0.949121
Si Si4 0.162362 0.430458 0.874346
Si Si5 0.672400 0.932515 0.366059
Si Si6 0.853270 0.932759 0.282383
O O1 0.830641 0.250000 0.527515
O O2 0.703737 0.034513 0.575590
O O3 0.983867 0.010860 0.552919
O O4 0.769904 0.986580 0.493982
O O5 0.329605 0.750000 0.789140
O O6 0.273210 0.526730 0.844403
O O7 0.209790 0.493724 0.762798
O O8 0.485136 0.499414 0.788332
O O9 0.662847 0.250000 0.946803
O O10 0.740841 0.997878 0.907742
O O11 0.180530 0.250000 0.863728
O O12 0.996252 0.490340 0.866467
O O13 0.675911 0.750000 0.368108
O O14 0.749731 0.991276 0.321885
O O15 0.863204 0.750000 0.280839
#
# Coordination Sequence:
#
# PCOD8253187 Si02
#       6
#     8   8   8   8   8   8
#     4   9  18  32  52  78 108 145 190 235 278 335
#     4  12  25  40  59  88 121 148 184 239 295 337
#     4   9  17  32  52  76 108 144 184 233 286 334
#     4  10  20  37  59  82 111 150 195 235 278 341
#     4   9  19  35  58  84 108 142 191 238 275 330
#     4  11  22  40  64  86 112 152 196 231 278 347
#
# _framework density 19.933
#
# number of rings (size 3 to 8) (size 9 to 14) (size 15 to 20)
#    0.000    2.000    0.000    4.000    0.000    5.333 
#    0.000    6.667    0.000    0.000    0.000    0.000 
#    0.000    0.000    0.000    0.000    0.000    0.000 
#
# Total GULP energy -595353.854945 kJ/mol
# GULP energy per Si atom -12403.205311 kJ/mol
# Density = 1.988763 g / cm^3
# Si number density = 19.933000 Si / 1000 Ang^3
#
#
#
# Elastic Constant Matrix: (Units=GPa)
#
#
# Indices 1 2 3 4 5 6 
#
# 1 90.4293 22.8077 17.2027 0.0000 0.0000 0.0000
# 2 22.8077 58.4554 22.7203 0.0000 0.0000 0.0000
# 3 17.2027 22.7203 84.0672 0.0000 0.0000 0.0000
# 4 0.0000 0.0000 0.0000 32.3497 0.0000 0.0000
# 5 0.0000 0.0000 0.0000 0.0000 41.0340 0.0000
# 6 0.0000 0.0000 0.0000 0.0000 0.0000 19.5308
#
#
#
# Elastic Compliance Matrix: (Units=1/GPa)
#
#
# Indices 1 2 3 4 5 6 
#
# 1 0.012406 -0.004306 -0.001375 0.000000 0.000000 0.000000
# 2 -0.004306 0.020610 -0.004689 0.000000 0.000000 0.000000
# 3 -0.001375 -0.004689 0.013444 0.000000 0.000000 0.000000
# 4 0.000000 0.000000 0.000000 0.030912 0.000000 0.000000
# 5 0.000000 0.000000 0.000000 0.000000 0.024370 0.000000
# 6 0.000000 0.000000 0.000000 0.000000 0.000000 0.051201
#
#
# Mechanical properties :
#
#
# Convention : Reuss Voigt Hill
#
# Bulk Modulus (GPa) = 38.88059 39.82369 39.35214
# Shear Modulus (GPa) = 27.43401 29.93101 28.68251
#
# Velocity S-wave (km/s) = 3.71389 3.87923 3.79746
# Velocity P-wave (km/s) = 6.15943 6.33140 6.24601
#
# Compressibility (1/GPa) = 0.02571978
#
# Stress axis : x y z
#
# Youngs Moduli (GPa) = 80.60640 48.52099 74.38366
#
# Poissons Ratio (x) = 0.20894 0.10227
# Poissons Ratio (y) = 0.34710 0.34878
# Poissons Ratio (z) = 0.11082 0.22751
#
# Static dielectric constant tensor:
#      x y z
#    x 3.753080 0.000000 0.000000 
#    y 0.000000 3.393020 0.000000 
#    z 0.000000 0.000000 3.847950 
# 
# 
# High freq. dielectric constant tensor:
#      x y z
#    x 1.783260 0.000000 0.000000 
#    y 0.000000 1.751280 0.000000 
#    z 0.000000 0.000000 1.793560 
# 
# From -- ./inp_files/31960.got.cif
#   From: 2010.03.12/outbox.cif.g09.slc.cpg/sg62_16_cif.got.tgz:31960.got - 2010.04.10 19:12:36.
