data_PCOD8253894
_publ_section_title
;
Structure prediction by ZEFSAII (Michael W. Deem and Ramdas Pophale) SiO2 
 PCOD8253894
Probable space group: P N M A
;
_chemical_formula_sum "Si O2"
_cell_formula_units_Z 48
_cell_length_a 8.183194
_cell_length_b 18.975490
_cell_length_c 12.963503
_cell_angle_alpha 90.000000
_cell_angle_beta 90.000000
_cell_angle_gamma 90.000000
_cell_volume 2012.974249
_symmetry_space_group_name_H-M "P N M A"
_symmetry_group_IT_number 62
_symmetry_cell_setting 'orthorhombic'
loop_
_space_group_symop_operation_xyz
x,y,z
1/2-x,-y,1/2+z
1/2+x,1/2-y,1/2-z
-x,1/2+y,-z
-x,-y,-z
1/2+x,y,1/2-z
1/2-x,1/2+y,1/2+z
x,1/2-y,z
loop_
_atom_site_type_symbol
_atom_site_label
_atom_site_fract_x
_atom_site_fract_y
_atom_site_fract_z
Si Si1 0.682846 0.329995 0.476803
Si Si2 0.135191 0.891193 0.701492
Si Si3 0.506966 0.057371 0.589673
Si Si4 0.530054 0.170029 0.914398
Si Si5 0.169679 0.452185 0.709728
Si Si6 0.313148 0.830307 0.877021
O O1 0.629215 0.250000 0.459896
O O2 0.708530 0.366937 0.366090
O O3 0.531719 0.367073 0.535042
O O4 0.848244 0.336800 0.542526
O O5 0.182092 0.881738 0.822610
O O6 0.987584 0.840002 0.676881
O O7 0.094788 0.972439 0.674059
O O8 0.664200 0.046294 0.665195
O O9 0.350631 0.056171 0.664694
O O10 0.500000 0.000000 0.500000
O O11 0.557816 0.250000 0.873122
O O12 0.555762 0.113044 0.825076
O O13 0.664729 0.151489 0.002406
O O14 0.258057 0.750000 0.861312
#
# Coordination Sequence:
#
# PCOD8253894 Si02
#       6
#     8   8   8   8   8   8
#     4  10  22  44  70  99 139 185 236 299 357 425
#     4  11  22  37  63  99 140 181 231 285 360 423
#     4  12  27  48  69 107 141 186 240 291 357 432
#     4   9  22  44  70 101 136 187 243 293 357 426
#     4  12  26  44  71 100 143 183 234 296 355 426
#     4  10  21  37  61  94 136 181 233 289 351 425
#
# _framework density 23.845314999999999
#
# number of rings (size 3 to 8) (size 9 to 14) (size 15 to 20)
#    0.000    1.333    1.667    4.500    2.333    4.000 
#    0.000    1.667    0.000    0.000    0.000    0.000 
#    0.000    0.000    0.000    0.000    0.000    0.000 
#
# Total GULP energy -595076.973450 kJ/mol
# GULP energy per Si atom -12397.436947 kJ/mol
# Density = 2.379104 g / cm^3
# Si number density = 23.845315 Si / 1000 Ang^3
#
#
#
# Elastic Constant Matrix: (Units=GPa)
#
#
# Indices 1 2 3 4 5 6 
#
# 1 26.7171 3.8120 9.8032 0.0000 0.0000 0.0000
# 2 3.8120 171.6007 57.7432 0.0000 0.0000 0.0000
# 3 9.8032 57.7432 107.0601 0.0000 0.0000 0.0000
# 4 0.0000 0.0000 0.0000 35.5028 0.0000 0.0000
# 5 0.0000 0.0000 0.0000 0.0000 43.2603 0.0000
# 6 0.0000 0.0000 0.0000 0.0000 0.0000 30.4868
#
#
#
# Elastic Compliance Matrix: (Units=1/GPa)
#
#
# Indices 1 2 3 4 5 6 
#
# 1 0.038754 0.000407 -0.003768 0.000000 0.000000 0.000000
# 2 0.000407 0.007124 -0.003880 0.000000 0.000000 0.000000
# 3 -0.003768 -0.003880 0.011778 0.000000 0.000000 0.000000
# 4 0.000000 0.000000 0.000000 0.028167 0.000000 0.000000
# 5 0.000000 0.000000 0.000000 0.000000 0.023116 0.000000
# 6 0.000000 0.000000 0.000000 0.000000 0.000000 0.032801
#
#
# Mechanical properties :
#
#
# Convention : Reuss Voigt Hill
#
# Bulk Modulus (GPa) = 23.16186 49.78828 36.47507
# Shear Modulus (GPa) = 29.30622 37.45127 33.37874
#
# Velocity S-wave (km/s) = 3.50953 3.96737 3.74545
# Velocity P-wave (km/s) = 5.11438 6.47393 5.83389
#
# Compressibility (1/GPa) = 0.04317443
#
# Stress axis : x y z
#
# Youngs Moduli (GPa) = 25.80397 140.37249 84.90370
#
# Poissons Ratio (x) = -0.05714 0.31993
# Poissons Ratio (y) = -0.01050 0.32939
# Poissons Ratio (z) = 0.09723 0.54459
#
# Static dielectric constant tensor:
#      x y z
#    x 4.037960 0.000000 0.000000 
#    y 0.000000 4.315180 0.000000 
#    z 0.000000 0.000000 4.523450 
# 
# 
# High freq. dielectric constant tensor:
#      x y z
#    x 1.936080 0.000000 0.000000 
#    y 0.000000 1.952210 0.000000 
#    z 0.000000 0.000000 1.944890 
# 
# From -- ./inp_files/16951.got.cif
#   From: 2010.03.12/outbox.cif.g09.slc.cpg/sg62_9_cif.got.tgz:16951.got - 2010.04.10 19:12:36.
