data_PCOD8253718
_publ_section_title
;
Structure prediction by ZEFSAII (Michael W. Deem and Ramdas Pophale) SiO2 
 PCOD8253718
Probable space group: P N M A
;
_chemical_formula_sum "Si O2"
_cell_formula_units_Z 64
_cell_length_a 9.261373
_cell_length_b 15.452985
_cell_length_c 23.383950
_cell_angle_alpha 90.000000
_cell_angle_beta 90.000000
_cell_angle_gamma 90.000000
_cell_volume 3346.614069
_symmetry_space_group_name_H-M "P N M A"
_symmetry_group_IT_number 62
_symmetry_cell_setting 'orthorhombic'
loop_
_space_group_symop_operation_xyz
x,y,z
1/2-x,-y,1/2+z
1/2+x,1/2-y,1/2-z
-x,1/2+y,-z
-x,-y,-z
1/2+x,y,1/2-z
1/2-x,1/2+y,1/2+z
x,1/2-y,z
loop_
_atom_site_type_symbol
_atom_site_label
_atom_site_fract_x
_atom_site_fract_y
_atom_site_fract_z
Si Si1 0.011696 0.345683 0.412565
Si Si2 0.748075 0.445163 0.754123
Si Si3 0.797255 0.384945 0.505656
Si Si4 0.510553 0.496641 0.178396
Si Si5 0.491945 0.151178 0.549621
Si Si6 0.709645 0.083899 0.993521
Si Si7 0.502520 0.352521 0.680819
Si Si8 0.012104 0.346533 0.599834
O O1 0.023890 0.250000 0.385009
O O2 0.142181 0.355599 0.457718
O O3 0.858431 0.352781 0.445016
O O4 0.023380 0.417965 0.364734
O O5 0.646140 0.507420 0.792035
O O6 0.642640 0.390087 0.713049
O O7 0.853308 0.511112 0.720740
O O8 0.849543 0.383598 0.793014
O O9 0.632758 0.358829 0.510972
O O10 0.828579 0.486652 0.510726
O O11 0.877970 0.337753 0.557283
O O12 0.528816 0.593103 0.152683
O O13 0.439204 0.250000 0.551317
O O14 0.379880 0.094807 0.513003
O O15 0.512233 0.116897 0.614465
O O16 0.647065 0.109605 0.931749
O O17 0.510109 0.250000 0.685771
O O18 0.051408 0.250000 0.622219
#
# Coordination Sequence:
#
# PCOD8253718 Si02
#       8
#     8   8   8   8   8   8   8   8
#     4  11  22  40  64  84 110 148 195 240 281 340
#     4  10  23  38  59  78 116 148 194 252 280 328
#     4  11  20  36  56  87 120 153 190 226 276 342
#     4  11  22  42  58  87 110 149 196 237 295 336
#     4  11  22  34  51  86 126 153 184 227 287 343
#     4  11  20  36  56  87 120 153 190 226 276 342
#     4  10  21  36  57  84 116 158 194 228 280 339
#     4  11  20  35  60  85 119 156 187 223 273 344
#
# _framework density 19.123805999999998
#
# number of rings (size 3 to 8) (size 9 to 14) (size 15 to 20)
#    0.000    1.250    2.500    6.000    0.000    5.000 
#    0.000    0.625    0.000    0.000    0.000    0.000 
#    0.000    0.000    0.000    0.000    0.000    0.000 
#
# Total GULP energy -793638.041317 kJ/mol
# GULP energy per Si atom -12400.594396 kJ/mol
# Density = 1.908028 g / cm^3
# Si number density = 19.123806 Si / 1000 Ang^3
#
#
#
# Elastic Constant Matrix: (Units=GPa)
#
#
# Indices 1 2 3 4 5 6 
#
# 1 122.0199 17.3202 34.5443 0.0000 0.0000 0.0000
# 2 17.3202 99.4475 36.7372 0.0000 0.0000 0.0000
# 3 34.5443 36.7372 79.7795 0.0000 0.0000 0.0000
# 4 0.0000 0.0000 0.0000 7.8015 0.0000 0.0000
# 5 0.0000 0.0000 0.0000 0.0000 21.0568 0.0000
# 6 0.0000 0.0000 0.0000 0.0000 0.0000 21.7680
#
#
#
# Elastic Compliance Matrix: (Units=1/GPa)
#
#
# Indices 1 2 3 4 5 6 
#
# 1 0.009342 -0.000160 -0.003972 0.000000 0.000000 0.000000
# 2 -0.000160 0.012119 -0.005512 0.000000 0.000000 0.000000
# 3 -0.003972 -0.005512 0.016792 0.000000 0.000000 0.000000
# 4 0.000000 0.000000 0.000000 0.128180 0.000000 0.000000
# 5 0.000000 0.000000 0.000000 0.000000 0.047491 0.000000
# 6 0.000000 0.000000 0.000000 0.000000 0.000000 0.045939
#
#
# Mechanical properties :
#
#
# Convention : Reuss Voigt Hill
#
# Bulk Modulus (GPa) = 52.72062 53.16114 52.94088
# Shear Modulus (GPa) = 17.51483 24.30161 20.90822
#
# Velocity S-wave (km/s) = 3.02961 3.56863 3.31011
# Velocity P-wave (km/s) = 6.31395 6.69619 6.50787
#
# Compressibility (1/GPa) = 0.01896791
#
# Stress axis : x y z
#
# Youngs Moduli (GPa) = 107.03815 82.51199 59.55139
#
# Poissons Ratio (x) = 0.01320 0.23651
# Poissons Ratio (y) = 0.01712 0.32822
# Poissons Ratio (z) = 0.42511 0.45477
#
# Static dielectric constant tensor:
#      x y z
#    x 3.623100 0.000000 0.000000 
#    y 0.000000 3.464920 0.000000 
#    z 0.000000 0.000000 3.483670 
# 
# 
# High freq. dielectric constant tensor:
#      x y z
#    x 1.756810 0.000000 0.000000 
#    y 0.000000 1.732700 0.000000 
#    z 0.000000 0.000000 1.732390 
# 
# From -- ./inp_files/29007.got.cif
#   From: 2010.03.12/outbox.cif.g09.slc.cpg/sg62_15_cif.got.tgz:29007.got - 2010.04.10 19:12:36.
