data_PCOD8253075
_publ_section_title
;
Structure prediction by ZEFSAII (Michael W. Deem and Ramdas Pophale) SiO2 
 PCOD8253075
Probable space group: P N M A
;
_chemical_formula_sum "Si O2"
_cell_formula_units_Z 48
_cell_length_a 28.834852
_cell_length_b 8.797779
_cell_length_c 10.136594
_cell_angle_alpha 90.000000
_cell_angle_beta 90.000000
_cell_angle_gamma 90.000000
_cell_volume 2571.478083
_symmetry_space_group_name_H-M "P N M A"
_symmetry_group_IT_number 62
_symmetry_cell_setting 'orthorhombic'
loop_
_space_group_symop_operation_xyz
x,y,z
1/2-x,-y,1/2+z
1/2+x,1/2-y,1/2-z
-x,1/2+y,-z
-x,-y,-z
1/2+x,y,1/2-z
1/2-x,1/2+y,1/2+z
x,1/2-y,z
loop_
_atom_site_type_symbol
_atom_site_label
_atom_site_fract_x
_atom_site_fract_y
_atom_site_fract_z
Si Si1 0.526537 0.571864 0.879493
Si Si2 0.720132 0.575936 0.480870
Si Si3 0.471100 0.927858 0.617042
Si Si4 0.288373 0.072296 0.218998
Si Si5 0.113858 0.925857 0.011314
Si Si6 0.385099 0.929700 0.229430
O O1 0.532951 0.750000 0.900459
O O2 0.496333 0.532650 0.751936
O O3 0.577068 0.496030 0.870789
O O4 0.500000 0.500000 0.000000
O O5 0.735343 0.750000 0.457702
O O6 0.749043 0.466492 0.386439
O O7 0.728276 0.527954 0.633271
O O8 0.666541 0.552298 0.442012
O O9 0.466157 0.750000 0.593285
O O10 0.500000 0.000000 0.500000
O O11 0.419813 0.002526 0.621313
O O12 0.300143 0.250000 0.215532
O O13 0.334588 0.981937 0.180334
O O14 0.101905 0.750000 0.988606
O O15 0.103964 0.009613 0.874545
O O16 0.387645 0.750000 0.228756
#
# Coordination Sequence:
#
# PCOD8253075 Si02
#       6
#     8   8   8   8   8   8
#     4  11  24  41  59  84 119 156 195 239 289 346
#     4   9  20  38  58  84 116 150 190 237 286 342
#     4  11  22  36  60  88 116 151 193 239 285 340
#     4  10  21  38  61  87 116 151 190 238 288 342
#     4  10  20  36  59  87 118 150 193 242 286 340
#     4  11  21  36  61  86 114 154 195 236 288 347
#
# _framework density 18.666307
#
# number of rings (size 3 to 8) (size 9 to 14) (size 15 to 20)
#    0.000    1.667    1.667    4.500    0.000    6.000 
#    3.000    0.000    0.000    0.000    0.000    0.000 
#    0.000    0.000    0.000    0.000    0.000    0.000 
#
# Total GULP energy -595399.701157 kJ/mol
# GULP energy per Si atom -12404.160441 kJ/mol
# Density = 1.862382 g / cm^3
# Si number density = 18.666307 Si / 1000 Ang^3
#
#
#
# Elastic Constant Matrix: (Units=GPa)
#
#
# Indices 1 2 3 4 5 6 
#
# 1 118.1731 59.3344 63.9376 0.0000 0.0000 0.0000
# 2 59.3344 118.6560 63.1959 0.0000 0.0000 0.0000
# 3 63.9376 63.1959 96.2906 0.0000 0.0000 0.0000
# 4 0.0000 0.0000 0.0000 32.0969 0.0000 0.0000
# 5 0.0000 0.0000 0.0000 0.0000 33.8048 0.0000
# 6 0.0000 0.0000 0.0000 0.0000 0.0000 39.5442
#
#
#
# Elastic Compliance Matrix: (Units=1/GPa)
#
#
# Indices 1 2 3 4 5 6 
#
# 1 0.013926 -0.003134 -0.007190 0.000000 0.000000 0.000000
# 2 -0.003134 0.013662 -0.006885 0.000000 0.000000 0.000000
# 3 -0.007190 -0.006885 0.019678 0.000000 0.000000 0.000000
# 4 0.000000 0.000000 0.000000 0.031156 0.000000 0.000000
# 5 0.000000 0.000000 0.000000 0.000000 0.029582 0.000000
# 6 0.000000 0.000000 0.000000 0.000000 0.000000 0.025288
#
#
# Mechanical properties :
#
#
# Convention : Reuss Voigt Hill
#
# Bulk Modulus (GPa) = 77.83741 78.45061 78.14401
# Shear Modulus (GPa) = 29.07091 30.86596 29.96844
#
# Velocity S-wave (km/s) = 3.95067 4.07082 4.01119
# Velocity P-wave (km/s) = 7.91204 8.01340 7.96288
#
# Compressibility (1/GPa) = 0.01284729
#
# Stress axis : x y z
#
# Youngs Moduli (GPa) = 71.80798 73.19476 50.81793
#
# Poissons Ratio (x) = 0.22943 0.36537
# Poissons Ratio (y) = 0.22508 0.34989
# Poissons Ratio (z) = 0.51628 0.50396
#
# Static dielectric constant tensor:
#      x y z
#    x 3.767290 0.000000 0.000000 
#    y 0.000000 3.519260 0.000000 
#    z 0.000000 0.000000 3.206320 
# 
# 
# High freq. dielectric constant tensor:
#      x y z
#    x 1.736670 0.000000 0.000000 
#    y 0.000000 1.739940 0.000000 
#    z 0.000000 0.000000 1.706710 
# 
# From -- ./inp_files/10228.got.cif
#   From: 2010.03.12/outbox.cif.g09.slc.cpg/sg62_6_cif.got.tgz:10228.got - 2010.04.10 19:12:36.
