data_PCOD8253286
_publ_section_title
;
Structure prediction by ZEFSAII (Michael W. Deem and Ramdas Pophale) SiO2 
 PCOD8253286
Probable space group: P N M A
;
_chemical_formula_sum "Si O2"
_cell_formula_units_Z 40
_cell_length_a 16.549542
_cell_length_b 18.293326
_cell_length_c 6.485708
_cell_angle_alpha 90.000000
_cell_angle_beta 90.000000
_cell_angle_gamma 90.000000
_cell_volume 1963.523237
_symmetry_space_group_name_H-M "P N M A"
_symmetry_group_IT_number 62
_symmetry_cell_setting 'orthorhombic'
loop_
_space_group_symop_operation_xyz
x,y,z
1/2-x,-y,1/2+z
1/2+x,1/2-y,1/2-z
-x,1/2+y,-z
-x,-y,-z
1/2+x,y,1/2-z
1/2-x,1/2+y,1/2+z
x,1/2-y,z
loop_
_atom_site_type_symbol
_atom_site_label
_atom_site_fract_x
_atom_site_fract_y
_atom_site_fract_z
Si Si1 0.370381 0.537376 0.341047
Si Si2 0.870773 0.330769 0.039632
Si Si3 0.584684 0.911546 0.923217
Si Si4 0.978173 0.834959 0.257270
Si Si5 0.307249 0.455079 0.701543
O O1 0.399322 0.621163 0.322829
O O2 0.359835 0.517524 0.583337
O O3 0.284663 0.521645 0.233070
O O4 0.433928 0.481571 0.226929
O O5 0.836359 0.250000 0.012072
O O6 0.881604 0.346331 0.281281
O O7 0.804036 0.384012 0.944781
O O8 0.955290 0.340815 0.920243
O O9 0.506694 0.877607 0.036468
O O10 0.652505 0.936020 0.083078
O O11 0.956451 0.750000 0.303969
#
# Coordination Sequence:
#
# PCOD8253286 Si02
#       5
#     8   8   8   8   8
#     4  11  21  37  59  86 118 152 197 243 285 340
#     4   9  20  38  57  84 117 152 191 235 290 352
#     4  10  20  37  62  85 114 154 190 241 289 346
#     4  10  22  38  58  86 117 149 192 240 293 349
#     4  10  21  36  59  84 116 152 196 238 284 343
#
# _framework density 20.371544
#
# number of rings (size 3 to 8) (size 9 to 14) (size 15 to 20)
#    0.000    2.000    2.000    1.200    0.000   10.400 
#    0.000    0.000    0.000    0.000    0.000    0.000 
#    0.000    0.000    0.000    0.000    0.000    0.000 
#
# Total GULP energy -495803.957711 kJ/mol
# GULP energy per Si atom -12395.098943 kJ/mol
# Density = 2.032518 g / cm^3
# Si number density = 20.371544 Si / 1000 Ang^3
#
#
#
# Elastic Constant Matrix: (Units=GPa)
#
#
# Indices 1 2 3 4 5 6 
#
# 1 28.9564 22.3355 9.9148 0.0000 0.0000 0.0000
# 2 22.3355 106.5209 13.3465 0.0000 0.0000 0.0000
# 3 9.9148 13.3465 94.4904 0.0000 0.0000 0.0000
# 4 0.0000 0.0000 0.0000 27.7547 0.0000 0.0000
# 5 0.0000 0.0000 0.0000 0.0000 20.8845 0.0000
# 6 0.0000 0.0000 0.0000 0.0000 0.0000 25.7099
#
#
#
# Elastic Compliance Matrix: (Units=1/GPa)
#
#
# Indices 1 2 3 4 5 6 
#
# 1 0.042145 -0.008432 -0.003231 0.000000 0.000000 0.000000
# 2 -0.008432 0.011244 -0.000703 0.000000 0.000000 0.000000
# 3 -0.003231 -0.000703 0.011021 0.000000 0.000000 0.000000
# 4 0.000000 0.000000 0.000000 0.036030 0.000000 0.000000
# 5 0.000000 0.000000 0.000000 0.000000 0.047882 0.000000
# 6 0.000000 0.000000 0.000000 0.000000 0.000000 0.038896
#
#
# Mechanical properties :
#
#
# Convention : Reuss Voigt Hill
#
# Bulk Modulus (GPa) = 25.20350 35.68457 30.44403
# Shear Modulus (GPa) = 22.20466 27.16122 24.68294
#
# Velocity S-wave (km/s) = 3.30507 3.65539 3.48464
# Velocity P-wave (km/s) = 5.19263 5.94733 5.58275
#
# Compressibility (1/GPa) = 0.03967703
#
# Stress axis : x y z
#
# Youngs Moduli (GPa) = 23.72752 88.93604 90.73184
#
# Poissons Ratio (x) = 0.74993 0.29317
# Poissons Ratio (y) = 0.20008 0.06382
# Poissons Ratio (z) = 0.07667 0.06256
#
# Static dielectric constant tensor:
#      x y z
#    x 3.285650 0.000000 0.000000 
#    y 0.000000 3.840880 0.000000 
#    z 0.000000 0.000000 3.941540 
# 
# 
# High freq. dielectric constant tensor:
#      x y z
#    x 1.759360 0.000000 0.000000 
#    y 0.000000 1.800000 0.000000 
#    z 0.000000 0.000000 1.812460 
# 
# From -- ./inp_files/1553.got.cif
#   From: 2010.03.12/outbox.cif.g09.slc.cpg/sg62_1_cif.got.tgz:1553.got - 2010.04.10 19:12:36.
