data_PCOD8253641
_publ_section_title
;
Structure prediction by ZEFSAII (Michael W. Deem and Ramdas Pophale) SiO2 
 PCOD8253641
Probable space group: P N M A
;
_chemical_formula_sum "Si O2"
_cell_formula_units_Z 64
_cell_length_a 12.577924
_cell_length_b 9.157625
_cell_length_c 29.033095
_cell_angle_alpha 90.000000
_cell_angle_beta 90.000000
_cell_angle_gamma 90.000000
_cell_volume 3344.145438
_symmetry_space_group_name_H-M "P N M A"
_symmetry_group_IT_number 62
_symmetry_cell_setting 'orthorhombic'
loop_
_space_group_symop_operation_xyz
x,y,z
1/2-x,-y,1/2+z
1/2+x,1/2-y,1/2-z
-x,1/2+y,-z
-x,-y,-z
1/2+x,y,1/2-z
1/2-x,1/2+y,1/2+z
x,1/2-y,z
loop_
_atom_site_type_symbol
_atom_site_label
_atom_site_fract_x
_atom_site_fract_y
_atom_site_fract_z
Si Si1 0.868942 0.919826 0.045355
Si Si2 0.110426 0.919159 0.048857
Si Si3 0.537497 0.582202 0.752734
Si Si4 0.511527 0.582222 0.858932
Si Si5 0.286079 0.911890 0.293371
Si Si6 0.360195 0.087932 0.712575
Si Si7 0.223578 0.419999 0.627523
Si Si8 0.276881 0.923250 0.882593
O O1 0.838214 0.750000 0.046397
O O2 0.988301 0.945024 0.065075
O O3 0.781726 0.008694 0.073831
O O4 0.862134 0.976904 0.993459
O O5 0.125698 0.750000 0.034491
O O6 0.189764 0.965661 0.089489
O O7 0.565886 0.750000 0.743747
O O8 0.497345 0.555571 0.804521
O O9 0.638156 0.481080 0.744941
O O10 0.452906 0.531602 0.713986
O O11 0.533839 0.750000 0.869521
O O12 0.610691 0.496982 0.880852
O O13 0.401553 0.531918 0.883241
O O14 0.324052 0.750000 0.309019
O O15 0.177121 0.899227 0.265383
O O16 0.278960 0.015517 0.337097
O O17 0.400158 0.250000 0.696533
O O18 0.270473 0.032629 0.677049
O O19 0.199345 0.250000 0.625595
O O20 0.263239 0.750000 0.882651
#
# Coordination Sequence:
#
# PCOD8253641 Si02
#       8
#     8   8   8   8   8   8   8   8
#     4  10  21  39  64  92 118 148 188 234 291 354
#     4   9  20  40  64  89 119 149 181 235 295 348
#     4  11  22  36  53  77 113 156 197 241 290 339
#     4  10  22  38  56  80 117 157 195 241 287 340
#     4  11  22  36  55  81 114 153 198 241 285 340
#     4  10  21  35  54  81 113 152 194 239 286 337
#     4  10  21  38  60  86 115 151 195 239 290 346
#     4  11  23  40  59  85 119 155 197 241 293 345
#
# _framework density 19.137924000000002
#
# number of rings (size 3 to 8) (size 9 to 14) (size 15 to 20)
#    0.000    1.750    2.500    1.500    1.750    3.500 
#    0.000    0.625    0.000    0.000    0.000    0.000 
#    0.000    0.000    0.000    0.000    0.000    0.000 
#
# Total GULP energy -793491.878747 kJ/mol
# GULP energy per Si atom -12398.310605 kJ/mol
# Density = 1.909437 g / cm^3
# Si number density = 19.137924 Si / 1000 Ang^3
#
#
#
# Elastic Constant Matrix: (Units=GPa)
#
#
# Indices 1 2 3 4 5 6 
#
# 1 118.6629 61.1584 48.9273 0.0000 0.0000 0.0000
# 2 61.1584 100.5862 40.0679 0.0000 0.0000 0.0000
# 3 48.9273 40.0679 73.1945 0.0000 0.0000 0.0000
# 4 0.0000 0.0000 0.0000 31.1845 0.0000 0.0000
# 5 0.0000 0.0000 0.0000 0.0000 36.6216 0.0000
# 6 0.0000 0.0000 0.0000 0.0000 0.0000 35.7972
#
#
#
# Elastic Compliance Matrix: (Units=1/GPa)
#
#
# Indices 1 2 3 4 5 6 
#
# 1 0.014098 -0.006161 -0.006051 0.000000 0.000000 0.000000
# 2 -0.006161 0.015407 -0.004315 0.000000 0.000000 0.000000
# 3 -0.006051 -0.004315 0.020069 0.000000 0.000000 0.000000
# 4 0.000000 0.000000 0.000000 0.032067 0.000000 0.000000
# 5 0.000000 0.000000 0.000000 0.000000 0.027306 0.000000
# 6 0.000000 0.000000 0.000000 0.000000 0.000000 0.027935
#
#
# Mechanical properties :
#
#
# Convention : Reuss Voigt Hill
#
# Bulk Modulus (GPa) = 60.53756 65.86119 63.19938
# Shear Modulus (GPa) = 28.49913 30.20668 29.35290
#
# Velocity S-wave (km/s) = 3.86313 3.97718 3.92057
# Velocity P-wave (km/s) = 7.18326 7.45515 7.32047
#
# Compressibility (1/GPa) = 0.01651867
#
# Stress axis : x y z
#
# Youngs Moduli (GPa) = 70.93378 64.90568 49.82738
#
# Poissons Ratio (x) = 0.39991 0.30150
# Poissons Ratio (y) = 0.43705 0.21503
# Poissons Ratio (z) = 0.42921 0.28010
#
# Static dielectric constant tensor:
#      x y z
#    x 3.541930 0.000000 0.000000 
#    y 0.000000 3.530720 0.000000 
#    z 0.000000 0.000000 3.283250 
# 
# 
# High freq. dielectric constant tensor:
#      x y z
#    x 1.746860 0.000000 0.000000 
#    y 0.000000 1.749740 0.000000 
#    z 0.000000 0.000000 1.726270 
# 
# From -- ./inp_files/32522.got.cif
#   From: 2010.03.12/outbox.cif.g09.slc.cpg/sg62_17_cif.got.tgz:32522.got - 2010.04.10 19:12:36.
