data_PCOD8253042
_publ_section_title
;
Structure prediction by ZEFSAII (Michael W. Deem and Ramdas Pophale) SiO2 
 PCOD8253042
Probable space group: P N M A
;
_chemical_formula_sum "Si O2"
_cell_formula_units_Z 48
_cell_length_a 18.634805
_cell_length_b 9.130616
_cell_length_c 15.012728
_cell_angle_alpha 90.000000
_cell_angle_beta 90.000000
_cell_angle_gamma 90.000000
_cell_volume 2554.374365
_symmetry_space_group_name_H-M "P N M A"
_symmetry_group_IT_number 62
_symmetry_cell_setting 'orthorhombic'
loop_
_space_group_symop_operation_xyz
x,y,z
1/2-x,-y,1/2+z
1/2+x,1/2-y,1/2-z
-x,1/2+y,-z
-x,-y,-z
1/2+x,y,1/2-z
1/2-x,1/2+y,1/2+z
x,1/2-y,z
loop_
_atom_site_type_symbol
_atom_site_label
_atom_site_fract_x
_atom_site_fract_y
_atom_site_fract_z
Si Si1 0.180215 0.918852 0.246041
Si Si2 0.566038 0.921596 0.608713
Si Si3 0.574584 0.581207 0.093635
Si Si4 0.910330 0.579012 0.414706
Si Si5 0.826846 0.076538 0.261209
Si Si6 0.076529 0.919544 0.091859
O O1 0.204694 0.750000 0.252450
O O2 0.120562 0.955672 0.319613
O O3 0.146981 0.954097 0.149294
O O4 0.247031 0.024183 0.260474
O O5 0.554526 0.750000 0.616056
O O6 0.625118 0.976453 0.678316
O O7 0.591945 0.967971 0.509759
O O8 0.490638 0.994792 0.632740
O O9 0.582366 0.750000 0.064200
O O10 0.491664 0.545772 0.116065
O O11 0.602703 0.479557 0.014183
O O12 0.892138 0.750000 0.412598
O O13 0.855318 0.496662 0.350859
O O14 0.827762 0.250000 0.273088
O O15 0.055998 0.750000 0.098049
#
# Coordination Sequence:
#
# PCOD8253042 Si02
#       6
#     8   8   8   8   8   8
#     4  10  21  36  54  78 110 145 178 215 264 320
#     4   9  19  35  55  79 106 137 174 217 263 310
#     4   9  19  36  57  82 109 138 178 226 272 321
#     4  10  20  36  59  82 105 139 181 224 273 323
#     4  11  23  36  51  77 113 147 181 221 264 314
#     4   9  18  35  58  81 105 135 174 218 262 313
#
# _framework density 18.791294000000001
#
# number of rings (size 3 to 8) (size 9 to 14) (size 15 to 20)
#    0.000    2.333    0.000    2.000    0.000    6.000 
#    0.000    1.667    0.000    0.000    0.000    0.000 
#    0.000    0.000    0.000    0.000    0.000    0.000 
#
# Total GULP energy -595375.387184 kJ/mol
# GULP energy per Si atom -12403.653900 kJ/mol
# Density = 1.874852 g / cm^3
# Si number density = 18.791294 Si / 1000 Ang^3
#
#
#
# Elastic Constant Matrix: (Units=GPa)
#
#
# Indices 1 2 3 4 5 6 
#
# 1 64.9301 24.0752 26.2469 0.0000 0.0000 0.0000
# 2 24.0752 53.2030 28.1625 0.0000 0.0000 0.0000
# 3 26.2469 28.1625 74.1026 0.0000 0.0000 0.0000
# 4 0.0000 0.0000 0.0000 26.1268 0.0000 0.0000
# 5 0.0000 0.0000 0.0000 0.0000 21.5742 0.0000
# 6 0.0000 0.0000 0.0000 0.0000 0.0000 35.3035
#
#
#
# Elastic Compliance Matrix: (Units=1/GPa)
#
#
# Indices 1 2 3 4 5 6 
#
# 1 0.019625 -0.006511 -0.004477 0.000000 0.000000 0.000000
# 2 -0.006511 0.025690 -0.007457 0.000000 0.000000 0.000000
# 3 -0.004477 -0.007457 0.017914 0.000000 0.000000 0.000000
# 4 0.000000 0.000000 0.000000 0.038275 0.000000 0.000000
# 5 0.000000 0.000000 0.000000 0.000000 0.046352 0.000000
# 6 0.000000 0.000000 0.000000 0.000000 0.000000 0.028326
#
#
# Mechanical properties :
#
#
# Convention : Reuss Voigt Hill
#
# Bulk Modulus (GPa) = 37.96557 38.80053 38.38305
# Shear Modulus (GPa) = 22.53771 24.18432 23.36102
#
# Velocity S-wave (km/s) = 3.46695 3.59136 3.52970
# Velocity P-wave (km/s) = 6.02279 6.15550 6.08951
#
# Compressibility (1/GPa) = 0.02633965
#
# Stress axis : x y z
#
# Youngs Moduli (GPa) = 50.95557 38.92631 55.82091
#
# Poissons Ratio (x) = 0.25345 0.24989
# Poissons Ratio (y) = 0.33177 0.41626
# Poissons Ratio (z) = 0.22811 0.29028
#
# Static dielectric constant tensor:
#      x y z
#    x 3.359310 0.000000 0.000000 
#    y 0.000000 3.390280 0.000000 
#    z 0.000000 0.000000 3.601270 
# 
# 
# High freq. dielectric constant tensor:
#      x y z
#    x 1.722650 0.000000 0.000000 
#    y 0.000000 1.729090 0.000000 
#    z 0.000000 0.000000 1.739550 
# 
# From -- ./inp_files/19625.got.cif
#   From: 2010.03.12/outbox.cif.g09.slc.cpg/sg62_10_cif.got.tgz:19625.got - 2010.04.10 19:12:36.
