data_PCOD8253627
_publ_section_title
;
Structure prediction by ZEFSAII (Michael W. Deem and Ramdas Pophale) SiO2 
 PCOD8253627
Probable space group: P N M A
;
_chemical_formula_sum "Si O2"
_cell_formula_units_Z 64
_cell_length_a 8.789175
_cell_length_b 14.241145
_cell_length_c 27.959884
_cell_angle_alpha 90.000000
_cell_angle_beta 90.000000
_cell_angle_gamma 90.000000
_cell_volume 3499.680401
_symmetry_space_group_name_H-M "P N M A"
_symmetry_group_IT_number 62
_symmetry_cell_setting 'orthorhombic'
loop_
_space_group_symop_operation_xyz
x,y,z
1/2-x,-y,1/2+z
1/2+x,1/2-y,1/2-z
-x,1/2+y,-z
-x,-y,-z
1/2+x,y,1/2-z
1/2-x,1/2+y,1/2+z
x,1/2-y,z
loop_
_atom_site_type_symbol
_atom_site_label
_atom_site_fract_x
_atom_site_fract_y
_atom_site_fract_z
Si Si1 0.687885 0.142520 0.208030
Si Si2 0.700707 0.642231 0.532502
Si Si3 0.854131 0.641416 0.982239
Si Si4 0.188121 0.026839 0.109231
Si Si5 0.832087 0.472465 0.124439
Si Si6 0.334711 0.142494 0.192195
Si Si7 0.197847 0.641943 0.419888
Si Si8 0.155803 0.142490 0.565755
O O1 0.732084 0.250000 0.196040
O O2 0.779572 0.075153 0.173001
O O3 0.509763 0.124862 0.203938
O O4 0.735033 0.117009 0.261721
O O5 0.714729 0.750000 0.548379
O O6 0.532587 0.619668 0.512728
O O7 0.740047 0.582162 0.579228
O O8 0.816713 0.617196 0.489963
O O9 0.820951 0.750000 0.971977
O O10 0.775697 0.608174 0.030939
O O11 0.780384 0.583925 0.939168
O O12 0.288783 0.073212 0.150124
O O13 0.013276 0.029303 0.124056
O O14 0.242446 0.920214 0.101144
O O15 0.768635 0.578867 0.122465
O O16 0.304985 0.250000 0.176402
O O17 0.237389 0.750000 0.408809
O O18 0.019212 0.625064 0.422941
O O19 0.204560 0.250000 0.575174
#
# Coordination Sequence:
#
# PCOD8253627 Si02
#       8
#     8   8   8   8   8   8   8   8
#     4  10  21  37  57  81 109 138 168 206 253 305
#     4   9  18  32  49  72 104 139 173 210 255 308
#     4   9  18  32  49  72 104 139 173 210 255 308
#     4  11  21  33  53  78 104 137 176 215 257 308
#     4  11  21  33  53  78 104 137 176 215 257 308
#     4  10  21  37  57  81 109 138 168 206 253 305
#     4  10  21  35  50  71 102 139 178 220 262 304
#     4  10  21  35  50  71 102 139 178 220 262 304
#
# _framework density 18.287385
#
# number of rings (size 3 to 8) (size 9 to 14) (size 15 to 20)
#    0.000    2.000    0.000    3.750    0.000    9.000 
#    0.000    2.500    0.000    0.750    0.000    0.000 
#    0.000    0.000    0.000    0.000    0.000    0.000 
#
# Total GULP energy -793901.676247 kJ/mol
# GULP energy per Si atom -12404.713691 kJ/mol
# Density = 1.824576 g / cm^3
# Si number density = 18.287385 Si / 1000 Ang^3
#
#
#
# Elastic Constant Matrix: (Units=GPa)
#
#
# Indices 1 2 3 4 5 6 
#
# 1 41.9183 15.4153 5.5327 0.0000 0.0000 0.0000
# 2 15.4153 67.7800 29.5337 0.0000 0.0000 0.0000
# 3 5.5327 29.5337 42.9495 0.0000 0.0000 0.0000
# 4 0.0000 0.0000 0.0000 31.9910 0.0000 0.0000
# 5 0.0000 0.0000 0.0000 0.0000 32.4963 0.0000
# 6 0.0000 0.0000 0.0000 0.0000 0.0000 29.5355
#
#
#
# Elastic Compliance Matrix: (Units=1/GPa)
#
#
# Indices 1 2 3 4 5 6 
#
# 1 0.026065 -0.006375 0.001026 0.000000 0.000000 0.000000
# 2 -0.006375 0.022625 -0.014736 0.000000 0.000000 0.000000
# 3 0.001026 -0.014736 0.033284 0.000000 0.000000 0.000000
# 4 0.000000 0.000000 0.000000 0.031259 0.000000 0.000000
# 5 0.000000 0.000000 0.000000 0.000000 0.030773 0.000000
# 6 0.000000 0.000000 0.000000 0.000000 0.000000 0.033858
#
#
# Mechanical properties :
#
#
# Convention : Reuss Voigt Hill
#
# Bulk Modulus (GPa) = 23.92168 28.17906 26.05037
# Shear Modulus (GPa) = 21.55475 25.61565 23.58520
#
# Velocity S-wave (km/s) = 3.43690 3.74669 3.59513
# Velocity P-wave (km/s) = 5.37206 5.84460 5.61331
#
# Compressibility (1/GPa) = 0.04180309
#
# Stress axis : x y z
#
# Youngs Moduli (GPa) = 38.36579 44.19985 30.04433
#
# Poissons Ratio (x) = 0.28178 -0.03083
# Poissons Ratio (y) = 0.24458 0.44274
# Poissons Ratio (z) = -0.03937 0.65134
#
# Static dielectric constant tensor:
#      x y z
#    x 3.377360 0.000000 0.000000 
#    y 0.000000 3.469980 0.000000 
#    z 0.000000 0.000000 3.198730 
# 
# 
# High freq. dielectric constant tensor:
#      x y z
#    x 1.717830 0.000000 0.000000 
#    y 0.000000 1.712690 0.000000 
#    z 0.000000 0.000000 1.687810 
# 
# From -- ./inp_files/28991.got.cif
#   From: 2010.03.12/outbox.cif.g09.slc.cpg/sg62_15_cif.got.tgz:28991.got - 2010.04.10 19:12:36.
