data_PCOD8253466
_publ_section_title
;
Structure prediction by ZEFSAII (Michael W. Deem and Ramdas Pophale) SiO2 
 PCOD8253466
Probable space group: P N M A
;
_chemical_formula_sum "Si O2"
_cell_formula_units_Z 64
_cell_length_a 32.226641
_cell_length_b 8.631143
_cell_length_c 10.982084
_cell_angle_alpha 90.000000
_cell_angle_beta 90.000000
_cell_angle_gamma 90.000000
_cell_volume 3054.696831
_symmetry_space_group_name_H-M "P N M A"
_symmetry_group_IT_number 62
_symmetry_cell_setting 'orthorhombic'
loop_
_space_group_symop_operation_xyz
x,y,z
1/2-x,-y,1/2+z
1/2+x,1/2-y,1/2-z
-x,1/2+y,-z
-x,-y,-z
1/2+x,y,1/2-z
1/2-x,1/2+y,1/2+z
x,1/2-y,z
loop_
_atom_site_type_symbol
_atom_site_label
_atom_site_fract_x
_atom_site_fract_y
_atom_site_fract_z
Si Si1 0.817985 0.575385 0.243802
Si Si2 0.731700 0.069323 0.217458
Si Si3 0.837101 0.070353 0.860296
Si Si4 0.524545 0.432681 0.616864
Si Si5 0.099324 0.928059 0.352727
Si Si6 0.988190 0.568554 0.632726
Si Si7 0.832575 0.924556 0.517764
Si Si8 0.385843 0.430696 0.402171
O O1 0.826084 0.750000 0.197955
O O2 0.774910 0.514415 0.191135
O O3 0.812481 0.566577 0.387115
O O4 0.857769 0.469274 0.214287
O O5 0.740949 0.250000 0.221566
O O6 0.703103 0.014369 0.106451
O O7 0.706323 0.019301 0.338743
O O8 0.825819 0.250000 0.860126
O O9 0.872052 0.030643 0.761502
O O10 0.856604 0.016724 0.986905
O O11 0.500000 0.500000 0.500000
O O12 0.516705 0.250000 0.619049
O O13 0.511949 0.498211 0.749986
O O14 0.572691 0.468977 0.597177
O O15 0.084733 0.750000 0.355067
O O16 0.060015 0.038664 0.345291
O O17 0.126367 0.968194 0.472532
O O18 0.998007 0.750000 0.629475
O O19 0.000000 0.500000 0.500000
O O20 0.845760 0.750000 0.553028
O O21 0.397838 0.250000 0.407460
#
# Coordination Sequence:
#
# PCOD8253466 Si02
#       8
#     8   8   8   8   8   8   8   8
#     4  11  24  40  59  86 124 166 208 258 317 378
#     4  10  21  38  61  89 118 158 210 259 311 374
#     4   9  20  39  63  90 123 163 205 255 310 372
#     4  12  26  47  73 103 138 177 223 275 336 402
#     4  10  20  38  65  94 123 159 207 259 316 382
#     4  12  26  44  68  98 134 176 221 274 332 398
#     4   9  21  40  60  83 120 163 204 255 315 379
#     4  11  24  42  65  94 130 169 213 263 321 382
#
# _framework density 20.951340999999999
#
# number of rings (size 3 to 8) (size 9 to 14) (size 15 to 20)
#    0.000    1.500    0.000    4.500    3.500    4.000 
#    0.000    0.000    0.000    0.000    0.000    0.000 
#    0.000    0.000    0.000    0.000    0.000    0.000 
#
# Total GULP energy -793557.591912 kJ/mol
# GULP energy per Si atom -12399.337374 kJ/mol
# Density = 2.090366 g / cm^3
# Si number density = 20.951341 Si / 1000 Ang^3
#
#
#
# Elastic Constant Matrix: (Units=GPa)
#
#
# Indices 1 2 3 4 5 6 
#
# 1 116.6346 36.8932 33.5937 0.0000 0.0000 0.0000
# 2 36.8932 102.6453 43.4028 0.0000 0.0000 0.0000
# 3 33.5937 43.4028 94.2602 0.0000 0.0000 0.0000
# 4 0.0000 0.0000 0.0000 32.7945 0.0000 0.0000
# 5 0.0000 0.0000 0.0000 0.0000 23.3790 0.0000
# 6 0.0000 0.0000 0.0000 0.0000 0.0000 41.2526
#
#
#
# Elastic Compliance Matrix: (Units=1/GPa)
#
#
# Indices 1 2 3 4 5 6 
#
# 1 0.010090 -0.002615 -0.002392 0.000000 0.000000 0.000000
# 2 -0.002615 0.012776 -0.004951 0.000000 0.000000 0.000000
# 3 -0.002392 -0.004951 0.013741 0.000000 0.000000 0.000000
# 4 0.000000 0.000000 0.000000 0.030493 0.000000 0.000000
# 5 0.000000 0.000000 0.000000 0.000000 0.042773 0.000000
# 6 0.000000 0.000000 0.000000 0.000000 0.000000 0.024241
#
#
# Mechanical properties :
#
#
# Convention : Reuss Voigt Hill
#
# Bulk Modulus (GPa) = 59.91167 60.14660 60.02913
# Shear Modulus (GPa) = 31.32983 32.79527 32.06255
#
# Velocity S-wave (km/s) = 3.87119 3.96069 3.91619
# Velocity P-wave (km/s) = 6.97418 7.04884 7.01161
#
# Compressibility (1/GPa) = 0.01669124
#
# Stress axis : x y z
#
# Youngs Moduli (GPa) = 99.10897 78.27449 72.77564
#
# Poissons Ratio (x) = 0.20470 0.17406
# Poissons Ratio (y) = 0.25919 0.36028
# Poissons Ratio (z) = 0.23705 0.38750
#
# Static dielectric constant tensor:
#      x y z
#    x 3.825150 0.000000 0.000000 
#    y 0.000000 3.845390 0.000000 
#    z 0.000000 0.000000 3.948260 
# 
# 
# High freq. dielectric constant tensor:
#      x y z
#    x 1.830720 0.000000 0.000000 
#    y 0.000000 1.825290 0.000000 
#    z 0.000000 0.000000 1.824760 
# 
# From -- ./inp_files/15896.got.cif
#   From: 2010.03.12/outbox.cif.g09.slc.cpg/sg62_8_cif.got.tgz:15896.got - 2010.04.10 19:12:36.
