data_PCOD8253801
_publ_section_title
;
Structure prediction by ZEFSAII (Michael W. Deem and Ramdas Pophale) SiO2 
 PCOD8253801
Probable space group: P N M A
;
_chemical_formula_sum "Si O2"
_cell_formula_units_Z 56
_cell_length_a 21.012192
_cell_length_b 9.023074
_cell_length_c 14.802265
_cell_angle_alpha 90.000000
_cell_angle_beta 90.000000
_cell_angle_gamma 90.000000
_cell_volume 2806.428969
_symmetry_space_group_name_H-M "P N M A"
_symmetry_group_IT_number 62
_symmetry_cell_setting 'orthorhombic'
loop_
_space_group_symop_operation_xyz
x,y,z
1/2-x,-y,1/2+z
1/2+x,1/2-y,1/2-z
-x,1/2+y,-z
-x,-y,-z
1/2+x,y,1/2-z
1/2-x,1/2+y,1/2+z
x,1/2-y,z
loop_
_atom_site_type_symbol
_atom_site_label
_atom_site_fract_x
_atom_site_fract_y
_atom_site_fract_z
Si Si1 0.025503 0.423517 0.255203
Si Si2 0.161620 0.081048 0.318190
Si Si3 0.599121 0.419708 0.748970
Si Si4 0.236861 0.425285 0.689738
Si Si5 0.047736 0.924383 0.067904
Si Si6 0.755340 0.920303 0.518659
Si Si7 0.136639 0.081609 0.948961
O O1 0.016813 0.250000 0.236598
O O2 0.086377 0.459133 0.317960
O O3 0.040761 0.511485 0.165649
O O4 0.958600 0.487078 0.294570
O O5 0.171337 0.250000 0.287725
O O6 0.180291 0.057720 0.423257
O O7 0.204175 0.990205 0.246437
O O8 0.592817 0.250000 0.781346
O O9 0.668146 0.484252 0.775928
O O10 0.592515 0.431609 0.640006
O O11 0.240419 0.250000 0.702012
O O12 0.238473 0.472728 0.584677
O O13 0.037904 0.750000 0.069288
O O14 0.116526 0.970213 0.029330
O O15 0.000000 0.000000 0.000000
O O16 0.732602 0.750000 0.523186
O O17 0.707575 0.027998 0.573187
O O18 0.136006 0.250000 0.984149
#
# Coordination Sequence:
#
# PCOD8253801 Si02
#       7
#     8   8   8   8   8   8   8
#     4  11  23  38  57  83 118 156 194 239 293 349
#     4  10  22  39  59  87 120 153 191 242 296 348
#     4  10  21  37  57  82 114 152 193 237 286 343
#     4  10  21  39  62  87 114 153 199 242 289 347
#     4  12  23  35  53  80 113 149 188 230 286 350
#     4  10  21  38  61  86 115 152 196 243 294 346
#     4  11  21  35  56  83 116 149 188 236 290 347
#
# _framework density 19.954184000000001
#
# number of rings (size 3 to 8) (size 9 to 14) (size 15 to 20)
#    0.000    1.429    2.857    3.000    0.000    5.143 
#    0.000    0.714    0.000    0.000    0.000    0.000 
#    0.000    0.000    0.000    0.000    0.000    0.000 
#
# Total GULP energy -694158.564098 kJ/mol
# GULP energy per Si atom -12395.688645 kJ/mol
# Density = 1.990877 g / cm^3
# Si number density = 19.954184 Si / 1000 Ang^3
#
#
#
# Elastic Constant Matrix: (Units=GPa)
#
#
# Indices 1 2 3 4 5 6 
#
# 1 120.1638 43.9863 15.1527 0.0000 0.0000 0.0000
# 2 43.9863 78.4353 17.6187 0.0000 0.0000 0.0000
# 3 15.1527 17.6187 60.0881 0.0000 0.0000 0.0000
# 4 0.0000 0.0000 0.0000 21.3959 0.0000 0.0000
# 5 0.0000 0.0000 0.0000 0.0000 29.1913 0.0000
# 6 0.0000 0.0000 0.0000 0.0000 0.0000 36.0442
#
#
#
# Elastic Compliance Matrix: (Units=1/GPa)
#
#
# Indices 1 2 3 4 5 6 
#
# 1 0.010526 -0.005681 -0.000989 0.000000 0.000000 0.000000
# 2 -0.005681 0.016714 -0.003468 0.000000 0.000000 0.000000
# 3 -0.000989 -0.003468 0.017908 0.000000 0.000000 0.000000
# 4 0.000000 0.000000 0.000000 0.046738 0.000000 0.000000
# 5 0.000000 0.000000 0.000000 0.000000 0.034257 0.000000
# 6 0.000000 0.000000 0.000000 0.000000 0.000000 0.027744
#
#
# Mechanical properties :
#
#
# Convention : Reuss Voigt Hill
#
# Bulk Modulus (GPa) = 40.20409 45.80031 43.00220
# Shear Modulus (GPa) = 27.40414 29.45493 28.42953
#
# Velocity S-wave (km/s) = 3.70990 3.84621 3.77867
# Velocity P-wave (km/s) = 6.20831 6.53659 6.37456
#
# Compressibility (1/GPa) = 0.02487309
#
# Stress axis : x y z
#
# Youngs Moduli (GPa) = 95.00121 59.82896 55.83943
#
# Poissons Ratio (x) = 0.33989 0.05521
# Poissons Ratio (y) = 0.53970 0.19367
# Poissons Ratio (z) = 0.09393 0.20750
#
# Static dielectric constant tensor:
#      x y z
#    x 4.057560 0.000000 0.000000 
#    y 0.000000 4.026610 0.000000 
#    z 0.000000 0.000000 3.920230 
# 
# 
# High freq. dielectric constant tensor:
#      x y z
#    x 1.792980 0.000000 0.000000 
#    y 0.000000 1.775480 0.000000 
#    z 0.000000 0.000000 1.757310 
# 
# From -- ./inp_files/20384.got.cif
#   From: 2010.03.12/outbox.cif.g09.slc.cpg/sg62_11_cif.got.tgz:20384.got - 2010.04.10 19:12:36.
