data_PCOD8253937
_publ_section_title
;
Structure prediction by ZEFSAII (Michael W. Deem and Ramdas Pophale) SiO2 
 PCOD8253937
Probable space group: P N M A
;
_chemical_formula_sum "Si O2"
_cell_formula_units_Z 64
_cell_length_a 24.010515
_cell_length_b 8.691154
_cell_length_c 15.357416
_cell_angle_alpha 90.000000
_cell_angle_beta 90.000000
_cell_angle_gamma 90.000000
_cell_volume 3204.771496
_symmetry_space_group_name_H-M "P N M A"
_symmetry_group_IT_number 62
_symmetry_cell_setting 'orthorhombic'
loop_
_space_group_symop_operation_xyz
x,y,z
1/2-x,-y,1/2+z
1/2+x,1/2-y,1/2-z
-x,1/2+y,-z
-x,-y,-z
1/2+x,y,1/2-z
1/2-x,1/2+y,1/2+z
x,1/2-y,z
loop_
_atom_site_type_symbol
_atom_site_label
_atom_site_fract_x
_atom_site_fract_y
_atom_site_fract_z
Si Si1 0.117780 0.430824 0.397137
Si Si2 0.886734 0.570497 0.408380
Si Si3 0.696604 0.432054 0.252711
Si Si4 0.821166 0.431852 0.250189
Si Si5 0.500403 0.569747 0.335104
Si Si6 0.503484 0.931466 0.849662
Si Si7 0.122793 0.927843 0.103561
Si Si8 0.103722 0.930169 0.908770
O O1 0.113854 0.250000 0.381753
O O2 0.136913 0.468270 0.495407
O O3 0.161778 0.502213 0.328719
O O4 0.056516 0.498543 0.377643
O O5 0.882958 0.750000 0.387432
O O6 0.850490 0.479683 0.339086
O O7 0.950818 0.517994 0.407646
O O8 0.699157 0.250000 0.245457
O O9 0.758837 0.501545 0.248540
O O10 0.667928 0.475395 0.343491
O O11 0.818741 0.250000 0.247067
O O12 0.854856 0.492541 0.166218
O O13 0.497461 0.750000 0.313800
O O14 0.485454 0.470326 0.250657
O O15 0.560614 0.521092 0.370572
O O16 0.453986 0.524426 0.406093
O O17 0.509359 0.750000 0.864561
O O18 0.132260 0.750000 0.125540
O O19 0.132487 0.961914 0.001680
O O20 0.090273 0.750000 0.897899
#
# Coordination Sequence:
#
# PCOD8253937 Si02
#       8
#     8   8   8   8   8   8   8   8
#     4   9  20  37  59  86 113 150 191 231 283 342
#     4  11  22  37  59  87 118 148 187 236 288 341
#     4  10  21  40  61  81 110 151 197 239 282 337
#     4  10  22  39  59  82 111 151 197 238 281 336
#     4  11  21  34  56  88 120 147 186 236 285 337
#     4  11  20  35  59  85 116 151 189 227 282 349
#     4  10  22  38  58  88 118 148 188 236 289 341
#     4  10  21  38  59  83 116 156 191 227 284 347
#
# _framework density 19.970222
#
# number of rings (size 3 to 8) (size 9 to 14) (size 15 to 20)
#    0.000    1.750    2.500    1.875    0.000    2.500 
#    0.000    5.625    0.000    0.000    0.000    0.000 
#    0.000    0.000    0.000    0.000    0.000    0.000 
#
# Total GULP energy -793773.431919 kJ/mol
# GULP energy per Si atom -12402.709874 kJ/mol
# Density = 1.992477 g / cm^3
# Si number density = 19.970222 Si / 1000 Ang^3
#
#
#
# Elastic Constant Matrix: (Units=GPa)
#
#
# Indices 1 2 3 4 5 6 
#
# 1 139.3137 11.9444 45.5617 0.0000 0.0000 0.0000
# 2 11.9444 12.4976 8.6504 0.0000 0.0000 0.0000
# 3 45.5617 8.6504 111.7376 0.0000 0.0000 0.0000
# 4 0.0000 0.0000 0.0000 28.4725 0.0000 0.0000
# 5 0.0000 0.0000 0.0000 0.0000 16.8759 0.0000
# 6 0.0000 0.0000 0.0000 0.0000 0.0000 18.7266
#
#
#
# Elastic Compliance Matrix: (Units=1/GPa)
#
#
# Indices 1 2 3 4 5 6 
#
# 1 0.008715 -0.006202 -0.003073 0.000000 0.000000 0.000000
# 2 -0.006202 0.088959 -0.004358 0.000000 0.000000 0.000000
# 3 -0.003073 -0.004358 0.010540 0.000000 0.000000 0.000000
# 4 0.000000 0.000000 0.000000 0.035122 0.000000 0.000000
# 5 0.000000 0.000000 0.000000 0.000000 0.059256 0.000000
# 6 0.000000 0.000000 0.000000 0.000000 0.000000 0.053400
#
#
# Mechanical properties :
#
#
# Convention : Reuss Voigt Hill
#
# Bulk Modulus (GPa) = 12.35371 43.98466 28.16918
# Shear Modulus (GPa) = 16.11652 25.97451 21.04551
#
# Velocity S-wave (km/s) = 2.84390 3.61038 3.24982
# Velocity P-wave (km/s) = 4.12107 6.28114 5.31206
#
# Compressibility (1/GPa) = 0.08094735
#
# Stress axis : x y z
#
# Youngs Moduli (GPa) = 114.74571 11.24114 94.87541
#
# Poissons Ratio (x) = 0.06972 0.29159
# Poissons Ratio (y) = 0.71163 0.41347
# Poissons Ratio (z) = 0.35266 0.04899
#
# Static dielectric constant tensor:
#      x y z
#    x 3.859310 0.000000 0.000000 
#    y 0.000000 3.360900 0.000000 
#    z 0.000000 0.000000 3.713710 
# 
# 
# High freq. dielectric constant tensor:
#      x y z
#    x 1.779690 0.000000 0.000000 
#    y 0.000000 1.757440 0.000000 
#    z 0.000000 0.000000 1.790170 
# 
# From -- ./inp_files/20845.got.cif
#   From: 2010.03.12/outbox.cif.g09.slc.cpg/sg62_11_cif.got.tgz:20845.got - 2010.04.10 19:12:36.
