data_PCOD8253024
_publ_section_title
;
Structure prediction by ZEFSAII (Michael W. Deem and Ramdas Pophale) SiO2 
 PCOD8253024
Probable space group: P N M A
;
_chemical_formula_sum "Si O2"
_cell_formula_units_Z 48
_cell_length_a 14.723119
_cell_length_b 8.642097
_cell_length_c 20.002104
_cell_angle_alpha 90.000000
_cell_angle_beta 90.000000
_cell_angle_gamma 90.000000
_cell_volume 2545.040161
_symmetry_space_group_name_H-M "P N M A"
_symmetry_group_IT_number 62
_symmetry_cell_setting 'orthorhombic'
loop_
_space_group_symop_operation_xyz
x,y,z
1/2-x,-y,1/2+z
1/2+x,1/2-y,1/2-z
-x,1/2+y,-z
-x,-y,-z
1/2+x,y,1/2-z
1/2-x,1/2+y,1/2+z
x,1/2-y,z
loop_
_atom_site_type_symbol
_atom_site_label
_atom_site_fract_x
_atom_site_fract_y
_atom_site_fract_z
Si Si1 0.696487 0.929050 0.658421
Si Si2 0.562589 0.931722 0.442283
Si Si3 0.503240 0.071326 0.303397
Si Si4 0.920678 0.428824 0.542605
Si Si5 0.121175 0.932336 0.310983
Si Si6 0.718918 0.429358 0.516271
O O1 0.707772 0.750000 0.638636
O O2 0.605018 0.955084 0.701098
O O3 0.781792 0.985613 0.702880
O O4 0.688278 0.028497 0.591109
O O5 0.546221 0.750000 0.434343
O O6 0.500000 0.000000 0.500000
O O7 0.541261 0.017423 0.374026
O O8 0.666679 0.966623 0.462059
O O9 0.528484 0.250000 0.293000
O O10 0.549269 0.971192 0.245779
O O11 0.941096 0.250000 0.547356
O O12 0.917351 0.495447 0.618128
O O13 0.825392 0.463043 0.506025
O O14 0.000000 0.500000 0.500000
O O15 0.138889 0.750000 0.313875
O O16 0.695332 0.250000 0.504689
#
# Coordination Sequence:
#
# PCOD8253024 Si02
#       6
#     8   8   8   8   8   8
#     4  10  20  36  60  85 112 152 195 237 290 349
#     4  12  23  36  58  88 120 155 193 239 293 347
#     4  11  23  39  60  87 118 153 196 244 294 351
#     4   9  20  38  61  87 114 151 194 238 287 341
#     4  10  22  40  60  85 117 154 196 241 293 352
#     4  10  20  36  58  85 117 152 192 240 288 345
#
# _framework density 18.860213000000002
#
# number of rings (size 3 to 8) (size 9 to 14) (size 15 to 20)
#    0.000    1.667    1.667    4.500    0.000    6.000 
#    3.000    0.000    0.000    0.000    0.000    0.000 
#    0.000    0.000    0.000    0.000    0.000    0.000 
#
# Total GULP energy -595316.985916 kJ/mol
# GULP energy per Si atom -12402.437207 kJ/mol
# Density = 1.881729 g / cm^3
# Si number density = 18.860213 Si / 1000 Ang^3
#
#
#
# Elastic Constant Matrix: (Units=GPa)
#
#
# Indices 1 2 3 4 5 6 
#
# 1 121.1673 34.3057 55.3397 0.0000 0.0000 0.0000
# 2 34.3057 46.8487 12.4012 0.0000 0.0000 0.0000
# 3 55.3397 12.4012 82.8105 0.0000 0.0000 0.0000
# 4 0.0000 0.0000 0.0000 32.9883 0.0000 0.0000
# 5 0.0000 0.0000 0.0000 0.0000 33.6325 0.0000
# 6 0.0000 0.0000 0.0000 0.0000 0.0000 35.0000
#
#
#
# Elastic Compliance Matrix: (Units=1/GPa)
#
#
# Indices 1 2 3 4 5 6 
#
# 1 0.014464 -0.008364 -0.008413 0.000000 0.000000 0.000000
# 2 -0.008364 0.027063 0.001537 0.000000 0.000000 0.000000
# 3 -0.008413 0.001537 0.017468 0.000000 0.000000 0.000000
# 4 0.000000 0.000000 0.000000 0.030314 0.000000 0.000000
# 5 0.000000 0.000000 0.000000 0.000000 0.029733 0.000000
# 6 0.000000 0.000000 0.000000 0.000000 0.000000 0.028571
#
#
# Mechanical properties :
#
#
# Convention : Reuss Voigt Hill
#
# Bulk Modulus (GPa) = 35.07082 50.54662 42.80872
# Shear Modulus (GPa) = 26.65265 30.24282 28.44773
#
# Velocity S-wave (km/s) = 3.76329 4.00875 3.88796
# Velocity P-wave (km/s) = 6.12525 6.94878 6.54997
#
# Compressibility (1/GPa) = 0.02851373
#
# Stress axis : x y z
#
# Youngs Moduli (GPa) = 69.13920 36.95033 57.24826
#
# Poissons Ratio (x) = 0.30906 0.48163
# Poissons Ratio (y) = 0.57829 -0.08797
# Poissons Ratio (z) = 0.58167 -0.05678
#
# Static dielectric constant tensor:
#      x y z
#    x 3.371480 0.000000 0.000000 
#    y 0.000000 4.169970 0.000000 
#    z 0.000000 0.000000 2.202980 
# 
# 
# High freq. dielectric constant tensor:
#      x y z
#    x 1.743670 0.000000 0.000000 
#    y 0.000000 1.745300 0.000000 
#    z 0.000000 0.000000 1.713400 
# 
# From -- ./inp_files/23747.got.cif
#   From: 2010.03.12/outbox.cif.g09.slc.cpg/sg62_12_cif.got.tgz:23747.got - 2010.04.10 19:12:36.
