data_PCOD8253775
_publ_section_title
;
Structure prediction by ZEFSAII (Michael W. Deem and Ramdas Pophale) SiO2 
 PCOD8253775
Probable space group: P N M A
;
_chemical_formula_sum "Si O2"
_cell_formula_units_Z 56
_cell_length_a 16.431861
_cell_length_b 8.856472
_cell_length_c 19.404557
_cell_angle_alpha 90.000000
_cell_angle_beta 90.000000
_cell_angle_gamma 90.000000
_cell_volume 2823.912520
_symmetry_space_group_name_H-M "P N M A"
_symmetry_group_IT_number 62
_symmetry_cell_setting 'orthorhombic'
loop_
_space_group_symop_operation_xyz
x,y,z
1/2-x,-y,1/2+z
1/2+x,1/2-y,1/2-z
-x,1/2+y,-z
-x,-y,-z
1/2+x,y,1/2-z
1/2-x,1/2+y,1/2+z
x,1/2-y,z
loop_
_atom_site_type_symbol
_atom_site_label
_atom_site_fract_x
_atom_site_fract_y
_atom_site_fract_z
Si Si1 0.798849 0.572402 0.125374
Si Si2 0.731595 0.426238 0.405211
Si Si3 0.469983 0.080659 0.145180
Si Si4 0.588342 0.073674 0.502185
Si Si5 0.316759 0.081735 0.233908
Si Si6 0.382457 0.427479 0.888912
Si Si7 0.378759 0.926280 0.026829
O O1 0.796464 0.750000 0.115612
O O2 0.861173 0.507022 0.067875
O O3 0.822038 0.532462 0.203049
O O4 0.708423 0.506498 0.115794
O O5 0.754948 0.250000 0.414221
O O6 0.638537 0.456281 0.430418
O O7 0.752231 0.472505 0.325729
O O8 0.786844 0.520883 0.457299
O O9 0.477995 0.250000 0.114534
O O10 0.409734 0.083789 0.209273
O O11 0.558906 0.013929 0.166101
O O12 0.435029 0.960878 0.091366
O O13 0.574327 0.250000 0.512343
O O14 0.500000 0.000000 0.500000
O O15 0.291464 0.250000 0.258202
O O16 0.386761 0.250000 0.876033
O O17 0.414914 0.476224 0.963966
O O18 0.379595 0.750000 0.009476
#
# Coordination Sequence:
#
# PCOD8253775 Si02
#       7
#     8   8   8   8   8   8   8
#     4  10  22  40  61  83 117 156 190 241 301 350
#     4   9  18  38  61  82 115 154 193 240 295 348
#     4  10  21  37  55  81 115 151 190 232 282 343
#     4  10  21  40  63  88 117 154 199 249 299 349
#     4   9  20  38  61  84 113 153 194 241 293 353
#     4  11  21  36  56  81 114 151 188 231 287 344
#     4  11  20  31  54  86 115 146 183 229 279 338
#
# _framework density 19.830642999999998
#
# number of rings (size 3 to 8) (size 9 to 14) (size 15 to 20)
#    0.000    2.000    1.429    3.429    0.000    5.143 
#    2.571    0.000    0.000    0.000    0.000    0.000 
#    0.000    0.000    0.000    0.000    0.000    0.000 
#
# Total GULP energy -694010.730409 kJ/mol
# GULP energy per Si atom -12393.048757 kJ/mol
# Density = 1.978551 g / cm^3
# Si number density = 19.830643 Si / 1000 Ang^3
#
#
#
# Elastic Constant Matrix: (Units=GPa)
#
#
# Indices 1 2 3 4 5 6 
#
# 1 150.7235 37.4497 44.3198 0.0000 0.0000 0.0000
# 2 37.4497 51.3755 16.5805 0.0000 0.0000 0.0000
# 3 44.3198 16.5805 86.0231 0.0000 0.0000 0.0000
# 4 0.0000 0.0000 0.0000 29.1670 0.0000 0.0000
# 5 0.0000 0.0000 0.0000 0.0000 14.4552 0.0000
# 6 0.0000 0.0000 0.0000 0.0000 0.0000 34.8159
#
#
#
# Elastic Compliance Matrix: (Units=1/GPa)
#
#
# Indices 1 2 3 4 5 6 
#
# 1 0.009046 -0.005428 -0.003614 0.000000 0.000000 0.000000
# 2 -0.005428 0.024012 -0.001832 0.000000 0.000000 0.000000
# 3 -0.003614 -0.001832 0.013840 0.000000 0.000000 0.000000
# 4 0.000000 0.000000 0.000000 0.034285 0.000000 0.000000
# 5 0.000000 0.000000 0.000000 0.000000 0.069179 0.000000
# 6 0.000000 0.000000 0.000000 0.000000 0.000000 0.028723
#
#
# Mechanical properties :
#
#
# Convention : Reuss Voigt Hill
#
# Bulk Modulus (GPa) = 39.76077 53.86913 46.81495
# Shear Modulus (GPa) = 23.89864 28.33906 26.11885
#
# Velocity S-wave (km/s) = 3.47527 3.78438 3.63312
# Velocity P-wave (km/s) = 6.01640 6.80581 6.42324
#
# Compressibility (1/GPa) = 0.02515042
#
# Stress axis : x y z
#
# Youngs Moduli (GPa) = 110.54558 41.64567 72.25392
#
# Poissons Ratio (x) = 0.22603 0.26116
# Poissons Ratio (y) = 0.59999 0.13236
# Poissons Ratio (z) = 0.39956 0.07629
#
# Static dielectric constant tensor:
#      x y z
#    x 3.905940 0.000000 0.000000 
#    y 0.000000 3.480740 0.000000 
#    z 0.000000 0.000000 3.431420 
# 
# 
# High freq. dielectric constant tensor:
#      x y z
#    x 1.781060 0.000000 0.000000 
#    y 0.000000 1.764660 0.000000 
#    z 0.000000 0.000000 1.750400 
# 
# From -- ./inp_files/27100.got.cif
#   From: 2010.03.12/outbox.cif.g09.slc.cpg/sg62_14_cif.got.tgz:27100.got - 2010.04.10 19:12:36.
