data_PCOD8253845
_publ_section_title
;
Structure prediction by ZEFSAII (Michael W. Deem and Ramdas Pophale) SiO2 
 PCOD8253845
Probable space group: P N M A
;
_chemical_formula_sum "Si O2"
_cell_formula_units_Z 48
_cell_length_a 5.580427
_cell_length_b 12.229606
_cell_length_c 26.965198
_cell_angle_alpha 90.000000
_cell_angle_beta 90.000000
_cell_angle_gamma 90.000000
_cell_volume 1840.278323
_symmetry_space_group_name_H-M "P N M A"
_symmetry_group_IT_number 62
_symmetry_cell_setting 'orthorhombic'
loop_
_space_group_symop_operation_xyz
x,y,z
1/2-x,-y,1/2+z
1/2+x,1/2-y,1/2-z
-x,1/2+y,-z
-x,-y,-z
1/2+x,y,1/2-z
1/2-x,1/2+y,1/2+z
x,1/2-y,z
loop_
_atom_site_type_symbol
_atom_site_label
_atom_site_fract_x
_atom_site_fract_y
_atom_site_fract_z
Si Si1 0.132008 0.621739 0.963343
Si Si2 0.834159 0.573425 0.768363
Si Si3 0.472718 0.519218 0.630944
Si Si4 0.133189 0.876141 0.492495
Si Si5 0.906957 0.868492 0.394825
Si Si6 0.300831 0.373735 0.801031
O O1 0.144008 0.750000 0.972464
O O2 0.382148 0.568958 0.985041
O O3 0.131127 0.597190 0.904006
O O4 0.887834 0.574863 0.989205
O O5 0.588442 0.629818 0.748589
O O6 0.823060 0.587201 0.827792
O O7 0.858985 0.447208 0.747353
O O8 0.291950 0.458664 0.593734
O O9 0.608709 0.430756 0.663930
O O10 0.123897 0.750000 0.509705
O O11 0.131262 0.888569 0.432202
O O12 0.797255 0.750000 0.408770
O O13 0.967873 0.869508 0.336521
O O14 0.223879 0.250000 0.784937
#
# Coordination Sequence:
#
# PCOD8253845 Si02
#       6
#     8   8   8   8   8   8
#     4  10  23  42  64  87 119 162 206 259 313 357
#     4  10  21  38  57  84 118 158 193 241 290 353
#     4  11  23  37  62  88 122 159 213 251 302 361
#     4   9  21  40  61  87 122 161 203 253 307 363
#     4  10  21  37  58  88 126 163 201 247 301 366
#     4  10  22  38  58  88 126 166 200 240 301 367
#
# _framework density 26.083012
#
# number of rings (size 3 to 8) (size 9 to 14) (size 15 to 20)
#    0.000    2.000    1.667    0.500    4.667    4.667 
#    0.000    0.000    0.000    4.000    0.000    0.000 
#    0.000    0.000    0.000    0.000    0.000    0.000 
#
# Total GULP energy -594734.536663 kJ/mol
# GULP energy per Si atom -12390.302847 kJ/mol
# Density = 2.602365 g / cm^3
# Si number density = 26.083012 Si / 1000 Ang^3
#
#
#
# Elastic Constant Matrix: (Units=GPa)
#
#
# Indices 1 2 3 4 5 6 
#
# 1 180.9133 47.4487 56.9856 0.0000 0.0000 0.0000
# 2 47.4487 40.6412 19.3583 0.0000 0.0000 0.0000
# 3 56.9856 19.3583 145.0065 0.0000 0.0000 0.0000
# 4 0.0000 0.0000 0.0000 19.3540 0.0000 0.0000
# 5 0.0000 0.0000 0.0000 0.0000 35.9681 0.0000
# 6 0.0000 0.0000 0.0000 0.0000 0.0000 165.4361
#
#
#
# Elastic Compliance Matrix: (Units=1/GPa)
#
#
# Indices 1 2 3 4 5 6 
#
# 1 0.008561 -0.008962 -0.002168 0.000000 0.000000 0.000000
# 2 -0.008962 0.035659 -0.001238 0.000000 0.000000 0.000000
# 3 -0.002168 -0.001238 0.007914 0.000000 0.000000 0.000000
# 4 0.000000 0.000000 0.000000 0.051669 0.000000 0.000000
# 5 0.000000 0.000000 0.000000 0.000000 0.027802 0.000000
# 6 0.000000 0.000000 0.000000 0.000000 0.000000 0.006045
#
#
# Mechanical properties :
#
#
# Convention : Reuss Voigt Hill
#
# Bulk Modulus (GPa) = 36.50132 68.23846 52.36989
# Shear Modulus (GPa) = 29.15135 60.33618 44.74377
#
# Velocity S-wave (km/s) = 3.34674 4.81483 4.14628
# Velocity P-wave (km/s) = 5.38134 7.55837 6.56078
#
# Compressibility (1/GPa) = 0.02739627
#
# Stress axis : x y z
#
# Youngs Moduli (GPa) = 116.80970 28.04345 126.36619
#
# Poissons Ratio (x) = 0.25133 0.27395
# Poissons Ratio (y) = 1.04688 0.15649
# Poissons Ratio (z) = 0.25323 0.03473
#
# Static dielectric constant tensor:
#      x y z
#    x 5.061000 0.000000 0.000000 
#    y 0.000000 4.617080 0.000000 
#    z 0.000000 0.000000 4.990650 
# 
# 
# High freq. dielectric constant tensor:
#      x y z
#    x 2.055240 0.000000 0.000000 
#    y 0.000000 2.031720 0.000000 
#    z 0.000000 0.000000 2.049190 
# 
# From -- ./inp_files/30411.got.cif
#   From: 2010.03.12/outbox.cif.g09.slc.cpg/sg62_16_cif.got.tgz:30411.got - 2010.04.10 19:12:36.
