data_PCOD8253297
_publ_section_title
;
Structure prediction by ZEFSAII (Michael W. Deem and Ramdas Pophale) SiO2 
 PCOD8253297
Probable space group: P N M A
;
_chemical_formula_sum "Si O2"
_cell_formula_units_Z 64
_cell_length_a 15.258775
_cell_length_b 8.820838
_cell_length_c 23.501323
_cell_angle_alpha 90.000000
_cell_angle_beta 90.000000
_cell_angle_gamma 90.000000
_cell_volume 3163.164855
_symmetry_space_group_name_H-M "P N M A"
_symmetry_group_IT_number 62
_symmetry_cell_setting 'orthorhombic'
loop_
_space_group_symop_operation_xyz
x,y,z
1/2-x,-y,1/2+z
1/2+x,1/2-y,1/2-z
-x,1/2+y,-z
-x,-y,-z
1/2+x,y,1/2-z
1/2-x,1/2+y,1/2+z
x,1/2-y,z
loop_
_atom_site_type_symbol
_atom_site_label
_atom_site_fract_x
_atom_site_fract_y
_atom_site_fract_z
Si Si1 0.750000 0.573958 0.931004
Si Si2 0.351238 0.074435 0.749223
Si Si3 0.648762 0.425565 0.750777
Si Si4 0.400658 0.428840 0.875698
Si Si5 0.078848 0.426610 0.140942
Si Si6 0.421152 0.426610 0.140943
Si Si7 0.750000 0.071801 0.051533
Si Si8 0.900658 0.571160 0.124302
O O1 0.750000 0.750000 0.949104
O O2 0.834592 0.532581 0.893973
O O3 0.665408 0.532581 0.893973
O O4 0.750000 0.467636 0.985392
O O5 0.375970 0.250000 0.741589
O O6 0.250000 0.043893 0.735964
O O7 0.372037 0.019404 0.812769
O O8 0.410152 0.978595 0.706121
O O9 0.624030 0.250000 0.758411
O O10 0.589848 0.521405 0.793879
O O11 0.627963 0.480597 0.687231
O O12 0.393546 0.250000 0.883176
O O13 0.498963 0.484050 0.888168
O O14 0.337126 0.504167 0.921053
O O15 0.057470 0.250000 0.139924
O O16 0.998963 0.515949 0.111832
O O17 0.442531 0.250000 0.139924
O O18 0.750000 0.250000 0.060218
O O19 0.837126 0.004166 0.078947
O O20 0.893546 0.750000 0.116824
#
# Coordination Sequence:
#
# PCOD8253297 Si02
#       8
#     8   8   8   8   8   8   8   8
#     4  10  24  45  64  85 123 166 206 254 311 368
#     4  10  20  37  62  91 125 166 206 244 302 375
#     4  10  20  37  62  91 125 166 206 244 302 375
#     4  11  23  42  65  92 127 168 204 247 308 373
#     4  11  23  40  63  95 127 162 206 257 309 359
#     4  11  23  40  63  95 127 162 206 257 309 359
#     4  12  26  43  66  93 119 156 210 264 309 360
#     4  11  23  42  65  92 127 168 204 247 308 373
#
# _framework density 20.232900999999998
#
# number of rings (size 3 to 8) (size 9 to 14) (size 15 to 20)
#    0.000    1.250    2.500    3.375    0.000    8.000 
#    0.000    0.000    0.000    0.000    0.000    0.000 
#    0.000    0.000    0.000    0.000    0.000    0.000 
#
# Total GULP energy -794074.900494 kJ/mol
# GULP energy per Si atom -12407.420320 kJ/mol
# Density = 2.018685 g / cm^3
# Si number density = 20.232901 Si / 1000 Ang^3
#
#
#
# Elastic Constant Matrix: (Units=GPa)
#
#
# Indices 1 2 3 4 5 6 
#
# 1 108.0700 43.5428 32.6154 0.0000 0.0000 0.0000
# 2 43.5428 93.8686 49.8787 0.0000 0.0000 0.0000
# 3 32.6154 49.8787 99.0538 0.0000 0.0000 0.0000
# 4 0.0000 0.0000 0.0000 34.0158 0.0000 0.0000
# 5 0.0000 0.0000 0.0000 0.0000 8.8164 0.0000
# 6 0.0000 0.0000 0.0000 0.0000 0.0000 36.1810
#
#
#
# Elastic Compliance Matrix: (Units=1/GPa)
#
#
# Indices 1 2 3 4 5 6 
#
# 1 0.011543 -0.004553 -0.001508 0.000000 0.000000 0.000000
# 2 -0.004553 0.016341 -0.006729 0.000000 0.000000 0.000000
# 3 -0.001508 -0.006729 0.013981 0.000000 0.000000 0.000000
# 4 0.000000 0.000000 0.000000 0.029398 0.000000 0.000000
# 5 0.000000 0.000000 0.000000 0.000000 0.113425 0.000000
# 6 0.000000 0.000000 0.000000 0.000000 0.000000 0.027639
#
#
# Mechanical properties :
#
#
# Convention : Reuss Voigt Hill
#
# Bulk Modulus (GPa) = 61.41135 61.45181 61.43158
# Shear Modulus (GPa) = 20.54775 27.46631 24.00703
#
# Velocity S-wave (km/s) = 3.19024 3.68843 3.44835
# Velocity P-wave (km/s) = 6.63237 6.96976 6.80316
#
# Compressibility (1/GPa) = 0.01628363
#
# Stress axis : x y z
#
# Youngs Moduli (GPa) = 86.63349 61.19579 71.52753
#
# Poissons Ratio (x) = 0.27863 0.10786
# Poissons Ratio (y) = 0.39445 0.48133
# Poissons Ratio (z) = 0.13064 0.41181
#
# Static dielectric constant tensor:
#      x y z
#    x 3.858480 0.000000 0.000000 
#    y 0.000000 3.627050 0.000000 
#    z 0.000000 0.000000 3.590080 
# 
# 
# High freq. dielectric constant tensor:
#      x y z
#    x 1.808470 0.000000 0.000000 
#    y 0.000000 1.791090 0.000000 
#    z 0.000000 0.000000 1.786800 
# 
# From -- ./inp_files/29875.got.cif
#   From: 2010.03.12/outbox.cif.g09.slc.cpg/sg62_15_cif.got.tgz:29875.got - 2010.04.10 19:12:36.
