data_PCOD8253321
_publ_section_title
;
Structure prediction by ZEFSAII (Michael W. Deem and Ramdas Pophale) SiO2 
 PCOD8253321
Probable space group: P N M A
;
_chemical_formula_sum "Si O2"
_cell_formula_units_Z 56
_cell_length_a 13.537625
_cell_length_b 22.470105
_cell_length_c 8.743102
_cell_angle_alpha 90.000000
_cell_angle_beta 90.000000
_cell_angle_gamma 90.000000
_cell_volume 2659.580418
_symmetry_space_group_name_H-M "P N M A"
_symmetry_group_IT_number 62
_symmetry_cell_setting 'orthorhombic'
loop_
_space_group_symop_operation_xyz
x,y,z
1/2-x,-y,1/2+z
1/2+x,1/2-y,1/2-z
-x,1/2+y,-z
-x,-y,-z
1/2+x,y,1/2-z
1/2-x,1/2+y,1/2+z
x,1/2-y,z
loop_
_atom_site_type_symbol
_atom_site_label
_atom_site_fract_x
_atom_site_fract_y
_atom_site_fract_z
Si Si1 0.375662 0.316810 0.532586
Si Si2 0.038279 0.098866 0.852115
Si Si3 0.868102 0.595102 0.826242
Si Si4 0.821479 0.377346 0.496602
Si Si5 0.929973 0.484259 0.638347
Si Si6 0.204061 0.182172 0.744096
Si Si7 0.030663 0.818660 0.716206
O O1 0.407810 0.250000 0.576677
O O2 0.442934 0.360607 0.628759
O O3 0.262295 0.327847 0.583961
O O4 0.389434 0.326657 0.352069
O O5 0.114495 0.135963 0.747825
O O6 0.004416 0.040025 0.766260
O O7 0.085165 0.077409 0.010685
O O8 0.753738 0.610661 0.856097
O O9 0.874004 0.541293 0.706642
O O10 0.925873 0.652242 0.759822
O O11 0.845484 0.438197 0.586474
O O12 0.775957 0.329261 0.612024
O O13 0.923491 0.350900 0.431087
O O14 0.000000 0.500000 0.500000
O O15 0.165244 0.250000 0.756658
O O16 0.009583 0.750000 0.679196
#
# Coordination Sequence:
#
# PCOD8253321 Si02
#       7
#     8   8   8   8   8   8   8
#     4   9  18  35  58  86 122 161 207 254 309 379
#     4  10  21  39  63  88 126 166 208 258 323 376
#     4  10  24  43  65  96 125 173 213 262 326 380
#     4  11  23  41  65  97 127 170 212 271 322 377
#     4  12  24  43  64  92 129 167 222 265 313 380
#     4  10  20  37  63  96 125 162 213 263 320 379
#     4  10  21  41  65  93 129 168 208 262 325 389
#
# _framework density 21.055955000000001
#
# number of rings (size 3 to 8) (size 9 to 14) (size 15 to 20)
#    0.000    1.714    2.857    1.286    0.000    7.429 
#    5.143    0.000    0.000    0.000    0.000    0.000 
#    0.000    0.000    0.000    0.000    0.000    0.000 
#
# Total GULP energy -694506.356327 kJ/mol
# GULP energy per Si atom -12401.899220 kJ/mol
# Density = 2.100803 g / cm^3
# Si number density = 21.055955 Si / 1000 Ang^3
#
#
#
# Elastic Constant Matrix: (Units=GPa)
#
#
# Indices 1 2 3 4 5 6 
#
# 1 68.1477 28.0467 13.4771 0.0000 0.0000 0.0000
# 2 28.0467 105.7662 34.0865 0.0000 0.0000 0.0000
# 3 13.4771 34.0865 45.1950 0.0000 0.0000 0.0000
# 4 0.0000 0.0000 0.0000 39.5417 0.0000 0.0000
# 5 0.0000 0.0000 0.0000 0.0000 37.3134 0.0000
# 6 0.0000 0.0000 0.0000 0.0000 0.0000 23.0355
#
#
#
# Elastic Compliance Matrix: (Units=1/GPa)
#
#
# Indices 1 2 3 4 5 6 
#
# 1 0.016629 -0.003714 -0.002157 0.000000 0.000000 0.000000
# 2 -0.003714 0.013321 -0.008939 0.000000 0.000000 0.000000
# 3 -0.002157 -0.008939 0.029511 0.000000 0.000000 0.000000
# 4 0.000000 0.000000 0.000000 0.025290 0.000000 0.000000
# 5 0.000000 0.000000 0.000000 0.000000 0.026800 0.000000
# 6 0.000000 0.000000 0.000000 0.000000 0.000000 0.043411
#
#
# Mechanical properties :
#
#
# Convention : Reuss Voigt Hill
#
# Bulk Modulus (GPa) = 33.51206 41.14773 37.32990
# Shear Modulus (GPa) = 25.70290 29.54470 27.62380
#
# Velocity S-wave (km/s) = 3.49764 3.74993 3.62598
# Velocity P-wave (km/s) = 5.67992 6.19143 5.94118
#
# Compressibility (1/GPa) = 0.02984000
#
# Stress axis : x y z
#
# Youngs Moduli (GPa) = 60.13456 75.07146 33.88514
#
# Poissons Ratio (x) = 0.27885 0.07310
# Poissons Ratio (y) = 0.22337 0.30290
# Poissons Ratio (z) = 0.12973 0.67106
#
# Static dielectric constant tensor:
#      x y z
#    x 3.732720 0.000000 0.000000 
#    y 0.000000 4.257540 0.000000 
#    z 0.000000 0.000000 3.809730 
# 
# 
# High freq. dielectric constant tensor:
#      x y z
#    x 1.819450 0.000000 0.000000 
#    y 0.000000 1.826580 0.000000 
#    z 0.000000 0.000000 1.827500 
# 
# From -- ./inp_files/6745.got.cif
#   From: 2010.03.12/outbox.cif.g09.slc.cpg/sg62_4_cif.got.tgz:6745.got - 2010.04.10 19:12:36.
