data_PCOD8253790
_publ_section_title
;
Structure prediction by ZEFSAII (Michael W. Deem and Ramdas Pophale) SiO2 
 PCOD8253790
Probable space group: P N M A
;
_chemical_formula_sum "Si O2"
_cell_formula_units_Z 64
_cell_length_a 9.436990
_cell_length_b 14.018977
_cell_length_c 25.233942
_cell_angle_alpha 90.000000
_cell_angle_beta 90.000000
_cell_angle_gamma 90.000000
_cell_volume 3338.373456
_symmetry_space_group_name_H-M "P N M A"
_symmetry_group_IT_number 62
_symmetry_cell_setting 'orthorhombic'
loop_
_space_group_symop_operation_xyz
x,y,z
1/2-x,-y,1/2+z
1/2+x,1/2-y,1/2-z
-x,1/2+y,-z
-x,-y,-z
1/2+x,y,1/2-z
1/2-x,1/2+y,1/2+z
x,1/2-y,z
loop_
_atom_site_type_symbol
_atom_site_label
_atom_site_fract_x
_atom_site_fract_y
_atom_site_fract_z
Si Si1 0.912264 0.639504 0.618961
Si Si2 0.933266 0.360941 0.698714
Si Si3 0.114015 0.638478 0.530095
Si Si4 0.836804 0.532005 0.237521
Si Si5 0.865962 0.017182 0.123627
Si Si6 0.624179 0.141096 0.405471
Si Si7 0.317538 0.140692 0.914351
Si Si8 0.324156 0.143650 0.192819
O O1 0.870644 0.750000 0.613949
O O2 0.772986 0.581119 0.632511
O O3 0.980269 0.598863 0.563666
O O4 0.025208 0.621997 0.665502
O O5 0.943237 0.250000 0.712491
O O6 0.800157 0.403834 0.728998
O O7 0.920897 0.378292 0.635420
O O8 0.072473 0.413056 0.718856
O O9 0.118720 0.750000 0.543889
O O10 0.265718 0.599479 0.550944
O O11 0.095058 0.616406 0.467917
O O12 0.918694 0.516959 0.181720
O O13 0.794449 0.428480 0.259569
O O14 0.986388 0.074280 0.092657
O O15 0.823130 0.924304 0.089243
O O16 0.577934 0.250000 0.418017
O O17 0.696176 0.135107 0.348295
O O18 0.264819 0.250000 0.915521
O O19 0.326211 0.250000 0.217245
#
# Coordination Sequence:
#
# PCOD8253790 Si02
#       8
#     8   8   8   8   8   8   8   8
#     4   9  18  33  53  77 105 135 169 206 247 302
#     4  10  21  37  57  77 100 133 175 219 262 304
#     4   8  16  34  56  73  98 136 170 205 251 304
#     4  11  21  35  52  76 106 137 173 213 255 302
#     4  11  21  31  48  77 106 132 165 211 257 300
#     4   9  18  32  50  74 104 135 166 201 251 313
#     4   9  19  35  54  75  98 130 174 217 257 303
#     4   9  18  33  51  72 101 140 175 202 243 305
#
# _framework density 19.171012999999999
#
# number of rings (size 3 to 8) (size 9 to 14) (size 15 to 20)
#    0.000    2.500    0.000    4.500    0.000    2.500 
#    0.000    3.125    0.000    3.000    0.000   11.375 
#    0.000    0.000    0.000    0.000    0.000    0.000 
#
# Total GULP energy -793508.200673 kJ/mol
# GULP energy per Si atom -12398.565636 kJ/mol
# Density = 1.912738 g / cm^3
# Si number density = 19.171013 Si / 1000 Ang^3
#
#
#
# Elastic Constant Matrix: (Units=GPa)
#
#
# Indices 1 2 3 4 5 6 
#
# 1 56.9899 13.7943 13.4898 0.0000 0.0000 0.0000
# 2 13.7943 71.8847 24.8089 0.0000 0.0000 0.0000
# 3 13.4898 24.8089 84.1615 0.0000 0.0000 0.0000
# 4 0.0000 0.0000 0.0000 23.6138 0.0000 0.0000
# 5 0.0000 0.0000 0.0000 0.0000 17.5910 0.0000
# 6 0.0000 0.0000 0.0000 0.0000 0.0000 21.8971
#
#
#
# Elastic Compliance Matrix: (Units=1/GPa)
#
#
# Indices 1 2 3 4 5 6 
#
# 1 0.018749 -0.002851 -0.002165 0.000000 0.000000 0.000000
# 2 -0.002851 0.015920 -0.004236 0.000000 0.000000 0.000000
# 3 -0.002165 -0.004236 0.013478 0.000000 0.000000 0.000000
# 4 0.000000 0.000000 0.000000 0.042348 0.000000 0.000000
# 5 0.000000 0.000000 0.000000 0.000000 0.056847 0.000000
# 6 0.000000 0.000000 0.000000 0.000000 0.000000 0.045668
#
#
# Mechanical properties :
#
#
# Convention : Reuss Voigt Hill
#
# Bulk Modulus (GPa) = 33.73375 35.24689 34.49032
# Shear Modulus (GPa) = 22.58406 23.34993 22.96700
#
# Velocity S-wave (km/s) = 3.43597 3.49374 3.46498
# Velocity P-wave (km/s) = 5.77716 5.89071 5.83421
#
# Compressibility (1/GPa) = 0.02964390
#
# Stress axis : x y z
#
# Youngs Moduli (GPa) = 53.33493 62.81359 74.19730
#
# Poissons Ratio (x) = 0.17907 0.16063
# Poissons Ratio (y) = 0.15204 0.31430
# Poissons Ratio (z) = 0.11547 0.26608
#
# Static dielectric constant tensor:
#      x y z
#    x 3.263130 0.000000 0.000000 
#    y 0.000000 3.643650 0.000000 
#    z 0.000000 0.000000 3.490060 
# 
# 
# High freq. dielectric constant tensor:
#      x y z
#    x 1.725440 0.000000 0.000000 
#    y 0.000000 1.751420 0.000000 
#    z 0.000000 0.000000 1.743210 
# 
# From -- ./inp_files/28969.got.cif
#   From: 2010.03.12/outbox.cif.g09.slc.cpg/sg62_15_cif.got.tgz:28969.got - 2010.04.10 19:12:36.
