data_PCOD8253584
_publ_section_title
;
Structure prediction by ZEFSAII (Michael W. Deem and Ramdas Pophale) SiO2 
 PCOD8253584
Probable space group: P N M A
;
_chemical_formula_sum "Si O2"
_cell_formula_units_Z 64
_cell_length_a 15.439230
_cell_length_b 23.892058
_cell_length_c 8.772226
_cell_angle_alpha 90.000000
_cell_angle_beta 90.000000
_cell_angle_gamma 90.000000
_cell_volume 3235.854678
_symmetry_space_group_name_H-M "P N M A"
_symmetry_group_IT_number 62
_symmetry_cell_setting 'orthorhombic'
loop_
_space_group_symop_operation_xyz
x,y,z
1/2-x,-y,1/2+z
1/2+x,1/2-y,1/2-z
-x,1/2+y,-z
-x,-y,-z
1/2+x,y,1/2-z
1/2-x,1/2+y,1/2+z
x,1/2-y,z
loop_
_atom_site_type_symbol
_atom_site_label
_atom_site_fract_x
_atom_site_fract_y
_atom_site_fract_z
Si Si1 0.661593 0.889118 0.595844
Si Si2 0.413839 0.189395 0.170861
Si Si3 0.744404 0.314794 0.865105
Si Si4 0.426672 0.479474 0.608886
Si Si5 0.199969 0.872543 0.447681
Si Si6 0.469679 0.443542 0.921052
Si Si7 0.815164 0.914400 0.798825
Si Si8 0.915510 0.651821 0.552401
O O1 0.589482 0.861488 0.706669
O O2 0.699565 0.836065 0.506950
O O3 0.628429 0.933325 0.476193
O O4 0.729749 0.924249 0.696676
O O5 0.391549 0.250000 0.243413
O O6 0.509920 0.194721 0.101659
O O7 0.344034 0.178983 0.036825
O O8 0.764567 0.250000 0.829375
O O9 0.768295 0.352605 0.718494
O O10 0.645540 0.320801 0.923340
O O11 0.500000 0.500000 0.500000
O O12 0.479859 0.449961 0.741621
O O13 0.366747 0.528067 0.679141
O O14 0.129994 0.923705 0.449318
O O15 0.286860 0.891884 0.535328
O O16 0.500000 0.500000 0.000000
O O17 0.540284 0.400043 0.972208
O O18 0.869600 0.867552 0.708874
#
# Coordination Sequence:
#
# PCOD8253584 Si02
#       8
#     8   8   8   8   8   8   8   8
#     4  10  23  40  62  91 123 159 209 253 298 370
#     4  10  20  41  65  86 118 166 207 250 305 365
#     4  11  22  40  63  92 123 160 205 263 314 353
#     4  12  25  38  62  90 126 162 199 247 310 365
#     4  10  23  40  64  89 126 155 208 252 305 369
#     4  11  23  42  62  90 123 164 199 250 311 372
#     4  10  23  40  61  89 122 163 200 244 302 374
#     4  10  22  40  63  90 123 159 207 255 304 368
#
# _framework density 19.778390999999999
#
# number of rings (size 3 to 8) (size 9 to 14) (size 15 to 20)
#    0.000    1.500    2.500    1.875    7.000    0.000 
#    0.000    1.875    0.000    0.000    0.000    0.000 
#    0.000    0.000    0.000    0.000    0.000    0.000 
#
# Total GULP energy -793178.587124 kJ/mol
# GULP energy per Si atom -12393.415424 kJ/mol
# Density = 1.973337 g / cm^3
# Si number density = 19.778391 Si / 1000 Ang^3
#
#
#
# Elastic Constant Matrix: (Units=GPa)
#
#
# Indices 1 2 3 4 5 6 
#
# 1 83.1679 32.2219 36.7948 0.0000 0.0000 0.0000
# 2 32.2219 105.7959 37.8048 0.0000 0.0000 0.0000
# 3 36.7948 37.8048 117.6305 0.0000 0.0000 0.0000
# 4 0.0000 0.0000 0.0000 34.4242 0.0000 0.0000
# 5 0.0000 0.0000 0.0000 0.0000 36.5710 0.0000
# 6 0.0000 0.0000 0.0000 0.0000 0.0000 9.0119
#
#
#
# Elastic Compliance Matrix: (Units=1/GPa)
#
#
# Indices 1 2 3 4 5 6 
#
# 1 0.014877 -0.003240 -0.003612 0.000000 0.000000 0.000000
# 2 -0.003240 0.011384 -0.002645 0.000000 0.000000 0.000000
# 3 -0.003612 -0.002645 0.010481 0.000000 0.000000 0.000000
# 4 0.000000 0.000000 0.000000 0.029049 0.000000 0.000000
# 5 0.000000 0.000000 0.000000 0.000000 0.027344 0.000000
# 6 0.000000 0.000000 0.000000 0.000000 0.000000 0.110964
#
#
# Mechanical properties :
#
#
# Convention : Reuss Voigt Hill
#
# Bulk Modulus (GPa) = 56.34640 57.80415 57.07528
# Shear Modulus (GPa) = 21.83295 29.31961 25.57628
#
# Velocity S-wave (km/s) = 3.32607 3.85438 3.59993
# Velocity P-wave (km/s) = 6.58035 7.00697 6.79701
#
# Compressibility (1/GPa) = 0.01774736
#
# Stress axis : x y z
#
# Youngs Moduli (GPa) = 67.21601 87.84043 95.40873
#
# Poissons Ratio (x) = 0.28464 0.34464
# Poissons Ratio (y) = 0.21780 0.25237
# Poissons Ratio (z) = 0.24280 0.23235
#
# Static dielectric constant tensor:
#      x y z
#    x 3.685620 0.000000 0.000000 
#    y 0.000000 3.323560 0.000000 
#    z 0.000000 0.000000 3.753620 
# 
# 
# High freq. dielectric constant tensor:
#      x y z
#    x 1.773180 0.000000 0.000000 
#    y 0.000000 1.770410 0.000000 
#    z 0.000000 0.000000 1.783750 
# 
# From -- ./inp_files/6959.got.cif
#   From: 2010.03.12/outbox.cif.g09.slc.cpg/sg62_4_cif.got.tgz:6959.got - 2010.04.10 19:12:36.
