data_PCOD8253204
_publ_section_title
;
Structure prediction by ZEFSAII (Michael W. Deem and Ramdas Pophale) SiO2 
 PCOD8253204
Probable space group: P N M A
;
_chemical_formula_sum "Si O2"
_cell_formula_units_Z 48
_cell_length_a 19.945271
_cell_length_b 13.134964
_cell_length_c 9.244035
_cell_angle_alpha 90.000000
_cell_angle_beta 90.000000
_cell_angle_gamma 90.000000
_cell_volume 2421.756140
_symmetry_space_group_name_H-M "P N M A"
_symmetry_group_IT_number 62
_symmetry_cell_setting 'orthorhombic'
loop_
_space_group_symop_operation_xyz
x,y,z
1/2-x,-y,1/2+z
1/2+x,1/2-y,1/2-z
-x,1/2+y,-z
-x,-y,-z
1/2+x,y,1/2-z
1/2-x,1/2+y,1/2+z
x,1/2-y,z
loop_
_atom_site_type_symbol
_atom_site_label
_atom_site_fract_x
_atom_site_fract_y
_atom_site_fract_z
Si Si1 0.773471 0.865126 0.002140
Si Si2 0.854580 0.632432 0.484065
Si Si3 0.977351 0.869064 0.287108
Si Si4 0.569180 0.361725 0.475939
Si Si5 0.238455 0.545465 0.193015
Si Si6 0.400764 0.005432 0.762484
O O1 0.741891 0.750000 0.003727
O O2 0.754530 0.933518 0.140117
O O3 0.852426 0.854365 0.005818
O O4 0.748169 0.927939 0.860017
O O5 0.863354 0.750000 0.526814
O O6 0.782514 0.620019 0.406975
O O7 0.859599 0.565961 0.627895
O O8 0.913606 0.593426 0.378383
O O9 0.985857 0.750000 0.307874
O O10 0.046559 0.920574 0.342350
O O11 0.967506 0.899882 0.120322
O O12 0.541795 0.250000 0.433338
O O13 0.554013 0.437769 0.345180
O O14 0.157915 0.566591 0.175423
#
# Coordination Sequence:
#
# PCOD8253204 Si02
#       6
#     8   8   8   8   8   8
#     4  10  20  37  59  85 119 155 197 246 293 352
#     4  11  22  39  60  82 112 154 199 237 289 362
#     4  10  21  37  59  84 112 151 191 233 295 356
#     4   9  18  35  59  82 108 150 193 230 282 346
#     4  11  21  38  59  88 114 157 200 241 300 352
#     4  11  22  36  58  86 118 144 191 249 289 342
#
# _framework density 19.820326000000001
#
# number of rings (size 3 to 8) (size 9 to 14) (size 15 to 20)
#    0.000    1.667    3.333    2.000    0.000    2.000 
#    0.000    0.000    0.000    1.000    0.000    0.000 
#    0.000    0.000    0.000    0.000    0.000    0.000 
#
# Total GULP energy -594869.991399 kJ/mol
# GULP energy per Si atom -12393.124821 kJ/mol
# Density = 1.977521 g / cm^3
# Si number density = 19.820326 Si / 1000 Ang^3
#
#
#
# Elastic Constant Matrix: (Units=GPa)
#
#
# Indices 1 2 3 4 5 6 
#
# 1 83.1786 38.0590 21.8201 0.0000 0.0000 0.0000
# 2 38.0590 80.4978 50.9365 0.0000 0.0000 0.0000
# 3 21.8201 50.9365 72.4503 0.0000 0.0000 0.0000
# 4 0.0000 0.0000 0.0000 27.9717 0.0000 0.0000
# 5 0.0000 0.0000 0.0000 0.0000 24.4929 0.0000
# 6 0.0000 0.0000 0.0000 0.0000 0.0000 26.9463
#
#
#
# Elastic Compliance Matrix: (Units=1/GPa)
#
#
# Indices 1 2 3 4 5 6 
#
# 1 0.015371 -0.007814 0.000865 0.000000 0.000000 0.000000
# 2 -0.007814 0.026351 -0.016173 0.000000 0.000000 0.000000
# 3 0.000865 -0.016173 0.024912 0.000000 0.000000 0.000000
# 4 0.000000 0.000000 0.000000 0.035750 0.000000 0.000000
# 5 0.000000 0.000000 0.000000 0.000000 0.040828 0.000000
# 6 0.000000 0.000000 0.000000 0.000000 0.000000 0.037111
#
#
# Mechanical properties :
#
#
# Convention : Reuss Voigt Hill
#
# Bulk Modulus (GPa) = 49.04494 50.86199 49.95347
# Shear Modulus (GPa) = 21.42567 24.23627 22.83097
#
# Velocity S-wave (km/s) = 3.29142 3.50065 3.39764
# Velocity P-wave (km/s) = 6.26443 6.48511 6.37572
#
# Compressibility (1/GPa) = 0.02038946
#
# Stress axis : x y z
#
# Youngs Moduli (GPa) = 65.05728 37.94946 40.14078
#
# Poissons Ratio (x) = 0.29656 -0.03471
# Poissons Ratio (y) = 0.50839 0.64918
# Poissons Ratio (z) = -0.05625 0.61374
#
# Static dielectric constant tensor:
#      x y z
#    x 3.558140 0.000000 0.000000 
#    y 0.000000 3.736830 0.000000 
#    z 0.000000 0.000000 3.610130 
# 
# 
# High freq. dielectric constant tensor:
#      x y z
#    x 1.763130 0.000000 0.000000 
#    y 0.000000 1.767610 0.000000 
#    z 0.000000 0.000000 1.769150 
# 
# From -- ./inp_files/8596.got.cif
#   From: 2010.03.12/outbox.cif.g09.slc.cpg/sg62_5_cif.got.tgz:8596.got - 2010.04.10 19:12:36.
