data_PCOD8253424
_publ_section_title
;
Structure prediction by ZEFSAII (Michael W. Deem and Ramdas Pophale) SiO2 
 PCOD8253424
Probable space group: P N M A
;
_chemical_formula_sum "Si O2"
_cell_formula_units_Z 64
_cell_length_a 12.552369
_cell_length_b 16.986323
_cell_length_c 14.303857
_cell_angle_alpha 90.000000
_cell_angle_beta 90.000000
_cell_angle_gamma 90.000000
_cell_volume 3049.848282
_symmetry_space_group_name_H-M "P N M A"
_symmetry_group_IT_number 62
_symmetry_cell_setting 'orthorhombic'
loop_
_space_group_symop_operation_xyz
x,y,z
1/2-x,-y,1/2+z
1/2+x,1/2-y,1/2-z
-x,1/2+y,-z
-x,-y,-z
1/2+x,y,1/2-z
1/2-x,1/2+y,1/2+z
x,1/2-y,z
loop_
_atom_site_type_symbol
_atom_site_label
_atom_site_fract_x
_atom_site_fract_y
_atom_site_fract_z
Si Si1 0.879090 0.906865 0.622193
Si Si2 0.757908 0.836741 0.918924
Si Si3 0.644432 0.916243 0.180023
Si Si4 0.655574 0.163791 0.618023
Si Si5 0.455390 0.156754 0.992081
Si Si6 0.052963 0.158165 0.193188
Si Si7 0.912691 0.158251 0.868382
Si Si8 0.649201 0.656699 0.577273
O O1 0.947779 0.855752 0.696213
O O2 0.756614 0.882590 0.614770
O O3 0.938833 0.890108 0.523776
O O4 0.889176 0.995963 0.655149
O O5 0.727641 0.750000 0.881077
O O6 0.834137 0.880752 0.843375
O O7 0.835269 0.830392 0.007256
O O8 0.645521 0.877150 0.946864
O O9 0.768333 0.903511 0.157548
O O10 0.569337 0.859368 0.117121
O O11 0.637533 0.896877 0.289430
O O12 0.684775 0.250000 0.661008
O O13 0.536601 0.140316 0.641334
O O14 0.471319 0.250000 0.004112
O O15 0.056722 0.250000 0.168837
O O16 0.947771 0.123902 0.141951
O O17 0.886437 0.250000 0.851092
O O18 0.869473 0.131901 0.969747
O O19 0.660589 0.750000 0.587212
#
# Coordination Sequence:
#
# PCOD8253424 Si02
#       8
#     8   8   8   8   8   8   8   8
#     4  12  26  40  56  95 138 172 200 253 322 389
#     4   8  15  32  60  87 108 144 203 264 302 345
#     4  11  24  41  59  93 131 172 205 248 322 396
#     4   9  17  36  63  90 115 151 211 265 308 364
#     4  10  21  41  67  88 116 164 219 262 301 359
#     4  10  20  38  63  89 119 162 216 263 307 367
#     4  10  20  40  69  94 119 157 216 278 314 358
#     4  10  22  42  67  94 123 160 214 271 317 364
#
# _framework density 20.984649999999998
#
# number of rings (size 3 to 8) (size 9 to 14) (size 15 to 20)
#    0.000    2.000    1.250    3.375    1.750    2.000 
#    4.500    2.500    0.000    0.000    0.000    0.000 
#    0.000    0.000    0.000    0.000    0.000    0.000 
#
# Total GULP energy -793231.364222 kJ/mol
# GULP energy per Si atom -12394.240066 kJ/mol
# Density = 2.093689 g / cm^3
# Si number density = 20.984650 Si / 1000 Ang^3
#
#
#
# Elastic Constant Matrix: (Units=GPa)
#
#
# Indices 1 2 3 4 5 6 
#
# 1 92.9479 26.2387 43.8996 0.0000 0.0000 0.0000
# 2 26.2387 60.5178 29.5226 0.0000 0.0000 0.0000
# 3 43.8996 29.5226 108.8537 0.0000 0.0000 0.0000
# 4 0.0000 0.0000 0.0000 11.8229 0.0000 0.0000
# 5 0.0000 0.0000 0.0000 0.0000 25.3536 0.0000
# 6 0.0000 0.0000 0.0000 0.0000 0.0000 19.8602
#
#
#
# Elastic Compliance Matrix: (Units=1/GPa)
#
#
# Indices 1 2 3 4 5 6 
#
# 1 0.014019 -0.003826 -0.004616 0.000000 0.000000 0.000000
# 2 -0.003826 0.020088 -0.003905 0.000000 0.000000 0.000000
# 3 -0.004616 -0.003905 0.012107 0.000000 0.000000 0.000000
# 4 0.000000 0.000000 0.000000 0.084581 0.000000 0.000000
# 5 0.000000 0.000000 0.000000 0.000000 0.039442 0.000000
# 6 0.000000 0.000000 0.000000 0.000000 0.000000 0.050352
#
#
# Mechanical properties :
#
#
# Convention : Reuss Voigt Hill
#
# Bulk Modulus (GPa) = 46.46916 51.29346 48.88131
# Shear Modulus (GPa) = 19.80529 22.25125 21.02827
#
# Velocity S-wave (km/s) = 3.07546 3.25985 3.16900
# Velocity P-wave (km/s) = 5.89947 6.21813 6.06090
#
# Compressibility (1/GPa) = 0.02151965
#
# Stress axis : x y z
#
# Youngs Moduli (GPa) = 71.33161 49.78083 82.59482
#
# Poissons Ratio (x) = 0.19048 0.38125
# Poissons Ratio (y) = 0.27294 0.32253
# Poissons Ratio (z) = 0.32926 0.19439
#
# Static dielectric constant tensor:
#      x y z
#    x 3.836020 0.000000 0.000000 
#    y 0.000000 3.403730 0.000000 
#    z 0.000000 0.000000 3.810220 
# 
# 
# High freq. dielectric constant tensor:
#      x y z
#    x 1.829530 0.000000 0.000000 
#    y 0.000000 1.785900 0.000000 
#    z 0.000000 0.000000 1.821390 
# 
# From -- ./inp_files/18247.got.cif
#   From: 2010.03.12/outbox.cif.g09.slc.cpg/sg62_10_cif.got.tgz:18247.got - 2010.04.10 19:12:36.
