data_PCOD8253007
_publ_section_title
;
Structure prediction by ZEFSAII (Michael W. Deem and Ramdas Pophale) SiO2 
 PCOD8253007
Probable space group: P N M A
;
_chemical_formula_sum "Si O2"
_cell_formula_units_Z 56
_cell_length_a 14.473826
_cell_length_b 16.054303
_cell_length_c 11.621155
_cell_angle_alpha 90.000000
_cell_angle_beta 90.000000
_cell_angle_gamma 90.000000
_cell_volume 2700.375111
_symmetry_space_group_name_H-M "P N M A"
_symmetry_group_IT_number 62
_symmetry_cell_setting 'orthorhombic'
loop_
_space_group_symop_operation_xyz
x,y,z
1/2-x,-y,1/2+z
1/2+x,1/2-y,1/2-z
-x,1/2+y,-z
-x,-y,-z
1/2+x,y,1/2-z
1/2-x,1/2+y,1/2+z
x,1/2-y,z
loop_
_atom_site_type_symbol
_atom_site_label
_atom_site_fract_x
_atom_site_fract_y
_atom_site_fract_z
Si Si1 0.990767 0.652922 0.934786
Si Si2 0.194892 0.348314 0.177992
Si Si3 0.005998 0.655822 0.187412
Si Si4 0.297114 0.154814 0.773517
Si Si5 0.872563 0.556407 0.325976
Si Si6 0.789798 0.457060 0.510663
Si Si7 0.325191 0.423597 0.351977
O O1 0.979527 0.750000 0.950606
O O2 0.911655 0.621910 0.844860
O O3 0.094543 0.637980 0.892537
O O4 0.973877 0.615888 0.064360
O O5 0.204554 0.250000 0.166098
O O6 0.233235 0.376074 0.303299
O O7 0.258314 0.390547 0.082738
O O8 0.969829 0.750000 0.200031
O O9 0.116472 0.653179 0.188193
O O10 0.966412 0.605356 0.297042
O O11 0.275545 0.250000 0.813500
O O12 0.212100 0.118197 0.702309
O O13 0.324675 0.095815 0.880728
O O14 0.867181 0.520376 0.456663
O O15 0.871538 0.475799 0.247815
O O16 0.704347 0.516129 0.544652
#
# Coordination Sequence:
#
# PCOD8253007 Si02
#       7
#     8   8   8   8   8   8   8
#     4  10  20  36  59  83 109 145 187 232 281 334
#     4  10  21  38  59  82 112 150 189 227 275 340
#     4  10  21  36  57  83 107 141 190 235 278 332
#     4  10  20  36  58  82 112 149 191 237 281 336
#     4  10  21  35  55  82 112 145 184 235 284 334
#     4  10  21  36  55  81 116 153 184 228 289 334
#     4  10  21  35  56  85 114 144 183 232 281 332
#
# _framework density 20.737859
#
# number of rings (size 3 to 8) (size 9 to 14) (size 15 to 20)
#    0.000    2.000    0.000    3.857    0.000    7.429 
#    0.000    3.571    0.000    6.857    0.000    0.000 
#    0.000    0.000    0.000    0.000    0.000    0.000 
#
# Total GULP energy -693916.552576 kJ/mol
# GULP energy per Si atom -12391.367010 kJ/mol
# Density = 2.069066 g / cm^3
# Si number density = 20.737859 Si / 1000 Ang^3
#
#
#
# Elastic Constant Matrix: (Units=GPa)
#
#
# Indices 1 2 3 4 5 6 
#
# 1 71.2019 30.4261 13.6918 0.0000 0.0000 0.0000
# 2 30.4261 78.6404 35.8446 0.0000 0.0000 0.0000
# 3 13.6918 35.8446 54.7905 0.0000 0.0000 0.0000
# 4 0.0000 0.0000 0.0000 14.2537 0.0000 0.0000
# 5 0.0000 0.0000 0.0000 0.0000 26.4622 0.0000
# 6 0.0000 0.0000 0.0000 0.0000 0.0000 29.7779
#
#
#
# Elastic Compliance Matrix: (Units=1/GPa)
#
#
# Indices 1 2 3 4 5 6 
#
# 1 0.016827 -0.006545 0.000077 0.000000 0.000000 0.000000
# 2 -0.006545 0.020665 -0.011884 0.000000 0.000000 0.000000
# 3 0.000077 -0.011884 0.026007 0.000000 0.000000 0.000000
# 4 0.000000 0.000000 0.000000 0.070157 0.000000 0.000000
# 5 0.000000 0.000000 0.000000 0.000000 0.037790 0.000000
# 6 0.000000 0.000000 0.000000 0.000000 0.000000 0.033582
#
#
# Mechanical properties :
#
#
# Convention : Reuss Voigt Hill
#
# Bulk Modulus (GPa) = 37.32113 40.50643 38.91378
# Shear Modulus (GPa) = 19.94712 22.41014 21.17863
#
# Velocity S-wave (km/s) = 3.10477 3.29087 3.19917
# Velocity P-wave (km/s) = 5.55774 5.83222 5.69663
#
# Compressibility (1/GPa) = 0.02679447
#
# Stress axis : x y z
#
# Youngs Moduli (GPa) = 59.42926 48.39048 38.45189
#
# Poissons Ratio (x) = 0.31674 -0.00297
# Poissons Ratio (y) = 0.38899 0.45695
# Poissons Ratio (z) = -0.00459 0.57506
#
# Static dielectric constant tensor:
#      x y z
#    x 3.652070 0.000000 0.000000 
#    y 0.000000 3.923720 0.000000 
#    z 0.000000 0.000000 3.928040 
# 
# 
# High freq. dielectric constant tensor:
#      x y z
#    x 1.800440 0.000000 0.000000 
#    y 0.000000 1.821120 0.000000 
#    z 0.000000 0.000000 1.800150 
# 
# From -- ./inp_files/13367.got.cif
#   From: 2010.03.12/outbox.cif.g09.slc.cpg/sg62_7_cif.got.tgz:13367.got - 2010.04.10 19:12:36.
