data_PCOD8253922
_publ_section_title
;
Structure prediction by ZEFSAII (Michael W. Deem and Ramdas Pophale) SiO2 
 PCOD8253922
Probable space group: P N M A
;
_chemical_formula_sum "Si O2"
_cell_formula_units_Z 32
_cell_length_a 7.529269
_cell_length_b 13.642840
_cell_length_c 17.484041
_cell_angle_alpha 90.000000
_cell_angle_beta 90.000000
_cell_angle_gamma 90.000000
_cell_volume 1795.971397
_symmetry_space_group_name_H-M "P N M A"
_symmetry_group_IT_number 62
_symmetry_cell_setting 'orthorhombic'
loop_
_space_group_symop_operation_xyz
x,y,z
1/2-x,-y,1/2+z
1/2+x,1/2-y,1/2-z
-x,1/2+y,-z
-x,-y,-z
1/2+x,y,1/2-z
1/2-x,1/2+y,1/2+z
x,1/2-y,z
loop_
_atom_site_type_symbol
_atom_site_label
_atom_site_fract_x
_atom_site_fract_y
_atom_site_fract_z
Si Si1 0.249460 0.637568 0.907443
Si Si2 0.550546 0.020323 0.324743
Si Si3 0.215104 0.862572 0.084645
Si Si4 0.937103 0.483545 0.344753
O O1 0.276572 0.750000 0.884264
O O2 0.098846 0.593838 0.853157
O O3 0.436241 0.583483 0.895805
O O4 0.188286 0.626149 0.994373
O O5 0.524798 0.992811 0.236511
O O6 0.745728 0.070737 0.333774
O O7 0.550415 0.918761 0.373875
O O8 0.216588 0.750000 0.110219
O O9 0.400914 0.913069 0.111443
#
# Coordination Sequence:
#
# PCOD8253922 Si02
#       4
#     8   8   8   8
#     4  11  21  38  59  83 111 147 186 227 274 328
#     4  10  21  38  58  81 116 144 185 226 278 321
#     4   9  21  38  59  83 111 145 186 227 276 328
#     4  10  21  38  58  81 116 144 185 226 278 321
#
# _framework density 17.817655999999999
#
# number of rings (size 3 to 8) (size 9 to 14) (size 15 to 20)
#    1.500    0.500    2.500    1.500    0.000    3.000 
#    0.000    1.250    0.000    0.000    0.000    0.000 
#    0.000    0.000    0.000    0.000    0.000    0.000 
#
# Total GULP energy -396560.400968 kJ/mol
# GULP energy per Si atom -12392.512530 kJ/mol
# Density = 1.777710 g / cm^3
# Si number density = 17.817656 Si / 1000 Ang^3
#
#
#
# Elastic Constant Matrix: (Units=GPa)
#
#
# Indices 1 2 3 4 5 6 
#
# 1 64.8404 12.2497 -7.7100 0.0000 0.0000 0.0000
# 2 12.2497 102.7574 29.3701 0.0000 0.0000 0.0000
# 3 -7.7100 29.3701 67.2431 0.0000 0.0000 0.0000
# 4 0.0000 0.0000 0.0000 14.7436 0.0000 0.0000
# 5 0.0000 0.0000 0.0000 0.0000 21.8736 0.0000
# 6 0.0000 0.0000 0.0000 0.0000 0.0000 30.7615
#
#
#
# Elastic Compliance Matrix: (Units=1/GPa)
#
#
# Indices 1 2 3 4 5 6 
#
# 1 0.016328 -0.002836 0.003111 0.000000 0.000000 0.000000
# 2 -0.002836 0.011612 -0.005397 0.000000 0.000000 0.000000
# 3 0.003111 -0.005397 0.017585 0.000000 0.000000 0.000000
# 4 0.000000 0.000000 0.000000 0.067826 0.000000 0.000000
# 5 0.000000 0.000000 0.000000 0.000000 0.045717 0.000000
# 6 0.000000 0.000000 0.000000 0.000000 0.000000 0.032508
#
#
# Mechanical properties :
#
#
# Convention : Reuss Voigt Hill
#
# Bulk Modulus (GPa) = 28.34325 33.62895 30.98610
# Shear Modulus (GPa) = 23.41028 26.87117 25.14072
#
# Velocity S-wave (km/s) = 3.62868 3.88767 3.76040
# Velocity P-wave (km/s) = 5.78778 6.25035 6.02350
#
# Compressibility (1/GPa) = 0.03528176
#
# Stress axis : x y z
#
# Youngs Moduli (GPa) = 61.24431 86.11580 56.86543
#
# Poissons Ratio (x) = 0.24419 -0.17689
# Poissons Ratio (y) = 0.17366 0.30691
# Poissons Ratio (z) = -0.19051 0.46477
#
# Static dielectric constant tensor:
#      x y z
#    x 3.222630 0.000000 0.000000 
#    y 0.000000 3.132790 0.000000 
#    z 0.000000 0.000000 3.355410 
# 
# 
# High freq. dielectric constant tensor:
#      x y z
#    x 1.683480 0.000000 0.000000 
#    y 0.000000 1.671670 0.000000 
#    z 0.000000 0.000000 1.705810 
# 
# From -- ./inp_files/21862.got.cif
#   From: 2010.03.12/outbox.cif.g09.slc.cpg/sg62_11_cif.got.tgz:21862.got - 2010.04.10 19:12:36.
