data_PCOD8253343
_publ_section_title
;
Structure prediction by ZEFSAII (Michael W. Deem and Ramdas Pophale) SiO2 
 PCOD8253343
Probable space group: P N M A
;
_chemical_formula_sum "Si O2"
_cell_formula_units_Z 48
_cell_length_a 14.137837
_cell_length_b 17.955653
_cell_length_c 9.520037
_cell_angle_alpha 90.000000
_cell_angle_beta 90.000000
_cell_angle_gamma 90.000000
_cell_volume 2416.700380
_symmetry_space_group_name_H-M "P N M A"
_symmetry_group_IT_number 62
_symmetry_cell_setting 'orthorhombic'
loop_
_space_group_symop_operation_xyz
x,y,z
1/2-x,-y,1/2+z
1/2+x,1/2-y,1/2-z
-x,1/2+y,-z
-x,-y,-z
1/2+x,y,1/2-z
1/2-x,1/2+y,1/2+z
x,1/2-y,z
loop_
_atom_site_type_symbol
_atom_site_label
_atom_site_fract_x
_atom_site_fract_y
_atom_site_fract_z
Si Si1 0.272552 0.059823 0.035799
Si Si2 0.568668 0.165727 0.823524
Si Si3 0.254278 0.411473 0.706029
Si Si4 0.984217 0.418575 0.434726
Si Si5 0.551659 0.909174 0.396981
Si Si6 0.425478 0.580807 0.635170
O O1 0.371998 0.097825 0.081222
O O2 0.183284 0.106438 0.102044
O O3 0.276825 0.977220 0.100847
O O4 0.265576 0.057365 0.865473
O O5 0.541980 0.250000 0.781988
O O6 0.680466 0.155342 0.807174
O O7 0.523904 0.103575 0.723983
O O8 0.530051 0.148061 0.977262
O O9 0.349994 0.371596 0.649598
O O10 0.000000 0.500000 0.500000
O O11 0.043913 0.410643 0.293475
O O12 0.504304 0.876796 0.539732
O O13 0.575038 0.995666 0.414028
#
# Coordination Sequence:
#
# PCOD8253343 Si02
#       6
#     8   8   8   8   8   8
#     4  11  21  35  63  97 124 155 204 271 325 361
#     4  12  25  41  60  90 132 173 209 252 320 396
#     4  11  22  36  62  97 124 157 209 265 320 370
#     4  12  21  39  63  91 125 163 215 266 314 370
#     4  10  20  38  59  93 118 161 203 260 313 372
#     4  10  21  35  64  94 126 148 211 274 319 361
#
# _framework density 19.861792999999999
#
# number of rings (size 3 to 8) (size 9 to 14) (size 15 to 20)
#    0.000    1.000    6.667    1.000    4.667    0.667 
#    0.000    0.833    0.000    2.000    0.000    0.000 
#    0.000    0.000    0.000    0.000    0.000    0.000 
#
# Total GULP energy -594808.192472 kJ/mol
# GULP energy per Si atom -12391.837343 kJ/mol
# Density = 1.981659 g / cm^3
# Si number density = 19.861793 Si / 1000 Ang^3
#
#
#
# Elastic Constant Matrix: (Units=GPa)
#
#
# Indices 1 2 3 4 5 6 
#
# 1 173.5132 16.7447 58.8548 0.0000 0.0000 0.0000
# 2 16.7447 25.7207 6.8332 0.0000 0.0000 0.0000
# 3 58.8548 6.8332 119.9685 0.0000 0.0000 0.0000
# 4 0.0000 0.0000 0.0000 11.0209 0.0000 0.0000
# 5 0.0000 0.0000 0.0000 0.0000 37.9257 0.0000
# 6 0.0000 0.0000 0.0000 0.0000 0.0000 7.9437
#
#
#
# Elastic Compliance Matrix: (Units=1/GPa)
#
#
# Indices 1 2 3 4 5 6 
#
# 1 0.007270 -0.003843 -0.003347 0.000000 0.000000 0.000000
# 2 -0.003843 0.041508 -0.000479 0.000000 0.000000 0.000000
# 3 -0.003347 -0.000479 0.010005 0.000000 0.000000 0.000000
# 4 0.000000 0.000000 0.000000 0.090737 0.000000 0.000000
# 5 0.000000 0.000000 0.000000 0.000000 0.026367 0.000000
# 6 0.000000 0.000000 0.000000 0.000000 0.000000 0.125886
#
#
# Mechanical properties :
#
#
# Convention : Reuss Voigt Hill
#
# Bulk Modulus (GPa) = 23.01815 53.78532 38.40173
# Shear Modulus (GPa) = 15.07870 27.16270 21.12070
#
# Velocity S-wave (km/s) = 2.75831 3.70210 3.26449
# Velocity P-wave (km/s) = 4.66462 6.73889 5.79531
#
# Compressibility (1/GPa) = 0.04344398
#
# Stress axis : x y z
#
# Youngs Moduli (GPa) = 137.55945 24.09145 99.94999
#
# Poissons Ratio (x) = 0.09259 0.33458
# Poissons Ratio (y) = 0.52869 0.04785
# Poissons Ratio (z) = 0.46047 0.01153
#
# Static dielectric constant tensor:
#      x y z
#    x 4.445240 0.000000 0.000000 
#    y 0.000000 2.977570 0.000000 
#    z 0.000000 0.000000 3.844020 
# 
# 
# High freq. dielectric constant tensor:
#      x y z
#    x 1.809090 0.000000 0.000000 
#    y 0.000000 1.700550 0.000000 
#    z 0.000000 0.000000 1.785670 
# 
# From -- ./inp_files/6443.got.cif
#   From: 2010.03.12/outbox.cif.g09.slc.cpg/sg62_4_cif.got.tgz:6443.got - 2010.04.10 19:12:36.
