data_PCOD8253634
_publ_section_title
;
Structure prediction by ZEFSAII (Michael W. Deem and Ramdas Pophale) SiO2 
 PCOD8253634
Probable space group: P N M A
;
_chemical_formula_sum "Si O2"
_cell_formula_units_Z 48
_cell_length_a 9.161153
_cell_length_b 14.721224
_cell_length_c 18.866788
_cell_angle_alpha 90.000000
_cell_angle_beta 90.000000
_cell_angle_gamma 90.000000
_cell_volume 2544.438902
_symmetry_space_group_name_H-M "P N M A"
_symmetry_group_IT_number 62
_symmetry_cell_setting 'orthorhombic'
loop_
_space_group_symop_operation_xyz
x,y,z
1/2-x,-y,1/2+z
1/2+x,1/2-y,1/2-z
-x,1/2+y,-z
-x,-y,-z
1/2+x,y,1/2-z
1/2-x,1/2+y,1/2+z
x,1/2-y,z
loop_
_atom_site_type_symbol
_atom_site_label
_atom_site_fract_x
_atom_site_fract_y
_atom_site_fract_z
Si Si1 0.388367 0.147127 0.801275
Si Si2 0.179744 0.643896 0.816768
Si Si3 0.281384 0.852188 0.164685
Si Si4 0.182608 0.983102 0.570149
Si Si5 0.341104 0.855754 0.674554
Si Si6 0.153971 0.006180 0.409346
O O1 0.336016 0.250000 0.818133
O O2 0.334777 0.116892 0.723659
O O3 0.561735 0.140105 0.798649
O O4 0.320645 0.081856 0.860634
O O5 0.208791 0.750000 0.829975
O O6 0.251851 0.611330 0.743286
O O7 0.252623 0.590607 0.881450
O O8 0.009490 0.620654 0.812482
O O9 0.251232 0.750000 0.137531
O O10 0.269500 0.917484 0.097241
O O11 0.282348 0.906845 0.605673
O O12 0.014276 0.963033 0.588422
O O13 0.211459 0.979351 0.486720
O O14 0.316570 0.750000 0.660526
#
# Coordination Sequence:
#
# PCOD8253634 Si02
#       6
#     8   8   8   8   8   8
#     4   9  18  33  52  74 100 131 169 211 254 303
#     4  10  21  37  57  80 106 139 180 225 271 318
#     4   9  18  33  52  74 100 131 169 211 254 303
#     4  10  21  35  53  79 109 141 175 214 264 318
#     4  10  21  37  57  80 106 139 180 225 271 318
#     4  10  21  35  53  79 109 141 175 214 264 318
#
# _framework density 18.864668999999999
#
# number of rings (size 3 to 8) (size 9 to 14) (size 15 to 20)
#    0.000    2.333    0.000    2.000    0.000    8.000 
#    0.000    3.333    0.000    4.000    0.000    0.000 
#    0.000    0.000    0.000    0.000    0.000    0.000 
#
# Total GULP energy -595414.733164 kJ/mol
# GULP energy per Si atom -12404.473608 kJ/mol
# Density = 1.882173 g / cm^3
# Si number density = 18.864669 Si / 1000 Ang^3
#
#
#
# Elastic Constant Matrix: (Units=GPa)
#
#
# Indices 1 2 3 4 5 6 
#
# 1 61.4144 34.4309 23.9923 0.0000 0.0000 0.0000
# 2 34.4309 64.3722 27.7874 0.0000 0.0000 0.0000
# 3 23.9923 27.7874 60.2856 0.0000 0.0000 0.0000
# 4 0.0000 0.0000 0.0000 23.9368 0.0000 0.0000
# 5 0.0000 0.0000 0.0000 0.0000 30.9015 0.0000
# 6 0.0000 0.0000 0.0000 0.0000 0.0000 30.7797
#
#
#
# Elastic Compliance Matrix: (Units=1/GPa)
#
#
# Indices 1 2 3 4 5 6 
#
# 1 0.024229 -0.010982 -0.004581 0.000000 0.000000 0.000000
# 2 -0.010982 0.024371 -0.006863 0.000000 0.000000 0.000000
# 3 -0.004581 -0.006863 0.021574 0.000000 0.000000 0.000000
# 4 0.000000 0.000000 0.000000 0.041777 0.000000 0.000000
# 5 0.000000 0.000000 0.000000 0.000000 0.032361 0.000000
# 6 0.000000 0.000000 0.000000 0.000000 0.000000 0.032489
#
#
# Mechanical properties :
#
#
# Convention : Reuss Voigt Hill
#
# Bulk Modulus (GPa) = 39.48953 39.83259 39.66106
# Shear Modulus (GPa) = 21.73031 23.78104 22.75567
#
# Velocity S-wave (km/s) = 3.39765 3.55436 3.47689
# Velocity P-wave (km/s) = 6.03080 6.16485 6.09820
#
# Compressibility (1/GPa) = 0.02532317
#
# Stress axis : x y z
#
# Youngs Moduli (GPa) = 41.27224 41.03204 46.35217
#
# Poissons Ratio (x) = 0.45063 0.21232
# Poissons Ratio (y) = 0.45326 0.31810
# Poissons Ratio (z) = 0.18905 0.28159
#
# Static dielectric constant tensor:
#      x y z
#    x 3.450240 0.000000 0.000000 
#    y 0.000000 3.564320 0.000000 
#    z 0.000000 0.000000 3.364610 
# 
# 
# High freq. dielectric constant tensor:
#      x y z
#    x 1.731760 0.000000 0.000000 
#    y 0.000000 1.742290 0.000000 
#    z 0.000000 0.000000 1.723840 
# 
# From -- ./inp_files/22185.got.cif
#   From: 2010.03.12/outbox.cif.g09.slc.cpg/sg62_12_cif.got.tgz:22185.got - 2010.04.10 19:12:36.
