data_PCOD8253398
_publ_section_title
;
Structure prediction by ZEFSAII (Michael W. Deem and Ramdas Pophale) SiO2 
 PCOD8253398
Probable space group: P N M A
;
_chemical_formula_sum "Si O2"
_cell_formula_units_Z 52
_cell_length_a 12.459031
_cell_length_b 7.535309
_cell_length_c 27.948762
_cell_angle_alpha 90.000000
_cell_angle_beta 90.000000
_cell_angle_gamma 90.000000
_cell_volume 2623.903797
_symmetry_space_group_name_H-M "P N M A"
_symmetry_group_IT_number 62
_symmetry_cell_setting 'orthorhombic'
loop_
_space_group_symop_operation_xyz
x,y,z
1/2-x,-y,1/2+z
1/2+x,1/2-y,1/2-z
-x,1/2+y,-z
-x,-y,-z
1/2+x,y,1/2-z
1/2-x,1/2+y,1/2+z
x,1/2-y,z
loop_
_atom_site_type_symbol
_atom_site_label
_atom_site_fract_x
_atom_site_fract_y
_atom_site_fract_z
Si Si1 0.395352 0.250000 0.682718
Si Si2 0.772469 0.544101 0.970987
Si Si3 0.870321 0.953099 0.637768
Si Si4 0.160009 0.250000 0.663614
Si Si5 0.669676 0.040065 0.574342
Si Si6 0.937475 0.250000 0.707741
Si Si7 0.061781 0.047743 0.108139
Si Si8 0.407608 0.452878 0.096191
O O1 0.269174 0.250000 0.692386
O O2 0.439579 0.250000 0.735708
O O3 0.434625 0.425401 0.655033
O O4 0.797678 0.750000 0.975413
O O5 0.647537 0.509524 0.955633
O O6 0.855377 0.467929 0.931346
O O7 0.792548 0.459732 0.023096
O O8 0.879599 0.750000 0.654895
O O9 0.965330 0.999199 0.599014
O O10 0.756749 0.986228 0.613643
O O11 0.882488 0.075969 0.684499
O O12 0.158557 0.427881 0.632530
O O13 0.063645 0.250000 0.700127
O O14 0.656720 0.250000 0.573466
O O15 0.557411 0.951087 0.586742
O O16 0.092316 0.250000 0.122164
O O17 0.387216 0.250000 0.111134
#
# Coordination Sequence:
#
# PCOD8253398 Si02
#       8
#     4   8   8   4   8   4   8   8
#     4  12  24  40  68  94 116 164 209 260 314 363
#     4   9  19  35  59  89 122 163 206 248 305 366
#     4  10  21  40  61  85 122 165 202 256 317 363
#     4  10  20  38  62  88 114 160 196 250 311 348
#     4  11  21  37  60  88 128 170 200 250 311 371
#     4  10  24  42  64  92 124 156 209 262 315 367
#     4  11  23  41  59  86 126 160 205 260 303 370
#     4   9  18  36  59  83 118 156 201 251 288 356
#
# _framework density 19.817799999999998
#
# number of rings (size 3 to 8) (size 9 to 14) (size 15 to 20)
#    0.000    1.846    3.077    0.923    0.000    2.462 
#    5.538    0.000    0.000    0.000    0.000    0.000 
#    0.000    0.000    0.000    0.000    0.000    0.000 
#
# Total GULP energy -644595.988558 kJ/mol
# GULP energy per Si atom -12396.076703 kJ/mol
# Density = 1.977269 g / cm^3
# Si number density = 19.817800 Si / 1000 Ang^3
#
#
#
# Elastic Constant Matrix: (Units=GPa)
#
#
# Indices 1 2 3 4 5 6 
#
# 1 55.2259 7.9165 6.9410 0.0000 0.0000 0.0000
# 2 7.9165 91.2544 33.3345 0.0000 0.0000 0.0000
# 3 6.9410 33.3345 108.5312 0.0000 0.0000 0.0000
# 4 0.0000 0.0000 0.0000 18.1282 0.0000 0.0000
# 5 0.0000 0.0000 0.0000 0.0000 22.9460 0.0000
# 6 0.0000 0.0000 0.0000 0.0000 0.0000 18.0320
#
#
#
# Elastic Compliance Matrix: (Units=1/GPa)
#
#
# Indices 1 2 3 4 5 6 
#
# 1 0.018393 -0.001313 -0.000773 0.000000 0.000000 0.000000
# 2 -0.001313 0.012437 -0.003736 0.000000 0.000000 0.000000
# 3 -0.000773 -0.003736 0.010411 0.000000 0.000000 0.000000
# 4 0.000000 0.000000 0.000000 0.055163 0.000000 0.000000
# 5 0.000000 0.000000 0.000000 0.000000 0.043581 0.000000
# 6 0.000000 0.000000 0.000000 0.000000 0.000000 0.055457
#
#
# Mechanical properties :
#
#
# Convention : Reuss Voigt Hill
#
# Bulk Modulus (GPa) = 33.78787 39.04394 36.41591
# Shear Modulus (GPa) = 23.04671 25.60921 24.32796
#
# Velocity S-wave (km/s) = 3.41388 3.59866 3.50749
# Velocity P-wave (km/s) = 5.71189 6.08370 5.90072
#
# Compressibility (1/GPa) = 0.02959642
#
# Stress axis : x y z
#
# Youngs Moduli (GPa) = 54.36896 80.40519 96.05379
#
# Poissons Ratio (x) = 0.10559 0.07424
# Poissons Ratio (y) = 0.07140 0.35885
# Poissons Ratio (z) = 0.04202 0.30039
#
# Static dielectric constant tensor:
#      x y z
#    x 3.757580 0.000000 0.000000 
#    y 0.000000 6.714250 0.000000 
#    z 0.000000 0.000000 3.388710 
# 
# 
# High freq. dielectric constant tensor:
#      x y z
#    x 1.786270 0.000000 0.000000 
#    y 0.000000 1.780990 0.000000 
#    z 0.000000 0.000000 1.741460 
# 
# From -- ./inp_files/31100.got.cif
#   From: 2010.03.12/outbox.cif.g09.slc.cpg/sg62_16_cif.got.tgz:31100.got - 2010.04.10 19:12:36.
