data_PCOD8253470
_publ_section_title
;
Structure prediction by ZEFSAII (Michael W. Deem and Ramdas Pophale) SiO2 
 PCOD8253470
Probable space group: P N M A
;
_chemical_formula_sum "Si O2"
_cell_formula_units_Z 48
_cell_length_a 15.222843
_cell_length_b 13.367848
_cell_length_c 11.845895
_cell_angle_alpha 90.000000
_cell_angle_beta 90.000000
_cell_angle_gamma 90.000000
_cell_volume 2410.599965
_symmetry_space_group_name_H-M "P N M A"
_symmetry_group_IT_number 62
_symmetry_cell_setting 'orthorhombic'
loop_
_space_group_symop_operation_xyz
x,y,z
1/2-x,-y,1/2+z
1/2+x,1/2-y,1/2-z
-x,1/2+y,-z
-x,-y,-z
1/2+x,y,1/2-z
1/2-x,1/2+y,1/2+z
x,1/2-y,z
loop_
_atom_site_type_symbol
_atom_site_label
_atom_site_fract_x
_atom_site_fract_y
_atom_site_fract_z
Si Si1 0.028222 0.635113 0.687595
Si Si2 0.814372 0.448483 0.183266
Si Si3 0.812760 0.365116 0.935272
Si Si4 0.541139 0.866627 0.068810
Si Si5 0.626205 0.501816 0.239945
Si Si6 0.862433 0.638334 0.303155
O O1 0.999794 0.750000 0.691801
O O2 0.124429 0.622423 0.740802
O O3 0.029629 0.595728 0.558966
O O4 0.955344 0.572959 0.756012
O O5 0.714633 0.436284 0.227184
O O6 0.844276 0.563916 0.199226
O O7 0.824251 0.417825 0.054667
O O8 0.844639 0.250000 0.941209
O O9 0.873360 0.424919 0.847522
O O10 0.711380 0.371460 0.899329
O O11 0.566118 0.750000 0.071003
O O12 0.618655 0.928891 0.128164
O O13 0.453184 0.890182 0.138206
O O14 0.864186 0.750000 0.252437
#
# Coordination Sequence:
#
# PCOD8253470 Si02
#       6
#     8   8   8   8   8   8
#     4  11  24  40  61  93 126 156 201 256 308 356
#     4  11  23  38  63  88 125 162 198 249 308 360
#     4  10  22  40  61  89 126 167 203 240 299 373
#     4  10  20  38  66  92 119 155 204 263 303 344
#     4  11  23  38  67  89 120 158 213 247 298 357
#     4   9  19  38  63  91 117 156 210 255 298 352
#
# _framework density 19.912054999999999
#
# number of rings (size 3 to 8) (size 9 to 14) (size 15 to 20)
#    0.000    1.667    1.667    2.500    4.667    4.000 
#    0.000    0.833    0.000    0.000    0.000    0.000 
#    0.000    0.000    0.000    0.000    0.000    0.000 
#
# Total GULP energy -595389.209375 kJ/mol
# GULP energy per Si atom -12403.941862 kJ/mol
# Density = 1.986673 g / cm^3
# Si number density = 19.912055 Si / 1000 Ang^3
#
#
#
# Elastic Constant Matrix: (Units=GPa)
#
#
# Indices 1 2 3 4 5 6 
#
# 1 104.5878 44.7885 43.8499 0.0000 0.0000 0.0000
# 2 44.7885 107.2090 73.2108 0.0000 0.0000 0.0000
# 3 43.8499 73.2108 128.6883 0.0000 0.0000 0.0000
# 4 0.0000 0.0000 0.0000 40.1420 0.0000 0.0000
# 5 0.0000 0.0000 0.0000 0.0000 22.2431 0.0000
# 6 0.0000 0.0000 0.0000 0.0000 0.0000 27.4857
#
#
#
# Elastic Compliance Matrix: (Units=1/GPa)
#
#
# Indices 1 2 3 4 5 6 
#
# 1 0.011956 -0.003619 -0.002015 0.000000 0.000000 0.000000
# 2 -0.003619 0.016349 -0.008068 0.000000 0.000000 0.000000
# 3 -0.002015 -0.008068 0.013047 0.000000 0.000000 0.000000
# 4 0.000000 0.000000 0.000000 0.024912 0.000000 0.000000
# 5 0.000000 0.000000 0.000000 0.000000 0.044958 0.000000
# 6 0.000000 0.000000 0.000000 0.000000 0.000000 0.036383
#
#
# Mechanical properties :
#
#
# Convention : Reuss Voigt Hill
#
# Bulk Modulus (GPa) = 71.69255 73.79814 72.74534
# Shear Modulus (GPa) = 27.83095 29.88322 28.85708
#
# Velocity S-wave (km/s) = 3.74263 3.87817 3.81100
# Velocity P-wave (km/s) = 7.39994 7.56281 7.48182
#
# Compressibility (1/GPa) = 0.01394845
#
# Stress axis : x y z
#
# Youngs Moduli (GPa) = 83.64066 61.16755 76.64529
#
# Poissons Ratio (x) = 0.22134 0.15446
# Poissons Ratio (y) = 0.30266 0.61835
# Poissons Ratio (z) = 0.16856 0.49348
#
# Static dielectric constant tensor:
#      x y z
#    x 3.644650 0.000000 0.000000 
#    y 0.000000 3.805760 0.000000 
#    z 0.000000 0.000000 3.474320 
# 
# 
# High freq. dielectric constant tensor:
#      x y z
#    x 1.775800 0.000000 0.000000 
#    y 0.000000 1.794000 0.000000 
#    z 0.000000 0.000000 1.762280 
# 
# From -- ./inp_files/13255.got.cif
#   From: 2010.03.12/outbox.cif.g09.slc.cpg/sg62_7_cif.got.tgz:13255.got - 2010.04.10 19:12:36.
