data_PCOD8253732
_publ_section_title
;
Structure prediction by ZEFSAII (Michael W. Deem and Ramdas Pophale) SiO2 
 PCOD8253732
Probable space group: P N M A
;
_chemical_formula_sum "Si O2"
_cell_formula_units_Z 64
_cell_length_a 9.787898
_cell_length_b 28.038315
_cell_length_c 11.154316
_cell_angle_alpha 90.000000
_cell_angle_beta 90.000000
_cell_angle_gamma 90.000000
_cell_volume 3061.147732
_symmetry_space_group_name_H-M "P N M A"
_symmetry_group_IT_number 62
_symmetry_cell_setting 'orthorhombic'
loop_
_space_group_symop_operation_xyz
x,y,z
1/2-x,-y,1/2+z
1/2+x,1/2-y,1/2-z
-x,1/2+y,-z
-x,-y,-z
1/2+x,y,1/2-z
1/2-x,1/2+y,1/2+z
x,1/2-y,z
loop_
_atom_site_type_symbol
_atom_site_label
_atom_site_fract_x
_atom_site_fract_y
_atom_site_fract_z
Si Si1 0.883866 0.303966 0.864396
Si Si2 0.692688 0.161991 0.657319
Si Si3 0.957848 0.547256 0.924280
Si Si4 0.569749 0.973259 0.134736
Si Si5 0.050304 0.073525 0.346767
Si Si6 0.194029 0.061651 0.721740
Si Si7 0.688897 0.601129 0.974966
Si Si8 0.292472 0.391058 0.486080
O O1 0.863636 0.250000 0.908232
O O2 0.802974 0.310342 0.738674
O O3 0.046671 0.312044 0.847368
O O4 0.816143 0.337365 0.965424
O O5 0.667753 0.109029 0.702740
O O6 0.761635 0.153069 0.524472
O O7 0.940007 0.546343 0.780685
O O8 0.810659 0.563196 0.971623
O O9 0.062561 0.590309 0.942771
O O10 0.000000 0.500000 0.000000
O O11 0.443380 0.968141 0.224359
O O12 0.702651 0.974921 0.218637
O O13 0.558447 0.025287 0.067237
O O14 0.575236 0.923949 0.059682
O O15 0.178496 0.108045 0.379253
O O16 0.906752 0.103885 0.355333
O O17 0.242916 0.074125 0.589559
#
# Coordination Sequence:
#
# PCOD8253732 Si02
#       8
#     8   8   8   8   8   8   8   8
#     4  11  23  42  71 102 132 163 209 272 347 418
#     4  10  21  39  64 100 132 169 208 267 336 408
#     4  12  26  40  63  91 129 178 232 275 324 390
#     4  11  23  34  56  87 126 177 224 259 304 375
#     4  12  26  39  57  88 130 175 230 274 314 389
#     4  10  21  36  58  86 129 175 214 263 314 379
#     4  11  23  40  59  88 129 179 215 269 329 380
#     4  11  23  42  60  90 128 174 211 272 334 394
#
# _framework density 20.907191000000001
#
# number of rings (size 3 to 8) (size 9 to 14) (size 15 to 20)
#    0.000    1.000    2.500    5.250   12.250    0.000 
#    0.000    0.000    0.000    0.750    0.000    0.000 
#    0.000    0.000    0.000    0.000    0.000    0.000 
#
# Total GULP energy -792859.770659 kJ/mol
# GULP energy per Si atom -12388.433917 kJ/mol
# Density = 2.085960 g / cm^3
# Si number density = 20.907191 Si / 1000 Ang^3
#
#
#
# Elastic Constant Matrix: (Units=GPa)
#
#
# Indices 1 2 3 4 5 6 
#
# 1 110.5432 35.4574 9.7655 0.0000 0.0000 0.0000
# 2 35.4574 102.9632 19.3099 0.0000 0.0000 0.0000
# 3 9.7655 19.3099 54.3966 0.0000 0.0000 0.0000
# 4 0.0000 0.0000 0.0000 13.0997 0.0000 0.0000
# 5 0.0000 0.0000 0.0000 0.0000 36.7826 0.0000
# 6 0.0000 0.0000 0.0000 0.0000 0.0000 21.7152
#
#
#
# Elastic Compliance Matrix: (Units=1/GPa)
#
#
# Indices 1 2 3 4 5 6 
#
# 1 0.010189 -0.003392 -0.000625 0.000000 0.000000 0.000000
# 2 -0.003392 0.011534 -0.003485 0.000000 0.000000 0.000000
# 3 -0.000625 -0.003485 0.019733 0.000000 0.000000 0.000000
# 4 0.000000 0.000000 0.000000 0.076338 0.000000 0.000000
# 5 0.000000 0.000000 0.000000 0.000000 0.027187 0.000000
# 6 0.000000 0.000000 0.000000 0.000000 0.000000 0.046051
#
#
# Mechanical properties :
#
#
# Convention : Reuss Voigt Hill
#
# Bulk Modulus (GPa) = 37.80494 44.10760 40.95627
# Shear Modulus (GPa) = 23.27170 27.87751 25.57461
#
# Velocity S-wave (km/s) = 3.33993 3.65553 3.50129
# Velocity P-wave (km/s) = 5.74413 6.24178 5.99812
#
# Compressibility (1/GPa) = 0.02645157
#
# Stress axis : x y z
#
# Youngs Moduli (GPa) = 98.14157 86.70128 50.67642
#
# Poissons Ratio (x) = 0.29406 0.03169
# Poissons Ratio (y) = 0.33286 0.17663
# Poissons Ratio (z) = 0.06136 0.30219
#
# Static dielectric constant tensor:
#      x y z
#    x 4.136470 0.000000 0.000000 
#    y 0.000000 3.439540 0.000000 
#    z 0.000000 0.000000 4.107380 
# 
# 
# High freq. dielectric constant tensor:
#      x y z
#    x 1.849950 0.000000 0.000000 
#    y 0.000000 1.771540 0.000000 
#    z 0.000000 0.000000 1.815120 
# 
# From -- ./inp_files/11560.got.cif
#   From: 2010.03.12/outbox.cif.g09.slc.cpg/sg62_6_cif.got.tgz:11560.got - 2010.04.10 19:12:36.
