data_PCOD8253121
_publ_section_title
;
Structure prediction by ZEFSAII (Michael W. Deem and Ramdas Pophale) SiO2 
 PCOD8253121
Probable space group: P N M A
;
_chemical_formula_sum "Si O2"
_cell_formula_units_Z 48
_cell_length_a 11.630189
_cell_length_b 8.999118
_cell_length_c 23.676948
_cell_angle_alpha 90.000000
_cell_angle_beta 90.000000
_cell_angle_gamma 90.000000
_cell_volume 2478.063548
_symmetry_space_group_name_H-M "P N M A"
_symmetry_group_IT_number 62
_symmetry_cell_setting 'orthorhombic'
loop_
_space_group_symop_operation_xyz
x,y,z
1/2-x,-y,1/2+z
1/2+x,1/2-y,1/2-z
-x,1/2+y,-z
-x,-y,-z
1/2+x,y,1/2-z
1/2-x,1/2+y,1/2+z
x,1/2-y,z
loop_
_atom_site_type_symbol
_atom_site_label
_atom_site_fract_x
_atom_site_fract_y
_atom_site_fract_z
Si Si1 0.614155 0.076873 0.675880
Si Si2 0.255575 0.423378 0.540542
Si Si3 0.963989 0.576807 0.386486
Si Si4 0.385668 0.578489 0.635876
Si Si5 0.838332 0.421410 0.290216
Si Si6 0.714166 0.922091 0.074174
O O1 0.589866 0.250000 0.684028
O O2 0.705164 0.045937 0.626993
O O3 0.495831 0.996925 0.662539
O O4 0.668135 0.011666 0.732574
O O5 0.282301 0.250000 0.541116
O O6 0.354905 0.502575 0.576499
O O7 0.262147 0.482034 0.477190
O O8 0.130517 0.460212 0.566051
O O9 0.964284 0.750000 0.370365
O O10 0.085953 0.524621 0.410686
O O11 0.939393 0.484837 0.329798
O O12 0.411262 0.750000 0.624128
O O13 0.283427 0.555704 0.680014
O O14 0.865491 0.250000 0.277715
O O15 0.714353 0.750000 0.056436
#
# Coordination Sequence:
#
# PCOD8253121 Si02
#       6
#     8   8   8   8   8   8
#     4  11  24  39  58  85 117 155 196 239 289 347
#     4  10  20  36  61  89 117 153 194 240 291 347
#     4   9  19  37  60  88 118 152 194 237 291 349
#     4  10  22  41  62  84 115 154 195 241 291 347
#     4  10  22  39  60  86 115 149 192 242 294 344
#     4  10  22  38  57  86 120 154 193 238 289 344
#
# _framework density 19.369964
#
# number of rings (size 3 to 8) (size 9 to 14) (size 15 to 20)
#    0.000    2.000    0.000    2.500    2.333    5.333 
#    0.000    0.000    0.000    0.000    0.000    0.000 
#    0.000    0.000    0.000    0.000    0.000    0.000 
#
# Total GULP energy -595502.028638 kJ/mol
# GULP energy per Si atom -12406.292263 kJ/mol
# Density = 1.932588 g / cm^3
# Si number density = 19.369964 Si / 1000 Ang^3
#
#
#
# Elastic Constant Matrix: (Units=GPa)
#
#
# Indices 1 2 3 4 5 6 
#
# 1 32.5962 24.3587 16.0699 0.0000 0.0000 0.0000
# 2 24.3587 106.5090 66.3689 0.0000 0.0000 0.0000
# 3 16.0699 66.3689 122.8996 0.0000 0.0000 0.0000
# 4 0.0000 0.0000 0.0000 40.3706 0.0000 0.0000
# 5 0.0000 0.0000 0.0000 0.0000 17.8218 0.0000
# 6 0.0000 0.0000 0.0000 0.0000 0.0000 29.2200
#
#
#
# Elastic Compliance Matrix: (Units=1/GPa)
#
#
# Indices 1 2 3 4 5 6 
#
# 1 0.037016 -0.008213 -0.000405 0.000000 0.000000 0.000000
# 2 -0.008213 0.015973 -0.007552 0.000000 0.000000 0.000000
# 3 -0.000405 -0.007552 0.012268 0.000000 0.000000 0.000000
# 4 0.000000 0.000000 0.000000 0.024770 0.000000 0.000000
# 5 0.000000 0.000000 0.000000 0.000000 0.056111 0.000000
# 6 0.000000 0.000000 0.000000 0.000000 0.000000 0.034223
#
#
# Mechanical properties :
#
#
# Convention : Reuss Voigt Hill
#
# Bulk Modulus (GPa) = 30.37963 52.84443 41.61203
# Shear Modulus (GPa) = 22.35403 27.82965 25.09184
#
# Velocity S-wave (km/s) = 3.40083 3.79455 3.60307
# Velocity P-wave (km/s) = 5.58021 6.82195 6.23209
#
# Compressibility (1/GPa) = 0.03291679
#
# Stress axis : x y z
#
# Youngs Moduli (GPa) = 27.01561 62.60515 81.51376
#
# Poissons Ratio (x) = 0.51420 0.03298
# Poissons Ratio (y) = 0.22189 0.61559
# Poissons Ratio (z) = 0.01093 0.47279
#
# Static dielectric constant tensor:
#      x y z
#    x 3.605230 0.000000 0.000000 
#    y 0.000000 3.634330 0.000000 
#    z 0.000000 0.000000 3.550640 
# 
# 
# High freq. dielectric constant tensor:
#      x y z
#    x 1.755380 0.000000 0.000000 
#    y 0.000000 1.763180 0.000000 
#    z 0.000000 0.000000 1.761410 
# 
# From -- ./inp_files/29217.got.cif
#   From: 2010.03.12/outbox.cif.g09.slc.cpg/sg62_15_cif.got.tgz:29217.got - 2010.04.10 19:12:36.
