data_PCOD8253862
_publ_section_title
;
Structure prediction by ZEFSAII (Michael W. Deem and Ramdas Pophale) SiO2 
 PCOD8253862
Probable space group: P N M A
;
_chemical_formula_sum "Si O2"
_cell_formula_units_Z 64
_cell_length_a 15.575415
_cell_length_b 17.896992
_cell_length_c 11.377454
_cell_angle_alpha 90.000000
_cell_angle_beta 90.000000
_cell_angle_gamma 90.000000
_cell_volume 3171.500318
_symmetry_space_group_name_H-M "P N M A"
_symmetry_group_IT_number 62
_symmetry_cell_setting 'orthorhombic'
loop_
_space_group_symop_operation_xyz
x,y,z
1/2-x,-y,1/2+z
1/2+x,1/2-y,1/2-z
-x,1/2+y,-z
-x,-y,-z
1/2+x,y,1/2-z
1/2-x,1/2+y,1/2+z
x,1/2-y,z
loop_
_atom_site_type_symbol
_atom_site_label
_atom_site_fract_x
_atom_site_fract_y
_atom_site_fract_z
Si Si1 0.828936 0.893506 0.969411
Si Si2 0.164616 0.581918 0.395816
Si Si3 0.839992 0.919703 0.515877
Si Si4 0.771162 0.834305 0.733265
Si Si5 0.509640 0.836791 0.998851
Si Si6 0.512513 0.912566 0.509800
Si Si7 0.825436 0.062261 0.878862
Si Si8 0.926183 0.163200 0.239148
O O1 0.754476 0.880978 0.064679
O O2 0.921795 0.874637 0.028410
O O3 0.815109 0.838400 0.860257
O O4 0.830008 0.978141 0.923861
O O5 0.145325 0.508146 0.472126
O O6 0.088270 0.640032 0.417815
O O7 0.172903 0.562932 0.260138
O O8 0.820106 0.887435 0.643991
O O9 0.762011 0.900684 0.427318
O O10 0.925738 0.883095 0.463117
O O11 0.778507 0.750000 0.686214
O O12 0.673090 0.860176 0.746518
O O13 0.491221 0.750000 0.018686
O O14 0.530735 0.854283 0.863524
O O15 0.593323 0.889490 0.428295
O O16 0.529110 0.889547 0.644353
O O17 0.500000 0.000000 0.500000
O O18 0.936704 0.250000 0.204457
#
# Coordination Sequence:
#
# PCOD8253862 Si02
#       8
#     8   8   8   8   8   8   8   8
#     4  10  21  37  59  89 122 158 202 253 304 362
#     4  11  23  40  62  90 127 165 202 255 310 370
#     4  11  22  40  63  95 123 161 208 256 310 370
#     4  11  20  37  66  93 124 159 203 261 314 361
#     4  11  24  42  62  90 124 164 213 262 306 361
#     4  10  21  37  59  89 124 159 201 254 304 367
#     4  10  22  39  59  89 123 161 204 249 305 368
#     4  10  21  38  62  92 125 160 203 261 317 361
#
# _framework density 20.179724
#
# number of rings (size 3 to 8) (size 9 to 14) (size 15 to 20)
#    0.000    1.500    3.750    1.500    1.750    2.500 
#    0.000    1.875    0.000    1.500    0.000    0.000 
#    0.000    0.000    0.000    0.000    0.000    0.000 
#
# Total GULP energy -793702.634596 kJ/mol
# GULP energy per Si atom -12401.603666 kJ/mol
# Density = 2.013379 g / cm^3
# Si number density = 20.179724 Si / 1000 Ang^3
#
#
#
# Elastic Constant Matrix: (Units=GPa)
#
#
# Indices 1 2 3 4 5 6 
#
# 1 169.0163 15.7755 39.9379 0.0000 0.0000 0.0000
# 2 15.7755 29.0302 7.2609 0.0000 0.0000 0.0000
# 3 39.9379 7.2609 74.4602 0.0000 0.0000 0.0000
# 4 0.0000 0.0000 0.0000 30.0862 0.0000 0.0000
# 5 0.0000 0.0000 0.0000 0.0000 22.4522 0.0000
# 6 0.0000 0.0000 0.0000 0.0000 0.0000 27.9624
#
#
#
# Elastic Compliance Matrix: (Units=1/GPa)
#
#
# Indices 1 2 3 4 5 6 
#
# 1 0.007012 -0.002942 -0.003474 0.000000 0.000000 0.000000
# 2 -0.002942 0.036542 -0.001986 0.000000 0.000000 0.000000
# 3 -0.003474 -0.001986 0.015487 0.000000 0.000000 0.000000
# 4 0.000000 0.000000 0.000000 0.033238 0.000000 0.000000
# 5 0.000000 0.000000 0.000000 0.000000 0.044539 0.000000
# 6 0.000000 0.000000 0.000000 0.000000 0.000000 0.035762
#
#
# Mechanical properties :
#
#
# Convention : Reuss Voigt Hill
#
# Bulk Modulus (GPa) = 23.67507 44.27281 33.97394
# Shear Modulus (GPa) = 24.57453 30.06898 27.32175
#
# Velocity S-wave (km/s) = 3.49346 3.86432 3.68356
# Velocity P-wave (km/s) = 5.29433 6.47282 5.91301
#
# Compressibility (1/GPa) = 0.04223852
#
# Stress axis : x y z
#
# Youngs Moduli (GPa) = 142.61084 27.36572 64.57004
#
# Poissons Ratio (x) = 0.08050 0.22433
# Poissons Ratio (y) = 0.41950 0.12821
# Poissons Ratio (z) = 0.49546 0.05434
#
# Static dielectric constant tensor:
#      x y z
#    x 4.253950 0.000000 0.000000 
#    y 0.000000 3.517680 0.000000 
#    z 0.000000 0.000000 3.431470 
# 
# 
# High freq. dielectric constant tensor:
#      x y z
#    x 1.814610 0.000000 0.000000 
#    y 0.000000 1.768570 0.000000 
#    z 0.000000 0.000000 1.768090 
# 
# From -- ./inp_files/13578.got.cif
#   From: 2010.03.12/outbox.cif.g09.slc.cpg/sg62_7_cif.got.tgz:13578.got - 2010.04.10 19:12:36.
