data_PCOD8253932
_publ_section_title
;
Structure prediction by ZEFSAII (Michael W. Deem and Ramdas Pophale) SiO2 
 PCOD8253932
Probable space group: P N M A
;
_chemical_formula_sum "Si O2"
_cell_formula_units_Z 48
_cell_length_a 14.542075
_cell_length_b 17.356127
_cell_length_c 10.222764
_cell_angle_alpha 90.000000
_cell_angle_beta 90.000000
_cell_angle_gamma 90.000000
_cell_volume 2580.165325
_symmetry_space_group_name_H-M "P N M A"
_symmetry_group_IT_number 62
_symmetry_cell_setting 'orthorhombic'
loop_
_space_group_symop_operation_xyz
x,y,z
1/2-x,-y,1/2+z
1/2+x,1/2-y,1/2-z
-x,1/2+y,-z
-x,-y,-z
1/2+x,y,1/2-z
1/2-x,1/2+y,1/2+z
x,1/2-y,z
loop_
_atom_site_type_symbol
_atom_site_label
_atom_site_fract_x
_atom_site_fract_y
_atom_site_fract_z
Si Si1 0.998656 0.503281 0.213085
Si Si2 0.849502 0.337624 0.998735
Si Si3 0.949299 0.613653 0.002407
Si Si4 0.180523 0.922939 0.736123
Si Si5 0.249316 0.164322 0.995464
Si Si6 0.815060 0.436301 0.742454
O O1 0.944393 0.573675 0.144823
O O2 0.923360 0.453689 0.291189
O O3 0.082022 0.536541 0.300924
O O4 0.051742 0.453709 0.104282
O O5 0.812006 0.250000 0.998707
O O6 0.817683 0.380104 0.867303
O O7 0.959876 0.334395 0.009564
O O8 0.808832 0.384734 0.121180
O O9 0.860222 0.665993 0.981773
O O10 0.199092 0.858801 0.627876
O O11 0.252988 0.991163 0.720534
O O12 0.282149 0.250000 0.958446
O O13 0.273028 0.106558 0.880302
#
# Coordination Sequence:
#
# PCOD8253932 Si02
#       6
#     8   8   8   8   8   8
#     4   9  18  35  60  84 106 148 198 232 266 334
#     4  10  21  38  59  82 115 152 189 235 288 341
#     4   9  17  34  59  85 107 143 197 238 273 327
#     4  11  21  37  61  85 112 150 196 232 278 337
#     4  12  23  35  56  90 122 145 182 243 295 330
#     4  11  21  37  61  85 112 150 196 232 278 337
#
# _framework density 18.603459999999998
#
# number of rings (size 3 to 8) (size 9 to 14) (size 15 to 20)
#    0.000    1.667    3.333    3.500    0.000    0.667 
#    0.000    0.000    0.000    2.000    0.000    0.000 
#    0.000    0.000    0.000    0.000    0.000    0.000 
#
# Total GULP energy -595186.525890 kJ/mol
# GULP energy per Si atom -12399.719289 kJ/mol
# Density = 1.856112 g / cm^3
# Si number density = 18.603460 Si / 1000 Ang^3
#
#
#
# Elastic Constant Matrix: (Units=GPa)
#
#
# Indices 1 2 3 4 5 6 
#
# 1 285.4637 -85.9343 130.5590 0.0000 0.0000 0.0000
# 2 -85.9343 161.0398 -50.6511 0.0000 0.0000 0.0000
# 3 130.5590 -50.6511 125.4434 0.0000 0.0000 0.0000
# 4 0.0000 0.0000 0.0000 24.2251 0.0000 0.0000
# 5 0.0000 0.0000 0.0000 0.0000 24.8816 0.0000
# 6 0.0000 0.0000 0.0000 0.0000 0.0000 21.0297
#
#
#
# Elastic Compliance Matrix: (Units=1/GPa)
#
#
# Indices 1 2 3 4 5 6 
#
# 1 0.007056 0.001667 -0.006670 0.000000 0.000000 0.000000
# 2 0.001667 0.007507 0.001296 0.000000 0.000000 0.000000
# 3 -0.006670 0.001296 0.015437 0.000000 0.000000 0.000000
# 4 0.000000 0.000000 0.000000 0.041279 0.000000 0.000000
# 5 0.000000 0.000000 0.000000 0.000000 0.040190 0.000000
# 6 0.000000 0.000000 0.000000 0.000000 0.000000 0.047552
#
#
# Mechanical properties :
#
#
# Convention : Reuss Voigt Hill
#
# Bulk Modulus (GPa) = 44.27610 62.21043 53.24327
# Shear Modulus (GPa) = 28.74159 52.55884 40.65022
#
# Velocity S-wave (km/s) = 3.93486 5.32105 4.67956
# Velocity P-wave (km/s) = 6.67052 8.44181 7.60789
#
# Compressibility (1/GPa) = 0.02258555
#
# Stress axis : x y z
#
# Youngs Moduli (GPa) = 141.73203 133.21137 64.77848
#
# Poissons Ratio (x) = -0.22207 0.43208
# Poissons Ratio (y) = -0.23628 -0.08396
# Poissons Ratio (z) = 0.94538 -0.17265
#
# Static dielectric constant tensor:
#      x y z
#    x 3.438180 0.000000 0.000000 
#    y 0.000000 3.375120 0.000000 
#    z 0.000000 0.000000 3.251610 
# 
# 
# High freq. dielectric constant tensor:
#      x y z
#    x 1.724620 0.000000 0.000000 
#    y 0.000000 1.726010 0.000000 
#    z 0.000000 0.000000 1.703790 
# 
# From -- ./inp_files/6480.got.cif
#   From: 2010.03.12/outbox.cif.g09.slc.cpg/sg62_4_cif.got.tgz:6480.got - 2010.04.10 19:12:36.
