data_PCOD8253889
_publ_section_title
;
Structure prediction by ZEFSAII (Michael W. Deem and Ramdas Pophale) SiO2 
 PCOD8253889
Probable space group: P N M A
;
_chemical_formula_sum "Si O2"
_cell_formula_units_Z 64
_cell_length_a 25.613904
_cell_length_b 13.772860
_cell_length_c 8.927968
_cell_angle_alpha 90.000000
_cell_angle_beta 90.000000
_cell_angle_gamma 90.000000
_cell_volume 3149.579212
_symmetry_space_group_name_H-M "P N M A"
_symmetry_group_IT_number 62
_symmetry_cell_setting 'orthorhombic'
loop_
_space_group_symop_operation_xyz
x,y,z
1/2-x,-y,1/2+z
1/2+x,1/2-y,1/2-z
-x,1/2+y,-z
-x,-y,-z
1/2+x,y,1/2-z
1/2-x,1/2+y,1/2+z
x,1/2-y,z
loop_
_atom_site_type_symbol
_atom_site_label
_atom_site_fract_x
_atom_site_fract_y
_atom_site_fract_z
Si Si1 0.520756 0.537810 0.267061
Si Si2 0.563729 0.358506 0.902587
Si Si3 0.339905 0.641709 0.297660
Si Si4 0.149519 0.861190 0.912666
Si Si5 0.312894 0.960776 0.585588
Si Si6 0.694015 0.959671 0.869098
Si Si7 0.472124 0.362390 0.425844
Si Si8 0.875992 0.518737 0.629971
O O1 0.485322 0.571966 0.127969
O O2 0.505883 0.427511 0.311647
O O3 0.512275 0.611220 0.404610
O O4 0.580853 0.545226 0.215912
O O5 0.543602 0.250000 0.932530
O O6 0.600669 0.363415 0.757425
O O7 0.595190 0.392214 0.048903
O O8 0.316844 0.750000 0.277805
O O9 0.341731 0.611389 0.471077
O O10 0.304484 0.567637 0.202445
O O11 0.158933 0.750000 0.959025
O O12 0.175138 0.881203 0.751465
O O13 0.088508 0.885958 0.899229
O O14 0.176401 0.927592 0.039156
O O15 0.251970 0.935287 0.577817
O O16 0.334601 0.939334 0.750924
O O17 0.655037 0.953123 0.010199
O O18 0.485342 0.250000 0.395315
#
# Coordination Sequence:
#
# PCOD8253889 Si02
#       8
#     8   8   8   8   8   8   8   8
#     4  11  21  37  61  87 125 159 198 247 305 363
#     4  10  22  39  59  88 124 162 193 239 306 366
#     4   9  20  38  60  81 113 155 198 239 292 360
#     4  10  21  41  62  85 117 161 208 248 297 365
#     4  11  21  39  62  89 116 156 204 252 303 356
#     4  10  22  40  61  83 120 157 195 249 309 357
#     4  10  21  37  61  89 118 160 208 248 296 366
#     4  11  22  37  60  91 122 155 196 249 303 351
#
# _framework density 20.320174000000002
#
# number of rings (size 3 to 8) (size 9 to 14) (size 15 to 20)
#    0.000    1.750    1.250    4.500    1.750    2.000 
#    0.000    5.625    0.000    0.750    0.000    0.000 
#    0.000    0.000    0.000    0.000    0.000    0.000 
#
# Total GULP energy -793840.642919 kJ/mol
# GULP energy per Si atom -12403.760046 kJ/mol
# Density = 2.027392 g / cm^3
# Si number density = 20.320174 Si / 1000 Ang^3
#
#
#
# Elastic Constant Matrix: (Units=GPa)
#
#
# Indices 1 2 3 4 5 6 
#
# 1 98.9577 25.3179 35.0036 0.0000 0.0000 0.0000
# 2 25.3179 87.4746 25.4826 0.0000 0.0000 0.0000
# 3 35.0036 25.4826 99.0224 0.0000 0.0000 0.0000
# 4 0.0000 0.0000 0.0000 18.5157 0.0000 0.0000
# 5 0.0000 0.0000 0.0000 0.0000 34.6825 0.0000
# 6 0.0000 0.0000 0.0000 0.0000 0.0000 21.3645
#
#
#
# Elastic Compliance Matrix: (Units=1/GPa)
#
#
# Indices 1 2 3 4 5 6 
#
# 1 0.012005 -0.002420 -0.003621 0.000000 0.000000 0.000000
# 2 -0.002420 0.012846 -0.002450 0.000000 0.000000 0.000000
# 3 -0.003621 -0.002450 0.012009 0.000000 0.000000 0.000000
# 4 0.000000 0.000000 0.000000 0.054008 0.000000 0.000000
# 5 0.000000 0.000000 0.000000 0.000000 0.028833 0.000000
# 6 0.000000 0.000000 0.000000 0.000000 0.000000 0.046807
#
#
# Mechanical properties :
#
#
# Convention : Reuss Voigt Hill
#
# Bulk Modulus (GPa) = 50.30668 50.78475 50.54572
# Shear Modulus (GPa) = 26.29957 28.22259 27.26108
#
# Velocity S-wave (km/s) = 3.60148 3.73083 3.66673
# Velocity P-wave (km/s) = 6.48884 6.60343 6.54639
#
# Compressibility (1/GPa) = 0.01987807
#
# Stress axis : x y z
#
# Youngs Moduli (GPa) = 83.29672 77.84453 83.26856
#
# Poissons Ratio (x) = 0.18837 0.30152
# Poissons Ratio (y) = 0.20157 0.20404
# Poissons Ratio (z) = 0.30162 0.19075
#
# Static dielectric constant tensor:
#      x y z
#    x 3.637870 0.000000 0.000000 
#    y 0.000000 3.560030 0.000000 
#    z 0.000000 0.000000 3.704820 
# 
# 
# High freq. dielectric constant tensor:
#      x y z
#    x 1.795100 0.000000 0.000000 
#    y 0.000000 1.779100 0.000000 
#    z 0.000000 0.000000 1.799160 
# 
# From -- ./inp_files/9493.got.cif
#   From: 2010.03.12/outbox.cif.g09.slc.cpg/sg62_5_cif.got.tgz:9493.got - 2010.04.10 19:12:36.
