data_PCOD8253276
_publ_section_title
;
Structure prediction by ZEFSAII (Michael W. Deem and Ramdas Pophale) SiO2 
 PCOD8253276
Probable space group: P N M A
;
_chemical_formula_sum "Si O2"
_cell_formula_units_Z 56
_cell_length_a 9.923650
_cell_length_b 14.664226
_cell_length_c 19.478565
_cell_angle_alpha 90.000000
_cell_angle_beta 90.000000
_cell_angle_gamma 90.000000
_cell_volume 2834.572326
_symmetry_space_group_name_H-M "P N M A"
_symmetry_group_IT_number 62
_symmetry_cell_setting 'orthorhombic'
loop_
_space_group_symop_operation_xyz
x,y,z
1/2-x,-y,1/2+z
1/2+x,1/2-y,1/2-z
-x,1/2+y,-z
-x,-y,-z
1/2+x,y,1/2-z
1/2-x,1/2+y,1/2+z
x,1/2-y,z
loop_
_atom_site_type_symbol
_atom_site_label
_atom_site_fract_x
_atom_site_fract_y
_atom_site_fract_z
Si Si1 0.318686 0.354795 0.284575
Si Si2 0.154523 0.355225 0.599574
Si Si3 0.678299 0.026074 0.626976
Si Si4 0.594040 0.855741 0.187428
Si Si5 0.935640 0.355449 0.845444
Si Si6 0.971575 0.647733 0.674463
Si Si7 0.615464 0.446351 0.036769
O O1 0.359634 0.250000 0.305038
O O2 0.361218 0.426244 0.343488
O O3 0.395040 0.384601 0.214890
O O4 0.157134 0.360919 0.274368
O O5 0.150167 0.250000 0.617638
O O6 0.289451 0.395414 0.634132
O O7 0.160262 0.369282 0.517503
O O8 0.020367 0.396017 0.635903
O O9 0.773501 0.082878 0.678877
O O10 0.544916 0.084807 0.613371
O O11 0.756050 0.010083 0.554790
O O12 0.630891 0.750000 0.172012
O O13 0.539807 0.866996 0.264447
O O14 0.950859 0.250000 0.867915
O O15 0.991702 0.750000 0.648872
O O16 0.947600 0.590502 0.606664
O O17 0.500000 0.500000 0.000000
#
# Coordination Sequence:
#
# PCOD8253276 Si02
#       7
#     8   8   8   8   8   8   8
#     4   9  20  37  58  87 118 150 192 245 299 343
#     4  10  21  39  61  82 118 161 196 241 293 352
#     4  11  22  35  61  88 119 156 194 248 294 346
#     4  10  20  37  61  90 119 154 197 240 294 355
#     4  10  22  38  59  90 122 153 193 245 301 353
#     4   9  19  38  61  83 111 148 193 242 290 346
#     4  11  22  37  55  86 115 155 203 236 281 356
#
# _framework density 19.756067000000002
#
# number of rings (size 3 to 8) (size 9 to 14) (size 15 to 20)
#    0.000    2.000    1.429    1.714    4.000    4.571 
#    0.000    0.000    0.000    0.000    0.000    0.000 
#    0.000    0.000    0.000    0.000    0.000    0.000 
#
# Total GULP energy -694215.635072 kJ/mol
# GULP energy per Si atom -12396.707769 kJ/mol
# Density = 1.971110 g / cm^3
# Si number density = 19.756067 Si / 1000 Ang^3
#
#
#
# Elastic Constant Matrix: (Units=GPa)
#
#
# Indices 1 2 3 4 5 6 
#
# 1 111.4157 39.5990 50.0108 0.0000 0.0000 0.0000
# 2 39.5990 72.5296 25.2802 0.0000 0.0000 0.0000
# 3 50.0108 25.2802 101.1347 0.0000 0.0000 0.0000
# 4 0.0000 0.0000 0.0000 23.0261 0.0000 0.0000
# 5 0.0000 0.0000 0.0000 0.0000 33.2971 0.0000
# 6 0.0000 0.0000 0.0000 0.0000 0.0000 29.3398
#
#
#
# Elastic Compliance Matrix: (Units=1/GPa)
#
#
# Indices 1 2 3 4 5 6 
#
# 1 0.013228 -0.005414 -0.005188 0.000000 0.000000 0.000000
# 2 -0.005414 0.017319 -0.001652 0.000000 0.000000 0.000000
# 3 -0.005188 -0.001652 0.012866 0.000000 0.000000 0.000000
# 4 0.000000 0.000000 0.000000 0.043429 0.000000 0.000000
# 5 0.000000 0.000000 0.000000 0.000000 0.030033 0.000000
# 6 0.000000 0.000000 0.000000 0.000000 0.000000 0.034083
#
#
# Mechanical properties :
#
#
# Convention : Reuss Voigt Hill
#
# Bulk Modulus (GPa) = 52.89427 57.20666 55.05047
# Shear Modulus (GPa) = 27.50745 28.47858 27.99302
#
# Velocity S-wave (km/s) = 3.73548 3.80084 3.76830
# Velocity P-wave (km/s) = 6.74069 6.94847 6.84537
#
# Compressibility (1/GPa) = 0.01890564
#
# Stress axis : x y z
#
# Youngs Moduli (GPa) = 75.59512 57.73951 77.72287
#
# Poissons Ratio (x) = 0.31260 0.40323
# Poissons Ratio (y) = 0.40927 0.12840
# Poissons Ratio (z) = 0.39219 0.09539
#
# Static dielectric constant tensor:
#      x y z
#    x 3.802330 0.000000 0.000000 
#    y 0.000000 3.741030 0.000000 
#    z 0.000000 0.000000 3.864190 
# 
# 
# High freq. dielectric constant tensor:
#      x y z
#    x 1.773270 0.000000 0.000000 
#    y 0.000000 1.777230 0.000000 
#    z 0.000000 0.000000 1.745390 
# 
# From -- ./inp_files/25984.got.cif
#   From: 2010.03.12/outbox.cif.g09.slc.cpg/sg62_13_cif.got.tgz:25984.got - 2010.04.10 19:12:36.
