data_PCOD8253106
_publ_section_title
;
Structure prediction by ZEFSAII (Michael W. Deem and Ramdas Pophale) SiO2 
 PCOD8253106
Probable space group: P N M A
;
_chemical_formula_sum "Si O2"
_cell_formula_units_Z 48
_cell_length_a 23.534910
_cell_length_b 8.533316
_cell_length_c 11.926988
_cell_angle_alpha 90.000000
_cell_angle_beta 90.000000
_cell_angle_gamma 90.000000
_cell_volume 2395.306829
_symmetry_space_group_name_H-M "P N M A"
_symmetry_group_IT_number 62
_symmetry_cell_setting 'orthorhombic'
loop_
_space_group_symop_operation_xyz
x,y,z
1/2-x,-y,1/2+z
1/2+x,1/2-y,1/2-z
-x,1/2+y,-z
-x,-y,-z
1/2+x,y,1/2-z
1/2-x,1/2+y,1/2+z
x,1/2-y,z
loop_
_atom_site_type_symbol
_atom_site_label
_atom_site_fract_x
_atom_site_fract_y
_atom_site_fract_z
Si Si1 0.216683 0.568815 0.831292
Si Si2 0.372758 0.933638 0.487635
Si Si3 0.918586 0.067574 0.790628
Si Si4 0.355002 0.933508 0.138702
Si Si5 0.832212 0.070288 0.600042
Si Si6 0.545259 0.434781 0.704899
O O1 0.207010 0.750000 0.803555
O O2 0.195623 0.466665 0.726097
O O3 0.282855 0.538515 0.851467
O O4 0.183139 0.522658 0.944324
O O5 0.361415 0.750000 0.474191
O O6 0.427122 0.987024 0.413373
O O7 0.382907 0.976650 0.615856
O O8 0.920275 0.250000 0.823442
O O9 0.889016 0.039099 0.671540
O O10 0.982090 0.994187 0.783795
O O11 0.355383 0.750000 0.110237
O O12 0.414394 0.991622 0.193566
O O13 0.346190 0.031820 0.027429
O O14 0.812601 0.250000 0.609100
O O15 0.541047 0.250000 0.711239
#
# Coordination Sequence:
#
# PCOD8253106 Si02
#       6
#     8   8   8   8   8   8
#     4  11  23  40  62  84 113 153 197 244 297 351
#     4  10  20  36  60  89 120 152 194 245 297 347
#     4  10  21  37  58  86 121 157 198 239 289 348
#     4  10  21  40  63  86 116 152 195 241 294 350
#     4  11  24  39  57  85 119 156 197 242 291 349
#     4   8  17  36  60  86 117 155 193 241 291 345
#
# _framework density 20.039187999999999
#
# number of rings (size 3 to 8) (size 9 to 14) (size 15 to 20)
#    0.000    2.000    0.000    4.500    2.333    2.000 
#    0.000    4.167    0.000    0.000    0.000    0.000 
#    0.000    0.000    0.000    0.000    0.000    0.000 
#
# Total GULP energy -595366.372207 kJ/mol
# GULP energy per Si atom -12403.466088 kJ/mol
# Density = 1.999358 g / cm^3
# Si number density = 20.039188 Si / 1000 Ang^3
#
#
#
# Elastic Constant Matrix: (Units=GPa)
#
#
# Indices 1 2 3 4 5 6 
#
# 1 85.1509 23.2056 34.0723 0.0000 0.0000 0.0000
# 2 23.2056 55.2930 10.5107 0.0000 0.0000 0.0000
# 3 34.0723 10.5107 108.2887 0.0000 0.0000 0.0000
# 4 0.0000 0.0000 0.0000 33.4935 0.0000 0.0000
# 5 0.0000 0.0000 0.0000 0.0000 22.7951 0.0000
# 6 0.0000 0.0000 0.0000 0.0000 0.0000 22.8053
#
#
#
# Elastic Compliance Matrix: (Units=1/GPa)
#
#
# Indices 1 2 3 4 5 6 
#
# 1 0.014895 -0.005461 -0.004157 0.000000 0.000000 0.000000
# 2 -0.005461 0.020428 -0.000264 0.000000 0.000000 0.000000
# 3 -0.004157 -0.000264 0.010568 0.000000 0.000000 0.000000
# 4 0.000000 0.000000 0.000000 0.029857 0.000000 0.000000
# 5 0.000000 0.000000 0.000000 0.000000 0.043869 0.000000
# 6 0.000000 0.000000 0.000000 0.000000 0.000000 0.043850
#
#
# Mechanical properties :
#
#
# Convention : Reuss Voigt Hill
#
# Bulk Modulus (GPa) = 38.27509 42.70108 40.48809
# Shear Modulus (GPa) = 26.04983 27.88171 26.96577
#
# Velocity S-wave (km/s) = 3.60939 3.73414 3.67229
# Velocity P-wave (km/s) = 6.04250 6.32035 6.18298
#
# Compressibility (1/GPa) = 0.02612665
#
# Stress axis : x y z
#
# Youngs Moduli (GPa) = 67.13478 48.95304 94.62431
#
# Poissons Ratio (x) = 0.26734 0.39332
# Poissons Ratio (y) = 0.36664 0.02502
# Poissons Ratio (z) = 0.27906 0.01294
#
# Static dielectric constant tensor:
#      x y z
#    x 3.877330 0.000000 0.000000 
#    y 0.000000 3.480110 0.000000 
#    z 0.000000 0.000000 3.547470 
# 
# 
# High freq. dielectric constant tensor:
#      x y z
#    x 1.786770 0.000000 0.000000 
#    y 0.000000 1.771990 0.000000 
#    z 0.000000 0.000000 1.781970 
# 
# From -- ./inp_files/15119.got.cif
#   From: 2010.03.12/outbox.cif.g09.slc.cpg/sg62_8_cif.got.tgz:15119.got - 2010.04.10 19:12:36.
