data_PCOD8253828
_publ_section_title
;
Structure prediction by ZEFSAII (Michael W. Deem and Ramdas Pophale) SiO2 
 PCOD8253828
Probable space group: P N M A
;
_chemical_formula_sum "Si O2"
_cell_formula_units_Z 56
_cell_length_a 16.652052
_cell_length_b 8.759415
_cell_length_c 19.696615
_cell_angle_alpha 90.000000
_cell_angle_beta 90.000000
_cell_angle_gamma 90.000000
_cell_volume 2872.992268
_symmetry_space_group_name_H-M "P N M A"
_symmetry_group_IT_number 62
_symmetry_cell_setting 'orthorhombic'
loop_
_space_group_symop_operation_xyz
x,y,z
1/2-x,-y,1/2+z
1/2+x,1/2-y,1/2-z
-x,1/2+y,-z
-x,-y,-z
1/2+x,y,1/2-z
1/2-x,1/2+y,1/2+z
x,1/2-y,z
loop_
_atom_site_type_symbol
_atom_site_label
_atom_site_fract_x
_atom_site_fract_y
_atom_site_fract_z
Si Si1 0.933390 0.069184 0.951987
Si Si2 0.857692 0.074786 0.359857
Si Si3 0.736530 0.071533 0.478507
Si Si4 0.233021 0.423661 0.247883
Si Si5 0.579017 0.571392 0.302807
Si Si6 0.477702 0.070178 0.840035
Si Si7 0.320086 0.572268 0.894903
O O1 0.939350 0.250000 0.955182
O O2 0.949809 0.005071 0.875416
O O3 0.845581 0.021507 0.976725
O O4 0.000000 0.000000 0.000000
O O5 0.883627 0.250000 0.370523
O O6 0.791856 0.025093 0.414985
O O7 0.820773 0.049019 0.284518
O O8 0.935150 0.968967 0.369314
O O9 0.716354 0.250000 0.477504
O O10 0.783282 0.030221 0.546604
O O11 0.204683 0.250000 0.235231
O O12 0.171640 0.530942 0.208349
O O13 0.233878 0.459573 0.327945
O O14 0.571502 0.750000 0.307232
O O15 0.526781 0.512518 0.238627
O O16 0.461069 0.250000 0.846244
O O17 0.411489 0.980249 0.883239
O O18 0.319316 0.750000 0.915134
#
# Coordination Sequence:
#
# PCOD8253828 Si02
#       7
#     8   8   8   8   8   8   8
#     4  11  23  39  60  87 120 156 197 241 294 353
#     4  10  21  37  58  85 115 151 197 241 290 349
#     4  11  23  40  61  85 118 157 197 242 296 353
#     4   9  18  35  59  83 109 147 193 240 290 347
#     4   9  19  36  57  82 112 145 187 237 290 343
#     4  10  21  37  58  86 116 151 195 243 294 345
#     4  10  21  38  60  86 119 155 195 243 296 350
#
# _framework density 19.491872999999998
#
# number of rings (size 3 to 8) (size 9 to 14) (size 15 to 20)
#    0.000    2.000    1.429    1.714    0.000    5.143 
#    0.000    2.857    0.000    0.000    0.000    0.000 
#    0.000    0.000    0.000    0.000    0.000    0.000 
#
# Total GULP energy -694403.496463 kJ/mol
# GULP energy per Si atom -12400.062437 kJ/mol
# Density = 1.944751 g / cm^3
# Si number density = 19.491873 Si / 1000 Ang^3
#
#
#
# Elastic Constant Matrix: (Units=GPa)
#
#
# Indices 1 2 3 4 5 6 
#
# 1 101.0289 22.1830 45.6363 0.0000 0.0000 0.0000
# 2 22.1830 33.5872 26.4533 0.0000 0.0000 0.0000
# 3 45.6363 26.4533 92.4864 0.0000 0.0000 0.0000
# 4 0.0000 0.0000 0.0000 28.0017 0.0000 0.0000
# 5 0.0000 0.0000 0.0000 0.0000 23.8440 0.0000
# 6 0.0000 0.0000 0.0000 0.0000 0.0000 33.5929
#
#
#
# Elastic Compliance Matrix: (Units=1/GPa)
#
#
# Indices 1 2 3 4 5 6 
#
# 1 0.013279 -0.004659 -0.005220 0.000000 0.000000 0.000000
# 2 -0.004659 0.040065 -0.009161 0.000000 0.000000 0.000000
# 3 -0.005220 -0.009161 0.016008 0.000000 0.000000 0.000000
# 4 0.000000 0.000000 0.000000 0.035712 0.000000 0.000000
# 5 0.000000 0.000000 0.000000 0.000000 0.041939 0.000000
# 6 0.000000 0.000000 0.000000 0.000000 0.000000 0.029768
#
#
# Mechanical properties :
#
#
# Convention : Reuss Voigt Hill
#
# Bulk Modulus (GPa) = 31.97601 46.18308 39.07954
# Shear Modulus (GPa) = 22.19502 25.94304 24.06903
#
# Velocity S-wave (km/s) = 3.37810 3.65220 3.51782
# Velocity P-wave (km/s) = 5.62635 6.44435 6.04919
#
# Compressibility (1/GPa) = 0.03127345
#
# Stress axis : x y z
#
# Youngs Moduli (GPa) = 75.30676 24.95920 62.46810
#
# Poissons Ratio (x) = 0.11629 0.32607
# Poissons Ratio (y) = 0.35087 0.57225
# Poissons Ratio (z) = 0.39308 0.22864
#
# Static dielectric constant tensor:
#      x y z
#    x 3.363200 0.000000 0.000000 
#    y 0.000000 3.509280 0.000000 
#    z 0.000000 0.000000 4.015510 
# 
# 
# High freq. dielectric constant tensor:
#      x y z
#    x 1.748430 0.000000 0.000000 
#    y 0.000000 1.759440 0.000000 
#    z 0.000000 0.000000 1.769670 
# 
# From -- ./inp_files/27274.got.cif
#   From: 2010.03.12/outbox.cif.g09.slc.cpg/sg62_14_cif.got.tgz:27274.got - 2010.04.10 19:12:36.
