data_PCOD8253228
_publ_section_title
;
Structure prediction by ZEFSAII (Michael W. Deem and Ramdas Pophale) SiO2 
 PCOD8253228
Probable space group: P N M A
;
_chemical_formula_sum "Si O2"
_cell_formula_units_Z 64
_cell_length_a 20.011212
_cell_length_b 8.536080
_cell_length_c 19.642304
_cell_angle_alpha 90.000000
_cell_angle_beta 90.000000
_cell_angle_gamma 90.000000
_cell_volume 3355.245463
_symmetry_space_group_name_H-M "P N M A"
_symmetry_group_IT_number 62
_symmetry_cell_setting 'orthorhombic'
loop_
_space_group_symop_operation_xyz
x,y,z
1/2-x,-y,1/2+z
1/2+x,1/2-y,1/2-z
-x,1/2+y,-z
-x,-y,-z
1/2+x,y,1/2-z
1/2-x,1/2+y,1/2+z
x,1/2-y,z
loop_
_atom_site_type_symbol
_atom_site_label
_atom_site_fract_x
_atom_site_fract_y
_atom_site_fract_z
Si Si1 0.541549 0.936143 0.936877
Si Si2 0.316823 0.566692 0.093500
Si Si3 0.174592 0.064653 0.070990
Si Si4 0.855726 0.566121 0.778430
Si Si5 0.086963 0.567440 0.820658
Si Si6 0.708948 0.931703 0.764356
Si Si7 0.932335 0.064653 0.029881
Si Si8 0.986862 0.937075 0.707549
O O1 0.542862 0.750000 0.938538
O O2 0.506190 0.998855 0.867452
O O3 0.617094 0.998707 0.942144
O O4 0.500000 0.000000 0.000000
O O5 0.313045 0.750000 0.079183
O O6 0.251416 0.485597 0.061374
O O7 0.319643 0.533672 0.173927
O O8 0.169229 0.250000 0.065876
O O9 0.145304 0.003942 0.143635
O O10 0.131797 0.987205 0.012066
O O11 0.867039 0.750000 0.781157
O O12 0.784615 0.522068 0.744520
O O13 0.914787 0.494574 0.731920
O O14 0.071017 0.750000 0.824791
O O15 0.164160 0.536247 0.801639
O O16 0.073817 0.492243 0.894225
O O17 0.039618 0.495055 0.762376
O O18 0.705527 0.750000 0.788013
O O19 0.935098 0.250000 0.031596
O O20 0.000000 0.000000 0.000000
O O21 0.987787 0.750000 0.706275
#
# Coordination Sequence:
#
# PCOD8253228 Si02
#       8
#     8   8   8   8   8   8   8   8
#     4  11  22  38  59  82 113 148 190 239 292 346
#     4  11  21  36  59  85 113 146 191 236 283 344
#     4  10  20  37  60  84 116 154 193 237 287 341
#     4   8  15  28  53  83 105 135 182 228 272 329
#     4   9  17  31  54  79 107 147 192 233 271 334
#     4   9  16  32  56  80 106 140 184 229 278 334
#     4  11  22  36  55  83 119 156 198 243 287 341
#     4   9  16  30  54  82 107 138 184 230 272 330
#
# _framework density 19.074608999999999
#
# number of rings (size 3 to 8) (size 9 to 14) (size 15 to 20)
#    0.000    2.250    1.250    3.750    0.000    2.000 
#    2.250    1.250    0.000    6.750    0.000    0.000 
#    0.000    0.000    0.000    0.000    0.000    0.000 
#
# Total GULP energy -793412.244999 kJ/mol
# GULP energy per Si atom -12397.066328 kJ/mol
# Density = 1.903119 g / cm^3
# Si number density = 19.074609 Si / 1000 Ang^3
#
#
#
# Elastic Constant Matrix: (Units=GPa)
#
#
# Indices 1 2 3 4 5 6 
#
# 1 153.3292 16.5419 89.2533 0.0000 0.0000 0.0000
# 2 16.5419 45.0609 21.1838 0.0000 0.0000 0.0000
# 3 89.2533 21.1838 151.3933 0.0000 0.0000 0.0000
# 4 0.0000 0.0000 0.0000 23.0088 0.0000 0.0000
# 5 0.0000 0.0000 0.0000 0.0000 33.8553 0.0000
# 6 0.0000 0.0000 0.0000 0.0000 0.0000 25.3646
#
#
#
# Elastic Compliance Matrix: (Units=1/GPa)
#
#
# Indices 1 2 3 4 5 6 
#
# 1 0.009968 -0.000960 -0.005742 0.000000 0.000000 0.000000
# 2 -0.000960 0.023847 -0.002771 0.000000 0.000000 0.000000
# 3 -0.005742 -0.002771 0.010378 0.000000 0.000000 0.000000
# 4 0.000000 0.000000 0.000000 0.043462 0.000000 0.000000
# 5 0.000000 0.000000 0.000000 0.000000 0.029537 0.000000
# 6 0.000000 0.000000 0.000000 0.000000 0.000000 0.039425
#
#
# Mechanical properties :
#
#
# Convention : Reuss Voigt Hill
#
# Bulk Modulus (GPa) = 39.60784 67.08237 53.34511
# Shear Modulus (GPa) = 27.17688 31.29937 29.23813
#
# Velocity S-wave (km/s) = 3.77870 4.05519 3.91938
# Velocity P-wave (km/s) = 6.31252 7.56114 6.96487
#
# Compressibility (1/GPa) = 0.02524752
#
# Stress axis : x y z
#
# Youngs Moduli (GPa) = 100.32002 41.93359 96.35368
#
# Poissons Ratio (x) = 0.04025 0.55330
# Poissons Ratio (y) = 0.09628 0.26700
# Poissons Ratio (z) = 0.57607 0.11620
#
# Static dielectric constant tensor:
#      x y z
#    x 2.612080 0.000000 0.000000 
#    y 0.000000 3.212110 0.000000 
#    z 0.000000 0.000000 3.628120 
# 
# 
# High freq. dielectric constant tensor:
#      x y z
#    x 1.759940 0.000000 0.000000 
#    y 0.000000 1.708400 0.000000 
#    z 0.000000 0.000000 1.731990 
# 
# From -- ./inp_files/24771.got.cif
#   From: 2010.03.12/outbox.cif.g09.slc.cpg/sg62_13_cif.got.tgz:24771.got - 2010.04.10 19:12:36.
