data_PCOD8253825
_publ_section_title
;
Structure prediction by ZEFSAII (Michael W. Deem and Ramdas Pophale) SiO2 
 PCOD8253825
Probable space group: P N M A
;
_chemical_formula_sum "Si O2"
_cell_formula_units_Z 48
_cell_length_a 28.940891
_cell_length_b 8.968447
_cell_length_c 10.145374
_cell_angle_alpha 90.000000
_cell_angle_beta 90.000000
_cell_angle_gamma 90.000000
_cell_volume 2633.280997
_symmetry_space_group_name_H-M "P N M A"
_symmetry_group_IT_number 62
_symmetry_cell_setting 'orthorhombic'
loop_
_space_group_symop_operation_xyz
x,y,z
1/2-x,-y,1/2+z
1/2+x,1/2-y,1/2-z
-x,1/2+y,-z
-x,-y,-z
1/2+x,y,1/2-z
1/2-x,1/2+y,1/2+z
x,1/2-y,z
loop_
_atom_site_type_symbol
_atom_site_label
_atom_site_fract_x
_atom_site_fract_y
_atom_site_fract_z
Si Si1 0.787634 0.574636 0.792556
Si Si2 0.380885 0.080227 0.717691
Si Si3 0.216834 0.074844 0.509494
Si Si4 0.875866 0.081281 0.479895
Si Si5 0.474454 0.424806 0.120625
Si Si6 0.518737 0.574068 0.370126
O O1 0.783595 0.750000 0.806727
O O2 0.839554 0.525989 0.829199
O O3 0.775594 0.523641 0.642689
O O4 0.753756 0.501070 0.896710
O O5 0.365750 0.250000 0.689988
O O6 0.392566 0.055761 0.870821
O O7 0.426818 0.037985 0.637963
O O8 0.222066 0.250000 0.523653
O O9 0.165830 0.028324 0.557688
O O10 0.858042 0.250000 0.459974
O O11 0.919452 0.047438 0.387412
O O12 0.486056 0.250000 0.120268
O O13 0.490846 0.500487 0.252844
O O14 0.500000 0.500000 0.000000
O O15 0.500000 0.500000 0.500000
O O16 0.509875 0.750000 0.368755
#
# Coordination Sequence:
#
# PCOD8253825 Si02
#       6
#     8   8   8   8   8   8
#     4  10  21  37  59  86 112 144 186 231 280 336
#     4   9  18  36  59  81 111 150 188 228 279 338
#     4  10  21  37  58  85 113 145 185 231 281 334
#     4   9  18  35  58  84 112 146 186 231 282 332
#     4  11  21  36  60  88 116 151 191 237 283 334
#     4  11  23  40  58  84 118 155 194 237 289 343
#
# _framework density 18.228210000000001
#
# number of rings (size 3 to 8) (size 9 to 14) (size 15 to 20)
#    0.000    2.000    1.667    2.000    0.000    4.667 
#    3.000    0.000    0.000    0.000    0.000    0.000 
#    0.000    0.000    0.000    0.000    0.000    0.000 
#
# Total GULP energy -595289.608417 kJ/mol
# GULP energy per Si atom -12401.866842 kJ/mol
# Density = 1.818672 g / cm^3
# Si number density = 18.228210 Si / 1000 Ang^3
#
#
#
# Elastic Constant Matrix: (Units=GPa)
#
#
# Indices 1 2 3 4 5 6 
#
# 1 134.4299 75.5519 82.4951 0.0000 0.0000 0.0000
# 2 75.5519 104.1917 66.5266 0.0000 0.0000 0.0000
# 3 82.4951 66.5266 124.7575 0.0000 0.0000 0.0000
# 4 0.0000 0.0000 0.0000 34.5701 0.0000 0.0000
# 5 0.0000 0.0000 0.0000 0.0000 36.2879 0.0000
# 6 0.0000 0.0000 0.0000 0.0000 0.0000 39.0638
#
#
#
# Elastic Compliance Matrix: (Units=1/GPa)
#
#
# Indices 1 2 3 4 5 6 
#
# 1 0.015294 -0.007025 -0.006367 0.000000 0.000000 0.000000
# 2 -0.007025 0.017779 -0.004836 0.000000 0.000000 0.000000
# 3 -0.006367 -0.004836 0.014804 0.000000 0.000000 0.000000
# 4 0.000000 0.000000 0.000000 0.028927 0.000000 0.000000
# 5 0.000000 0.000000 0.000000 0.000000 0.027557 0.000000
# 6 0.000000 0.000000 0.000000 0.000000 0.000000 0.025599
#
#
# Mechanical properties :
#
#
# Convention : Reuss Voigt Hill
#
# Bulk Modulus (GPa) = 87.54629 90.28070 88.91349
# Shear Modulus (GPa) = 29.37314 31.23806 30.30560
#
# Velocity S-wave (km/s) = 4.01859 4.14420 4.08188
# Velocity P-wave (km/s) = 8.34651 8.51673 8.43205
#
# Compressibility (1/GPa) = 0.01142253
#
# Stress axis : x y z
#
# Youngs Moduli (GPa) = 65.38425 56.24625 67.54711
#
# Poissons Ratio (x) = 0.39511 0.43009
# Poissons Ratio (y) = 0.45930 0.32663
# Poissons Ratio (z) = 0.41632 0.27198
#
# Static dielectric constant tensor:
#      x y z
#    x 3.482140 0.000000 0.000000 
#    y 0.000000 3.091100 0.000000 
#    z 0.000000 0.000000 3.238490 
# 
# 
# High freq. dielectric constant tensor:
#      x y z
#    x 1.714470 0.000000 0.000000 
#    y 0.000000 1.717060 0.000000 
#    z 0.000000 0.000000 1.694510 
# 
# From -- ./inp_files/10236.got.cif
#   From: 2010.03.12/outbox.cif.g09.slc.cpg/sg62_6_cif.got.tgz:10236.got - 2010.04.10 19:12:36.
