data_PCOD8253138
_publ_section_title
;
Structure prediction by ZEFSAII (Michael W. Deem and Ramdas Pophale) SiO2 
 PCOD8253138
Probable space group: P N M A
;
_chemical_formula_sum "Si O2"
_cell_formula_units_Z 56
_cell_length_a 13.621137
_cell_length_b 14.382524
_cell_length_c 14.426310
_cell_angle_alpha 90.000000
_cell_angle_beta 90.000000
_cell_angle_gamma 90.000000
_cell_volume 2826.205445
_symmetry_space_group_name_H-M "P N M A"
_symmetry_group_IT_number 62
_symmetry_cell_setting 'orthorhombic'
loop_
_space_group_symop_operation_xyz
x,y,z
1/2-x,-y,1/2+z
1/2+x,1/2-y,1/2-z
-x,1/2+y,-z
-x,-y,-z
1/2+x,y,1/2-z
1/2-x,1/2+y,1/2+z
x,1/2-y,z
loop_
_atom_site_type_symbol
_atom_site_label
_atom_site_fract_x
_atom_site_fract_y
_atom_site_fract_z
Si Si1 0.359608 0.145854 0.849107
Si Si2 0.188369 0.481399 0.804235
Si Si3 0.269959 0.857980 0.925547
Si Si4 0.969915 0.855348 0.670052
Si Si5 0.843609 0.353779 0.445765
Si Si6 0.465087 0.476923 0.704629
Si Si7 0.273610 0.022873 0.600750
O O1 0.346592 0.250000 0.810225
O O2 0.254056 0.096212 0.853109
O O3 0.439083 0.093974 0.786789
O O4 0.397311 0.145677 0.954548
O O5 0.211336 0.583381 0.847138
O O6 0.211144 0.472810 0.695210
O O7 0.075673 0.457347 0.827199
O O8 0.236594 0.750000 0.919173
O O9 0.385477 0.869152 0.906296
O O10 0.253382 0.895132 0.029632
O O11 0.972118 0.750000 0.705748
O O12 0.950767 0.918423 0.759096
O O13 0.073930 0.885502 0.627168
O O14 0.804809 0.250000 0.423079
O O15 0.751061 0.423094 0.444133
O O16 0.389960 0.466200 0.619240
#
# Coordination Sequence:
#
# PCOD8253138 Si02
#       7
#     8   8   8   8   8   8   8
#     4  10  22  41  60  89 124 159 207 263 319 375
#     4  11  23  41  66  90 125 170 207 261 313 377
#     4  11  24  43  64  94 130 168 213 263 315 376
#     4  10  20  36  63  97 125 157 208 266 321 368
#     4  10  20  36  63  91 121 159 207 266 319 368
#     4  11  23  38  62  92 125 168 205 256 312 378
#     4  11  22  39  64  91 125 166 208 261 314 373
#
# _framework density 19.814554000000001
#
# number of rings (size 3 to 8) (size 9 to 14) (size 15 to 20)
#    0.000    1.429    5.714    0.000    2.000    6.286 
#    0.000    0.000    0.000    0.000    0.000    0.000 
#    0.000    0.000    0.000    0.000    0.000    0.000 
#
# Total GULP energy -694320.854375 kJ/mol
# GULP energy per Si atom -12398.586685 kJ/mol
# Density = 1.976945 g / cm^3
# Si number density = 19.814554 Si / 1000 Ang^3
#
#
#
# Elastic Constant Matrix: (Units=GPa)
#
#
# Indices 1 2 3 4 5 6 
#
# 1 88.7309 21.7206 -7.0070 0.0000 0.0000 0.0000
# 2 21.7206 93.2441 3.3027 0.0000 0.0000 0.0000
# 3 -7.0070 3.3027 50.9759 0.0000 0.0000 0.0000
# 4 0.0000 0.0000 0.0000 18.7243 0.0000 0.0000
# 5 0.0000 0.0000 0.0000 0.0000 21.4401 0.0000
# 6 0.0000 0.0000 0.0000 0.0000 0.0000 17.7293
#
#
#
# Elastic Compliance Matrix: (Units=1/GPa)
#
#
# Indices 1 2 3 4 5 6 
#
# 1 0.012124 -0.002890 0.001854 0.000000 0.000000 0.000000
# 2 -0.002890 0.011438 -0.001138 0.000000 0.000000 0.000000
# 3 0.001854 -0.001138 0.019946 0.000000 0.000000 0.000000
# 4 0.000000 0.000000 0.000000 0.053407 0.000000 0.000000
# 5 0.000000 0.000000 0.000000 0.000000 0.046642 0.000000
# 6 0.000000 0.000000 0.000000 0.000000 0.000000 0.056404
#
#
# Mechanical properties :
#
#
# Convention : Reuss Voigt Hill
#
# Bulk Modulus (GPa) = 25.53707 29.88706 27.71206
# Shear Modulus (GPa) = 23.00319 25.90771 24.45545
#
# Velocity S-wave (km/s) = 3.41093 3.61987 3.51695
# Velocity P-wave (km/s) = 5.33185 5.70854 5.52341
#
# Compressibility (1/GPa) = 0.03915876
#
# Stress axis : x y z
#
# Youngs Moduli (GPa) = 82.48222 87.42769 50.13619
#
# Poissons Ratio (x) = 0.25265 -0.09294
# Poissons Ratio (y) = 0.23836 0.05707
# Poissons Ratio (z) = -0.15290 0.09952
#
# Static dielectric constant tensor:
#      x y z
#    x 3.571600 0.000000 0.000000 
#    y 0.000000 3.754100 0.000000 
#    z 0.000000 0.000000 3.577130 
# 
# 
# High freq. dielectric constant tensor:
#      x y z
#    x 1.763340 0.000000 0.000000 
#    y 0.000000 1.779850 0.000000 
#    z 0.000000 0.000000 1.767990 
# 
# From -- ./inp_files/19138.got.cif
#   From: 2010.03.12/outbox.cif.g09.slc.cpg/sg62_10_cif.got.tgz:19138.got - 2010.04.10 19:12:36.
