data_PCOD8253002
_publ_section_title
;
Structure prediction by ZEFSAII (Michael W. Deem and Ramdas Pophale) SiO2 
 PCOD8253002
Probable space group: P N M A
;
_chemical_formula_sum "Si O2"
_cell_formula_units_Z 48
_cell_length_a 19.630921
_cell_length_b 9.209895
_cell_length_c 14.813925
_cell_angle_alpha 90.000000
_cell_angle_beta 90.000000
_cell_angle_gamma 90.000000
_cell_volume 2678.338695
_symmetry_space_group_name_H-M "P N M A"
_symmetry_group_IT_number 62
_symmetry_cell_setting 'orthorhombic'
loop_
_space_group_symop_operation_xyz
x,y,z
1/2-x,-y,1/2+z
1/2+x,1/2-y,1/2-z
-x,1/2+y,-z
-x,-y,-z
1/2+x,y,1/2-z
1/2-x,1/2+y,1/2+z
x,1/2-y,z
loop_
_atom_site_type_symbol
_atom_site_label
_atom_site_fract_x
_atom_site_fract_y
_atom_site_fract_z
Si Si1 0.056350 0.080491 0.941597
Si Si2 0.686663 0.418462 0.122013
Si Si3 0.513651 0.915365 0.258070
Si Si4 0.189006 0.579804 0.003069
Si Si5 0.832076 0.083392 0.795723
Si Si6 0.466843 0.578866 0.916127
O O1 0.055099 0.250000 0.967394
O O2 0.041483 0.057417 0.835770
O O3 0.129969 0.014190 0.958661
O O4 0.000000 0.000000 0.000000
O O5 0.688208 0.250000 0.143551
O O6 0.704814 0.495508 0.216269
O O7 0.612612 0.465658 0.085989
O O8 0.741092 0.461776 0.046328
O O9 0.510642 0.750000 0.222628
O O10 0.587584 0.950277 0.299711
O O11 0.497116 0.022011 0.175106
O O12 0.170541 0.750000 0.993846
O O13 0.198847 0.537382 0.107836
O O14 0.817220 0.250000 0.775043
O O15 0.477950 0.750000 0.924444
O O16 0.500000 0.500000 0.000000
#
# Coordination Sequence:
#
# PCOD8253002 Si02
#       6
#     8   8   8   8   8   8
#     4  11  21  34  55  84 114 144 181 223 272 328
#     4   9  20  37  56  78 108 143 181 225 271 324
#     4   9  18  34  54  78 106 139 178 220 264 320
#     4  10  20  37  56  78 111 146 180 226 279 326
#     4   9  17  33  56  76 102 142 181 217 266 323
#     4  10  20  36  58  82 107 142 183 226 274 322
#
# _framework density 17.921557
#
# number of rings (size 3 to 8) (size 9 to 14) (size 15 to 20)
#    0.000    2.333    1.667    1.000    0.000    3.333 
#    3.000    0.000    0.000    0.000    0.000    0.000 
#    0.000    0.000    0.000    0.000    0.000    0.000 
#
# Total GULP energy -595300.809518 kJ/mol
# GULP energy per Si atom -12402.100198 kJ/mol
# Density = 1.788077 g / cm^3
# Si number density = 17.921557 Si / 1000 Ang^3
#
#
#
# Elastic Constant Matrix: (Units=GPa)
#
#
# Indices 1 2 3 4 5 6 
#
# 1 79.6112 50.5973 71.7124 0.0000 0.0000 0.0000
# 2 50.5973 85.1964 73.9614 0.0000 0.0000 0.0000
# 3 71.7124 73.9614 162.8412 0.0000 0.0000 0.0000
# 4 0.0000 0.0000 0.0000 37.6215 0.0000 0.0000
# 5 0.0000 0.0000 0.0000 0.0000 32.7473 0.0000
# 6 0.0000 0.0000 0.0000 0.0000 0.0000 25.3835
#
#
#
# Elastic Compliance Matrix: (Units=1/GPa)
#
#
# Indices 1 2 3 4 5 6 
#
# 1 0.023962 -0.008370 -0.006751 0.000000 0.000000 0.000000
# 2 -0.008370 0.022302 -0.006443 0.000000 0.000000 0.000000
# 3 -0.006751 -0.006443 0.012040 0.000000 0.000000 0.000000
# 4 0.000000 0.000000 0.000000 0.026581 0.000000 0.000000
# 5 0.000000 0.000000 0.000000 0.000000 0.030537 0.000000
# 6 0.000000 0.000000 0.000000 0.000000 0.000000 0.039396
#
#
# Mechanical properties :
#
#
# Convention : Reuss Voigt Hill
#
# Bulk Modulus (GPa) = 65.89446 80.02123 72.95785
# Shear Modulus (GPa) = 24.63002 27.90898 26.26950
#
# Velocity S-wave (km/s) = 3.71121 3.95053 3.83274
# Velocity P-wave (km/s) = 7.43049 8.09671 7.77074
#
# Compressibility (1/GPa) = 0.01517578
#
# Stress axis : x y z
#
# Youngs Moduli (GPa) = 41.73352 44.83843 83.05396
#
# Poissons Ratio (x) = 0.37531 0.56066
# Poissons Ratio (y) = 0.34932 0.53516
# Poissons Ratio (z) = 0.28173 0.28892
#
# Static dielectric constant tensor:
#      x y z
#    x 3.348390 0.000000 0.000000 
#    y 0.000000 3.361880 0.000000 
#    z 0.000000 0.000000 3.449170 
# 
# 
# High freq. dielectric constant tensor:
#      x y z
#    x 1.674730 0.000000 0.000000 
#    y 0.000000 1.696810 0.000000 
#    z 0.000000 0.000000 1.703180 
# 
# From -- ./inp_files/15092.got.cif
#   From: 2010.03.12/outbox.cif.g09.slc.cpg/sg62_8_cif.got.tgz:15092.got - 2010.04.10 19:12:36.
