data_PCOD8253962
_publ_section_title
;
Structure prediction by ZEFSAII (Michael W. Deem and Ramdas Pophale) SiO2 
 PCOD8253962
Probable space group: P N M A
;
_chemical_formula_sum "Si O2"
_cell_formula_units_Z 64
_cell_length_a 20.184925
_cell_length_b 9.032841
_cell_length_c 18.432171
_cell_angle_alpha 90.000000
_cell_angle_beta 90.000000
_cell_angle_gamma 90.000000
_cell_volume 3360.686462
_symmetry_space_group_name_H-M "P N M A"
_symmetry_group_IT_number 62
_symmetry_cell_setting 'orthorhombic'
loop_
_space_group_symop_operation_xyz
x,y,z
1/2-x,-y,1/2+z
1/2+x,1/2-y,1/2-z
-x,1/2+y,-z
-x,-y,-z
1/2+x,y,1/2-z
1/2-x,1/2+y,1/2+z
x,1/2-y,z
loop_
_atom_site_type_symbol
_atom_site_label
_atom_site_fract_x
_atom_site_fract_y
_atom_site_fract_z
Si Si1 0.559863 0.923231 0.040855
Si Si2 0.326733 0.580692 0.040410
Si Si3 0.176632 0.921376 0.053044
Si Si4 0.819588 0.574803 0.797647
Si Si5 0.058273 0.421985 0.801607
Si Si6 0.683139 0.420853 0.794116
Si Si7 0.943972 0.076839 0.046272
Si Si8 0.930282 0.077896 0.707792
O O1 0.552027 0.750000 0.029423
O O2 0.556879 0.966582 0.124948
O O3 0.500000 0.000000 0.000000
O O4 0.629991 0.973654 0.008838
O O5 0.342788 0.750000 0.019731
O O6 0.250109 0.541640 0.024924
O O7 0.343062 0.551174 0.124603
O O8 0.171509 0.750000 0.076183
O O9 0.157878 0.014768 0.124001
O O10 0.127044 0.962099 0.988436
O O11 0.820188 0.750000 0.799698
O O12 0.746468 0.520333 0.776193
O O13 0.869930 0.519085 0.736837
O O14 0.058119 0.250000 0.823270
O O15 0.125038 0.466225 0.760055
O O16 0.054090 0.520090 0.872511
O O17 0.996441 0.461508 0.751323
O O18 0.704166 0.250000 0.785455
O O19 0.957887 0.250000 0.045813
O O20 0.000000 0.000000 0.000000
O O21 0.911669 0.250000 0.715555
#
# Coordination Sequence:
#
# PCOD8253962 Si02
#       8
#     8   8   8   8   8   8   8   8
#     4  11  23  38  58  83 111 145 186 231 277 330
#     4   9  18  36  60  83 110 146 186 225 271 329
#     4   9  20  39  59  78 110 154 186 216 272 340
#     4  11  22  35  57  88 115 142 184 234 274 316
#     4  10  21  38  60  82 107 145 190 231 274 330
#     4   9  19  38  61  83 113 152 185 218 274 342
#     4  11  23  38  57  83 114 147 185 230 280 331
#     4  10  22  40  58  78 110 151 188 223 275 338
#
# _framework density 19.043728999999999
#
# number of rings (size 3 to 8) (size 9 to 14) (size 15 to 20)
#    0.000    2.000    0.000    4.125    0.000   11.000 
#    0.000    3.750    0.000    0.000    0.000    0.000 
#    0.000    0.000    0.000    0.000    0.000    0.000 
#
# Total GULP energy -793897.998740 kJ/mol
# GULP energy per Si atom -12404.656230 kJ/mol
# Density = 1.900038 g / cm^3
# Si number density = 19.043729 Si / 1000 Ang^3
#
#
#
# Elastic Constant Matrix: (Units=GPa)
#
#
# Indices 1 2 3 4 5 6 
#
# 1 126.6028 69.2656 91.0177 0.0000 0.0000 0.0000
# 2 69.2656 97.6950 77.4954 0.0000 0.0000 0.0000
# 3 91.0177 77.4954 149.6952 0.0000 0.0000 0.0000
# 4 0.0000 0.0000 0.0000 32.2444 0.0000 0.0000
# 5 0.0000 0.0000 0.0000 0.0000 36.9288 0.0000
# 6 0.0000 0.0000 0.0000 0.0000 0.0000 9.8932
#
#
#
# Elastic Compliance Matrix: (Units=1/GPa)
#
#
# Indices 1 2 3 4 5 6 
#
# 1 0.015938 -0.006131 -0.006517 0.000000 0.000000 0.000000
# 2 -0.006131 0.019726 -0.006485 0.000000 0.000000 0.000000
# 3 -0.006517 -0.006485 0.014000 0.000000 0.000000 0.000000
# 4 0.000000 0.000000 0.000000 0.031013 0.000000 0.000000
# 5 0.000000 0.000000 0.000000 0.000000 0.027079 0.000000
# 6 0.000000 0.000000 0.000000 0.000000 0.000000 0.101080
#
#
# Mechanical properties :
#
#
# Convention : Reuss Voigt Hill
#
# Bulk Modulus (GPa) = 87.72029 94.39446 91.05738
# Shear Modulus (GPa) = 19.92827 24.89423 22.41125
#
# Velocity S-wave (km/s) = 3.23839 3.61946 3.43422
# Velocity P-wave (km/s) = 7.75535 8.19403 7.97771
#
# Compressibility (1/GPa) = 0.01139987
#
# Stress axis : x y z
#
# Youngs Moduli (GPa) = 62.74345 50.69381 71.43049
#
# Poissons Ratio (x) = 0.31078 0.46550
# Poissons Ratio (y) = 0.38465 0.46320
# Poissons Ratio (z) = 0.40889 0.32873
#
# Static dielectric constant tensor:
#      x y z
#    x 19.351920 0.000000 0.000000 
#    y 0.000000 3.433700 0.000000 
#    z 0.000000 0.000000 3.459480 
# 
# 
# High freq. dielectric constant tensor:
#      x y z
#    x 1.754880 0.000000 0.000000 
#    y 0.000000 1.736730 0.000000 
#    z 0.000000 0.000000 1.742770 
# 
# From -- ./inp_files/24774.got.cif
#   From: 2010.03.12/outbox.cif.g09.slc.cpg/sg62_13_cif.got.tgz:24774.got - 2010.04.10 19:12:36.
