data_PCOD8253279
_publ_section_title
;
Structure prediction by ZEFSAII (Michael W. Deem and Ramdas Pophale) SiO2 
 PCOD8253279
Probable space group: P N M A
;
_chemical_formula_sum "Si O2"
_cell_formula_units_Z 64
_cell_length_a 24.263266
_cell_length_b 8.781985
_cell_length_c 14.774706
_cell_angle_alpha 90.000000
_cell_angle_beta 90.000000
_cell_angle_gamma 90.000000
_cell_volume 3148.189007
_symmetry_space_group_name_H-M "P N M A"
_symmetry_group_IT_number 62
_symmetry_cell_setting 'orthorhombic'
loop_
_space_group_symop_operation_xyz
x,y,z
1/2-x,-y,1/2+z
1/2+x,1/2-y,1/2-z
-x,1/2+y,-z
-x,-y,-z
1/2+x,y,1/2-z
1/2-x,1/2+y,1/2+z
x,1/2-y,z
loop_
_atom_site_type_symbol
_atom_site_label
_atom_site_fract_x
_atom_site_fract_y
_atom_site_fract_z
Si Si1 0.155468 0.080149 0.857354
Si Si2 0.636484 0.418714 0.443815
Si Si3 0.948458 0.927275 0.254580
Si Si4 0.735861 0.573440 0.361122
Si Si5 0.168185 0.068363 0.507292
Si Si6 0.233785 0.073366 0.331754
Si Si7 0.484655 0.926885 0.594908
Si Si8 0.449342 0.429965 0.054115
O O1 0.180702 0.250000 0.845819
O O2 0.114793 0.045963 0.774478
O O3 0.203774 0.957932 0.860995
O O4 0.120910 0.067890 0.950044
O O5 0.660442 0.250000 0.422882
O O6 0.682364 0.542991 0.421701
O O7 0.580711 0.444542 0.388242
O O8 0.959367 0.750000 0.275697
O O9 0.959201 0.028620 0.341867
O O10 0.988585 0.981053 0.176025
O O11 0.743918 0.750000 0.347116
O O12 0.790565 0.510731 0.412537
O O13 0.723062 0.502632 0.264218
O O14 0.162939 0.250000 0.510658
O O15 0.192656 0.013723 0.410328
O O16 0.108412 0.995720 0.518610
O O17 0.224578 0.250000 0.318965
O O18 0.502811 0.750000 0.595916
O O19 0.500000 0.000000 0.500000
O O20 0.449066 0.250000 0.041396
O O21 0.500000 0.500000 0.000000
#
# Coordination Sequence:
#
# PCOD8253279 Si02
#       8
#     8   8   8   8   8   8   8   8
#     4  10  20  37  61  90 126 165 207 257 313 370
#     4  10  21  38  59  87 125 167 205 253 312 367
#     4  11  23  42  66  95 129 170 214 265 322 380
#     4  11  23  40  62  93 128 167 209 256 313 370
#     4  10  23  44  66  92 129 167 207 261 318 374
#     4  11  23  39  62  93 127 167 210 256 312 373
#     4  11  22  38  60  91 129 170 213 260 315 374
#     4  12  27  47  71  97 123 163 213 266 320 378
#
# _framework density 20.329149000000001
#
# number of rings (size 3 to 8) (size 9 to 14) (size 15 to 20)
#    0.000    1.250    2.500    3.375    0.000    8.000 
#    0.000    1.250    0.000    0.000    0.000    0.000 
#    0.000    0.000    0.000    0.000    0.000    0.000 
#
# Total GULP energy -793641.742144 kJ/mol
# GULP energy per Si atom -12400.652221 kJ/mol
# Density = 2.028288 g / cm^3
# Si number density = 20.329149 Si / 1000 Ang^3
#
#
#
# Elastic Constant Matrix: (Units=GPa)
#
#
# Indices 1 2 3 4 5 6 
#
# 1 112.6590 35.2673 57.7211 0.0000 0.0000 0.0000
# 2 35.2673 66.5978 39.2925 0.0000 0.0000 0.0000
# 3 57.7211 39.2925 140.4847 0.0000 0.0000 0.0000
# 4 0.0000 0.0000 0.0000 36.8973 0.0000 0.0000
# 5 0.0000 0.0000 0.0000 0.0000 35.1308 0.0000
# 6 0.0000 0.0000 0.0000 0.0000 0.0000 37.3839
#
#
#
# Elastic Compliance Matrix: (Units=1/GPa)
#
#
# Indices 1 2 3 4 5 6 
#
# 1 0.012141 -0.004175 -0.003821 0.000000 0.000000 0.000000
# 2 -0.004175 0.019419 -0.003716 0.000000 0.000000 0.000000
# 3 -0.003821 -0.003716 0.009727 0.000000 0.000000 0.000000
# 4 0.000000 0.000000 0.000000 0.027102 0.000000 0.000000
# 5 0.000000 0.000000 0.000000 0.000000 0.028465 0.000000
# 6 0.000000 0.000000 0.000000 0.000000 0.000000 0.026749
#
#
# Mechanical properties :
#
#
# Convention : Reuss Voigt Hill
#
# Bulk Modulus (GPa) = 55.97908 64.92259 60.45083
# Shear Modulus (GPa) = 32.68372 34.37978 33.53175
#
# Velocity S-wave (km/s) = 4.01400 4.11683 4.06574
# Velocity P-wave (km/s) = 7.00564 7.38937 7.20006
#
# Compressibility (1/GPa) = 0.01786382
#
# Stress axis : x y z
#
# Youngs Moduli (GPa) = 82.36679 51.49643 102.80376
#
# Poissons Ratio (x) = 0.21500 0.39277
# Poissons Ratio (y) = 0.34389 0.38200
# Poissons Ratio (z) = 0.31469 0.19135
#
# Static dielectric constant tensor:
#      x y z
#    x 3.725960 0.000000 0.000000 
#    y 0.000000 3.762110 0.000000 
#    z 0.000000 0.000000 4.012150 
# 
# 
# High freq. dielectric constant tensor:
#      x y z
#    x 1.796470 0.000000 0.000000 
#    y 0.000000 1.794480 0.000000 
#    z 0.000000 0.000000 1.805550 
# 
# From -- ./inp_files/20855.got.cif
#   From: 2010.03.12/outbox.cif.g09.slc.cpg/sg62_11_cif.got.tgz:20855.got - 2010.04.10 19:12:36.
