data_PCOD8253784
_publ_section_title
;
Structure prediction by ZEFSAII (Michael W. Deem and Ramdas Pophale) SiO2 
 PCOD8253784
Probable space group: P N M A
;
_chemical_formula_sum "Si O2"
_cell_formula_units_Z 48
_cell_length_a 10.095569
_cell_length_b 9.208187
_cell_length_c 28.083237
_cell_angle_alpha 90.000000
_cell_angle_beta 90.000000
_cell_angle_gamma 90.000000
_cell_volume 2610.670711
_symmetry_space_group_name_H-M "P N M A"
_symmetry_group_IT_number 62
_symmetry_cell_setting 'orthorhombic'
loop_
_space_group_symop_operation_xyz
x,y,z
1/2-x,-y,1/2+z
1/2+x,1/2-y,1/2-z
-x,1/2+y,-z
-x,-y,-z
1/2+x,y,1/2-z
1/2-x,1/2+y,1/2+z
x,1/2-y,z
loop_
_atom_site_type_symbol
_atom_site_label
_atom_site_fract_x
_atom_site_fract_y
_atom_site_fract_z
Si Si1 0.754904 0.084260 0.850400
Si Si2 0.473928 0.918007 0.296605
Si Si3 0.976446 0.080599 0.300552
Si Si4 0.866229 0.418050 0.052404
Si Si5 0.635040 0.918465 0.447384
Si Si6 0.753817 0.582462 0.649408
O O1 0.708292 0.250000 0.841705
O O2 0.903298 0.060703 0.831721
O O3 0.756212 0.045172 0.906863
O O4 0.658244 0.975567 0.823814
O O5 0.445960 0.750000 0.285610
O O6 0.508665 0.998276 0.247879
O O7 0.342322 0.983942 0.319409
O O8 0.959700 0.250000 0.289457
O O9 0.095454 0.049040 0.336967
O O10 0.903058 0.250000 0.052957
O O11 0.759279 0.455392 0.093210
O O12 0.000411 0.499861 0.064423
O O13 0.810160 0.462133 0.999968
O O14 0.598700 0.750000 0.444694
O O15 0.717166 0.750000 0.659553
#
# Coordination Sequence:
#
# PCOD8253784 Si02
#       6
#     8   8   8   8   8   8
#     4  10  21  37  56  81 111 143 180 221 269 321
#     4  11  22  37  58  81 105 138 183 228 269 318
#     4  11  24  38  53  76 110 146 182 222 267 322
#     4   9  17  31  55  82 109 139 174 220 269 316
#     4   9  17  32  54  82 110 137 175 221 267 317
#     4  10  21  37  56  82 111 143 180 220 269 320
#
# _framework density 18.386081000000001
#
# number of rings (size 3 to 8) (size 9 to 14) (size 15 to 20)
#    0.000    2.000    1.667    2.000    0.000    6.000 
#    0.000    0.833    0.000    0.000    0.000    0.000 
#    0.000    0.000    0.000    0.000    0.000    0.000 
#
# Total GULP energy -595183.603083 kJ/mol
# GULP energy per Si atom -12399.658398 kJ/mol
# Density = 1.834423 g / cm^3
# Si number density = 18.386081 Si / 1000 Ang^3
#
#
#
# Elastic Constant Matrix: (Units=GPa)
#
#
# Indices 1 2 3 4 5 6 
#
# 1 54.6652 31.4312 22.0527 0.0000 0.0000 0.0000
# 2 31.4312 74.9909 40.7748 0.0000 0.0000 0.0000
# 3 22.0527 40.7748 118.5186 0.0000 0.0000 0.0000
# 4 0.0000 0.0000 0.0000 23.3570 0.0000 0.0000
# 5 0.0000 0.0000 0.0000 0.0000 17.9913 0.0000
# 6 0.0000 0.0000 0.0000 0.0000 0.0000 26.7964
#
#
#
# Elastic Compliance Matrix: (Units=1/GPa)
#
#
# Indices 1 2 3 4 5 6 
#
# 1 0.024251 -0.009485 -0.001249 0.000000 0.000000 0.000000
# 2 -0.009485 0.020113 -0.005155 0.000000 0.000000 0.000000
# 3 -0.001249 -0.005155 0.010443 0.000000 0.000000 0.000000
# 4 0.000000 0.000000 0.000000 0.042814 0.000000 0.000000
# 5 0.000000 0.000000 0.000000 0.000000 0.055582 0.000000
# 6 0.000000 0.000000 0.000000 0.000000 0.000000 0.037318
#
#
# Mechanical properties :
#
#
# Convention : Reuss Voigt Hill
#
# Bulk Modulus (GPa) = 43.42287 48.52136 45.97211
# Shear Modulus (GPa) = 21.74134 23.89002 22.81568
#
# Velocity S-wave (km/s) = 3.44246 3.60857 3.52649
# Velocity P-wave (km/s) = 6.28246 6.61890 6.45287
#
# Compressibility (1/GPa) = 0.02302934
#
# Stress axis : x y z
#
# Youngs Moduli (GPa) = 41.23577 49.71821 95.75455
#
# Poissons Ratio (x) = 0.47159 0.11960
# Poissons Ratio (y) = 0.39113 0.49360
# Poissons Ratio (z) = 0.05151 0.25629
#
# Static dielectric constant tensor:
#      x y z
#    x 3.116280 0.000000 0.000000 
#    y 0.000000 3.426410 0.000000 
#    z 0.000000 0.000000 3.955750 
# 
# 
# High freq. dielectric constant tensor:
#      x y z
#    x 1.686130 0.000000 0.000000 
#    y 0.000000 1.717580 0.000000 
#    z 0.000000 0.000000 1.734830 
# 
# From -- ./inp_files/31920.got.cif
#   From: 2010.03.12/outbox.cif.g09.slc.cpg/sg62_16_cif.got.tgz:31920.got - 2010.04.10 19:12:36.
