data_PCOD8253918
_publ_section_title
;
Structure prediction by ZEFSAII (Michael W. Deem and Ramdas Pophale) SiO2 
 PCOD8253918
Probable space group: P N M A
;
_chemical_formula_sum "Si O2"
_cell_formula_units_Z 40
_cell_length_a 16.047628
_cell_length_b 9.514822
_cell_length_c 12.521222
_cell_angle_alpha 90.000000
_cell_angle_beta 90.000000
_cell_angle_gamma 90.000000
_cell_volume 1911.869443
_symmetry_space_group_name_H-M "P N M A"
_symmetry_group_IT_number 62
_symmetry_cell_setting 'orthorhombic'
loop_
_space_group_symop_operation_xyz
x,y,z
1/2-x,-y,1/2+z
1/2+x,1/2-y,1/2-z
-x,1/2+y,-z
-x,-y,-z
1/2+x,y,1/2-z
1/2-x,1/2+y,1/2+z
x,1/2-y,z
loop_
_atom_site_type_symbol
_atom_site_label
_atom_site_fract_x
_atom_site_fract_y
_atom_site_fract_z
Si Si1 0.951905 0.750000 0.838547
Si Si2 0.354755 0.250000 0.345645
Si Si3 0.644557 0.750000 0.403343
Si Si4 0.591512 0.961756 0.247581
Si Si5 0.640810 0.250000 0.564129
Si Si6 0.745309 0.490955 0.111465
Si Si7 0.813523 0.750000 0.457816
Si Si8 0.044369 0.250000 0.709237
O O1 0.915454 0.624149 0.770251
O O2 0.049947 0.750000 0.812774
O O3 0.924742 0.750000 0.963587
O O4 0.355002 0.250000 0.471914
O O5 0.305093 0.107506 0.312382
O O6 0.598332 0.887702 0.362416
O O7 0.741494 0.750000 0.367126
O O8 0.510935 0.890799 0.193485
O O9 0.674657 0.931154 0.179972
O O10 0.698034 0.389534 0.555006
O O11 0.591422 0.250000 0.676417
O O12 0.696315 0.392637 0.027198
O O13 0.898891 0.750000 0.394816
#
# Coordination Sequence:
#
# PCOD8253918 Si02
#       8
#     4   4   4   8   4   8   4   4
#     4  12  22  35  60  94 120 141 191 256 299 324
#     4  10  21  38  57  82 117 154 190 242 298 346
#     4   9  19  36  58  78 112 156 188 228 296 361
#     4  11  22  38  59  86 119 155 191 239 291 345
#     4  12  23  37  63  94 116 148 194 241 295 350
#     4  10  22  40  60  83 118 159 195 233 288 352
#     4  10  21  41  61  82 114 158 200 239 282 340
#     4  11  24  39  61  86 117 159 197 234 286 351
#
# _framework density 20.92193
#
# number of rings (size 3 to 8) (size 9 to 14) (size 15 to 20)
#    0.000    1.600    0.000    8.400    0.000    3.200 
#    0.000    3.000    0.000    0.000    0.000    0.000 
#    0.000    0.000    0.000    0.000    0.000    0.000 
#
# Total GULP energy -495617.281495 kJ/mol
# GULP energy per Si atom -12390.432037 kJ/mol
# Density = 2.087431 g / cm^3
# Si number density = 20.921930 Si / 1000 Ang^3
#
#
#
# Elastic Constant Matrix: (Units=GPa)
#
#
# Indices 1 2 3 4 5 6 
#
# 1 107.0075 25.5979 25.5833 0.0000 0.0000 0.0000
# 2 25.5979 132.4380 12.0334 0.0000 0.0000 0.0000
# 3 25.5833 12.0334 39.1342 0.0000 0.0000 0.0000
# 4 0.0000 0.0000 0.0000 4.4022 0.0000 0.0000
# 5 0.0000 0.0000 0.0000 0.0000 40.3505 0.0000
# 6 0.0000 0.0000 0.0000 0.0000 0.0000 166.2555
#
#
#
# Elastic Compliance Matrix: (Units=1/GPa)
#
#
# Indices 1 2 3 4 5 6 
#
# 1 0.011384 -0.001568 -0.006960 0.000000 0.000000 0.000000
# 2 -0.001568 0.007984 -0.001430 0.000000 0.000000 0.000000
# 3 -0.006960 -0.001430 0.030543 0.000000 0.000000 0.000000
# 4 0.000000 0.000000 0.000000 0.227159 0.000000 0.000000
# 5 0.000000 0.000000 0.000000 0.000000 0.024783 0.000000
# 6 0.000000 0.000000 0.000000 0.000000 0.000000 0.006015
#
#
# Mechanical properties :
#
#
# Convention : Reuss Voigt Hill
#
# Bulk Modulus (GPa) = 33.33908 45.00098 39.17003
# Shear Modulus (GPa) = 14.80248 56.55931 35.68089
#
# Velocity S-wave (km/s) = 2.66279 5.20502 4.13417
# Velocity P-wave (km/s) = 5.04218 7.59464 6.44601
#
# Compressibility (1/GPa) = 0.02999483
#
# Stress axis : x y z
#
# Youngs Moduli (GPa) = 87.84071 125.25542 32.74094
#
# Poissons Ratio (x) = 0.19640 0.22788
# Poissons Ratio (y) = 0.13773 0.04682
# Poissons Ratio (z) = 0.61138 0.17910
#
# Static dielectric constant tensor:
#      x y z
#    x 4.592620 0.000000 0.000000 
#    y 0.000000 3.943780 0.000000 
#    z 0.000000 0.000000 3.390050 
# 
# 
# High freq. dielectric constant tensor:
#      x y z
#    x 1.838350 0.000000 0.000000 
#    y 0.000000 1.836250 0.000000 
#    z 0.000000 0.000000 1.785350 
# 
# From -- ./inp_files/18707.got.cif
#   From: 2010.03.12/outbox.cif.g09.slc.cpg/sg62_10_cif.got.tgz:18707.got - 2010.04.10 19:12:36.
