data_PCOD8253868
_publ_section_title
;
Structure prediction by ZEFSAII (Michael W. Deem and Ramdas Pophale) SiO2 
 PCOD8253868
Probable space group: P N M A
;
_chemical_formula_sum "Si O2"
_cell_formula_units_Z 48
_cell_length_a 9.240123
_cell_length_b 23.864597
_cell_length_c 10.093067
_cell_angle_alpha 90.000000
_cell_angle_beta 90.000000
_cell_angle_gamma 90.000000
_cell_volume 2225.640489
_symmetry_space_group_name_H-M "P N M A"
_symmetry_group_IT_number 62
_symmetry_cell_setting 'orthorhombic'
loop_
_space_group_symop_operation_xyz
x,y,z
1/2-x,-y,1/2+z
1/2+x,1/2-y,1/2-z
-x,1/2+y,-z
-x,-y,-z
1/2+x,y,1/2-z
1/2-x,1/2+y,1/2+z
x,1/2-y,z
loop_
_atom_site_type_symbol
_atom_site_label
_atom_site_fract_x
_atom_site_fract_y
_atom_site_fract_z
Si Si1 0.170630 0.628860 0.151303
Si Si2 0.938828 0.109836 0.424455
Si Si3 0.475791 0.935645 0.519634
Si Si4 0.802029 0.579514 0.726679
Si Si5 0.209109 0.543564 0.369965
Si Si6 0.018663 0.314951 0.644959
O O1 0.154505 0.571723 0.235759
O O2 0.331493 0.651423 0.141457
O O3 0.109965 0.607332 0.007929
O O4 0.066525 0.675707 0.217019
O O5 0.108730 0.113627 0.384414
O O6 0.917304 0.162653 0.523896
O O7 0.830328 0.112386 0.297071
O O8 0.907346 0.052447 0.509533
O O9 0.430968 0.930219 0.670529
O O10 0.347578 0.920171 0.417454
O O11 0.500000 0.000000 0.500000
O O12 0.750685 0.521212 0.658715
O O13 0.050915 0.250000 0.625354
#
# Coordination Sequence:
#
# PCOD8253868 Si02
#       6
#     8   8   8   8   8   8
#     4  11  22  41  66  94 127 159 212 266 321 383
#     4  10  25  39  63  93 129 172 222 260 312 384
#     4  11  21  34  58  94 133 168 202 245 313 396
#     4  11  22  38  60  93 137 173 202 248 320 388
#     4  10  21  37  59  95 130 171 204 250 307 391
#     4  11  25  46  69  90 119 165 226 285 324 358
#
# _framework density 21.566825999999999
#
# number of rings (size 3 to 8) (size 9 to 14) (size 15 to 20)
#    0.000    1.333    3.333    2.000    4.667    0.000 
#    0.000    0.833    0.000    0.000    0.000    0.000 
#    0.000    0.000    0.000    0.000    0.000    0.000 
#
# Total GULP energy -594754.803754 kJ/mol
# GULP energy per Si atom -12390.725078 kJ/mol
# Density = 2.151774 g / cm^3
# Si number density = 21.566826 Si / 1000 Ang^3
#
#
#
# Elastic Constant Matrix: (Units=GPa)
#
#
# Indices 1 2 3 4 5 6 
#
# 1 97.5622 17.9051 16.4820 0.0000 0.0000 0.0000
# 2 17.9051 68.4533 15.8655 0.0000 0.0000 0.0000
# 3 16.4820 15.8655 46.1952 0.0000 0.0000 0.0000
# 4 0.0000 0.0000 0.0000 19.9651 0.0000 0.0000
# 5 0.0000 0.0000 0.0000 0.0000 47.3044 0.0000
# 6 0.0000 0.0000 0.0000 0.0000 0.0000 19.0255
#
#
#
# Elastic Compliance Matrix: (Units=1/GPa)
#
#
# Indices 1 2 3 4 5 6 
#
# 1 0.011198 -0.002176 -0.003248 0.000000 0.000000 0.000000
# 2 -0.002176 0.016295 -0.004820 0.000000 0.000000 0.000000
# 3 -0.003248 -0.004820 0.024461 0.000000 0.000000 0.000000
# 4 0.000000 0.000000 0.000000 0.050088 0.000000 0.000000
# 5 0.000000 0.000000 0.000000 0.000000 0.021140 0.000000
# 6 0.000000 0.000000 0.000000 0.000000 0.000000 0.052561
#
#
# Mechanical properties :
#
#
# Convention : Reuss Voigt Hill
#
# Bulk Modulus (GPa) = 31.78020 34.74621 33.26320
# Shear Modulus (GPa) = 24.18737 28.05619 26.12178
#
# Velocity S-wave (km/s) = 3.35253 3.61071 3.48401
# Velocity P-wave (km/s) = 5.45468 5.79041 5.62505
#
# Compressibility (1/GPa) = 0.03146613
#
# Stress axis : x y z
#
# Youngs Moduli (GPa) = 89.30195 61.36906 40.88065
#
# Poissons Ratio (x) = 0.13355 0.13278
# Poissons Ratio (y) = 0.19434 0.19704
# Poissons Ratio (z) = 0.29004 0.29579
#
# Static dielectric constant tensor:
#      x y z
#    x 4.383510 0.000000 0.000000 
#    y 0.000000 3.352660 0.000000 
#    z 0.000000 0.000000 4.711190 
# 
# 
# High freq. dielectric constant tensor:
#      x y z
#    x 1.868030 0.000000 0.000000 
#    y 0.000000 1.785140 0.000000 
#    z 0.000000 0.000000 1.866220 
# 
# From -- ./inp_files/11328.got.cif
#   From: 2010.03.12/outbox.cif.g09.slc.cpg/sg62_6_cif.got.tgz:11328.got - 2010.04.10 19:12:36.
