data_PCOD8253589
_publ_section_title
;
Structure prediction by ZEFSAII (Michael W. Deem and Ramdas Pophale) SiO2 
 PCOD8253589
Probable space group: P N M A
;
_chemical_formula_sum "Si O2"
_cell_formula_units_Z 64
_cell_length_a 12.480953
_cell_length_b 17.951007
_cell_length_c 13.913114
_cell_angle_alpha 90.000000
_cell_angle_beta 90.000000
_cell_angle_gamma 90.000000
_cell_volume 3117.173013
_symmetry_space_group_name_H-M "P N M A"
_symmetry_group_IT_number 62
_symmetry_cell_setting 'orthorhombic'
loop_
_space_group_symop_operation_xyz
x,y,z
1/2-x,-y,1/2+z
1/2+x,1/2-y,1/2-z
-x,1/2+y,-z
-x,-y,-z
1/2+x,y,1/2-z
1/2-x,1/2+y,1/2+z
x,1/2-y,z
loop_
_atom_site_type_symbol
_atom_site_label
_atom_site_fract_x
_atom_site_fract_y
_atom_site_fract_z
Si Si1 0.631135 0.663901 0.899797
Si Si2 0.170823 0.337730 0.970708
Si Si3 0.421029 0.601223 0.991897
Si Si4 0.388425 0.446732 0.269878
Si Si5 0.537288 0.582891 0.523356
Si Si6 0.051930 0.974814 0.351070
Si Si7 0.242899 0.408809 0.781882
Si Si8 0.720397 0.664000 0.416568
O O1 0.645313 0.750000 0.874720
O O2 0.516753 0.650546 0.949081
O O3 0.643313 0.619905 0.800801
O O4 0.723416 0.635874 0.972210
O O5 0.168507 0.250000 0.959866
O O6 0.169314 0.373055 0.864537
O O7 0.066487 0.364506 0.028160
O O8 0.389214 0.534722 0.919560
O O9 0.454959 0.564882 0.092977
O O10 0.316999 0.651852 0.007952
O O11 0.401055 0.413278 0.375727
O O12 0.501245 0.483993 0.240656
O O13 0.294297 0.507147 0.262334
O O14 0.500000 0.500000 0.500000
O O15 0.618872 0.612710 0.442482
O O16 0.134229 0.912228 0.316496
O O17 0.237067 0.356974 0.688811
O O18 0.685390 0.750000 0.419334
#
# Coordination Sequence:
#
# PCOD8253589 Si02
#       8
#     8   8   8   8   8   8   8   8
#     4  10  23  43  68  97 131 172 218 273 336 400
#     4  11  25  45  67  96 135 175 220 272 333 402
#     4  10  20  41  68  92 128 166 218 274 329 383
#     4  11  24  40  69  99 127 171 224 276 328 400
#     4  12  26  45  69  97 133 182 221 272 331 400
#     4  10  21  38  64  99 121 164 221 278 316 384
#     4  12  23  40  67  97 130 173 220 272 329 400
#     4  12  27  43  64  97 137 175 216 275 341 398
#
# _framework density 20.531424000000001
#
# number of rings (size 3 to 8) (size 9 to 14) (size 15 to 20)
#    0.000    1.000    3.750    2.625    3.500    1.000 
#    0.000    0.000    0.000    0.000    0.000    0.000 
#    0.000    0.000    0.000    0.000    0.000    0.000 
#
# Total GULP energy -794012.800952 kJ/mol
# GULP energy per Si atom -12406.450015 kJ/mol
# Density = 2.048469 g / cm^3
# Si number density = 20.531424 Si / 1000 Ang^3
#
#
#
# Elastic Constant Matrix: (Units=GPa)
#
#
# Indices 1 2 3 4 5 6 
#
# 1 94.7761 37.0158 26.8057 0.0000 0.0000 0.0000
# 2 37.0158 96.8614 47.0918 0.0000 0.0000 0.0000
# 3 26.8057 47.0918 102.2480 0.0000 0.0000 0.0000
# 4 0.0000 0.0000 0.0000 29.6961 0.0000 0.0000
# 5 0.0000 0.0000 0.0000 0.0000 22.7658 0.0000
# 6 0.0000 0.0000 0.0000 0.0000 0.0000 37.9467
#
#
#
# Elastic Compliance Matrix: (Units=1/GPa)
#
#
# Indices 1 2 3 4 5 6 
#
# 1 0.012555 -0.004120 -0.001394 0.000000 0.000000 0.000000
# 2 -0.004120 0.014655 -0.005669 0.000000 0.000000 0.000000
# 3 -0.001394 -0.005669 0.012757 0.000000 0.000000 0.000000
# 4 0.000000 0.000000 0.000000 0.033675 0.000000 0.000000
# 5 0.000000 0.000000 0.000000 0.000000 0.043925 0.000000
# 6 0.000000 0.000000 0.000000 0.000000 0.000000 0.026353
#
#
# Mechanical properties :
#
#
# Convention : Reuss Voigt Hill
#
# Bulk Modulus (GPa) = 56.81966 57.30135 57.06051
# Shear Modulus (GPa) = 29.04414 30.27987 29.66200
#
# Velocity S-wave (km/s) = 3.76522 3.84449 3.80506
# Velocity P-wave (km/s) = 6.82914 6.90481 6.86708
#
# Compressibility (1/GPa) = 0.01759954
#
# Stress axis : x y z
#
# Youngs Moduli (GPa) = 79.65241 68.23668 78.39056
#
# Poissons Ratio (x) = 0.28114 0.10926
# Poissons Ratio (y) = 0.32818 0.44442
# Poissons Ratio (z) = 0.11102 0.38686
#
# Static dielectric constant tensor:
#      x y z
#    x 3.695540 0.000000 0.000000 
#    y 0.000000 3.616830 0.000000 
#    z 0.000000 0.000000 3.809810 
# 
# 
# High freq. dielectric constant tensor:
#      x y z
#    x 1.807400 0.000000 0.000000 
#    y 0.000000 1.800490 0.000000 
#    z 0.000000 0.000000 1.808630 
# 
# From -- ./inp_files/18263.got.cif
#   From: 2010.03.12/outbox.cif.g09.slc.cpg/sg62_10_cif.got.tgz:18263.got - 2010.04.10 19:12:36.
