data_PCOD8253726
_publ_section_title
;
Structure prediction by ZEFSAII (Michael W. Deem and Ramdas Pophale) SiO2 
 PCOD8253726
Probable space group: P N M A
;
_chemical_formula_sum "Si O2"
_cell_formula_units_Z 52
_cell_length_a 5.503191
_cell_length_b 19.889083
_cell_length_c 20.626877
_cell_angle_alpha 90.000000
_cell_angle_beta 90.000000
_cell_angle_gamma 90.000000
_cell_volume 2257.682284
_symmetry_space_group_name_H-M "P N M A"
_symmetry_group_IT_number 62
_symmetry_cell_setting 'orthorhombic'
loop_
_space_group_symop_operation_xyz
x,y,z
1/2-x,-y,1/2+z
1/2+x,1/2-y,1/2-z
-x,1/2+y,-z
-x,-y,-z
1/2+x,y,1/2-z
1/2-x,1/2+y,1/2+z
x,1/2-y,z
loop_
_atom_site_type_symbol
_atom_site_label
_atom_site_fract_x
_atom_site_fract_y
_atom_site_fract_z
Si Si1 0.119746 0.862632 0.613100
Si Si2 0.376356 0.423146 0.768797
Si Si3 0.118800 0.069894 0.218399
Si Si4 0.008930 0.750000 0.709414
Si Si5 0.157191 0.565629 0.419129
Si Si6 0.109632 0.175491 0.993835
Si Si7 0.768645 0.564703 0.525142
O O1 0.348307 0.902789 0.645370
O O2 0.982810 0.815618 0.664596
O O3 0.202535 0.816648 0.552808
O O4 0.947649 0.920793 0.585564
O O5 0.627077 0.382941 0.750582
O O6 0.382666 0.489134 0.722960
O O7 0.378501 0.444500 0.843306
O O8 0.361707 0.098386 0.255575
O O9 0.281907 0.750000 0.740995
O O10 0.268054 0.639773 0.431562
O O11 0.337667 0.508760 0.451880
O O12 0.900855 0.557665 0.455776
O O13 0.017631 0.250000 0.973447
O O14 0.902602 0.128187 0.021305
#
# Coordination Sequence:
#
# PCOD8253726 Si02
#       7
#     8   8   8   4   8   8   8
#     4  11  24  39  62  93 138 181 246 276 343 411
#     4  10  22  37  66  98 135 171 219 279 358 419
#     4  10  21  36  57  92 129 179 218 272 336 397
#     4  12  28  42  62  94 146 200 248 288 336 412
#     4  10  23  43  65 103 133 174 238 291 359 421
#     4  11  25  42  68  96 132 186 231 300 349 418
#     4  10  23  40  69  95 134 182 232 303 348 411
#
# _framework density 23.032471999999999
#
# number of rings (size 3 to 8) (size 9 to 14) (size 15 to 20)
#    0.000    1.538    0.769    3.231   11.846    0.615 
#    0.000    0.000    0.000    0.923    0.000    0.000 
#    0.000    0.000    0.000    0.000    0.000    0.000 
#
# Total GULP energy -644271.503068 kJ/mol
# GULP energy per Si atom -12389.836597 kJ/mol
# Density = 2.298005 g / cm^3
# Si number density = 23.032472 Si / 1000 Ang^3
#
#
#
# Elastic Constant Matrix: (Units=GPa)
#
#
# Indices 1 2 3 4 5 6 
#
# 1 109.6018 6.8124 23.7947 0.0000 0.0000 0.0000
# 2 6.8124 110.8869 14.7469 0.0000 0.0000 0.0000
# 3 23.7947 14.7469 79.5679 0.0000 0.0000 0.0000
# 4 0.0000 0.0000 0.0000 20.1590 0.0000 0.0000
# 5 0.0000 0.0000 0.0000 0.0000 7.8935 0.0000
# 6 0.0000 0.0000 0.0000 0.0000 0.0000 13.2044
#
#
#
# Elastic Compliance Matrix: (Units=1/GPa)
#
#
# Indices 1 2 3 4 5 6 
#
# 1 0.009763 -0.000217 -0.002879 0.000000 0.000000 0.000000
# 2 -0.000217 0.009251 -0.001650 0.000000 0.000000 0.000000
# 3 -0.002879 -0.001650 0.013735 0.000000 0.000000 0.000000
# 4 0.000000 0.000000 0.000000 0.049606 0.000000 0.000000
# 5 0.000000 0.000000 0.000000 0.000000 0.126686 0.000000
# 6 0.000000 0.000000 0.000000 0.000000 0.000000 0.075732
#
#
# Mechanical properties :
#
#
# Convention : Reuss Voigt Hill
#
# Bulk Modulus (GPa) = 42.99878 43.41827 43.20852
# Shear Modulus (GPa) = 16.55543 25.23156 20.89349
#
# Velocity S-wave (km/s) = 2.68393 3.31339 3.01513
# Velocity P-wave (km/s) = 5.32108 5.79050 5.56075
#
# Compressibility (1/GPa) = 0.02325648
#
# Stress axis : x y z
#
# Youngs Moduli (GPa) = 102.43266 108.09742 72.80838
#
# Poissons Ratio (x) = 0.02344 0.20964
# Poissons Ratio (y) = 0.02221 0.12011
# Poissons Ratio (z) = 0.29493 0.17833
#
# Static dielectric constant tensor:
#      x y z
#    x 4.573870 0.000000 0.000000 
#    y 0.000000 3.982030 0.000000 
#    z 0.000000 0.000000 4.040610 
# 
# 
# High freq. dielectric constant tensor:
#      x y z
#    x 1.911450 0.000000 0.000000 
#    y 0.000000 1.879930 0.000000 
#    z 0.000000 0.000000 1.907940 
# 
# From -- ./inp_files/25328.got.cif
#   From: 2010.03.12/outbox.cif.g09.slc.cpg/sg62_13_cif.got.tgz:25328.got - 2010.04.10 19:12:36.
