data_PCOD8253659
_publ_section_title
;
Structure prediction by ZEFSAII (Michael W. Deem and Ramdas Pophale) SiO2 
 PCOD8253659
Probable space group: P N M A
;
_chemical_formula_sum "Si O2"
_cell_formula_units_Z 64
_cell_length_a 14.366795
_cell_length_b 18.683233
_cell_length_c 11.492137
_cell_angle_alpha 90.000000
_cell_angle_beta 90.000000
_cell_angle_gamma 90.000000
_cell_volume 3084.698480
_symmetry_space_group_name_H-M "P N M A"
_symmetry_group_IT_number 62
_symmetry_cell_setting 'orthorhombic'
loop_
_space_group_symop_operation_xyz
x,y,z
1/2-x,-y,1/2+z
1/2+x,1/2-y,1/2-z
-x,1/2+y,-z
-x,-y,-z
1/2+x,y,1/2-z
1/2-x,1/2+y,1/2+z
x,1/2-y,z
loop_
_atom_site_type_symbol
_atom_site_label
_atom_site_fract_x
_atom_site_fract_y
_atom_site_fract_z
Si Si1 0.864131 0.927034 0.244054
Si Si2 0.241693 0.833243 0.659633
Si Si3 0.425442 0.671192 0.930425
Si Si4 0.046161 0.330514 0.173425
Si Si5 0.288832 0.555023 0.002480
Si Si6 0.624186 0.579342 0.652489
Si Si7 0.799692 0.398262 0.578980
Si Si8 0.474858 0.167300 0.834091
O O1 0.802254 0.932362 0.360843
O O2 0.799864 0.896802 0.141680
O O3 0.950248 0.872808 0.254075
O O4 0.904027 0.004889 0.213139
O O5 0.236644 0.750000 0.692589
O O6 0.349171 0.859943 0.657710
O O7 0.185539 0.875669 0.757081
O O8 0.201100 0.845648 0.531369
O O9 0.379365 0.750000 0.945458
O O10 0.481389 0.667651 0.809844
O O11 0.344220 0.613582 0.928683
O O12 0.498617 0.656664 0.031436
O O13 0.037961 0.250000 0.123198
O O14 0.969973 0.380671 0.111308
O O15 0.181100 0.564202 0.966351
O O16 0.326635 0.477560 0.964132
O O17 0.874103 0.369806 0.674037
O O18 0.470701 0.250000 0.795366
#
# Coordination Sequence:
#
# PCOD8253659 Si02
#       8
#     8   8   8   8   8   8   8   8
#     4  10  24  41  61  91 121 161 203 257 303 358
#     4  11  22  39  63  91 127 162 202 257 305 359
#     4   9  18  33  56  87 120 151 192 251 299 347
#     4  10  21  35  58  93 125 156 194 246 312 369
#     4  10  21  38  60  87 122 157 202 248 303 360
#     4  11  21  37  62  92 123 162 201 250 308 369
#     4  11  23  41  63  89 122 162 207 249 305 369
#     4  10  22  39  62  88 115 160 211 251 297 354
#
# _framework density 20.74757
#
# number of rings (size 3 to 8) (size 9 to 14) (size 15 to 20)
#    0.000    1.750    2.500    1.500    1.750    3.500 
#    2.250    1.250    0.000    0.000    0.000    0.000 
#    0.000    0.000    0.000    0.000    0.000    0.000 
#
# Total GULP energy -793676.684642 kJ/mol
# GULP energy per Si atom -12401.198198 kJ/mol
# Density = 2.070035 g / cm^3
# Si number density = 20.747570 Si / 1000 Ang^3
#
#
#
# Elastic Constant Matrix: (Units=GPa)
#
#
# Indices 1 2 3 4 5 6 
#
# 1 89.6738 43.1342 -2.3443 0.0000 0.0000 0.0000
# 2 43.1342 104.5703 1.5506 0.0000 0.0000 0.0000
# 3 -2.3443 1.5506 32.9866 0.0000 0.0000 0.0000
# 4 0.0000 0.0000 0.0000 20.2012 0.0000 0.0000
# 5 0.0000 0.0000 0.0000 0.0000 20.9522 0.0000
# 6 0.0000 0.0000 0.0000 0.0000 0.0000 37.2359
#
#
#
# Elastic Compliance Matrix: (Units=1/GPa)
#
#
# Indices 1 2 3 4 5 6 
#
# 1 0.013964 -0.005779 0.001264 0.000000 0.000000 0.000000
# 2 -0.005779 0.011961 -0.000973 0.000000 0.000000 0.000000
# 3 0.001264 -0.000973 0.030451 0.000000 0.000000 0.000000
# 4 0.000000 0.000000 0.000000 0.049502 0.000000 0.000000
# 5 0.000000 0.000000 0.000000 0.000000 0.047728 0.000000
# 6 0.000000 0.000000 0.000000 0.000000 0.000000 0.026856
#
#
# Mechanical properties :
#
#
# Convention : Reuss Voigt Hill
#
# Bulk Modulus (GPa) = 22.02606 34.65686 28.34146
# Shear Modulus (GPa) = 24.20477 28.00388 26.10433
#
# Velocity S-wave (km/s) = 3.41930 3.67787 3.55094
# Velocity P-wave (km/s) = 5.12134 5.89711 5.52287
#
# Compressibility (1/GPa) = 0.04540076
#
# Stress axis : x y z
#
# Youngs Moduli (GPa) = 71.61132 83.60438 32.83975
#
# Poissons Ratio (x) = 0.48314 -0.04151
# Poissons Ratio (y) = 0.41383 0.03195
# Poissons Ratio (z) = -0.09052 0.08134
#
# Static dielectric constant tensor:
#      x y z
#    x 3.638900 0.000000 0.000000 
#    y 0.000000 3.880790 0.000000 
#    z 0.000000 0.000000 3.545160 
# 
# 
# High freq. dielectric constant tensor:
#      x y z
#    x 1.808490 0.000000 0.000000 
#    y 0.000000 1.822170 0.000000 
#    z 0.000000 0.000000 1.793050 
# 
# From -- ./inp_files/13603.got.cif
#   From: 2010.03.12/outbox.cif.g09.slc.cpg/sg62_7_cif.got.tgz:13603.got - 2010.04.10 19:12:36.
