data_PCOD8253456
_publ_section_title
;
Structure prediction by ZEFSAII (Michael W. Deem and Ramdas Pophale) SiO2 
 PCOD8253456
Probable space group: P N M A
;
_chemical_formula_sum "Si O2"
_cell_formula_units_Z 48
_cell_length_a 8.909804
_cell_length_b 17.155647
_cell_length_c 16.092979
_cell_angle_alpha 90.000000
_cell_angle_beta 90.000000
_cell_angle_gamma 90.000000
_cell_volume 2459.867397
_symmetry_space_group_name_H-M "P N M A"
_symmetry_group_IT_number 62
_symmetry_cell_setting 'orthorhombic'
loop_
_space_group_symop_operation_xyz
x,y,z
1/2-x,-y,1/2+z
1/2+x,1/2-y,1/2-z
-x,1/2+y,-z
-x,-y,-z
1/2+x,y,1/2-z
1/2-x,1/2+y,1/2+z
x,1/2-y,z
loop_
_atom_site_type_symbol
_atom_site_label
_atom_site_fract_x
_atom_site_fract_y
_atom_site_fract_z
Si Si1 0.327434 0.837140 0.141751
Si Si2 0.271096 0.941686 0.498927
Si Si3 0.862170 0.540773 0.641595
Si Si4 0.607222 0.018824 0.747392
Si Si5 0.932970 0.425214 0.909097
Si Si6 0.497539 0.839951 0.973016
O O1 0.346143 0.750000 0.177892
O O2 0.338609 0.897728 0.217737
O O3 0.157865 0.845506 0.105991
O O4 0.447844 0.851047 0.068593
O O5 0.432766 0.905769 0.472900
O O6 0.163044 0.877611 0.540827
O O7 0.180054 0.970038 0.418695
O O8 0.306670 0.014139 0.558390
O O9 0.738224 0.539229 0.714866
O O10 0.026146 0.527294 0.679230
O O11 0.874526 0.620633 0.588736
O O12 0.492118 0.035794 0.674153
O O13 0.506829 0.750000 0.948095
#
# Coordination Sequence:
#
# PCOD8253456 Si02
#       6
#     8   8   8   8   8   8
#     4  11  22  38  58  89 129 159 193 246 311 370
#     4  10  20  38  65  86 118 157 212 248 288 364
#     4  11  21  38  63  86 118 156 211 247 291 365
#     4  11  22  37  60  91 116 160 202 250 304 351
#     4  10  21  37  60  92 116 159 203 248 296 353
#     4  11  23  39  62  89 121 161 201 253 310 365
#
# _framework density 19.513248000000001
#
# number of rings (size 3 to 8) (size 9 to 14) (size 15 to 20)
#    0.000    1.333    5.000    1.500    0.000    1.333 
#    0.000    3.333    0.000    0.000    0.000    0.000 
#    0.000    0.000    0.000    0.000    0.000    0.000 
#
# Total GULP energy -594965.932066 kJ/mol
# GULP energy per Si atom -12395.123585 kJ/mol
# Density = 1.946883 g / cm^3
# Si number density = 19.513248 Si / 1000 Ang^3
#
#
#
# Elastic Constant Matrix: (Units=GPa)
#
#
# Indices 1 2 3 4 5 6 
#
# 1 101.3930 41.6551 27.1825 0.0000 0.0000 0.0000
# 2 41.6551 66.4471 31.2972 0.0000 0.0000 0.0000
# 3 27.1825 31.2972 69.0360 0.0000 0.0000 0.0000
# 4 0.0000 0.0000 0.0000 29.3523 0.0000 0.0000
# 5 0.0000 0.0000 0.0000 0.0000 37.8772 0.0000
# 6 0.0000 0.0000 0.0000 0.0000 0.0000 21.6136
#
#
#
# Elastic Compliance Matrix: (Units=1/GPa)
#
#
# Indices 1 2 3 4 5 6 
#
# 1 0.013472 -0.007562 -0.001877 0.000000 0.000000 0.000000
# 2 -0.007562 0.023380 -0.007622 0.000000 0.000000 0.000000
# 3 -0.001877 -0.007622 0.018679 0.000000 0.000000 0.000000
# 4 0.000000 0.000000 0.000000 0.034069 0.000000 0.000000
# 5 0.000000 0.000000 0.000000 0.000000 0.026401 0.000000
# 6 0.000000 0.000000 0.000000 0.000000 0.000000 0.046267
#
#
# Mechanical properties :
#
#
# Convention : Reuss Voigt Hill
#
# Bulk Modulus (GPa) = 46.70411 48.57172 47.63792
# Shear Modulus (GPa) = 24.56689 26.88471 25.72580
#
# Velocity S-wave (km/s) = 3.55207 3.71586 3.63488
# Velocity P-wave (km/s) = 6.38823 6.58451 6.48711
#
# Compressibility (1/GPa) = 0.02141139
#
# Stress axis : x y z
#
# Youngs Moduli (GPa) = 74.22647 42.77175 53.53501
#
# Poissons Ratio (x) = 0.32343 0.10046
# Poissons Ratio (y) = 0.56129 0.40803
# Poissons Ratio (z) = 0.13929 0.32600
#
# Static dielectric constant tensor:
#      x y z
#    x 3.800110 0.000000 0.000000 
#    y 0.000000 3.276940 0.000000 
#    z 0.000000 0.000000 3.640370 
# 
# 
# High freq. dielectric constant tensor:
#      x y z
#    x 1.777090 0.000000 0.000000 
#    y 0.000000 1.724180 0.000000 
#    z 0.000000 0.000000 1.761520 
# 
# From -- ./inp_files/22350.got.cif
#   From: 2010.03.12/outbox.cif.g09.slc.cpg/sg62_12_cif.got.tgz:22350.got - 2010.04.10 19:12:36.
