data_PCOD8253171
_publ_section_title
;
Structure prediction by ZEFSAII (Michael W. Deem and Ramdas Pophale) SiO2 
 PCOD8253171
Probable space group: P N M A
;
_chemical_formula_sum "Si O2"
_cell_formula_units_Z 48
_cell_length_a 17.649915
_cell_length_b 10.592820
_cell_length_c 12.416408
_cell_angle_alpha 90.000000
_cell_angle_beta 90.000000
_cell_angle_gamma 90.000000
_cell_volume 2321.401099
_symmetry_space_group_name_H-M "P N M A"
_symmetry_group_IT_number 62
_symmetry_cell_setting 'orthorhombic'
loop_
_space_group_symop_operation_xyz
x,y,z
1/2-x,-y,1/2+z
1/2+x,1/2-y,1/2-z
-x,1/2+y,-z
-x,-y,-z
1/2+x,y,1/2-z
1/2-x,1/2+y,1/2+z
x,1/2-y,z
loop_
_atom_site_type_symbol
_atom_site_label
_atom_site_fract_x
_atom_site_fract_y
_atom_site_fract_z
Si Si1 0.806241 0.608425 0.939194
Si Si2 0.259562 0.889744 0.328320
Si Si3 0.020941 0.893494 0.680208
Si Si4 0.834326 0.953995 0.379954
Si Si5 0.353628 0.608069 0.881528
Si Si6 0.025496 0.395036 0.083565
O O1 0.785213 0.750000 0.916537
O O2 0.739407 0.539903 0.878700
O O3 0.887226 0.574529 0.886993
O O4 0.810172 0.579647 0.066891
O O5 0.220315 0.750000 0.339710
O O6 0.318297 0.875690 0.228599
O O7 0.197484 0.002490 0.321631
O O8 0.036509 0.750000 0.647033
O O9 0.086269 0.974818 0.626420
O O10 0.939980 0.936785 0.633893
O O11 0.023877 0.909413 0.809134
O O12 0.835553 0.877256 0.491258
O O13 0.341052 0.750000 0.831758
O O14 0.018346 0.250000 0.038372
O O15 0.000000 0.500000 0.000000
#
# Coordination Sequence:
#
# PCOD8253171 Si02
#       6
#     8   8   8   8   8   8
#     4   9  19  35  55  78 111 150 184 224 282 343
#     4  10  21  37  57  84 114 148 191 238 290 345
#     4  10  21  36  57  86 119 155 195 236 290 356
#     4  11  20  35  59  86 114 148 192 241 286 335
#     4  10  22  40  60  85 117 153 193 239 288 345
#     4  10  20  37  58  83 113 148 190 236 285 340
#
# _framework density 20.677167000000001
#
# number of rings (size 3 to 8) (size 9 to 14) (size 15 to 20)
#    0.000    2.000    0.000    3.500    0.000    3.333 
#    0.000   10.833    0.000    0.000    0.000    0.000 
#    0.000    0.000    0.000    0.000    0.000    0.000 
#
# Total GULP energy -594765.584768 kJ/mol
# GULP energy per Si atom -12390.949683 kJ/mol
# Density = 2.063010 g / cm^3
# Si number density = 20.677167 Si / 1000 Ang^3
#
#
#
# Elastic Constant Matrix: (Units=GPa)
#
#
# Indices 1 2 3 4 5 6 
#
# 1 67.0012 42.5925 9.2189 0.0000 0.0000 0.0000
# 2 42.5925 99.4234 11.7425 0.0000 0.0000 0.0000
# 3 9.2189 11.7425 71.6185 0.0000 0.0000 0.0000
# 4 0.0000 0.0000 0.0000 -4.3014 0.0000 0.0000
# 5 0.0000 0.0000 0.0000 0.0000 33.6152 0.0000
# 6 0.0000 0.0000 0.0000 0.0000 0.0000 29.6547
#
#
#
# Elastic Compliance Matrix: (Units=1/GPa)
#
#
# Indices 1 2 3 4 5 6 
#
# 1 0.020616 -0.008687 -0.001230 0.000000 0.000000 0.000000
# 2 -0.008687 0.013917 -0.001164 0.000000 0.000000 0.000000
# 3 -0.001230 -0.001164 0.014312 0.000000 0.000000 0.000000
# 4 0.000000 0.000000 0.000000 -0.232482 0.000000 0.000000
# 5 0.000000 0.000000 0.000000 0.000000 0.029748 0.000000
# 6 0.000000 0.000000 0.000000 0.000000 0.000000 0.033722
#
#
# Mechanical properties :
#
#
# Convention : Reuss Voigt Hill
#
# Bulk Modulus (GPa) = 37.47373 40.57234 39.02304
# Shear Modulus (GPa) = -56.10936 23.42630 -16.34153
#
# Velocity S-wave (km/s) = -5.21486 3.36959 -2.81431
# Velocity P-wave (km/s) = 4.25408 5.89943 2.89016
#
# Compressibility (1/GPa) = 0.02668536
#
# Stress axis : x y z
#
# Youngs Moduli (GPa) = 48.50496 71.85562 69.87179
#
# Poissons Ratio (x) = 0.62419 0.08591
# Poissons Ratio (y) = 0.42135 0.08130
# Poissons Ratio (z) = 0.05964 0.08361
#
# Static dielectric constant tensor:
#      x y z
#    x 3.903980 0.000000 0.000000 
#    y 0.000000 3.679200 0.000000 
#    z 0.000000 0.000000 4.133410 
# 
# 
# High freq. dielectric constant tensor:
#      x y z
#    x 1.800640 0.000000 0.000000 
#    y 0.000000 1.802600 0.000000 
#    z 0.000000 0.000000 1.823870 
# 
# From -- ./inp_files/14121.got.cif
#   From: 2010.03.12/outbox.cif.g09.slc.cpg/sg62_8_cif.got.tgz:14121.got - 2010.04.10 19:12:36.
