data_PCOD8253830
_publ_section_title
;
Structure prediction by ZEFSAII (Michael W. Deem and Ramdas Pophale) SiO2 
 PCOD8253830
Probable space group: P N M A
;
_chemical_formula_sum "Si O2"
_cell_formula_units_Z 40
_cell_length_a 8.303550
_cell_length_b 25.558470
_cell_length_c 9.355177
_cell_angle_alpha 90.000000
_cell_angle_beta 90.000000
_cell_angle_gamma 90.000000
_cell_volume 1985.412108
_symmetry_space_group_name_H-M "P N M A"
_symmetry_group_IT_number 62
_symmetry_cell_setting 'orthorhombic'
loop_
_space_group_symop_operation_xyz
x,y,z
1/2-x,-y,1/2+z
1/2+x,1/2-y,1/2-z
-x,1/2+y,-z
-x,-y,-z
1/2+x,y,1/2-z
1/2-x,1/2+y,1/2+z
x,1/2-y,z
loop_
_atom_site_type_symbol
_atom_site_label
_atom_site_fract_x
_atom_site_fract_y
_atom_site_fract_z
Si Si1 0.789506 0.452641 0.934903
Si Si2 0.308229 0.250000 0.369109
Si Si3 0.311155 0.341579 0.871087
Si Si4 0.820956 0.750000 0.941831
Si Si5 0.816651 0.841190 0.440435
Si Si6 0.663709 0.047531 0.629499
O O1 0.723190 0.398749 0.002368
O O2 0.686460 0.465622 0.794982
O O3 0.976101 0.445403 0.898754
O O4 0.759029 0.499843 0.042754
O O5 0.495527 0.250000 0.397536
O O6 0.288463 0.250000 0.199052
O O7 0.226294 0.300995 0.435834
O O8 0.285662 0.330479 0.703087
O O9 0.497883 0.335103 0.901931
O O10 0.254365 0.399496 0.914199
O O11 0.211178 0.301206 0.965040
#
# Coordination Sequence:
#
# PCOD8253830 Si02
#       6
#     8   4   8   4   8   8
#     4  10  21  37  58  85 116 151 193 238 285 339
#     4  12  25  42  61  86 118 150 190 238 291 344
#     4  11  22  39  62  87 116 153 195 237 285 341
#     4  12  25  42  61  86 118 150 190 238 291 344
#     4  11  22  39  62  87 116 153 195 237 285 341
#     4  10  21  37  58  85 116 151 193 238 285 339
#
# _framework density 20.14695
#
# number of rings (size 3 to 8) (size 9 to 14) (size 15 to 20)
#    0.000    1.200    0.000    9.600    0.000    4.800 
#    0.000    4.000    0.000    0.000    0.000    0.000 
#    0.000    0.000    0.000    0.000    0.000    0.000 
#
# Total GULP energy -496212.002802 kJ/mol
# GULP energy per Si atom -12405.300070 kJ/mol
# Density = 2.010109 g / cm^3
# Si number density = 20.146950 Si / 1000 Ang^3
#
#
#
# Elastic Constant Matrix: (Units=GPa)
#
#
# Indices 1 2 3 4 5 6 
#
# 1 57.9559 5.6465 -18.5111 0.0000 0.0000 0.0000
# 2 5.6465 136.6113 63.2733 0.0000 0.0000 0.0000
# 3 -18.5111 63.2733 63.0672 0.0000 0.0000 0.0000
# 4 0.0000 0.0000 0.0000 31.3224 0.0000 0.0000
# 5 0.0000 0.0000 0.0000 0.0000 44.9784 0.0000
# 6 0.0000 0.0000 0.0000 0.0000 0.0000 11.9136
#
#
#
# Elastic Compliance Matrix: (Units=1/GPa)
#
#
# Indices 1 2 3 4 5 6 
#
# 1 0.022471 -0.007441 0.014061 0.000000 0.000000 0.000000
# 2 -0.007441 0.016138 -0.018375 0.000000 0.000000 0.000000
# 3 0.014061 -0.018375 0.038418 0.000000 0.000000 0.000000
# 4 0.000000 0.000000 0.000000 0.031926 0.000000 0.000000
# 5 0.000000 0.000000 0.000000 0.000000 0.022233 0.000000
# 6 0.000000 0.000000 0.000000 0.000000 0.000000 0.083938
#
#
# Mechanical properties :
#
#
# Convention : Reuss Voigt Hill
#
# Bulk Modulus (GPa) = 18.68583 39.82799 29.25691
# Shear Modulus (GPa) = 19.49517 31.45793 25.47655
#
# Velocity S-wave (km/s) = 3.11408 3.95577 3.55989
# Velocity P-wave (km/s) = 4.71433 6.37776 5.60806
#
# Compressibility (1/GPa) = 0.05351650
#
# Stress axis : x y z
#
# Youngs Moduli (GPa) = 44.50257 61.96435 26.02916
#
# Poissons Ratio (x) = 0.46110 -0.36600
# Poissons Ratio (y) = 0.33116 0.47829
# Poissons Ratio (z) = -0.62575 1.13861
#
# Static dielectric constant tensor:
#      x y z
#    x 3.765210 0.000000 0.000000 
#    y 0.000000 3.960410 0.000000 
#    z 0.000000 0.000000 3.789410 
# 
# 
# High freq. dielectric constant tensor:
#      x y z
#    x 1.807190 0.000000 0.000000 
#    y 0.000000 1.803140 0.000000 
#    z 0.000000 0.000000 1.777300 
# 
# From -- ./inp_files/4417.got.cif
#   From: 2010.03.12/outbox.cif.g09.slc.cpg/sg62_3_cif.got.tgz:4417.got - 2010.04.10 19:12:36.
