data_PCOD8253105
_publ_section_title
;
Structure prediction by ZEFSAII (Michael W. Deem and Ramdas Pophale) SiO2 
 PCOD8253105
Probable space group: P N M A
;
_chemical_formula_sum "Si O2"
_cell_formula_units_Z 48
_cell_length_a 23.180463
_cell_length_b 8.540479
_cell_length_c 11.916981
_cell_angle_alpha 90.000000
_cell_angle_beta 90.000000
_cell_angle_gamma 90.000000
_cell_volume 2359.231631
_symmetry_space_group_name_H-M "P N M A"
_symmetry_group_IT_number 62
_symmetry_cell_setting 'orthorhombic'
loop_
_space_group_symop_operation_xyz
x,y,z
1/2-x,-y,1/2+z
1/2+x,1/2-y,1/2-z
-x,1/2+y,-z
-x,-y,-z
1/2+x,y,1/2-z
1/2-x,1/2+y,1/2+z
x,1/2-y,z
loop_
_atom_site_type_symbol
_atom_site_label
_atom_site_fract_x
_atom_site_fract_y
_atom_site_fract_z
Si Si1 0.726570 0.430763 0.877667
Si Si2 0.881403 0.065563 0.241606
Si Si3 0.446649 0.936239 0.065278
Si Si4 0.345633 0.570170 0.915515
Si Si5 0.653070 0.066419 0.331835
Si Si6 0.935076 0.434269 0.007158
O O1 0.739815 0.250000 0.849853
O O2 0.676651 0.484084 0.789947
O O3 0.783048 0.535987 0.876085
O O4 0.711315 0.450091 0.009498
O O5 0.870967 0.250000 0.245722
O O6 0.898496 0.008580 0.116248
O O7 0.937710 0.015650 0.313728
O O8 0.447131 0.750000 0.079788
O O9 0.395564 0.003801 0.989596
O O10 0.500000 0.000000 0.000000
O O11 0.359666 0.750000 0.893381
O O12 0.344445 0.491246 0.793467
O O13 0.640229 0.250000 0.335586
O O14 0.602067 0.982315 0.399010
O O15 0.941704 0.250000 0.011427
O O16 0.000000 0.500000 0.000000
#
# Coordination Sequence:
#
# PCOD8253105 Si02
#       6
#     8   8   8   8   8   8
#     4  10  21  40  64  93 124 159 203 253 310 370
#     4  10  22  41  63  88 122 163 205 253 311 369
#     4  10  20  36  60  89 119 156 200 249 303 360
#     4   8  19  38  58  82 119 156 192 243 304 360
#     4  11  23  40  64  92 123 164 205 249 310 374
#     4  11  26  45  64  90 126 169 214 261 315 375
#
# _framework density 20.345606
#
# number of rings (size 3 to 8) (size 9 to 14) (size 15 to 20)
#    0.000    2.000    0.000    3.500    4.667    2.667 
#    0.000    8.333    0.000    0.000    0.000    0.000 
#    0.000    0.000    0.000    0.000    0.000    0.000 
#
# Total GULP energy -594783.267416 kJ/mol
# GULP energy per Si atom -12391.318071 kJ/mol
# Density = 2.029930 g / cm^3
# Si number density = 20.345606 Si / 1000 Ang^3
#
#
#
# Elastic Constant Matrix: (Units=GPa)
#
#
# Indices 1 2 3 4 5 6 
#
# 1 93.8194 17.7227 42.3663 0.0000 0.0000 0.0000
# 2 17.7227 45.7203 33.9066 0.0000 0.0000 0.0000
# 3 42.3663 33.9066 141.5259 0.0000 0.0000 0.0000
# 4 0.0000 0.0000 0.0000 29.5496 0.0000 0.0000
# 5 0.0000 0.0000 0.0000 0.0000 24.2117 0.0000
# 6 0.0000 0.0000 0.0000 0.0000 0.0000 37.0299
#
#
#
# Elastic Compliance Matrix: (Units=1/GPa)
#
#
# Indices 1 2 3 4 5 6 
#
# 1 0.012561 -0.002530 -0.003154 0.000000 0.000000 0.000000
# 2 -0.002530 0.027107 -0.005737 0.000000 0.000000 0.000000
# 3 -0.003154 -0.005737 0.009384 0.000000 0.000000 0.000000
# 4 0.000000 0.000000 0.000000 0.033841 0.000000 0.000000
# 5 0.000000 0.000000 0.000000 0.000000 0.041302 0.000000
# 6 0.000000 0.000000 0.000000 0.000000 0.000000 0.027005
#
#
# Mechanical properties :
#
#
# Convention : Reuss Voigt Hill
#
# Bulk Modulus (GPa) = 38.15216 52.11744 45.13480
# Shear Modulus (GPa) = 27.35515 30.62958 28.99236
#
# Velocity S-wave (km/s) = 3.67075 3.88424 3.77900
# Velocity P-wave (km/s) = 6.06289 6.76669 6.42444
#
# Compressibility (1/GPa) = 0.02621084
#
# Stress axis : x y z
#
# Youngs Moduli (GPa) = 79.61166 36.89020 106.55886
#
# Poissons Ratio (x) = 0.09333 0.33609
# Poissons Ratio (y) = 0.20142 0.61133
# Poissons Ratio (z) = 0.25110 0.21164
#
# Static dielectric constant tensor:
#      x y z
#    x 3.103390 0.000000 0.000000 
#    y 0.000000 3.605940 0.000000 
#    z 0.000000 0.000000 3.435420 
# 
# 
# High freq. dielectric constant tensor:
#      x y z
#    x 1.797900 0.000000 0.000000 
#    y 0.000000 1.788400 0.000000 
#    z 0.000000 0.000000 1.810050 
# 
# From -- ./inp_files/15124.got.cif
#   From: 2010.03.12/outbox.cif.g09.slc.cpg/sg62_8_cif.got.tgz:15124.got - 2010.04.10 19:12:36.
