data_PCOD8253001
_publ_section_title
;
Structure prediction by ZEFSAII (Michael W. Deem and Ramdas Pophale) SiO2 
 PCOD8253001
Probable space group: P N M A
;
_chemical_formula_sum "Si O2"
_cell_formula_units_Z 56
_cell_length_a 21.961027
_cell_length_b 8.661539
_cell_length_c 14.693781
_cell_angle_alpha 90.000000
_cell_angle_beta 90.000000
_cell_angle_gamma 90.000000
_cell_volume 2794.996535
_symmetry_space_group_name_H-M "P N M A"
_symmetry_group_IT_number 62
_symmetry_cell_setting 'orthorhombic'
loop_
_space_group_symop_operation_xyz
x,y,z
1/2-x,-y,1/2+z
1/2+x,1/2-y,1/2-z
-x,1/2+y,-z
-x,-y,-z
1/2+x,y,1/2-z
1/2-x,1/2+y,1/2+z
x,1/2-y,z
loop_
_atom_site_type_symbol
_atom_site_label
_atom_site_fract_x
_atom_site_fract_y
_atom_site_fract_z
Si Si1 0.720950 0.932373 0.826810
Si Si2 0.364290 0.430405 0.013026
Si Si3 0.856137 0.928882 0.844963
Si Si4 0.959906 0.929243 0.360342
Si Si5 0.913721 0.926723 0.651482
Si Si6 0.067358 0.568777 0.993330
Si Si7 0.387033 0.432850 0.297183
O O1 0.725221 0.750000 0.821467
O O2 0.690124 0.985866 0.921194
O O3 0.789014 0.001217 0.826715
O O4 0.679610 0.987470 0.740489
O O5 0.360196 0.250000 0.992637
O O6 0.427587 0.469565 0.062491
O O7 0.359861 0.524636 0.918313
O O8 0.851977 0.750000 0.873103
O O9 0.893415 0.952746 0.753772
O O10 0.890270 0.018952 0.923973
O O11 0.945285 0.750000 0.375486
O O12 0.939107 0.982828 0.260453
O O13 0.031294 0.958369 0.369265
O O14 0.932733 0.750000 0.634968
O O15 0.058834 0.750000 0.994762
O O16 0.102544 0.516831 0.901398
O O17 0.000000 0.500000 0.000000
O O18 0.394958 0.250000 0.283453
#
# Coordination Sequence:
#
# PCOD8253001 Si02
#       7
#     8   8   8   8   8   8   8
#     4   8  17  37  60  80 106 143 184 225 276 334
#     4  10  20  36  58  81 110 145 180 221 270 326
#     4  10  22  39  58  80 110 147 185 230 280 331
#     4  11  21  34  55  83 113 142 178 223 271 325
#     4  11  22  35  53  79 111 145 182 223 271 325
#     4  11  23  38  59  86 116 151 192 239 286 336
#     4   9  19  37  59  81 109 147 186 225 276 333
#
# _framework density 20.035803999999999
#
# number of rings (size 3 to 8) (size 9 to 14) (size 15 to 20)
#    0.000    2.000    0.000    4.714    0.000    6.857 
#    0.000    5.000    0.000    0.000    0.000    0.000 
#    0.000    0.000    0.000    0.000    0.000    0.000 
#
# Total GULP energy -694364.307648 kJ/mol
# GULP energy per Si atom -12399.362637 kJ/mol
# Density = 1.999020 g / cm^3
# Si number density = 20.035804 Si / 1000 Ang^3
#
#
#
# Elastic Constant Matrix: (Units=GPa)
#
#
# Indices 1 2 3 4 5 6 
#
# 1 102.1702 14.7444 28.8310 0.0000 0.0000 0.0000
# 2 14.7444 46.5769 36.3151 0.0000 0.0000 0.0000
# 3 28.8310 36.3151 122.0281 0.0000 0.0000 0.0000
# 4 0.0000 0.0000 0.0000 30.4613 0.0000 0.0000
# 5 0.0000 0.0000 0.0000 0.0000 19.6393 0.0000
# 6 0.0000 0.0000 0.0000 0.0000 0.0000 22.6436
#
#
#
# Elastic Compliance Matrix: (Units=1/GPa)
#
#
# Indices 1 2 3 4 5 6 
#
# 1 0.010605 -0.001828 -0.001962 0.000000 0.000000 0.000000
# 2 -0.001828 0.028272 -0.007982 0.000000 0.000000 0.000000
# 3 -0.001962 -0.007982 0.011034 0.000000 0.000000 0.000000
# 4 0.000000 0.000000 0.000000 0.032829 0.000000 0.000000
# 5 0.000000 0.000000 0.000000 0.000000 0.050918 0.000000
# 6 0.000000 0.000000 0.000000 0.000000 0.000000 0.044163
#
#
# Mechanical properties :
#
#
# Convention : Reuss Voigt Hill
#
# Bulk Modulus (GPa) = 37.92455 47.83956 42.88205
# Shear Modulus (GPa) = 23.79242 27.27449 25.53345
#
# Velocity S-wave (km/s) = 3.44974 3.69357 3.57373
# Velocity P-wave (km/s) = 5.90230 6.48990 6.20306
#
# Compressibility (1/GPa) = 0.02636815
#
# Stress axis : x y z
#
# Youngs Moduli (GPa) = 94.29604 35.37116 90.63201
#
# Poissons Ratio (x) = 0.06464 0.17779
# Poissons Ratio (y) = 0.17234 0.72340
# Poissons Ratio (z) = 0.18498 0.28232
#
# Static dielectric constant tensor:
#      x y z
#    x 3.872830 0.000000 0.000000 
#    y 0.000000 3.479200 0.000000 
#    z 0.000000 0.000000 3.843870 
# 
# 
# High freq. dielectric constant tensor:
#      x y z
#    x 1.778300 0.000000 0.000000 
#    y 0.000000 1.767180 0.000000 
#    z 0.000000 0.000000 1.793090 
# 
# From -- ./inp_files/20222.got.cif
#   From: 2010.03.12/outbox.cif.g09.slc.cpg/sg62_11_cif.got.tgz:20222.got - 2010.04.10 19:12:36.
