data_PCOD8253940
_publ_section_title
;
Structure prediction by ZEFSAII (Michael W. Deem and Ramdas Pophale) SiO2 
 PCOD8253940
Probable space group: P N M A
;
_chemical_formula_sum "Si O2"
_cell_formula_units_Z 48
_cell_length_a 16.996304
_cell_length_b 8.989030
_cell_length_c 16.659211
_cell_angle_alpha 90.000000
_cell_angle_beta 90.000000
_cell_angle_gamma 90.000000
_cell_volume 2545.199030
_symmetry_space_group_name_H-M "P N M A"
_symmetry_group_IT_number 62
_symmetry_cell_setting 'orthorhombic'
loop_
_space_group_symop_operation_xyz
x,y,z
1/2-x,-y,1/2+z
1/2+x,1/2-y,1/2-z
-x,1/2+y,-z
-x,-y,-z
1/2+x,y,1/2-z
1/2-x,1/2+y,1/2+z
x,1/2-y,z
loop_
_atom_site_type_symbol
_atom_site_label
_atom_site_fract_x
_atom_site_fract_y
_atom_site_fract_z
Si Si1 0.846707 0.422875 0.676060
Si Si2 0.308247 0.076680 0.644708
Si Si3 0.496153 0.926918 0.086612
Si Si4 0.850182 0.075216 0.327916
Si Si5 0.416477 0.075140 0.497578
Si Si6 0.810816 0.423860 0.147637
O O1 0.834618 0.250000 0.661067
O O2 0.848983 0.461313 0.770477
O O3 0.773861 0.503002 0.633516
O O4 0.927297 0.478501 0.636269
O O5 0.285148 0.250000 0.638757
O O6 0.369492 0.028904 0.576980
O O7 0.230339 0.979220 0.631192
O O8 0.491178 0.750000 0.078218
O O9 0.421182 0.985326 0.134083
O O10 0.500000 0.000000 0.000000
O O11 0.861031 0.250000 0.343575
O O12 0.847552 0.035303 0.233708
O O13 0.429039 0.250000 0.492500
O O14 0.369847 0.015406 0.419909
O O15 0.500000 0.000000 0.500000
O O16 0.797193 0.250000 0.138349
#
# Coordination Sequence:
#
# PCOD8253940 Si02
#       6
#     8   8   8   8   8   8
#     4   9  20  38  59  83 110 146 191 233 279 335
#     4   9  19  38  60  83 113 149 189 234 283 334
#     4  11  24  39  58  86 117 149 191 238 286 341
#     4  10  21  38  59  84 115 151 191 232 283 341
#     4  10  22  37  57  86 116 148 188 231 280 334
#     4   9  20  38  58  84 116 150 187 230 283 339
#
# _framework density 18.859034999999999
#
# number of rings (size 3 to 8) (size 9 to 14) (size 15 to 20)
#    0.000    2.333    0.000    1.000    4.667    3.333 
#    0.000    0.000    0.000    0.000    0.000    0.000 
#    0.000    0.000    0.000    0.000    0.000    0.000 
#
# Total GULP energy -595363.688593 kJ/mol
# GULP energy per Si atom -12403.410179 kJ/mol
# Density = 1.881611 g / cm^3
# Si number density = 18.859035 Si / 1000 Ang^3
#
#
#
# Elastic Constant Matrix: (Units=GPa)
#
#
# Indices 1 2 3 4 5 6 
#
# 1 185.2562 63.7832 104.7237 0.0000 0.0000 0.0000
# 2 63.7832 57.4876 48.1386 0.0000 0.0000 0.0000
# 3 104.7237 48.1386 126.8189 0.0000 0.0000 0.0000
# 4 0.0000 0.0000 0.0000 27.1707 0.0000 0.0000
# 5 0.0000 0.0000 0.0000 0.0000 35.1662 0.0000
# 6 0.0000 0.0000 0.0000 0.0000 0.0000 38.7552
#
#
#
# Elastic Compliance Matrix: (Units=1/GPa)
#
#
# Indices 1 2 3 4 5 6 
#
# 1 0.011898 -0.007291 -0.007057 0.000000 0.000000 0.000000
# 2 -0.007291 0.029969 -0.005355 0.000000 0.000000 0.000000
# 3 -0.007057 -0.005355 0.015745 0.000000 0.000000 0.000000
# 4 0.000000 0.000000 0.000000 0.036804 0.000000 0.000000
# 5 0.000000 0.000000 0.000000 0.000000 0.028436 0.000000
# 6 0.000000 0.000000 0.000000 0.000000 0.000000 0.025803
#
#
# Mechanical properties :
#
#
# Convention : Reuss Voigt Hill
#
# Bulk Modulus (GPa) = 54.92834 89.20597 72.06715
# Shear Modulus (GPa) = 25.75595 30.41290 28.08443
#
# Velocity S-wave (km/s) = 3.69956 4.02013 3.86317
# Velocity P-wave (km/s) = 6.88752 8.30378 7.62859
#
# Compressibility (1/GPa) = 0.01820554
#
# Stress axis : x y z
#
# Youngs Moduli (GPa) = 84.05123 33.36824 63.51035
#
# Poissons Ratio (x) = 0.24329 0.44820
# Poissons Ratio (y) = 0.61282 0.34009
# Poissons Ratio (z) = 0.59316 0.17868
#
# Static dielectric constant tensor:
#      x y z
#    x 3.544680 0.000000 0.000000 
#    y 0.000000 3.377850 0.000000 
#    z 0.000000 0.000000 3.913280 
# 
# 
# High freq. dielectric constant tensor:
#      x y z
#    x 1.740370 0.000000 0.000000 
#    y 0.000000 1.729970 0.000000 
#    z 0.000000 0.000000 1.743010 
# 
# From -- ./inp_files/19610.got.cif
#   From: 2010.03.12/outbox.cif.g09.slc.cpg/sg62_10_cif.got.tgz:19610.got - 2010.04.10 19:12:36.
