data_PCOD8253998
_publ_section_title
;
Structure prediction by ZEFSAII (Michael W. Deem and Ramdas Pophale) SiO2 
 PCOD8253998
Probable space group: P N M A
;
_chemical_formula_sum "Si O2"
_cell_formula_units_Z 48
_cell_length_a 16.513588
_cell_length_b 8.997818
_cell_length_c 17.097491
_cell_angle_alpha 90.000000
_cell_angle_beta 90.000000
_cell_angle_gamma 90.000000
_cell_volume 2540.452232
_symmetry_space_group_name_H-M "P N M A"
_symmetry_group_IT_number 62
_symmetry_cell_setting 'orthorhombic'
loop_
_space_group_symop_operation_xyz
x,y,z
1/2-x,-y,1/2+z
1/2+x,1/2-y,1/2-z
-x,1/2+y,-z
-x,-y,-z
1/2+x,y,1/2-z
1/2-x,1/2+y,1/2+z
x,1/2-y,z
loop_
_atom_site_type_symbol
_atom_site_label
_atom_site_fract_x
_atom_site_fract_y
_atom_site_fract_z
Si Si1 0.496542 0.073493 0.583923
Si Si2 0.673298 0.576122 0.159456
Si Si3 0.913505 0.425467 0.500906
Si Si4 0.640399 0.424620 0.315652
Si Si5 0.675330 0.923375 0.846032
Si Si6 0.855908 0.577202 0.191037
O O1 0.491532 0.250000 0.575362
O O2 0.576879 0.022601 0.630046
O O3 0.500000 0.000000 0.500000
O O4 0.418601 0.014148 0.628549
O O5 0.659464 0.750000 0.176389
O O6 0.634737 0.525216 0.078011
O O7 0.629589 0.482047 0.227156
O O8 0.768373 0.536938 0.155482
O O9 0.924732 0.250000 0.498387
O O10 0.862547 0.482910 0.426604
O O11 0.000000 0.500000 0.500000
O O12 0.621409 0.250000 0.319310
O O13 0.730036 0.463163 0.345927
O O14 0.661455 0.750000 0.836557
O O15 0.629193 0.998692 0.773865
O O16 0.864659 0.750000 0.207463
#
# Coordination Sequence:
#
# PCOD8253998 Si02
#       6
#     8   8   8   8   8   8
#     4  11  24  39  59  88 118 150 191 236 286 340
#     4   9  19  38  61  82 111 150 191 233 283 339
#     4  10  22  37  57  84 114 149 189 234 283 334
#     4  10  21  38  61  85 115 151 189 233 285 340
#     4   9  20  38  60  84 113 150 190 233 284 338
#     4   9  20  38  61  83 110 149 189 231 282 338
#
# _framework density 18.894272000000001
#
# number of rings (size 3 to 8) (size 9 to 14) (size 15 to 20)
#    0.000    2.333    0.000    1.000    4.667    3.333 
#    0.000    0.000    0.000    0.000    0.000    0.000 
#    0.000    0.000    0.000    0.000    0.000    0.000 
#
# Total GULP energy -595367.869335 kJ/mol
# GULP energy per Si atom -12403.497278 kJ/mol
# Density = 1.885127 g / cm^3
# Si number density = 18.894272 Si / 1000 Ang^3
#
#
#
# Elastic Constant Matrix: (Units=GPa)
#
#
# Indices 1 2 3 4 5 6 
#
# 1 110.4742 46.7041 100.4131 0.0000 0.0000 0.0000
# 2 46.7041 53.9380 60.8902 0.0000 0.0000 0.0000
# 3 100.4131 60.8902 200.4364 0.0000 0.0000 0.0000
# 4 0.0000 0.0000 0.0000 36.2768 0.0000 0.0000
# 5 0.0000 0.0000 0.0000 0.0000 36.3692 0.0000
# 6 0.0000 0.0000 0.0000 0.0000 0.0000 31.7396
#
#
#
# Elastic Compliance Matrix: (Units=1/GPa)
#
#
# Indices 1 2 3 4 5 6 
#
# 1 0.018952 -0.008663 -0.006863 0.000000 0.000000 0.000000
# 2 -0.008663 0.032176 -0.005435 0.000000 0.000000 0.000000
# 3 -0.006863 -0.005435 0.010078 0.000000 0.000000 0.000000
# 4 0.000000 0.000000 0.000000 0.027566 0.000000 0.000000
# 5 0.000000 0.000000 0.000000 0.000000 0.027496 0.000000
# 6 0.000000 0.000000 0.000000 0.000000 0.000000 0.031506
#
#
# Mechanical properties :
#
#
# Convention : Reuss Voigt Hill
#
# Bulk Modulus (GPa) = 51.85274 86.76259 69.30767
# Shear Modulus (GPa) = 25.49409 31.33320 28.41365
#
# Velocity S-wave (km/s) = 3.67727 4.07669 3.88212
# Velocity P-wave (km/s) = 6.74781 8.25706 7.54029
#
# Compressibility (1/GPa) = 0.01928538
#
# Stress axis : x y z
#
# Youngs Moduli (GPa) = 52.76508 31.07879 99.22418
#
# Poissons Ratio (x) = 0.26923 0.68095
# Poissons Ratio (y) = 0.45710 0.53927
# Poissons Ratio (z) = 0.36211 0.16891
#
# Static dielectric constant tensor:
#      x y z
#    x -6.675690 0.000000 0.000000 
#    y 0.000000 3.431510 0.000000 
#    z 0.000000 0.000000 3.476530 
# 
# 
# High freq. dielectric constant tensor:
#      x y z
#    x 1.740740 0.000000 0.000000 
#    y 0.000000 1.730530 0.000000 
#    z 0.000000 0.000000 1.745730 
# 
# From -- ./inp_files/19639.got.cif
#   From: 2010.03.12/outbox.cif.g09.slc.cpg/sg62_10_cif.got.tgz:19639.got - 2010.04.10 19:12:36.
