data_PCOD8253081
_publ_section_title
;
Structure prediction by ZEFSAII (Michael W. Deem and Ramdas Pophale) SiO2 
 PCOD8253081
Probable space group: P N M A
;
_chemical_formula_sum "Si O2"
_cell_formula_units_Z 64
_cell_length_a 14.566688
_cell_length_b 18.291446
_cell_length_c 11.988020
_cell_angle_alpha 90.000000
_cell_angle_beta 90.000000
_cell_angle_gamma 90.000000
_cell_volume 3194.157423
_symmetry_space_group_name_H-M "P N M A"
_symmetry_group_IT_number 62
_symmetry_cell_setting 'orthorhombic'
loop_
_space_group_symop_operation_xyz
x,y,z
1/2-x,-y,1/2+z
1/2+x,1/2-y,1/2-z
-x,1/2+y,-z
-x,-y,-z
1/2+x,y,1/2-z
1/2-x,1/2+y,1/2+z
x,1/2-y,z
loop_
_atom_site_type_symbol
_atom_site_label
_atom_site_fract_x
_atom_site_fract_y
_atom_site_fract_z
Si Si1 0.368141 0.667583 0.423644
Si Si2 0.664921 0.430674 0.229652
Si Si3 0.055922 0.533080 0.400210
Si Si4 0.469161 0.664430 0.646703
Si Si5 0.339960 0.412106 0.389266
Si Si6 0.898523 0.550184 0.240398
Si Si7 0.834902 0.164846 0.651081
Si Si8 0.216145 0.567360 0.142127
O O1 0.397615 0.750000 0.402512
O O2 0.407490 0.641144 0.541376
O O3 0.417291 0.625280 0.323735
O O4 0.258290 0.657514 0.420240
O O5 0.643751 0.481840 0.121737
O O6 0.581401 0.374820 0.250033
O O7 0.756811 0.386557 0.192851
O O8 0.678087 0.485770 0.334207
O O9 0.088138 0.617640 0.416843
O O10 0.000000 0.500000 0.500000
O O11 0.994356 0.524412 0.289588
O O12 0.468043 0.750000 0.670096
O O13 0.574050 0.640309 0.632122
O O14 0.363290 0.494603 0.353910
O O15 0.310574 0.408242 0.518216
O O16 0.826120 0.563049 0.340716
O O17 0.864632 0.250000 0.661766
O O18 0.824094 0.128602 0.773275
#
# Coordination Sequence:
#
# PCOD8253081 Si02
#       8
#     8   8   8   8   8   8   8   8
#     4   9  20  38  60  88 122 155 195 248 304 364
#     4  10  22  40  59  87 124 160 196 256 301 355
#     4  11  22  37  60  87 121 159 207 246 296 370
#     4  11  24  40  61  88 118 162 209 247 302 364
#     4  11  22  38  62  90 121 155 207 252 307 357
#     4  10  20  36  59  89 120 159 197 249 304 355
#     4   9  20  39  59  86 122 156 197 251 312 363
#     4   9  20  36  61  90 117 156 197 250 310 364
#
# _framework density 20.036583
#
# number of rings (size 3 to 8) (size 9 to 14) (size 15 to 20)
#    0.000    2.000    1.250    2.250    3.500    4.500 
#    0.000    0.625    0.000    3.000    0.000    0.000 
#    0.000    0.000    0.000    0.000    0.000    0.000 
#
# Total GULP energy -793392.848319 kJ/mol
# GULP energy per Si atom -12396.763255 kJ/mol
# Density = 1.999098 g / cm^3
# Si number density = 20.036583 Si / 1000 Ang^3
#
#
#
# Elastic Constant Matrix: (Units=GPa)
#
#
# Indices 1 2 3 4 5 6 
#
# 1 94.0552 61.2796 38.7558 0.0000 0.0000 0.0000
# 2 61.2796 105.1722 45.1517 0.0000 0.0000 0.0000
# 3 38.7558 45.1517 68.1314 0.0000 0.0000 0.0000
# 4 0.0000 0.0000 0.0000 23.0974 0.0000 0.0000
# 5 0.0000 0.0000 0.0000 0.0000 33.9664 0.0000
# 6 0.0000 0.0000 0.0000 0.0000 0.0000 37.5465
#
#
#
# Elastic Compliance Matrix: (Units=1/GPa)
#
#
# Indices 1 2 3 4 5 6 
#
# 1 0.018125 -0.008574 -0.004628 0.000000 0.000000 0.000000
# 2 -0.008574 0.017345 -0.006618 0.000000 0.000000 0.000000
# 3 -0.004628 -0.006618 0.021696 0.000000 0.000000 0.000000
# 4 0.000000 0.000000 0.000000 0.043295 0.000000 0.000000
# 5 0.000000 0.000000 0.000000 0.000000 0.029441 0.000000
# 6 0.000000 0.000000 0.000000 0.000000 0.000000 0.026634
#
#
# Mechanical properties :
#
#
# Convention : Reuss Voigt Hill
#
# Bulk Modulus (GPa) = 57.05652 61.97034 59.51343
# Shear Modulus (GPa) = 24.75040 27.06686 25.90863
#
# Velocity S-wave (km/s) = 3.51844 3.67941 3.59982
# Velocity P-wave (km/s) = 6.71147 7.00332 6.85895
#
# Compressibility (1/GPa) = 0.01752648
#
# Stress axis : x y z
#
# Youngs Moduli (GPa) = 55.17156 57.65402 46.09181
#
# Poissons Ratio (x) = 0.49432 0.21333
# Poissons Ratio (y) = 0.47303 0.30501
# Poissons Ratio (z) = 0.25535 0.38153
#
# Static dielectric constant tensor:
#      x y z
#    x 3.881890 0.000000 0.000000 
#    y 0.000000 3.624360 0.000000 
#    z 0.000000 0.000000 3.439900 
# 
# 
# High freq. dielectric constant tensor:
#      x y z
#    x 1.794060 0.000000 0.000000 
#    y 0.000000 1.775220 0.000000 
#    z 0.000000 0.000000 1.765630 
# 
# From -- ./inp_files/13593.got.cif
#   From: 2010.03.12/outbox.cif.g09.slc.cpg/sg62_7_cif.got.tgz:13593.got - 2010.04.10 19:12:36.
