data_PCOD8253085
_publ_section_title
;
Structure prediction by ZEFSAII (Michael W. Deem and Ramdas Pophale) SiO2 
 PCOD8253085
Probable space group: P N M A
;
_chemical_formula_sum "Si O2"
_cell_formula_units_Z 64
_cell_length_a 18.689147
_cell_length_b 17.414579
_cell_length_c 9.420857
_cell_angle_alpha 90.000000
_cell_angle_beta 90.000000
_cell_angle_gamma 90.000000
_cell_volume 3066.146287
_symmetry_space_group_name_H-M "P N M A"
_symmetry_group_IT_number 62
_symmetry_cell_setting 'orthorhombic'
loop_
_space_group_symop_operation_xyz
x,y,z
1/2-x,-y,1/2+z
1/2+x,1/2-y,1/2-z
-x,1/2+y,-z
-x,-y,-z
1/2+x,y,1/2-z
1/2-x,1/2+y,1/2+z
x,1/2-y,z
loop_
_atom_site_type_symbol
_atom_site_label
_atom_site_fract_x
_atom_site_fract_y
_atom_site_fract_z
Si Si1 0.099481 0.930674 0.460371
Si Si2 0.960916 0.834922 0.778205
Si Si3 0.438441 0.602653 0.021643
Si Si4 0.875467 0.337741 0.258739
Si Si5 0.729879 0.571871 0.229546
Si Si6 0.202178 0.942983 0.946201
Si Si7 0.868804 0.838005 0.212062
Si Si8 0.929796 0.949827 0.004222
O O1 0.130463 0.888962 0.599914
O O2 0.150478 0.907270 0.327780
O O3 0.019228 0.905930 0.418243
O O4 0.098837 0.021103 0.493531
O O5 0.936425 0.750000 0.827269
O O6 0.941749 0.844665 0.615494
O O7 0.045283 0.845234 0.805400
O O8 0.919012 0.901056 0.861282
O O9 0.387639 0.651184 0.123894
O O10 0.856882 0.250000 0.297446
O O11 0.820273 0.365941 0.137723
O O12 0.736787 0.573979 0.400526
O O13 0.745580 0.488942 0.159571
O O14 0.788695 0.633084 0.175098
O O15 0.133474 0.991981 0.980378
O O16 0.874970 0.750000 0.165386
O O17 0.929005 0.888600 0.131935
O O18 0.000000 0.000000 0.000000
#
# Coordination Sequence:
#
# PCOD8253085 Si02
#       8
#     8   8   8   8   8   8   8   8
#     4  10  21  39  65  97 119 164 216 265 323 391
#     4  10  20  36  59  93 129 159 199 261 327 381
#     4  10  21  37  69  94 126 158 215 268 320 385
#     4  10  21  37  58  87 125 160 202 264 322 374
#     4  11  24  40  63  89 127 168 213 263 318 394
#     4  11  22  39  62  88 124 163 216 259 314 381
#     4  11  25  42  59  89 131 169 205 264 328 382
#     4  11  22  37  64  90 121 161 210 266 318 377
#
# _framework density 20.873107000000001
#
# number of rings (size 3 to 8) (size 9 to 14) (size 15 to 20)
#    0.000    1.500    1.250    4.500    5.250    1.500 
#    0.000    0.000    0.000    5.250    0.000    0.000 
#    0.000    0.000    0.000    0.000    0.000    0.000 
#
# Total GULP energy -793528.615791 kJ/mol
# GULP energy per Si atom -12398.884622 kJ/mol
# Density = 2.082560 g / cm^3
# Si number density = 20.873107 Si / 1000 Ang^3
#
#
#
# Elastic Constant Matrix: (Units=GPa)
#
#
# Indices 1 2 3 4 5 6 
#
# 1 80.9570 31.3062 34.7190 0.0000 0.0000 0.0000
# 2 31.3062 115.1384 28.2331 0.0000 0.0000 0.0000
# 3 34.7190 28.2331 83.5638 0.0000 0.0000 0.0000
# 4 0.0000 0.0000 0.0000 21.3327 0.0000 0.0000
# 5 0.0000 0.0000 0.0000 0.0000 38.6521 0.0000
# 6 0.0000 0.0000 0.0000 0.0000 0.0000 2.9608
#
#
#
# Elastic Compliance Matrix: (Units=1/GPa)
#
#
# Indices 1 2 3 4 5 6 
#
# 1 0.015897 -0.002947 -0.005609 0.000000 0.000000 0.000000
# 2 -0.002947 0.010016 -0.002160 0.000000 0.000000 0.000000
# 3 -0.005609 -0.002160 0.015027 0.000000 0.000000 0.000000
# 4 0.000000 0.000000 0.000000 0.046876 0.000000 0.000000
# 5 0.000000 0.000000 0.000000 0.000000 0.025872 0.000000
# 6 0.000000 0.000000 0.000000 0.000000 0.000000 0.337744
#
#
# Mechanical properties :
#
#
# Convention : Reuss Voigt Hill
#
# Bulk Modulus (GPa) = 51.25946 52.01953 51.63949
# Shear Modulus (GPa) = 10.43040 24.94919 17.68979
#
# Velocity S-wave (km/s) = 2.23783 3.46103 2.91433
# Velocity P-wave (km/s) = 5.59358 6.39903 6.00981
#
# Compressibility (1/GPa) = 0.01950860
#
# Stress axis : x y z
#
# Youngs Moduli (GPa) = 62.90299 99.83954 66.54633
#
# Poissons Ratio (x) = 0.29423 0.37328
# Poissons Ratio (y) = 0.18538 0.14371
# Poissons Ratio (z) = 0.35285 0.21561
#
# Static dielectric constant tensor:
#      x y z
#    x 3.756580 0.000000 0.000000 
#    y 0.000000 3.774960 0.000000 
#    z 0.000000 0.000000 4.073890 
# 
# 
# High freq. dielectric constant tensor:
#      x y z
#    x 1.813570 0.000000 0.000000 
#    y 0.000000 1.814240 0.000000 
#    z 0.000000 0.000000 1.818160 
# 
# From -- ./inp_files/8853.got.cif
#   From: 2010.03.12/outbox.cif.g09.slc.cpg/sg62_5_cif.got.tgz:8853.got - 2010.04.10 19:12:36.
