data_PCOD8253077
_publ_section_title
;
Structure prediction by ZEFSAII (Michael W. Deem and Ramdas Pophale) SiO2 
 PCOD8253077
Probable space group: P N M A
;
_chemical_formula_sum "Si O2"
_cell_formula_units_Z 56
_cell_length_a 13.736211
_cell_length_b 8.568508
_cell_length_c 23.699406
_cell_angle_alpha 90.000000
_cell_angle_beta 90.000000
_cell_angle_gamma 90.000000
_cell_volume 2789.392449
_symmetry_space_group_name_H-M "P N M A"
_symmetry_group_IT_number 62
_symmetry_cell_setting 'orthorhombic'
loop_
_space_group_symop_operation_xyz
x,y,z
1/2-x,-y,1/2+z
1/2+x,1/2-y,1/2-z
-x,1/2+y,-z
-x,-y,-z
1/2+x,y,1/2-z
1/2-x,1/2+y,1/2+z
x,1/2-y,z
loop_
_atom_site_type_symbol
_atom_site_label
_atom_site_fract_x
_atom_site_fract_y
_atom_site_fract_z
Si Si1 0.570665 0.932873 0.337568
Si Si2 0.708864 0.069771 0.826885
Si Si3 0.091799 0.429824 0.563891
Si Si4 0.035548 0.933341 0.941526
Si Si5 0.289569 0.931729 0.378302
Si Si6 0.396312 0.068625 0.275804
Si Si7 0.388157 0.569914 0.936711
O O1 0.564767 0.750000 0.351409
O O2 0.679243 0.981572 0.319581
O O3 0.542860 0.027993 0.393441
O O4 0.496550 0.975252 0.287189
O O5 0.695102 0.250000 0.810268
O O6 0.677257 0.038732 0.891392
O O7 0.641116 0.967201 0.786664
O O8 0.058025 0.250000 0.563903
O O9 0.131432 0.475737 0.502040
O O10 0.999243 0.534747 0.579926
O O11 0.051164 0.750000 0.946059
O O12 0.138593 0.012312 0.927620
O O13 0.000000 0.000000 0.000000
O O14 0.303695 0.750000 0.366899
O O15 0.313282 0.020693 0.320331
O O16 0.179816 0.966510 0.396750
O O17 0.419405 0.250000 0.282170
O O18 0.364799 0.750000 0.925373
#
# Coordination Sequence:
#
# PCOD8253077 Si02
#       7
#     8   8   8   8   8   8   8
#     4  10  21  39  62  87 117 153 195 245 298 353
#     4  10  22  40  63  88 116 158 201 244 299 358
#     4   9  20  38  58  84 118 156 197 242 295 356
#     4  11  22  37  57  86 121 155 193 239 291 354
#     4  11  22  38  60  85 114 155 198 243 296 356
#     4  11  23  40  60  85 118 154 195 248 296 350
#     4  10  20  36  59  87 120 156 195 247 296 352
#
# _framework density 20.076053999999999
#
# number of rings (size 3 to 8) (size 9 to 14) (size 15 to 20)
#    0.000    1.714    0.000    6.429    2.000    3.429 
#    0.000    1.429    0.000    0.000    0.000    0.000 
#    0.000    0.000    0.000    0.000    0.000    0.000 
#
# Total GULP energy -694689.539333 kJ/mol
# GULP energy per Si atom -12405.170345 kJ/mol
# Density = 2.003036 g / cm^3
# Si number density = 20.076054 Si / 1000 Ang^3
#
#
#
# Elastic Constant Matrix: (Units=GPa)
#
#
# Indices 1 2 3 4 5 6 
#
# 1 102.1039 18.0749 38.3264 0.0000 0.0000 0.0000
# 2 18.0749 65.4062 9.7810 0.0000 0.0000 0.0000
# 3 38.3264 9.7810 66.1713 0.0000 0.0000 0.0000
# 4 0.0000 0.0000 0.0000 32.0140 0.0000 0.0000
# 5 0.0000 0.0000 0.0000 0.0000 26.7403 0.0000
# 6 0.0000 0.0000 0.0000 0.0000 0.0000 30.8901
#
#
#
# Elastic Compliance Matrix: (Units=1/GPa)
#
#
# Indices 1 2 3 4 5 6 
#
# 1 0.012904 -0.002504 -0.007104 0.000000 0.000000 0.000000
# 2 -0.002504 0.016120 -0.000933 0.000000 0.000000 0.000000
# 3 -0.007104 -0.000933 0.019365 0.000000 0.000000 0.000000
# 4 0.000000 0.000000 0.000000 0.031236 0.000000 0.000000
# 5 0.000000 0.000000 0.000000 0.000000 0.037397 0.000000
# 6 0.000000 0.000000 0.000000 0.000000 0.000000 0.032373
#
#
# Mechanical properties :
#
#
# Convention : Reuss Voigt Hill
#
# Bulk Modulus (GPa) = 36.61850 40.67178 38.64514
# Shear Modulus (GPa) = 27.84313 29.09550 28.46932
#
# Velocity S-wave (km/s) = 3.72813 3.81105 3.76982
# Velocity P-wave (km/s) = 6.06724 6.29828 6.18384
#
# Compressibility (1/GPa) = 0.02730860
#
# Stress axis : x y z
#
# Youngs Moduli (GPa) = 77.49745 62.03315 51.64049
#
# Poissons Ratio (x) = 0.15531 0.36684
# Poissons Ratio (y) = 0.19402 0.04817
# Poissons Ratio (z) = 0.55052 0.05786
#
# Static dielectric constant tensor:
#      x y z
#    x 3.609830 0.000000 0.000000 
#    y 0.000000 3.733670 0.000000 
#    z 0.000000 0.000000 3.585180 
# 
# 
# High freq. dielectric constant tensor:
#      x y z
#    x 1.783410 0.000000 0.000000 
#    y 0.000000 1.790150 0.000000 
#    z 0.000000 0.000000 1.780310 
# 
# From -- ./inp_files/27276.got.cif
#   From: 2010.03.12/outbox.cif.g09.slc.cpg/sg62_14_cif.got.tgz:27276.got - 2010.04.10 19:12:36.
