data_PCOD8253647
_publ_section_title
;
Structure prediction by ZEFSAII (Michael W. Deem and Ramdas Pophale) SiO2 
 PCOD8253647
Probable space group: P N M A
;
_chemical_formula_sum "Si O2"
_cell_formula_units_Z 48
_cell_length_a 12.011003
_cell_length_b 9.178332
_cell_length_c 23.745908
_cell_angle_alpha 90.000000
_cell_angle_beta 90.000000
_cell_angle_gamma 90.000000
_cell_volume 2617.772007
_symmetry_space_group_name_H-M "P N M A"
_symmetry_group_IT_number 62
_symmetry_cell_setting 'orthorhombic'
loop_
_space_group_symop_operation_xyz
x,y,z
1/2-x,-y,1/2+z
1/2+x,1/2-y,1/2-z
-x,1/2+y,-z
-x,-y,-z
1/2+x,y,1/2-z
1/2-x,1/2+y,1/2+z
x,1/2-y,z
loop_
_atom_site_type_symbol
_atom_site_label
_atom_site_fract_x
_atom_site_fract_y
_atom_site_fract_z
Si Si1 0.413997 0.922145 0.335375
Si Si2 0.706222 0.919595 0.955817
Si Si3 0.354888 0.921052 0.649106
Si Si4 0.776093 0.077952 0.582160
Si Si5 0.831858 0.918860 0.288024
Si Si6 0.979471 0.579894 0.393053
O O1 0.434065 0.750000 0.341503
O O2 0.322225 0.984031 0.378886
O O3 0.373929 0.963659 0.273175
O O4 0.526390 0.004711 0.349106
O O5 0.676783 0.750000 0.954767
O O6 0.803686 0.957780 0.912021
O O7 0.593395 0.002839 0.940765
O O8 0.745988 0.969476 0.017695
O O9 0.366561 0.750000 0.659469
O O10 0.276560 0.986585 0.697711
O O11 0.776345 0.250000 0.588788
O O12 0.895133 0.017729 0.603745
O O13 0.796800 0.750000 0.290787
O O14 0.931747 0.954082 0.331143
O O15 0.976745 0.750000 0.406888
#
# Coordination Sequence:
#
# PCOD8253647 Si02
#       6
#     8   8   8   8   8   8
#     4  10  21  35  55  79 104 137 178 219 258 303
#     4   9  18  34  53  74 104 141 173 207 258 313
#     4  10  21  36  53  74 106 141 173 210 259 315
#     4   9  18  32  52  78 106 135 172 216 260 303
#     4   9  19  34  56  79 101 132 174 219 260 306
#     4   9  17  31  53  80 103 129 170 219 262 302
#
# _framework density 18.336203999999999
#
# number of rings (size 3 to 8) (size 9 to 14) (size 15 to 20)
#    0.000    2.667    0.000    1.000    2.333    2.000 
#    0.000    1.667    0.000    0.000    0.000    0.000 
#    0.000    0.000    0.000    0.000    0.000    0.000 
#
# Total GULP energy -595259.118573 kJ/mol
# GULP energy per Si atom -12401.231637 kJ/mol
# Density = 1.829447 g / cm^3
# Si number density = 18.336204 Si / 1000 Ang^3
#
#
#
# Elastic Constant Matrix: (Units=GPa)
#
#
# Indices 1 2 3 4 5 6 
#
# 1 179.2073 57.7709 87.8793 0.0000 0.0000 0.0000
# 2 57.7709 46.7866 40.7575 0.0000 0.0000 0.0000
# 3 87.8793 40.7575 136.4761 0.0000 0.0000 0.0000
# 4 0.0000 0.0000 0.0000 20.9687 0.0000 0.0000
# 5 0.0000 0.0000 0.0000 0.0000 22.9167 0.0000
# 6 0.0000 0.0000 0.0000 0.0000 0.0000 22.6373
#
#
#
# Elastic Compliance Matrix: (Units=1/GPa)
#
#
# Indices 1 2 3 4 5 6 
#
# 1 0.010649 -0.009699 -0.003961 0.000000 0.000000 0.000000
# 2 -0.009699 0.037723 -0.005020 0.000000 0.000000 0.000000
# 3 -0.003961 -0.005020 0.011377 0.000000 0.000000 0.000000
# 4 0.000000 0.000000 0.000000 0.047690 0.000000 0.000000
# 5 0.000000 0.000000 0.000000 0.000000 0.043636 0.000000
# 6 0.000000 0.000000 0.000000 0.000000 0.000000 0.044175
#
#
# Mechanical properties :
#
#
# Convention : Reuss Voigt Hill
#
# Bulk Modulus (GPa) = 44.66450 81.69836 63.18143
# Shear Modulus (GPa) = 20.82705 25.04204 22.93454
#
# Velocity S-wave (km/s) = 3.37388 3.69957 3.54047
# Velocity P-wave (km/s) = 6.29198 7.93105 7.15858
#
# Compressibility (1/GPa) = 0.02238915
#
# Stress axis : x y z
#
# Youngs Moduli (GPa) = 93.90659 26.50910 87.89787
#
# Poissons Ratio (x) = 0.25711 0.34812
# Poissons Ratio (y) = 0.91078 0.44128
# Poissons Ratio (z) = 0.37192 0.13309
#
# Static dielectric constant tensor:
#      x y z
#    x 3.486440 0.000000 0.000000 
#    y 0.000000 3.183070 0.000000 
#    z 0.000000 0.000000 3.632530 
# 
# 
# High freq. dielectric constant tensor:
#      x y z
#    x 1.715210 0.000000 0.000000 
#    y 0.000000 1.688120 0.000000 
#    z 0.000000 0.000000 1.720280 
# 
# From -- ./inp_files/29215.got.cif
#   From: 2010.03.12/outbox.cif.g09.slc.cpg/sg62_15_cif.got.tgz:29215.got - 2010.04.10 19:12:36.
