data_PCOD8253048
_publ_section_title
;
Structure prediction by ZEFSAII (Michael W. Deem and Ramdas Pophale) SiO2 
 PCOD8253048
Probable space group: P N M A
;
_chemical_formula_sum "Si O2"
_cell_formula_units_Z 48
_cell_length_a 17.951124
_cell_length_b 8.663460
_cell_length_c 16.489155
_cell_angle_alpha 90.000000
_cell_angle_beta 90.000000
_cell_angle_gamma 90.000000
_cell_volume 2564.374336
_symmetry_space_group_name_H-M "P N M A"
_symmetry_group_IT_number 62
_symmetry_cell_setting 'orthorhombic'
loop_
_space_group_symop_operation_xyz
x,y,z
1/2-x,-y,1/2+z
1/2+x,1/2-y,1/2-z
-x,1/2+y,-z
-x,-y,-z
1/2+x,y,1/2-z
1/2-x,1/2+y,1/2+z
x,1/2-y,z
loop_
_atom_site_type_symbol
_atom_site_label
_atom_site_fract_x
_atom_site_fract_y
_atom_site_fract_z
Si Si1 0.169019 0.070428 0.850957
Si Si2 0.046236 0.568928 0.749854
Si Si3 0.919143 0.931394 0.987342
Si Si4 0.326984 0.567942 0.830330
Si Si5 0.901838 0.431591 0.821075
Si Si6 0.023831 0.070073 0.415592
O O1 0.163907 0.250000 0.830545
O O2 0.128898 0.978248 0.777734
O O3 0.253893 0.019615 0.859004
O O4 0.130779 0.028688 0.935478
O O5 0.031642 0.750000 0.763150
O O6 0.987837 0.474947 0.804701
O O7 0.034946 0.525095 0.655188
O O8 0.925177 0.750000 0.971430
O O9 0.880254 0.014541 0.911184
O O10 0.000000 0.000000 0.000000
O O11 0.314283 0.750000 0.834298
O O12 0.346742 0.521048 0.738863
O O13 0.394038 0.512975 0.889175
O O14 0.890384 0.250000 0.811331
O O15 0.025551 0.250000 0.428413
O O16 0.000000 0.000000 0.500000
#
# Coordination Sequence:
#
# PCOD8253048 Si02
#       6
#     8   8   8   8   8   8
#     4  11  23  38  58  88 119 152 194 242 294 349
#     4  10  20  36  59  84 114 153 192 234 289 348
#     4  11  22  36  58  88 121 155 196 238 287 349
#     4  10  22  41  61  83 116 155 193 239 297 351
#     4  11  21  36  59  86 114 151 195 237 285 343
#     4   9  20  38  61  87 111 148 195 238 286 341
#
# _framework density 18.718015999999999
#
# number of rings (size 3 to 8) (size 9 to 14) (size 15 to 20)
#    0.000    1.667    1.667    4.500    0.000    6.000 
#    3.000    0.000    0.000    0.000    0.000    0.000 
#    0.000    0.000    0.000    0.000    0.000    0.000 
#
# Total GULP energy -595358.915257 kJ/mol
# GULP energy per Si atom -12403.310735 kJ/mol
# Density = 1.867541 g / cm^3
# Si number density = 18.718016 Si / 1000 Ang^3
#
#
#
# Elastic Constant Matrix: (Units=GPa)
#
#
# Indices 1 2 3 4 5 6 
#
# 1 111.0905 21.8652 65.4351 0.0000 0.0000 0.0000
# 2 21.8652 42.5839 39.2429 0.0000 0.0000 0.0000
# 3 65.4351 39.2429 140.4395 0.0000 0.0000 0.0000
# 4 0.0000 0.0000 0.0000 35.3403 0.0000 0.0000
# 5 0.0000 0.0000 0.0000 0.0000 24.9964 0.0000
# 6 0.0000 0.0000 0.0000 0.0000 0.0000 33.8837
#
#
#
# Elastic Compliance Matrix: (Units=1/GPa)
#
#
# Indices 1 2 3 4 5 6 
#
# 1 0.012469 -0.001412 -0.005415 0.000000 0.000000 0.000000
# 2 -0.001412 0.031787 -0.008224 0.000000 0.000000 0.000000
# 3 -0.005415 -0.008224 0.011942 0.000000 0.000000 0.000000
# 4 0.000000 0.000000 0.000000 0.028296 0.000000 0.000000
# 5 0.000000 0.000000 0.000000 0.000000 0.040006 0.000000
# 6 0.000000 0.000000 0.000000 0.000000 0.000000 0.029513
#
#
# Mechanical properties :
#
#
# Convention : Reuss Voigt Hill
#
# Bulk Modulus (GPa) = 38.32174 60.80004 49.56089
# Shear Modulus (GPa) = 25.93164 30.01547 27.97355
#
# Velocity S-wave (km/s) = 3.72611 4.00879 3.87003
# Velocity P-wave (km/s) = 6.24736 7.34710 6.81943
#
# Compressibility (1/GPa) = 0.02609485
#
# Stress axis : x y z
#
# Youngs Moduli (GPa) = 80.19676 31.45926 83.73988
#
# Poissons Ratio (x) = 0.04442 0.45347
# Poissons Ratio (y) = 0.11325 0.68870
# Poissons Ratio (z) = 0.43429 0.25873
#
# Static dielectric constant tensor:
#      x y z
#    x 2.379170 0.000000 0.000000 
#    y 0.000000 3.483090 0.000000 
#    z 0.000000 0.000000 8.379870 
# 
# 
# High freq. dielectric constant tensor:
#      x y z
#    x 1.714130 0.000000 0.000000 
#    y 0.000000 1.738790 0.000000 
#    z 0.000000 0.000000 1.733230 
# 
# From -- ./inp_files/24210.got.cif
#   From: 2010.03.12/outbox.cif.g09.slc.cpg/sg62_13_cif.got.tgz:24210.got - 2010.04.10 19:12:36.
