data_PCOD8253953
_publ_section_title
;
Structure prediction by ZEFSAII (Michael W. Deem and Ramdas Pophale) SiO2 
 PCOD8253953
Probable space group: P N M A
;
_chemical_formula_sum "Si O2"
_cell_formula_units_Z 48
_cell_length_a 27.277644
_cell_length_b 13.812898
_cell_length_c 5.204643
_cell_angle_alpha 90.000000
_cell_angle_beta 90.000000
_cell_angle_gamma 90.000000
_cell_volume 1961.022639
_symmetry_space_group_name_H-M "P N M A"
_symmetry_group_IT_number 62
_symmetry_cell_setting 'orthorhombic'
loop_
_space_group_symop_operation_xyz
x,y,z
1/2-x,-y,1/2+z
1/2+x,1/2-y,1/2-z
-x,1/2+y,-z
-x,-y,-z
1/2+x,y,1/2-z
1/2-x,1/2+y,1/2+z
x,1/2-y,z
loop_
_atom_site_type_symbol
_atom_site_label
_atom_site_fract_x
_atom_site_fract_y
_atom_site_fract_z
Si Si1 0.009179 0.136316 0.386805
Si Si2 0.884222 0.855809 0.779005
Si Si3 0.719196 0.354461 0.067218
Si Si4 0.958265 0.362998 0.885158
Si Si5 0.146149 0.945221 0.071156
Si Si6 0.209342 0.558646 0.583182
O O1 0.998233 0.250000 0.394995
O O2 0.067316 0.116046 0.380382
O O3 0.984749 0.087212 0.638573
O O4 0.982865 0.090448 0.137503
O O5 0.891284 0.750000 0.918739
O O6 0.839341 0.847871 0.582631
O O7 0.871628 0.943677 0.969878
O O8 0.738423 0.250000 0.959652
O O9 0.730497 0.447520 0.885981
O O10 0.743539 0.373513 0.352222
O O11 0.969759 0.250000 0.880063
O O12 0.900232 0.378029 0.876642
O O13 0.183783 0.927394 0.308016
O O14 0.171124 0.913966 0.807227
#
# Coordination Sequence:
#
# PCOD8253953 Si02
#       6
#     8   8   8   8   8   8
#     4   9  19  36  58  85 119 157 203 256 302 364
#     4   9  20  38  60  88 119 156 204 254 311 372
#     4  10  22  43  70  95 129 174 211 263 333 383
#     4  10  21  38  59  86 122 163 204 250 309 369
#     4  11  24  40  63  90 124 164 202 259 315 368
#     4  11  24  43  63  95 129 157 213 267 305 383
#
# _framework density 24.477025999999999
#
# number of rings (size 3 to 8) (size 9 to 14) (size 15 to 20)
#    0.000    2.000    0.000    3.000    0.000    6.000 
#    0.000   12.500    0.000    0.000    0.000    0.000 
#    0.000    0.000    0.000    0.000    0.000    0.000 
#
# Total GULP energy -594773.689650 kJ/mol
# GULP energy per Si atom -12391.118534 kJ/mol
# Density = 2.442131 g / cm^3
# Si number density = 24.477026 Si / 1000 Ang^3
#
#
#
# Elastic Constant Matrix: (Units=GPa)
#
#
# Indices 1 2 3 4 5 6 
#
# 1 166.0121 18.6137 63.9523 0.0000 0.0000 0.0000
# 2 18.6137 43.3125 12.0352 0.0000 0.0000 0.0000
# 3 63.9523 12.0352 126.8151 0.0000 0.0000 0.0000
# 4 0.0000 0.0000 0.0000 25.5617 0.0000 0.0000
# 5 0.0000 0.0000 0.0000 0.0000 26.7498 0.0000
# 6 0.0000 0.0000 0.0000 0.0000 0.0000 36.3726
#
#
#
# Elastic Compliance Matrix: (Units=1/GPa)
#
#
# Indices 1 2 3 4 5 6 
#
# 1 0.007691 -0.002288 -0.003661 0.000000 0.000000 0.000000
# 2 -0.002288 0.024394 -0.001161 0.000000 0.000000 0.000000
# 3 -0.003661 -0.001161 0.009842 0.000000 0.000000 0.000000
# 4 0.000000 0.000000 0.000000 0.039121 0.000000 0.000000
# 5 0.000000 0.000000 0.000000 0.000000 0.037383 0.000000
# 6 0.000000 0.000000 0.000000 0.000000 0.000000 0.027493
#
#
# Mechanical properties :
#
#
# Convention : Reuss Voigt Hill
#
# Bulk Modulus (GPa) = 36.09340 58.37136 47.23238
# Shear Modulus (GPa) = 29.51939 33.83937 31.67938
#
# Velocity S-wave (km/s) = 3.47652 3.72223 3.60147
# Velocity P-wave (km/s) = 5.55813 6.50941 6.05249
#
# Compressibility (1/GPa) = 0.02770590
#
# Stress axis : x y z
#
# Youngs Moduli (GPa) = 130.02959 40.99388 101.60494
#
# Poissons Ratio (x) = 0.09378 0.37200
# Poissons Ratio (y) = 0.29747 0.11800
# Poissons Ratio (z) = 0.47606 0.04761
#
# Static dielectric constant tensor:
#      x y z
#    x 4.544570 0.000000 0.000000 
#    y 0.000000 4.705950 0.000000 
#    z 0.000000 0.000000 4.265890 
# 
# 
# High freq. dielectric constant tensor:
#      x y z
#    x 1.992350 0.000000 0.000000 
#    y 0.000000 1.971860 0.000000 
#    z 0.000000 0.000000 1.945140 
# 
# From -- ./inp_files/3186.got.cif
#   From: 2010.03.12/outbox.cif.g09.slc.cpg/sg62_2_cif.got.tgz:3186.got - 2010.04.10 19:12:36.
