data_PCOD8253560
_publ_section_title
;
Structure prediction by ZEFSAII (Michael W. Deem and Ramdas Pophale) SiO2 
 PCOD8253560
Probable space group: P N M A
;
_chemical_formula_sum "Si O2"
_cell_formula_units_Z 48
_cell_length_a 28.125913
_cell_length_b 14.692935
_cell_length_c 5.043704
_cell_angle_alpha 90.000000
_cell_angle_beta 90.000000
_cell_angle_gamma 90.000000
_cell_volume 2084.321832
_symmetry_space_group_name_H-M "P N M A"
_symmetry_group_IT_number 62
_symmetry_cell_setting 'orthorhombic'
loop_
_space_group_symop_operation_xyz
x,y,z
1/2-x,-y,1/2+z
1/2+x,1/2-y,1/2-z
-x,1/2+y,-z
-x,-y,-z
1/2+x,y,1/2-z
1/2-x,1/2+y,1/2+z
x,1/2-y,z
loop_
_atom_site_type_symbol
_atom_site_label
_atom_site_fract_x
_atom_site_fract_y
_atom_site_fract_z
Si Si1 0.993507 0.352750 0.530694
Si Si2 0.642646 0.532430 0.799741
Si Si3 0.744399 0.942064 0.803678
Si Si4 0.916268 0.925168 0.681292
Si Si5 0.946147 0.071761 0.031190
Si Si6 0.665805 0.148939 0.496389
O O1 0.985852 0.250000 0.431149
O O2 0.969432 0.359861 0.819622
O O3 0.050031 0.375391 0.534950
O O4 0.970567 0.421608 0.318602
O O5 0.689968 0.591501 0.860875
O O6 0.610698 0.586891 0.583885
O O7 0.658703 0.430760 0.708846
O O8 0.611092 0.513194 0.060283
O O9 0.783370 0.863796 0.848223
O O10 0.745848 0.972802 0.498052
O O11 0.877849 0.853730 0.788567
O O12 0.949666 0.967646 0.918860
O O13 0.665985 0.250000 0.625716
#
# Coordination Sequence:
#
# PCOD8253560 Si02
#       6
#     8   8   8   8   8   8
#     4  12  26  41  62  94 133 167 214 276 327 368
#     4  10  22  40  69  91 128 171 221 259 311 393
#     4  10  20  40  63  91 124 169 208 254 314 388
#     4  11  22  41  67  95 125 172 218 263 319 392
#     4  11  24  43  66  92 126 174 221 258 312 392
#     4  10  22  38  62  99 132 162 207 274 331 375
#
# _framework density 23.029073
#
# number of rings (size 3 to 8) (size 9 to 14) (size 15 to 20)
#    0.000    1.333    3.333    2.000    4.667    1.333 
#    0.000    1.667    0.000    0.000    0.000    0.000 
#    0.000    0.000    0.000    0.000    0.000    0.000 
#
# Total GULP energy -594749.467535 kJ/mol
# GULP energy per Si atom -12390.613907 kJ/mol
# Density = 2.297666 g / cm^3
# Si number density = 23.029073 Si / 1000 Ang^3
#
#
#
# Elastic Constant Matrix: (Units=GPa)
#
#
# Indices 1 2 3 4 5 6 
#
# 1 95.7443 28.4690 17.9598 0.0000 0.0000 0.0000
# 2 28.4690 47.1417 0.5576 0.0000 0.0000 0.0000
# 3 17.9598 0.5576 80.0014 0.0000 0.0000 0.0000
# 4 0.0000 0.0000 0.0000 20.1403 0.0000 0.0000
# 5 0.0000 0.0000 0.0000 0.0000 32.7786 0.0000
# 6 0.0000 0.0000 0.0000 0.0000 0.0000 12.8269
#
#
#
# Elastic Compliance Matrix: (Units=1/GPa)
#
#
# Indices 1 2 3 4 5 6 
#
# 1 0.013392 -0.008053 -0.002950 0.000000 0.000000 0.000000
# 2 -0.008053 0.026057 0.001626 0.000000 0.000000 0.000000
# 3 -0.002950 0.001626 0.013151 0.000000 0.000000 0.000000
# 4 0.000000 0.000000 0.000000 0.049652 0.000000 0.000000
# 5 0.000000 0.000000 0.000000 0.000000 0.030508 0.000000
# 6 0.000000 0.000000 0.000000 0.000000 0.000000 0.077961
#
#
# Mechanical properties :
#
#
# Convention : Reuss Voigt Hill
#
# Bulk Modulus (GPa) = 29.54583 35.20669 32.37626
# Shear Modulus (GPa) = 20.76791 24.87590 22.82190
#
# Velocity S-wave (km/s) = 3.00628 3.29020 3.15144
# Velocity P-wave (km/s) = 4.99078 5.45481 5.22795
#
# Compressibility (1/GPa) = 0.03384572
#
# Stress axis : x y z
#
# Youngs Moduli (GPa) = 74.66943 38.37812 76.04105
#
# Poissons Ratio (x) = 0.30905 0.22435
# Poissons Ratio (y) = 0.60130 -0.12366
# Poissons Ratio (z) = 0.22030 -0.06241
#
# Static dielectric constant tensor:
#      x y z
#    x 4.893270 0.000000 0.000000 
#    y 0.000000 3.519510 0.000000 
#    z 0.000000 0.000000 4.038900 
# 
# 
# High freq. dielectric constant tensor:
#      x y z
#    x 1.941230 0.000000 0.000000 
#    y 0.000000 1.846100 0.000000 
#    z 0.000000 0.000000 1.911940 
# 
# From -- ./inp_files/3194.got.cif
#   From: 2010.03.12/outbox.cif.g09.slc.cpg/sg62_2_cif.got.tgz:3194.got - 2010.04.10 19:12:36.
