data_PCOD8253684
_publ_section_title
;
Structure prediction by ZEFSAII (Michael W. Deem and Ramdas Pophale) SiO2 
 PCOD8253684
Probable space group: P N M A
;
_chemical_formula_sum "Si O2"
_cell_formula_units_Z 32
_cell_length_a 10.579774
_cell_length_b 10.195746
_cell_length_c 13.815668
_cell_angle_alpha 90.000000
_cell_angle_beta 90.000000
_cell_angle_gamma 90.000000
_cell_volume 1490.277987
_symmetry_space_group_name_H-M "P N M A"
_symmetry_group_IT_number 62
_symmetry_cell_setting 'orthorhombic'
loop_
_space_group_symop_operation_xyz
x,y,z
1/2-x,-y,1/2+z
1/2+x,1/2-y,1/2-z
-x,1/2+y,-z
-x,-y,-z
1/2+x,y,1/2-z
1/2-x,1/2+y,1/2+z
x,1/2-y,z
loop_
_atom_site_type_symbol
_atom_site_label
_atom_site_fract_x
_atom_site_fract_y
_atom_site_fract_z
Si Si1 0.399100 0.465685 0.155587
Si Si2 0.055534 0.250000 0.656549
Si Si3 0.134401 0.750000 0.503425
Si Si4 0.938674 0.250000 0.853453
Si Si5 0.374557 0.967630 0.695726
Si Si6 0.083836 0.250000 0.046316
O O1 0.376169 0.616640 0.122920
O O2 0.413648 0.378447 0.060334
O O3 0.530092 0.450064 0.214546
O O4 0.271580 0.420923 0.215469
O O5 0.917436 0.250000 0.605674
O O6 0.050456 0.250000 0.773638
O O7 0.283533 0.750000 0.491298
O O8 0.859443 0.381586 0.835915
O O9 0.980159 0.250000 0.963881
O O10 0.433134 0.880372 0.610138
#
# Coordination Sequence:
#
# PCOD8253684 Si02
#       6
#     8   4   4   4   8   4
#     4  10  21  38  60  87 116 149 188 232 283 339
#     4  10  21  36  55  81 112 150 189 231 278 330
#     4  10  21  38  60  85 115 150 190 235 284 336
#     4  10  21  36  55  81 112 150 189 231 278 330
#     4  10  21  38  60  87 116 149 188 232 283 339
#     4  10  21  38  60  85 115 150 190 235 284 336
#
# _framework density 21.472501999999999
#
# number of rings (size 3 to 8) (size 9 to 14) (size 15 to 20)
#    0.000    2.000    0.000    3.000    0.000    8.000 
#    0.000    5.000    0.000    0.000    0.000    0.000 
#    0.000    0.000    0.000    0.000    0.000    0.000 
#
# Total GULP energy -396460.940531 kJ/mol
# GULP energy per Si atom -12389.404392 kJ/mol
# Density = 2.142363 g / cm^3
# Si number density = 21.472502 Si / 1000 Ang^3
#
#
#
# Elastic Constant Matrix: (Units=GPa)
#
#
# Indices 1 2 3 4 5 6 
#
# 1 77.9157 -15.2692 12.9146 0.0000 0.0000 0.0000
# 2 -15.2692 112.4127 13.3554 0.0000 0.0000 0.0000
# 3 12.9146 13.3554 58.4109 0.0000 0.0000 0.0000
# 4 0.0000 0.0000 0.0000 22.6920 0.0000 0.0000
# 5 0.0000 0.0000 0.0000 0.0000 31.4665 0.0000
# 6 0.0000 0.0000 0.0000 0.0000 0.0000 17.6028
#
#
#
# Elastic Compliance Matrix: (Units=1/GPa)
#
#
# Indices 1 2 3 4 5 6 
#
# 1 0.013884 0.002313 -0.003599 0.000000 0.000000 0.000000
# 2 0.002313 0.009530 -0.002690 0.000000 0.000000 0.000000
# 3 -0.003599 -0.002690 0.018531 0.000000 0.000000 0.000000
# 4 0.000000 0.000000 0.000000 0.044068 0.000000 0.000000
# 5 0.000000 0.000000 0.000000 0.000000 0.031780 0.000000
# 6 0.000000 0.000000 0.000000 0.000000 0.000000 0.056809
#
#
# Mechanical properties :
#
#
# Convention : Reuss Voigt Hill
#
# Bulk Modulus (GPa) = 29.41744 30.08232 29.74988
# Shear Modulus (GPa) = 25.78854 30.20151 27.99503
#
# Velocity S-wave (km/s) = 3.46931 3.75443 3.61468
# Velocity P-wave (km/s) = 5.45692 5.73013 5.59519
#
# Compressibility (1/GPa) = 0.03399344
#
# Stress axis : x y z
#
# Youngs Moduli (GPa) = 72.02406 104.93540 53.96386
#
# Poissons Ratio (x) = -0.24277 0.19420
# Poissons Ratio (y) = -0.16663 0.14519
# Poissons Ratio (z) = 0.25920 0.28232
#
# Static dielectric constant tensor:
#      x y z
#    x 3.715470 0.000000 0.000000 
#    y 0.000000 4.333600 0.000000 
#    z 0.000000 0.000000 3.522640 
# 
# 
# High freq. dielectric constant tensor:
#      x y z
#    x 1.839020 0.000000 0.000000 
#    y 0.000000 1.867190 0.000000 
#    z 0.000000 0.000000 1.814570 
# 
# From -- ./inp_files/11817.got.cif
#   From: 2010.03.12/outbox.cif.g09.slc.cpg/sg62_6_cif.got.tgz:11817.got - 2010.04.10 19:12:36.
