data_PCOD8253535
_publ_section_title
;
Structure prediction by ZEFSAII (Michael W. Deem and Ramdas Pophale) SiO2 
 PCOD8253535
Probable space group: P N M A
;
_chemical_formula_sum "Si O2"
_cell_formula_units_Z 64
_cell_length_a 12.644212
_cell_length_b 17.370063
_cell_length_c 14.204197
_cell_angle_alpha 90.000000
_cell_angle_beta 90.000000
_cell_angle_gamma 90.000000
_cell_volume 3119.678568
_symmetry_space_group_name_H-M "P N M A"
_symmetry_group_IT_number 62
_symmetry_cell_setting 'orthorhombic'
loop_
_space_group_symop_operation_xyz
x,y,z
1/2-x,-y,1/2+z
1/2+x,1/2-y,1/2-z
-x,1/2+y,-z
-x,-y,-z
1/2+x,y,1/2-z
1/2-x,1/2+y,1/2+z
x,1/2-y,z
loop_
_atom_site_type_symbol
_atom_site_label
_atom_site_fract_x
_atom_site_fract_y
_atom_site_fract_z
Si Si1 0.850072 0.897681 0.634449
Si Si2 0.714389 0.835197 0.924846
Si Si3 0.628492 0.925436 0.189720
Si Si4 0.686674 0.166530 0.626856
Si Si5 0.480415 0.089089 0.996803
Si Si6 0.085519 0.162049 0.177212
Si Si7 0.945456 0.160551 0.870774
Si Si8 0.625180 0.659689 0.578683
O O1 0.906956 0.843193 0.710571
O O2 0.725975 0.884134 0.621173
O O3 0.908813 0.876208 0.535590
O O4 0.871199 0.983710 0.672763
O O5 0.683510 0.750000 0.884974
O O6 0.611260 0.889119 0.928134
O O7 0.805982 0.876423 0.862649
O O8 0.759374 0.825304 0.027547
O O9 0.749358 0.896190 0.186388
O O10 0.588750 0.900066 0.291631
O O11 0.553073 0.885388 0.109158
O O12 0.691299 0.250000 0.678449
O O13 0.567120 0.140921 0.610923
O O14 0.500000 0.000000 0.000000
O O15 0.087013 0.250000 0.142490
O O16 0.977828 0.126104 0.133901
O O17 0.928634 0.250000 0.840127
O O18 0.883225 0.143239 0.967339
O O19 0.639041 0.750000 0.598834
#
# Coordination Sequence:
#
# PCOD8253535 Si02
#       8
#     8   8   8   8   8   8   8   8
#     4  11  24  40  57  91 127 167 203 249 308 371
#     4   9  17  34  62  87 109 152 205 251 297 357
#     4  10  22  40  58  89 123 167 205 244 303 370
#     4   9  17  35  60  86 115 150 200 252 300 358
#     4   9  21  41  59  79 126 165 199 244 299 358
#     4  10  21  39  62  89 118 156 207 259 308 367
#     4  10  20  39  65  90 119 156 204 263 313 359
#     4  10  22  42  64  90 124 158 205 265 318 364
#
# _framework density 20.514934
#
# number of rings (size 3 to 8) (size 9 to 14) (size 15 to 20)
#    0.000    2.250    1.250    0.750    1.750    3.500 
#    9.000    2.500    0.000    0.000    0.000    0.000 
#    0.000    0.000    0.000    0.000    0.000    0.000 
#
# Total GULP energy -793052.494874 kJ/mol
# GULP energy per Si atom -12391.445232 kJ/mol
# Density = 2.046824 g / cm^3
# Si number density = 20.514934 Si / 1000 Ang^3
#
#
#
# Elastic Constant Matrix: (Units=GPa)
#
#
# Indices 1 2 3 4 5 6 
#
# 1 137.2246 44.6101 50.9532 0.0000 0.0000 0.0000
# 2 44.6101 54.0057 26.8689 0.0000 0.0000 0.0000
# 3 50.9532 26.8689 90.1122 0.0000 0.0000 0.0000
# 4 0.0000 0.0000 0.0000 22.5614 0.0000 0.0000
# 5 0.0000 0.0000 0.0000 0.0000 25.7179 0.0000
# 6 0.0000 0.0000 0.0000 0.0000 0.0000 32.7616
#
#
#
# Elastic Compliance Matrix: (Units=1/GPa)
#
#
# Indices 1 2 3 4 5 6 
#
# 1 0.011161 -0.007138 -0.004182 0.000000 0.000000 0.000000
# 2 -0.007138 0.026308 -0.003808 0.000000 0.000000 0.000000
# 3 -0.004182 -0.003808 0.014598 0.000000 0.000000 0.000000
# 4 0.000000 0.000000 0.000000 0.044324 0.000000 0.000000
# 5 0.000000 0.000000 0.000000 0.000000 0.038883 0.000000
# 6 0.000000 0.000000 0.000000 0.000000 0.000000 0.030524
#
#
# Mechanical properties :
#
#
# Convention : Reuss Voigt Hill
#
# Bulk Modulus (GPa) = 45.85300 58.46744 52.16022
# Shear Modulus (GPa) = 24.59139 26.80219 25.69679
#
# Velocity S-wave (km/s) = 3.46599 3.61844 3.54303
# Velocity P-wave (km/s) = 6.19815 6.78375 6.49755
#
# Compressibility (1/GPa) = 0.02180882
#
# Stress axis : x y z
#
# Youngs Moduli (GPa) = 89.59849 38.01195 68.50463
#
# Poissons Ratio (x) = 0.27134 0.28651
# Poissons Ratio (y) = 0.63959 0.26085
# Poissons Ratio (z) = 0.37474 0.14474
#
# Static dielectric constant tensor:
#      x y z
#    x 4.249190 0.000000 0.000000 
#    y 0.000000 3.730010 0.000000 
#    z 0.000000 0.000000 3.799660 
# 
# 
# High freq. dielectric constant tensor:
#      x y z
#    x 1.812940 0.000000 0.000000 
#    y 0.000000 1.778080 0.000000 
#    z 0.000000 0.000000 1.795650 
# 
# From -- ./inp_files/18248.got.cif
#   From: 2010.03.12/outbox.cif.g09.slc.cpg/sg62_10_cif.got.tgz:18248.got - 2010.04.10 19:12:36.
