data_PCOD8253277
_publ_section_title
;
Structure prediction by ZEFSAII (Michael W. Deem and Ramdas Pophale) SiO2 
 PCOD8253277
Probable space group: P N M A
;
_chemical_formula_sum "Si O2"
_cell_formula_units_Z 40
_cell_length_a 10.108492
_cell_length_b 7.795673
_cell_length_c 27.088990
_cell_angle_alpha 90.000000
_cell_angle_beta 90.000000
_cell_angle_gamma 90.000000
_cell_volume 2134.680084
_symmetry_space_group_name_H-M "P N M A"
_symmetry_group_IT_number 62
_symmetry_cell_setting 'orthorhombic'
loop_
_space_group_symop_operation_xyz
x,y,z
1/2-x,-y,1/2+z
1/2+x,1/2-y,1/2-z
-x,1/2+y,-z
-x,-y,-z
1/2+x,y,1/2-z
1/2-x,1/2+y,1/2+z
x,1/2-y,z
loop_
_atom_site_type_symbol
_atom_site_label
_atom_site_fract_x
_atom_site_fract_y
_atom_site_fract_z
Si Si1 0.386184 0.056210 0.536569
Si Si2 0.478844 0.939950 0.635736
Si Si3 0.137566 0.548806 0.476569
Si Si4 0.017094 0.750000 0.206155
Si Si5 0.706263 0.750000 0.200725
Si Si6 0.717855 0.056259 0.128686
O O1 0.412734 0.250000 0.552460
O O2 0.500000 0.000000 0.500000
O O3 0.386877 0.948837 0.587303
O O4 0.246429 0.040074 0.510329
O O5 0.462610 0.750000 0.659271
O O6 0.627870 0.972223 0.617061
O O7 0.440407 0.080341 0.676286
O O8 0.163585 0.750000 0.474999
O O9 0.138369 0.474223 0.421504
O O10 0.000000 0.500000 0.500000
O O11 0.859865 0.750000 0.218319
O O12 0.104283 0.750000 0.254768
O O13 0.672428 0.579264 0.169789
O O14 0.690029 0.250000 0.147832
#
# Coordination Sequence:
#
# PCOD8253277 Si02
#       6
#     8   8   8   4   4   8
#     4  12  22  35  59  92 124 161 205 248 296 360
#     4  10  20  37  61  90 120 156 202 254 298 359
#     4  12  24  39  57  88 128 167 205 247 302 373
#     4  10  22  42  64  88 118 152 206 256 313 358
#     4  10  22  42  66  88 114 158 202 260 307 362
#     4  10  20  38  62  87 120 161 204 242 301 372
#
# _framework density 18.738171000000001
#
# number of rings (size 3 to 8) (size 9 to 14) (size 15 to 20)
#    0.000    1.200    4.000    3.600    0.000    0.800 
#    3.600    0.000    0.000    0.000    0.000    0.000 
#    0.000    0.000    0.000    0.000    0.000    0.000 
#
# Total GULP energy -496118.098949 kJ/mol
# GULP energy per Si atom -12402.952474 kJ/mol
# Density = 1.869552 g / cm^3
# Si number density = 18.738171 Si / 1000 Ang^3
#
#
#
# Elastic Constant Matrix: (Units=GPa)
#
#
# Indices 1 2 3 4 5 6 
#
# 1 93.2754 24.3277 63.7487 0.0000 0.0000 0.0000
# 2 24.3277 153.7943 62.5855 0.0000 0.0000 0.0000
# 3 63.7487 62.5855 145.0634 0.0000 0.0000 0.0000
# 4 0.0000 0.0000 0.0000 29.1192 0.0000 0.0000
# 5 0.0000 0.0000 0.0000 0.0000 37.3048 0.0000
# 6 0.0000 0.0000 0.0000 0.0000 0.0000 24.2121
#
#
#
# Elastic Compliance Matrix: (Units=1/GPa)
#
#
# Indices 1 2 3 4 5 6 
#
# 1 0.015342 0.000384 -0.006908 0.000000 0.000000 0.000000
# 2 0.000384 0.007897 -0.003576 0.000000 0.000000 0.000000
# 3 -0.006908 -0.003576 0.011472 0.000000 0.000000 0.000000
# 4 0.000000 0.000000 0.000000 0.034342 0.000000 0.000000
# 5 0.000000 0.000000 0.000000 0.000000 0.026806 0.000000
# 6 0.000000 0.000000 0.000000 0.000000 0.000000 0.041302
#
#
# Mechanical properties :
#
#
# Convention : Reuss Voigt Hill
#
# Bulk Modulus (GPa) = 68.90978 77.05076 72.98027
# Shear Modulus (GPa) = 30.82702 34.22531 32.52616
#
# Velocity S-wave (km/s) = 4.06044 4.27840 4.17084
# Velocity P-wave (km/s) = 7.67058 8.10032 7.88838
#
# Compressibility (1/GPa) = 0.01451173
#
# Stress axis : x y z
#
# Youngs Moduli (GPa) = 65.18127 126.63813 87.16966
#
# Poissons Ratio (x) = -0.04866 0.60215
# Poissons Ratio (y) = -0.02505 0.31169
# Poissons Ratio (z) = 0.45026 0.45282
#
# Static dielectric constant tensor:
#      x y z
#    x 3.082770 0.000000 0.000000 
#    y 0.000000 3.773700 0.000000 
#    z 0.000000 0.000000 3.241380 
# 
# 
# High freq. dielectric constant tensor:
#      x y z
#    x 1.708280 0.000000 0.000000 
#    y 0.000000 1.754760 0.000000 
#    z 0.000000 0.000000 1.716230 
# 
# From -- ./inp_files/28620.got.cif
#   From: 2010.03.12/outbox.cif.g09.slc.cpg/sg62_15_cif.got.tgz:28620.got - 2010.04.10 19:12:36.
