data_PCOD8253394
_publ_section_title
;
Structure prediction by ZEFSAII (Michael W. Deem and Ramdas Pophale) SiO2 
 PCOD8253394
Probable space group: P N M A
;
_chemical_formula_sum "Si O2"
_cell_formula_units_Z 64
_cell_length_a 17.620824
_cell_length_b 8.813712
_cell_length_c 21.211845
_cell_angle_alpha 90.000000
_cell_angle_beta 90.000000
_cell_angle_gamma 90.000000
_cell_volume 3294.302786
_symmetry_space_group_name_H-M "P N M A"
_symmetry_group_IT_number 62
_symmetry_cell_setting 'orthorhombic'
loop_
_space_group_symop_operation_xyz
x,y,z
1/2-x,-y,1/2+z
1/2+x,1/2-y,1/2-z
-x,1/2+y,-z
-x,-y,-z
1/2+x,y,1/2-z
1/2-x,1/2+y,1/2+z
x,1/2-y,z
loop_
_atom_site_type_symbol
_atom_site_label
_atom_site_fract_x
_atom_site_fract_y
_atom_site_fract_z
Si Si1 0.959839 0.070012 0.559827
Si Si2 0.939556 0.429652 0.335420
Si Si3 0.277391 0.071086 0.108308
Si Si4 0.347192 0.914510 0.393631
Si Si5 0.629525 0.572315 0.358672
Si Si6 0.927414 0.584208 0.977216
Si Si7 0.527473 0.431987 0.701306
Si Si8 0.290121 0.431134 0.964634
O O1 0.968634 0.250000 0.558042
O O2 0.872916 0.017409 0.557262
O O3 0.000000 0.000000 0.500000
O O4 0.994790 0.004541 0.623421
O O5 0.950001 0.250000 0.335173
O O6 0.857912 0.477131 0.362573
O O7 0.947644 0.495444 0.266090
O O8 0.266715 0.250000 0.108644
O O9 0.211823 0.002968 0.154539
O O10 0.273564 0.009408 0.036043
O O11 0.331579 0.750000 0.361835
O O12 0.375635 0.886818 0.463630
O O13 0.410646 0.996508 0.350023
O O14 0.267024 0.998876 0.409794
O O15 0.638354 0.750000 0.350166
O O16 0.613852 0.528784 0.430271
O O17 0.558210 0.513449 0.316489
O O18 0.945071 0.750000 0.946339
O O19 0.000000 0.500000 0.000000
O O20 0.528845 0.250000 0.703068
O O21 0.283470 0.250000 0.965100
#
# Coordination Sequence:
#
# PCOD8253394 Si02
#       8
#     8   8   8   8   8   8   8   8
#     4  11  21  37  64  93 121 153 196 247 304 360
#     4  11  24  43  63  85 117 159 208 252 301 363
#     4  10  20  38  62  87 118 154 191 240 303 362
#     4   9  17  33  57  82 114 154 193 235 289 354
#     4  11  22  36  57  90 121 151 200 250 296 364
#     4  11  19  31  54  83 117 156 195 242 296 349
#     4  10  22  41  60  82 117 161 207 247 294 361
#     4   9  17  33  59  90 119 149 186 236 301 361
#
# _framework density 19.427481
#
# number of rings (size 3 to 8) (size 9 to 14) (size 15 to 20)
#    0.000    1.750    3.750    1.500    0.000    2.000 
#    2.250    0.000    0.000    0.000    0.000    0.000 
#    0.000    0.000    0.000    0.000    0.000    0.000 
#
# Total GULP energy -792892.868426 kJ/mol
# GULP energy per Si atom -12388.951069 kJ/mol
# Density = 1.938326 g / cm^3
# Si number density = 19.427481 Si / 1000 Ang^3
#
#
#
# Elastic Constant Matrix: (Units=GPa)
#
#
# Indices 1 2 3 4 5 6 
#
# 1 172.6482 37.1006 50.3243 0.0000 0.0000 0.0000
# 2 37.1006 27.3417 21.4152 0.0000 0.0000 0.0000
# 3 50.3243 21.4152 90.3594 0.0000 0.0000 0.0000
# 4 0.0000 0.0000 0.0000 27.9504 0.0000 0.0000
# 5 0.0000 0.0000 0.0000 0.0000 24.6745 0.0000
# 6 0.0000 0.0000 0.0000 0.0000 0.0000 25.2641
#
#
#
# Elastic Compliance Matrix: (Units=1/GPa)
#
#
# Indices 1 2 3 4 5 6 
#
# 1 0.008609 -0.009733 -0.002488 0.000000 0.000000 0.000000
# 2 -0.009733 0.055915 -0.007831 0.000000 0.000000 0.000000
# 3 -0.002488 -0.007831 0.014308 0.000000 0.000000 0.000000
# 4 0.000000 0.000000 0.000000 0.035778 0.000000 0.000000
# 5 0.000000 0.000000 0.000000 0.000000 0.040528 0.000000
# 6 0.000000 0.000000 0.000000 0.000000 0.000000 0.039582
#
#
# Mechanical properties :
#
#
# Convention : Reuss Voigt Hill
#
# Bulk Modulus (GPa) = 25.82108 56.44774 41.13441
# Shear Modulus (GPa) = 20.18308 27.67841 23.93074
#
# Velocity S-wave (km/s) = 3.22668 3.77862 3.51351
# Velocity P-wave (km/s) = 5.21554 6.93945 6.13832
#
# Compressibility (1/GPa) = 0.03872805
#
# Stress axis : x y z
#
# Youngs Moduli (GPa) = 116.15999 17.88442 69.88865
#
# Poissons Ratio (x) = 0.17407 0.17387
# Poissons Ratio (y) = 1.13058 0.54731
# Poissons Ratio (z) = 0.28899 0.14006
#
# Static dielectric constant tensor:
#      x y z
#    x 4.089750 0.000000 0.000000 
#    y 0.000000 3.335940 0.000000 
#    z 0.000000 0.000000 3.455280 
# 
# 
# High freq. dielectric constant tensor:
#      x y z
#    x 1.781040 0.000000 0.000000 
#    y 0.000000 1.731110 0.000000 
#    z 0.000000 0.000000 1.737260 
# 
# From -- ./inp_files/27721.got.cif
#   From: 2010.03.12/outbox.cif.g09.slc.cpg/sg62_14_cif.got.tgz:27721.got - 2010.04.10 19:12:36.
