data_PCOD8253757
_publ_section_title
;
Structure prediction by ZEFSAII (Michael W. Deem and Ramdas Pophale) SiO2 
 PCOD8253757
Probable space group: P N M A
;
_chemical_formula_sum "Si O2"
_cell_formula_units_Z 32
_cell_length_a 4.950289
_cell_length_b 17.961898
_cell_length_c 16.733947
_cell_angle_alpha 90.000000
_cell_angle_beta 90.000000
_cell_angle_gamma 90.000000
_cell_volume 1487.925439
_symmetry_space_group_name_H-M "P N M A"
_symmetry_group_IT_number 62
_symmetry_cell_setting 'orthorhombic'
loop_
_space_group_symop_operation_xyz
x,y,z
1/2-x,-y,1/2+z
1/2+x,1/2-y,1/2-z
-x,1/2+y,-z
-x,-y,-z
1/2+x,y,1/2-z
1/2-x,1/2+y,1/2+z
x,1/2-y,z
loop_
_atom_site_type_symbol
_atom_site_label
_atom_site_fract_x
_atom_site_fract_y
_atom_site_fract_z
Si Si1 0.930821 0.166449 0.969895
Si Si2 0.255011 0.545163 0.699015
Si Si3 0.568005 0.917203 0.971387
Si Si4 0.757645 0.628843 0.300454
O O1 0.992832 0.250000 0.000081
O O2 0.814637 0.172079 0.880543
O O3 0.706416 0.130026 0.027130
O O4 0.205375 0.117922 0.970449
O O5 0.550229 0.567472 0.730005
O O6 0.185252 0.587931 0.617924
O O7 0.247767 0.458159 0.679147
O O8 0.500000 0.000000 0.000000
O O9 0.553763 0.651445 0.229478
#
# Coordination Sequence:
#
# PCOD8253757 Si02
#       4
#     8   8   8   8
#     4  12  26  42  63  95 134 173 211 264 324 381
#     4  10  21  37  63  96 124 156 209 270 315 366
#     4  12  24  42  69  94 126 170 220 266 315 375
#     4  10  21  36  60  92 131 168 205 247 310 388
#
# _framework density 21.506454999999999
#
# number of rings (size 3 to 8) (size 9 to 14) (size 15 to 20)
#    0.000    1.000    2.500    4.500    7.000    1.000 
#    0.000    0.000    0.000   15.000    0.000    0.000 
#    0.000    0.000    0.000    0.000    0.000    0.000 
#
# Total GULP energy -396957.045182 kJ/mol
# GULP energy per Si atom -12404.907662 kJ/mol
# Density = 2.145751 g / cm^3
# Si number density = 21.506455 Si / 1000 Ang^3
#
#
#
# Elastic Constant Matrix: (Units=GPa)
#
#
# Indices 1 2 3 4 5 6 
#
# 1 109.4379 47.5569 0.2723 0.0000 0.0000 0.0000
# 2 47.5569 111.0212 30.5152 0.0000 0.0000 0.0000
# 3 0.2723 30.5152 75.7696 0.0000 0.0000 0.0000
# 4 0.0000 0.0000 0.0000 18.9841 0.0000 0.0000
# 5 0.0000 0.0000 0.0000 0.0000 30.3988 0.0000
# 6 0.0000 0.0000 0.0000 0.0000 0.0000 25.0647
#
#
#
# Elastic Compliance Matrix: (Units=1/GPa)
#
#
# Indices 1 2 3 4 5 6 
#
# 1 0.011543 -0.005547 0.002193 0.000000 0.000000 0.000000
# 2 -0.005547 0.012794 -0.005133 0.000000 0.000000 0.000000
# 3 0.002193 -0.005133 0.015257 0.000000 0.000000 0.000000
# 4 0.000000 0.000000 0.000000 0.052676 0.000000 0.000000
# 5 0.000000 0.000000 0.000000 0.000000 0.032896 0.000000
# 6 0.000000 0.000000 0.000000 0.000000 0.000000 0.039897
#
#
# Mechanical properties :
#
#
# Convention : Reuss Voigt Hill
#
# Bulk Modulus (GPa) = 44.20972 50.32418 47.26695
# Shear Modulus (GPa) = 26.37453 29.41513 27.89483
#
# Velocity S-wave (km/s) = 3.50573 3.70230 3.60536
# Velocity P-wave (km/s) = 6.08178 6.45960 6.27353
#
# Compressibility (1/GPa) = 0.02261946
#
# Stress axis : x y z
#
# Youngs Moduli (GPa) = 86.63523 78.16039 65.54291
#
# Poissons Ratio (x) = 0.43356 -0.14370
# Poissons Ratio (y) = 0.48057 0.33642
# Poissons Ratio (z) = -0.18995 0.40118
#
# Static dielectric constant tensor:
#      x y z
#    x 4.148340 0.000000 0.000000 
#    y 0.000000 3.628640 0.000000 
#    z 0.000000 0.000000 3.759140 
# 
# 
# High freq. dielectric constant tensor:
#      x y z
#    x 1.865330 0.000000 0.000000 
#    y 0.000000 1.815180 0.000000 
#    z 0.000000 0.000000 1.842890 
# 
# From -- ./inp_files/16081.got.cif
#   From: 2010.03.12/outbox.cif.g09.slc.cpg/sg62_9_cif.got.tgz:16081.got - 2010.04.10 19:12:36.
