data_PCOD8253226
_publ_section_title
;
Structure prediction by ZEFSAII (Michael W. Deem and Ramdas Pophale) SiO2 
 PCOD8253226
Probable space group: P N M A
;
_chemical_formula_sum "Si O2"
_cell_formula_units_Z 48
_cell_length_a 29.183150
_cell_length_b 9.326492
_cell_length_c 9.347015
_cell_angle_alpha 90.000000
_cell_angle_beta 90.000000
_cell_angle_gamma 90.000000
_cell_volume 2544.037034
_symmetry_space_group_name_H-M "P N M A"
_symmetry_group_IT_number 62
_symmetry_cell_setting 'orthorhombic'
loop_
_space_group_symop_operation_xyz
x,y,z
1/2-x,-y,1/2+z
1/2+x,1/2-y,1/2-z
-x,1/2+y,-z
-x,-y,-z
1/2+x,y,1/2-z
1/2-x,1/2+y,1/2+z
x,1/2-y,z
loop_
_atom_site_type_symbol
_atom_site_label
_atom_site_fract_x
_atom_site_fract_y
_atom_site_fract_z
Si Si1 0.792085 0.919713 0.956140
Si Si2 0.120737 0.080347 0.217349
Si Si3 0.285551 0.583597 0.213761
Si Si4 0.534041 0.588744 0.903050
Si Si5 0.622733 0.416948 0.959105
Si Si6 0.523064 0.409828 0.378629
O O1 0.787478 0.750000 0.938615
O O2 0.840325 0.975073 0.891367
O O3 0.752236 0.991168 0.865415
O O4 0.789179 0.966179 0.121488
O O5 0.118033 0.250000 0.214603
O O6 0.132518 0.030652 0.378744
O O7 0.071236 0.018241 0.170515
O O8 0.272023 0.750000 0.202890
O O9 0.333397 0.553036 0.137390
O O10 0.540196 0.750000 0.964337
O O11 0.582425 0.510021 0.891811
O O12 0.513048 0.595554 0.747420
O O13 0.500000 0.500000 0.000000
O O14 0.608455 0.250000 0.956093
O O15 0.500000 0.500000 0.500000
O O16 0.532646 0.250000 0.437048
#
# Coordination Sequence:
#
# PCOD8253226 Si02
#       6
#     8   8   8   8   8   8
#     4  10  21  38  61  86 115 150 191 236 285 344
#     4   9  18  36  58  81 112 151 189 232 285 336
#     4  10  22  38  60  89 115 148 190 233 288 346
#     4  11  22  38  59  86 118 153 194 237 282 337
#     4  10  20  37  60  84 115 152 192 236 286 343
#     4  10  22  38  57  83 116 152 193 235 281 337
#
# _framework density 18.867649
#
# number of rings (size 3 to 8) (size 9 to 14) (size 15 to 20)
#    0.000    2.000    1.667    1.500    2.333    4.000 
#    0.000    1.667    0.000    0.000    0.000    0.000 
#    0.000    0.000    0.000    0.000    0.000    0.000 
#
# Total GULP energy -595236.399621 kJ/mol
# GULP energy per Si atom -12400.758325 kJ/mol
# Density = 1.882471 g / cm^3
# Si number density = 18.867649 Si / 1000 Ang^3
#
#
#
# Elastic Constant Matrix: (Units=GPa)
#
#
# Indices 1 2 3 4 5 6 
#
# 1 144.3286 57.8452 83.3289 0.0000 0.0000 0.0000
# 2 57.8452 64.3346 49.9495 0.0000 0.0000 0.0000
# 3 83.3289 49.9495 141.1704 0.0000 0.0000 0.0000
# 4 0.0000 0.0000 0.0000 30.2847 0.0000 0.0000
# 5 0.0000 0.0000 0.0000 0.0000 38.5678 0.0000
# 6 0.0000 0.0000 0.0000 0.0000 0.0000 36.1082
#
#
#
# Elastic Compliance Matrix: (Units=1/GPa)
#
#
# Indices 1 2 3 4 5 6 
#
# 1 0.012836 -0.007802 -0.004816 0.000000 0.000000 0.000000
# 2 -0.007802 0.026173 -0.004655 0.000000 0.000000 0.000000
# 3 -0.004816 -0.004655 0.011574 0.000000 0.000000 0.000000
# 4 0.000000 0.000000 0.000000 0.033020 0.000000 0.000000
# 5 0.000000 0.000000 0.000000 0.000000 0.025928 0.000000
# 6 0.000000 0.000000 0.000000 0.000000 0.000000 0.027695
#
#
# Mechanical properties :
#
#
# Convention : Reuss Voigt Hill
#
# Bulk Modulus (GPa) = 62.36077 81.34230 71.85154
# Shear Modulus (GPa) = 28.22954 31.57281 29.90117
#
# Velocity S-wave (km/s) = 3.87225 4.09514 3.98526
# Velocity P-wave (km/s) = 7.28807 8.09727 7.70330
#
# Compressibility (1/GPa) = 0.01603572
#
# Stress axis : x y z
#
# Youngs Moduli (GPa) = 77.90336 38.20689 86.40214
#
# Poissons Ratio (x) = 0.29810 0.41615
# Poissons Ratio (y) = 0.60781 0.40223
# Poissons Ratio (z) = 0.37521 0.17787
#
# Static dielectric constant tensor:
#      x y z
#    x 3.640540 0.000000 0.000000 
#    y 0.000000 3.442440 0.000000 
#    z 0.000000 0.000000 3.732960 
# 
# 
# High freq. dielectric constant tensor:
#      x y z
#    x 1.746350 0.000000 0.000000 
#    y 0.000000 1.713090 0.000000 
#    z 0.000000 0.000000 1.743240 
# 
# From -- ./inp_files/10201.got.cif
#   From: 2010.03.12/outbox.cif.g09.slc.cpg/sg62_6_cif.got.tgz:10201.got - 2010.04.10 19:12:36.
