data_PCOD8253373
_publ_section_title
;
Structure prediction by ZEFSAII (Michael W. Deem and Ramdas Pophale) SiO2 
 PCOD8253373
Probable space group: P N M A
;
_chemical_formula_sum "Si O2"
_cell_formula_units_Z 48
_cell_length_a 27.114865
_cell_length_b 8.952987
_cell_length_c 10.036809
_cell_angle_alpha 90.000000
_cell_angle_beta 90.000000
_cell_angle_gamma 90.000000
_cell_volume 2436.526056
_symmetry_space_group_name_H-M "P N M A"
_symmetry_group_IT_number 62
_symmetry_cell_setting 'orthorhombic'
loop_
_space_group_symop_operation_xyz
x,y,z
1/2-x,-y,1/2+z
1/2+x,1/2-y,1/2-z
-x,1/2+y,-z
-x,-y,-z
1/2+x,y,1/2-z
1/2-x,1/2+y,1/2+z
x,1/2-y,z
loop_
_atom_site_type_symbol
_atom_site_label
_atom_site_fract_x
_atom_site_fract_y
_atom_site_fract_z
Si Si1 0.289282 0.572864 0.257467
Si Si2 0.322517 0.074504 0.759366
Si Si3 0.857360 0.576265 0.479421
Si Si4 0.965965 0.427141 0.110171
Si Si5 0.967106 0.574344 0.388064
Si Si6 0.143942 0.924478 0.970801
O O1 0.292495 0.750000 0.263062
O O2 0.233401 0.513497 0.253574
O O3 0.314684 0.510236 0.388855
O O4 0.316795 0.514425 0.124585
O O5 0.321995 0.250000 0.780191
O O6 0.350751 0.028846 0.624812
O O7 0.352506 0.004942 0.880413
O O8 0.849876 0.750000 0.505906
O O9 0.910364 0.540307 0.418294
O O10 0.973650 0.250000 0.112402
O O11 0.981830 0.497147 0.250097
O O12 0.909823 0.471805 0.078813
O O13 0.000000 0.500000 0.000000
O O14 0.978156 0.750000 0.379712
O O15 0.000000 0.500000 0.500000
O O16 0.153720 0.750000 0.951598
#
# Coordination Sequence:
#
# PCOD8253373 Si02
#       6
#     8   8   8   8   8   8
#     4  10  20  38  61  86 119 158 201 248 299 353
#     4  10  22  37  58  89 122 158 200 247 296 353
#     4  10  22  40  61  87 121 159 198 246 302 357
#     4  11  24  42  65  93 123 162 205 252 308 365
#     4  11  24  43  66  92 122 160 203 254 310 367
#     4  10  22  40  61  87 121 159 199 247 301 355
#
# _framework density 19.700178999999999
#
# number of rings (size 3 to 8) (size 9 to 14) (size 15 to 20)
#    0.000    1.667    1.667    2.000    2.333    5.333 
#    0.000    0.000    0.000    0.000    0.000    0.000 
#    0.000    0.000    0.000    0.000    0.000    0.000 
#
# Total GULP energy -595463.915065 kJ/mol
# GULP energy per Si atom -12405.498231 kJ/mol
# Density = 1.965534 g / cm^3
# Si number density = 19.700179 Si / 1000 Ang^3
#
#
#
# Elastic Constant Matrix: (Units=GPa)
#
#
# Indices 1 2 3 4 5 6 
#
# 1 74.5814 42.9210 46.1609 0.0000 0.0000 0.0000
# 2 42.9210 58.9160 51.1896 0.0000 0.0000 0.0000
# 3 46.1609 51.1896 163.9589 0.0000 0.0000 0.0000
# 4 0.0000 0.0000 0.0000 39.5259 0.0000 0.0000
# 5 0.0000 0.0000 0.0000 0.0000 41.5698 0.0000
# 6 0.0000 0.0000 0.0000 0.0000 0.0000 27.1525
#
#
#
# Elastic Compliance Matrix: (Units=1/GPa)
#
#
# Indices 1 2 3 4 5 6 
#
# 1 0.023444 -0.015567 -0.001740 0.000000 0.000000 0.000000
# 2 -0.015567 0.033629 -0.006116 0.000000 0.000000 0.000000
# 3 -0.001740 -0.006116 0.008499 0.000000 0.000000 0.000000
# 4 0.000000 0.000000 0.000000 0.025300 0.000000 0.000000
# 5 0.000000 0.000000 0.000000 0.000000 0.024056 0.000000
# 6 0.000000 0.000000 0.000000 0.000000 0.000000 0.036829
#
#
# Mechanical properties :
#
#
# Convention : Reuss Voigt Hill
#
# Bulk Modulus (GPa) = 53.40873 64.22216 58.81544
# Shear Modulus (GPa) = 24.40870 32.12863 28.26867
#
# Velocity S-wave (km/s) = 3.52377 4.04280 3.79218
# Velocity P-wave (km/s) = 6.61254 7.37989 7.00673
#
# Compressibility (1/GPa) = 0.01872353
#
# Stress axis : x y z
#
# Youngs Moduli (GPa) = 42.65462 29.73662 117.66645
#
# Poissons Ratio (x) = 0.46292 0.20476
# Poissons Ratio (y) = 0.66402 0.71969
# Poissons Ratio (z) = 0.07423 0.18188
#
# Static dielectric constant tensor:
#      x y z
#    x 3.772700 0.000000 0.000000 
#    y 0.000000 3.025540 0.000000 
#    z 0.000000 0.000000 3.658200 
# 
# 
# High freq. dielectric constant tensor:
#      x y z
#    x 1.777600 0.000000 0.000000 
#    y 0.000000 1.762040 0.000000 
#    z 0.000000 0.000000 1.785230 
# 
# From -- ./inp_files/10216.got.cif
#   From: 2010.03.12/outbox.cif.g09.slc.cpg/sg62_6_cif.got.tgz:10216.got - 2010.04.10 19:12:36.
