data_PCOD8253004
_publ_section_title
;
Structure prediction by ZEFSAII (Michael W. Deem and Ramdas Pophale) SiO2 
 PCOD8253004
Probable space group: P N M A
;
_chemical_formula_sum "Si O2"
_cell_formula_units_Z 64
_cell_length_a 22.597043
_cell_length_b 9.116713
_cell_length_c 16.041492
_cell_angle_alpha 90.000000
_cell_angle_beta 90.000000
_cell_angle_gamma 90.000000
_cell_volume 3304.719889
_symmetry_space_group_name_H-M "P N M A"
_symmetry_group_IT_number 62
_symmetry_cell_setting 'orthorhombic'
loop_
_space_group_symop_operation_xyz
x,y,z
1/2-x,-y,1/2+z
1/2+x,1/2-y,1/2-z
-x,1/2+y,-z
-x,-y,-z
1/2+x,y,1/2-z
1/2-x,1/2+y,1/2+z
x,1/2-y,z
loop_
_atom_site_type_symbol
_atom_site_label
_atom_site_fract_x
_atom_site_fract_y
_atom_site_fract_z
Si Si1 0.346584 0.587755 0.077045
Si Si2 0.139466 0.922171 0.269325
Si Si3 0.480767 0.921691 0.745988
Si Si4 0.725226 0.923797 0.371186
Si Si5 0.792651 0.911131 0.602893
Si Si6 0.465831 0.422920 0.075807
Si Si7 0.828296 0.424189 0.039698
Si Si8 0.960459 0.076328 0.071145
O O1 0.371526 0.750000 0.102161
O O2 0.294463 0.529920 0.138621
O O3 0.397711 0.468586 0.073039
O O4 0.311059 0.604199 0.992043
O O5 0.129755 0.750000 0.270388
O O6 0.192236 0.978471 0.210764
O O7 0.079967 0.993374 0.236602
O O8 0.159825 0.976536 0.359567
O O9 0.467873 0.750000 0.748279
O O10 0.510497 0.971149 0.833284
O O11 0.519435 0.964524 0.665109
O O12 0.721992 0.750000 0.378997
O O13 0.690212 0.992079 0.450237
O O14 0.798018 0.750000 0.645545
O O15 0.723973 0.967382 0.605762
O O16 0.471793 0.250000 0.062371
O O17 0.500000 0.500000 0.000000
O O18 0.831476 0.250000 0.034841
O O19 0.893010 0.483975 0.065185
O O20 0.964337 0.250000 0.055905
O O21 0.000000 0.000000 0.000000
#
# Coordination Sequence:
#
# PCOD8253004 Si02
#       8
#     8   8   8   8   8   8   8   8
#     4   9  18  35  56  76 102 137 175 216 267 322
#     4  11  21  33  53  79 105 134 173 220 266 314
#     4  10  23  39  53  76 111 146 181 222 269 324
#     4   8  16  31  51  76 103 131 165 208 258 312
#     4   9  18  33  54  77 102 135 172 213 265 324
#     4  11  23  38  56  79 109 146 186 227 271 320
#     4   8  15  31  54  75  98 134 175 207 249 316
#     4  10  20  36  58  82 110 145 183 223 267 318
#
# _framework density 19.366240000000001
#
# number of rings (size 3 to 8) (size 9 to 14) (size 15 to 20)
#    0.000    2.500    0.000    3.750    0.000    7.000 
#    0.000    3.125    0.000    2.250    0.000    0.000 
#    0.000    0.000    0.000    0.000    0.000    0.000 
#
# Total GULP energy -793113.250094 kJ/mol
# GULP energy per Si atom -12392.394533 kJ/mol
# Density = 1.932216 g / cm^3
# Si number density = 19.366240 Si / 1000 Ang^3
#
#
#
# Elastic Constant Matrix: (Units=GPa)
#
#
# Indices 1 2 3 4 5 6 
#
# 1 129.0323 36.9103 31.8005 0.0000 0.0000 0.0000
# 2 36.9103 38.8275 30.8226 0.0000 0.0000 0.0000
# 3 31.8005 30.8226 82.0090 0.0000 0.0000 0.0000
# 4 0.0000 0.0000 0.0000 20.4912 0.0000 0.0000
# 5 0.0000 0.0000 0.0000 0.0000 30.0925 0.0000
# 6 0.0000 0.0000 0.0000 0.0000 0.0000 31.3524
#
#
#
# Elastic Compliance Matrix: (Units=1/GPa)
#
#
# Indices 1 2 3 4 5 6 
#
# 1 0.010657 -0.009763 -0.000463 0.000000 0.000000 0.000000
# 2 -0.009763 0.045651 -0.013372 0.000000 0.000000 0.000000
# 3 -0.000463 -0.013372 0.017399 0.000000 0.000000 0.000000
# 4 0.000000 0.000000 0.000000 0.048801 0.000000 0.000000
# 5 0.000000 0.000000 0.000000 0.000000 0.033231 0.000000
# 6 0.000000 0.000000 0.000000 0.000000 0.000000 0.031896
#
#
# Mechanical properties :
#
#
# Convention : Reuss Voigt Hill
#
# Bulk Modulus (GPa) = 37.72012 49.88174 43.80093
# Shear Modulus (GPa) = 20.51973 26.40957 23.46465
#
# Velocity S-wave (km/s) = 3.25862 3.69683 3.48462
# Velocity P-wave (km/s) = 5.80325 6.63589 6.23349
#
# Compressibility (1/GPa) = 0.02651105
#
# Stress axis : x y z
#
# Youngs Moduli (GPa) = 93.83599 21.90527 57.47436
#
# Poissons Ratio (x) = 0.21386 0.02661
# Poissons Ratio (y) = 0.91613 0.76854
# Poissons Ratio (z) = 0.04344 0.29291
#
# Static dielectric constant tensor:
#      x y z
#    x 3.893010 0.000000 0.000000 
#    y 0.000000 3.246210 0.000000 
#    z 0.000000 0.000000 3.635490 
# 
# 
# High freq. dielectric constant tensor:
#      x y z
#    x 1.771110 0.000000 0.000000 
#    y 0.000000 1.724000 0.000000 
#    z 0.000000 0.000000 1.750090 
# 
# From -- ./inp_files/20850.got.cif
#   From: 2010.03.12/outbox.cif.g09.slc.cpg/sg62_11_cif.got.tgz:20850.got - 2010.04.10 19:12:36.
