data_PCOD8253551
_publ_section_title
;
Structure prediction by ZEFSAII (Michael W. Deem and Ramdas Pophale) SiO2 
 PCOD8253551
Probable space group: P N M A
;
_chemical_formula_sum "Si O2"
_cell_formula_units_Z 56
_cell_length_a 16.067538
_cell_length_b 19.833118
_cell_length_c 9.020160
_cell_angle_alpha 90.000000
_cell_angle_beta 90.000000
_cell_angle_gamma 90.000000
_cell_volume 2874.448769
_symmetry_space_group_name_H-M "P N M A"
_symmetry_group_IT_number 62
_symmetry_cell_setting 'orthorhombic'
loop_
_space_group_symop_operation_xyz
x,y,z
1/2-x,-y,1/2+z
1/2+x,1/2-y,1/2-z
-x,1/2+y,-z
-x,-y,-z
1/2+x,y,1/2-z
1/2-x,1/2+y,1/2+z
x,1/2-y,z
loop_
_atom_site_type_symbol
_atom_site_label
_atom_site_fract_x
_atom_site_fract_y
_atom_site_fract_z
Si Si1 0.505709 0.066729 0.403847
Si Si2 0.570472 0.962897 0.904850
Si Si3 0.474829 0.827076 0.353555
Si Si4 0.162092 0.482244 0.211292
Si Si5 0.784581 0.945853 0.481050
Si Si6 0.881390 0.121433 0.655727
Si Si7 0.792162 0.828479 0.269161
O O1 0.445890 0.060716 0.262743
O O2 0.489352 0.131341 0.506612
O O3 0.598289 0.074942 0.338842
O O4 0.500000 0.000000 0.500000
O O5 0.638429 0.021054 0.897473
O O6 0.600586 0.893089 0.982666
O O7 0.500000 0.000000 0.000000
O O8 0.472241 0.750000 0.403730
O O9 0.542845 0.834461 0.221881
O O10 0.380619 0.849314 0.306446
O O11 0.208784 0.506802 0.065833
O O12 0.216646 0.447988 0.340898
O O13 0.113613 0.547262 0.272727
O O14 0.778893 0.869259 0.422516
O O15 0.789251 0.154802 0.668510
O O16 0.793220 0.750000 0.309695
#
# Coordination Sequence:
#
# PCOD8253551 Si02
#       7
#     8   8   8   8   8   8   8
#     4  12  22  37  61  88 124 155 202 257 313 364
#     4  11  20  36  59  92 118 154 199 262 310 370
#     4  11  24  40  61  88 124 168 204 252 313 374
#     4  10  22  34  58  91 117 153 193 255 306 360
#     4  10  21  36  57  90 119 148 200 247 312 358
#     4  10  20  40  62  89 118 160 207 254 303 370
#     4  10  22  39  62  87 122 166 210 248 302 381
#
# _framework density 19.481995999999999
#
# number of rings (size 3 to 8) (size 9 to 14) (size 15 to 20)
#    0.000    1.429    4.286    2.143    8.000    0.000 
#    0.000    2.143    0.000    0.000    0.000    0.000 
#    0.000    0.000    0.000    0.000    0.000    0.000 
#
# Total GULP energy -693866.049516 kJ/mol
# GULP energy per Si atom -12390.465170 kJ/mol
# Density = 1.943765 g / cm^3
# Si number density = 19.481996 Si / 1000 Ang^3
#
#
#
# Elastic Constant Matrix: (Units=GPa)
#
#
# Indices 1 2 3 4 5 6 
#
# 1 89.6793 8.6659 18.5772 0.0000 0.0000 0.0000
# 2 8.6659 79.0116 28.0783 0.0000 0.0000 0.0000
# 3 18.5772 28.0783 106.8111 0.0000 0.0000 0.0000
# 4 0.0000 0.0000 0.0000 22.4487 0.0000 0.0000
# 5 0.0000 0.0000 0.0000 0.0000 34.9422 0.0000
# 6 0.0000 0.0000 0.0000 0.0000 0.0000 27.7001
#
#
#
# Elastic Compliance Matrix: (Units=1/GPa)
#
#
# Indices 1 2 3 4 5 6 
#
# 1 0.011594 -0.000612 -0.001856 0.000000 0.000000 0.000000
# 2 -0.000612 0.013993 -0.003572 0.000000 0.000000 0.000000
# 3 -0.001856 -0.003572 0.010624 0.000000 0.000000 0.000000
# 4 0.000000 0.000000 0.000000 0.044546 0.000000 0.000000
# 5 0.000000 0.000000 0.000000 0.000000 0.028619 0.000000
# 6 0.000000 0.000000 0.000000 0.000000 0.000000 0.036101
#
#
# Mechanical properties :
#
#
# Convention : Reuss Voigt Hill
#
# Bulk Modulus (GPa) = 41.43918 42.90496 42.17207
# Shear Modulus (GPa) = 30.19314 31.69691 30.94503
#
# Velocity S-wave (km/s) = 3.94102 4.03797 3.98979
# Velocity P-wave (km/s) = 6.48271 6.61898 6.55120
#
# Compressibility (1/GPa) = 0.02413175
#
# Stress axis : x y z
#
# Youngs Moduli (GPa) = 86.24855 71.46495 94.12607
#
# Poissons Ratio (x) = 0.04375 0.17466
# Poissons Ratio (y) = 0.05280 0.33621
# Poissons Ratio (z) = 0.16004 0.25527
#
# Static dielectric constant tensor:
#      x y z
#    x 3.444670 0.000000 0.000000 
#    y 0.000000 3.411590 0.000000 
#    z 0.000000 0.000000 3.649430 
# 
# 
# High freq. dielectric constant tensor:
#      x y z
#    x 1.777440 0.000000 0.000000 
#    y 0.000000 1.733890 0.000000 
#    z 0.000000 0.000000 1.753150 
# 
# From -- ./inp_files/6792.got.cif
#   From: 2010.03.12/outbox.cif.g09.slc.cpg/sg62_4_cif.got.tgz:6792.got - 2010.04.10 19:12:36.
