data_PCOD8253501
_publ_section_title
;
Structure prediction by ZEFSAII (Michael W. Deem and Ramdas Pophale) SiO2 
 PCOD8253501
Probable space group: P N M A
;
_chemical_formula_sum "Si O2"
_cell_formula_units_Z 48
_cell_length_a 15.077802
_cell_length_b 8.859533
_cell_length_c 18.930954
_cell_angle_alpha 90.000000
_cell_angle_beta 90.000000
_cell_angle_gamma 90.000000
_cell_volume 2528.840081
_symmetry_space_group_name_H-M "P N M A"
_symmetry_group_IT_number 62
_symmetry_cell_setting 'orthorhombic'
loop_
_space_group_symop_operation_xyz
x,y,z
1/2-x,-y,1/2+z
1/2+x,1/2-y,1/2-z
-x,1/2+y,-z
-x,-y,-z
1/2+x,y,1/2-z
1/2-x,1/2+y,1/2+z
x,1/2-y,z
loop_
_atom_site_type_symbol
_atom_site_label
_atom_site_fract_x
_atom_site_fract_y
_atom_site_fract_z
Si Si1 0.975311 0.571646 0.574061
Si Si2 0.374690 0.425810 0.321657
Si Si3 0.118216 0.073186 0.671910
Si Si4 0.032708 0.425083 0.071717
Si Si5 0.723926 0.071841 0.074166
Si Si6 0.283743 0.071919 0.577722
O O1 0.982980 0.750000 0.566457
O O2 0.875390 0.521633 0.593817
O O3 0.000000 0.500000 0.500000
O O4 0.037898 0.514884 0.635964
O O5 0.364318 0.250000 0.301199
O O6 0.378870 0.528024 0.252969
O O7 0.462664 0.453930 0.366578
O O8 0.290607 0.486924 0.365952
O O9 0.100361 0.250000 0.663301
O O10 0.210697 0.027116 0.635657
O O11 0.044788 0.250000 0.055913
O O12 0.124661 0.493783 0.099192
O O13 0.000000 0.500000 0.000000
O O14 0.731852 0.250000 0.068768
O O15 0.751592 0.006591 0.997768
O O16 0.299453 0.250000 0.574740
#
# Coordination Sequence:
#
# PCOD8253501 Si02
#       6
#     8   8   8   8   8   8
#     4  11  21  37  63  92 121 158 201 247 297 357
#     4  10  22  41  61  84 119 159 197 242 302 363
#     4  11  24  41  60  87 124 159 196 249 307 356
#     4  11  22  37  62  92 120 157 202 247 297 358
#     4   9  18  37  62  85 116 155 195 242 295 349
#     4  10  20  39  62  86 119 157 197 246 299 351
#
# _framework density 18.981034000000001
#
# number of rings (size 3 to 8) (size 9 to 14) (size 15 to 20)
#    0.000    1.667    3.333    1.500    0.000    4.000 
#    0.000    6.667    0.000    0.000    0.000    0.000 
#    0.000    0.000    0.000    0.000    0.000    0.000 
#
# Total GULP energy -595361.623917 kJ/mol
# GULP energy per Si atom -12403.367165 kJ/mol
# Density = 1.893783 g / cm^3
# Si number density = 18.981034 Si / 1000 Ang^3
#
#
#
# Elastic Constant Matrix: (Units=GPa)
#
#
# Indices 1 2 3 4 5 6 
#
# 1 177.0925 59.9760 64.6414 0.0000 0.0000 0.0000
# 2 59.9760 64.7304 40.3140 0.0000 0.0000 0.0000
# 3 64.6414 40.3140 120.7832 0.0000 0.0000 0.0000
# 4 0.0000 0.0000 0.0000 34.1765 0.0000 0.0000
# 5 0.0000 0.0000 0.0000 0.0000 31.0520 0.0000
# 6 0.0000 0.0000 0.0000 0.0000 0.0000 31.4714
#
#
#
# Elastic Compliance Matrix: (Units=1/GPa)
#
#
# Indices 1 2 3 4 5 6 
#
# 1 0.008792 -0.006585 -0.002508 0.000000 0.000000 0.000000
# 2 -0.006585 0.024434 -0.004631 0.000000 0.000000 0.000000
# 3 -0.002508 -0.004631 0.011167 0.000000 0.000000 0.000000
# 4 0.000000 0.000000 0.000000 0.029260 0.000000 0.000000
# 5 0.000000 0.000000 0.000000 0.000000 0.032204 0.000000
# 6 0.000000 0.000000 0.000000 0.000000 0.000000 0.031775
#
#
# Mechanical properties :
#
#
# Convention : Reuss Voigt Hill
#
# Bulk Modulus (GPa) = 59.01079 76.94098 67.97589
# Shear Modulus (GPa) = 29.28632 32.51830 30.90231
#
# Velocity S-wave (km/s) = 3.93227 4.14357 4.03930
# Velocity P-wave (km/s) = 7.19540 7.96969 7.59242
#
# Compressibility (1/GPa) = 0.01694605
#
# Stress axis : x y z
#
# Youngs Moduli (GPa) = 113.73857 40.92645 89.54794
#
# Poissons Ratio (x) = 0.26948 0.22456
# Poissons Ratio (y) = 0.74892 0.41474
# Poissons Ratio (z) = 0.28522 0.18955
#
# Static dielectric constant tensor:
#      x y z
#    x 3.644950 0.000000 0.000000 
#    y 0.000000 3.130450 0.000000 
#    z 0.000000 0.000000 3.601860 
# 
# 
# High freq. dielectric constant tensor:
#      x y z
#    x 1.757030 0.000000 0.000000 
#    y 0.000000 1.726590 0.000000 
#    z 0.000000 0.000000 1.737560 
# 
# From -- ./inp_files/23669.got.cif
#   From: 2010.03.12/outbox.cif.g09.slc.cpg/sg62_12_cif.got.tgz:23669.got - 2010.04.10 19:12:36.
