data_PCOD8253266
_publ_section_title
;
Structure prediction by ZEFSAII (Michael W. Deem and Ramdas Pophale) SiO2 
 PCOD8253266
Probable space group: P N M A
;
_chemical_formula_sum "Si O2"
_cell_formula_units_Z 56
_cell_length_a 21.636859
_cell_length_b 8.767256
_cell_length_c 14.583145
_cell_angle_alpha 90.000000
_cell_angle_beta 90.000000
_cell_angle_gamma 90.000000
_cell_volume 2766.362551
_symmetry_space_group_name_H-M "P N M A"
_symmetry_group_IT_number 62
_symmetry_cell_setting 'orthorhombic'
loop_
_space_group_symop_operation_xyz
x,y,z
1/2-x,-y,1/2+z
1/2+x,1/2-y,1/2-z
-x,1/2+y,-z
-x,-y,-z
1/2+x,y,1/2-z
1/2-x,1/2+y,1/2+z
x,1/2-y,z
loop_
_atom_site_type_symbol
_atom_site_label
_atom_site_fract_x
_atom_site_fract_y
_atom_site_fract_z
Si Si1 0.384306 0.571519 0.600779
Si Si2 0.677739 0.070577 0.069166
Si Si3 0.483315 0.069398 0.725273
Si Si4 0.538093 0.431309 0.082890
Si Si5 0.746491 0.925581 0.393315
Si Si6 0.222015 0.425512 0.810315
Si Si7 0.903368 0.930429 0.104135
O O1 0.394215 0.750000 0.618837
O O2 0.418673 0.477047 0.679343
O O3 0.312268 0.534697 0.605008
O O4 0.410845 0.521147 0.501682
O O5 0.676384 0.250000 0.078104
O O6 0.608256 0.006925 0.075240
O O7 0.716801 0.008072 0.154124
O O8 0.707549 0.019020 0.973030
O O9 0.485797 0.250000 0.737947
O O10 0.538590 0.006215 0.661100
O O11 0.491545 0.990376 0.823037
O O12 0.534901 0.250000 0.079008
O O13 0.500000 0.500000 0.000000
O O14 0.725698 0.750000 0.407447
O O15 0.783233 0.946061 0.298656
O O16 0.227896 0.250000 0.838796
O O17 0.160542 0.498980 0.855458
O O18 0.900649 0.750000 0.114264
#
# Coordination Sequence:
#
# PCOD8253266 Si02
#       7
#     8   8   8   8   8   8   8
#     4  11  21  38  61  89 124 157 199 251 305 363
#     4  10  22  40  61  87 120 155 193 246 301 356
#     4  11  23  40  63  88 121 164 207 250 305 365
#     4  11  25  44  65  91 124 162 207 255 307 364
#     4  10  21  36  60  88 116 153 197 241 300 366
#     4  10  20  37  61  87 117 155 200 245 297 362
#     4   9  20  37  60  88 118 157 201 252 306 357
#
# _framework density 20.243189000000001
#
# number of rings (size 3 to 8) (size 9 to 14) (size 15 to 20)
#    0.000    1.714    1.429    2.571    2.000    4.000 
#    0.000    3.571    0.000    0.000    0.000    0.000 
#    0.000    0.000    0.000    0.000    0.000    0.000 
#
# Total GULP energy -694669.219026 kJ/mol
# GULP energy per Si atom -12404.807483 kJ/mol
# Density = 2.019712 g / cm^3
# Si number density = 20.243189 Si / 1000 Ang^3
#
#
#
# Elastic Constant Matrix: (Units=GPa)
#
#
# Indices 1 2 3 4 5 6 
#
# 1 89.1146 23.7047 26.9297 0.0000 0.0000 0.0000
# 2 23.7047 37.8730 24.9064 0.0000 0.0000 0.0000
# 3 26.9297 24.9064 120.0979 0.0000 0.0000 0.0000
# 4 0.0000 0.0000 0.0000 31.3955 0.0000 0.0000
# 5 0.0000 0.0000 0.0000 0.0000 38.5655 0.0000
# 6 0.0000 0.0000 0.0000 0.0000 0.0000 26.2926
#
#
#
# Elastic Compliance Matrix: (Units=1/GPa)
#
#
# Indices 1 2 3 4 5 6 
#
# 1 0.013692 -0.007585 -0.001497 0.000000 0.000000 0.000000
# 2 -0.007585 0.034776 -0.005511 0.000000 0.000000 0.000000
# 3 -0.001497 -0.005511 0.009805 0.000000 0.000000 0.000000
# 4 0.000000 0.000000 0.000000 0.031852 0.000000 0.000000
# 5 0.000000 0.000000 0.000000 0.000000 0.025930 0.000000
# 6 0.000000 0.000000 0.000000 0.000000 0.000000 0.038033
#
#
# Mechanical properties :
#
#
# Convention : Reuss Voigt Hill
#
# Bulk Modulus (GPa) = 34.38075 44.24079 39.31077
# Shear Modulus (GPa) = 25.91083 30.68702 28.29893
#
# Velocity S-wave (km/s) = 3.58156 3.89770 3.74297
# Velocity P-wave (km/s) = 5.84159 6.49294 6.17585
#
# Compressibility (1/GPa) = 0.02908605
#
# Stress axis : x y z
#
# Youngs Moduli (GPa) = 73.03783 28.75559 101.98716
#
# Poissons Ratio (x) = 0.21811 0.15268
# Poissons Ratio (y) = 0.55399 0.56207
# Poissons Ratio (z) = 0.10934 0.15848
#
# Static dielectric constant tensor:
#      x y z
#    x 3.843710 0.000000 0.000000 
#    y 0.000000 3.472110 0.000000 
#    z 0.000000 0.000000 4.039860 
# 
# 
# High freq. dielectric constant tensor:
#      x y z
#    x 1.796760 0.000000 0.000000 
#    y 0.000000 1.772210 0.000000 
#    z 0.000000 0.000000 1.807570 
# 
# From -- ./inp_files/20261.got.cif
#   From: 2010.03.12/outbox.cif.g09.slc.cpg/sg62_11_cif.got.tgz:20261.got - 2010.04.10 19:12:36.
