data_PCOD8253422
_publ_section_title
;
Structure prediction by ZEFSAII (Michael W. Deem and Ramdas Pophale) SiO2 
 PCOD8253422
Probable space group: P N M A
;
_chemical_formula_sum "Si O2"
_cell_formula_units_Z 48
_cell_length_a 19.922856
_cell_length_b 8.526137
_cell_length_c 14.659963
_cell_angle_alpha 90.000000
_cell_angle_beta 90.000000
_cell_angle_gamma 90.000000
_cell_volume 2490.214610
_symmetry_space_group_name_H-M "P N M A"
_symmetry_group_IT_number 62
_symmetry_cell_setting 'orthorhombic'
loop_
_space_group_symop_operation_xyz
x,y,z
1/2-x,-y,1/2+z
1/2+x,1/2-y,1/2-z
-x,1/2+y,-z
-x,-y,-z
1/2+x,y,1/2-z
1/2-x,1/2+y,1/2+z
x,1/2-y,z
loop_
_atom_site_type_symbol
_atom_site_label
_atom_site_fract_x
_atom_site_fract_y
_atom_site_fract_z
Si Si1 0.453449 0.066161 0.578083
Si Si2 0.485210 0.430284 0.780416
Si Si3 0.668464 0.931476 0.185532
Si Si4 0.801631 0.568164 0.498365
Si Si5 0.813310 0.567915 0.877969
Si Si6 0.058766 0.567309 0.561806
O O1 0.441515 0.250000 0.566334
O O2 0.489672 0.028765 0.673779
O O3 0.500000 0.000000 0.500000
O O4 0.381520 0.984051 0.572560
O O5 0.503931 0.250000 0.798733
O O6 0.410753 0.466367 0.816950
O O7 0.538243 0.539934 0.832818
O O8 0.683432 0.750000 0.167898
O O9 0.703373 0.030973 0.105920
O O10 0.698887 0.977211 0.283233
O O11 0.786478 0.750000 0.482237
O O12 0.747292 0.465547 0.445762
O O13 0.874086 0.525903 0.459345
O O14 0.817043 0.750000 0.855063
O O15 0.069994 0.750000 0.541521
O O16 0.000000 0.500000 0.500000
#
# Coordination Sequence:
#
# PCOD8253422 Si02
#       6
#     8   8   8   8   8   8
#     4  10  21  40  65  91 121 157 203 250 300 356
#     4   9  19  36  59  86 119 154 194 243 296 353
#     4  10  20  38  63  88 118 156 198 242 297 359
#     4  12  24  40  62  88 121 160 203 251 302 357
#     4  11  23  41  63  89 122 159 203 248 299 360
#     4  12  23  36  58  89 123 157 199 246 298 357
#
# _framework density 19.275448000000001
#
# number of rings (size 3 to 8) (size 9 to 14) (size 15 to 20)
#    0.000    1.333    1.667    6.500    0.000    3.333 
#    3.000    0.000    0.000    0.000    0.000    0.000 
#    0.000    0.000    0.000    0.000    0.000    0.000 
#
# Total GULP energy -595454.091113 kJ/mol
# GULP energy per Si atom -12405.293565 kJ/mol
# Density = 1.923158 g / cm^3
# Si number density = 19.275448 Si / 1000 Ang^3
#
#
#
# Elastic Constant Matrix: (Units=GPa)
#
#
# Indices 1 2 3 4 5 6 
#
# 1 79.2933 11.3400 52.2759 0.0000 0.0000 0.0000
# 2 11.3400 80.5858 17.9295 0.0000 0.0000 0.0000
# 3 52.2759 17.9295 109.8318 0.0000 0.0000 0.0000
# 4 0.0000 0.0000 0.0000 37.0675 0.0000 0.0000
# 5 0.0000 0.0000 0.0000 0.0000 34.9029 0.0000
# 6 0.0000 0.0000 0.0000 0.0000 0.0000 31.5025
#
#
#
# Elastic Compliance Matrix: (Units=1/GPa)
#
#
# Indices 1 2 3 4 5 6 
#
# 1 0.018413 -0.000665 -0.008655 0.000000 0.000000 0.000000
# 2 -0.000665 0.012901 -0.001789 0.000000 0.000000 0.000000
# 3 -0.008655 -0.001789 0.013516 0.000000 0.000000 0.000000
# 4 0.000000 0.000000 0.000000 0.026978 0.000000 0.000000
# 5 0.000000 0.000000 0.000000 0.000000 0.028651 0.000000
# 6 0.000000 0.000000 0.000000 0.000000 0.000000 0.031744
#
#
# Mechanical properties :
#
#
# Convention : Reuss Voigt Hill
#
# Bulk Modulus (GPa) = 44.22748 48.08908 46.15828
# Shear Modulus (GPa) = 30.87210 33.23895 32.05552
#
# Velocity S-wave (km/s) = 4.00638 4.15712 4.08244
# Velocity P-wave (km/s) = 6.66305 6.93143 6.79856
#
# Compressibility (1/GPa) = 0.02261038
#
# Stress axis : x y z
#
# Youngs Moduli (GPa) = 54.31052 77.51419 73.98395
#
# Poissons Ratio (x) = 0.05157 0.64034
# Poissons Ratio (y) = 0.03613 0.13238
# Poissons Ratio (z) = 0.47006 0.13870
#
# Static dielectric constant tensor:
#      x y z
#    x 3.369900 0.000000 0.000000 
#    y 0.000000 3.617340 0.000000 
#    z 0.000000 0.000000 3.749300 
# 
# 
# High freq. dielectric constant tensor:
#      x y z
#    x 1.733360 0.000000 0.000000 
#    y 0.000000 1.762870 0.000000 
#    z 0.000000 0.000000 1.761830 
# 
# From -- ./inp_files/19597.got.cif
#   From: 2010.03.12/outbox.cif.g09.slc.cpg/sg62_10_cif.got.tgz:19597.got - 2010.04.10 19:12:36.
