data_PCOD8253047
_publ_section_title
;
Structure prediction by ZEFSAII (Michael W. Deem and Ramdas Pophale) SiO2 
 PCOD8253047
Probable space group: P N M A
;
_chemical_formula_sum "Si O2"
_cell_formula_units_Z 48
_cell_length_a 17.995718
_cell_length_b 8.681529
_cell_length_c 16.376066
_cell_angle_alpha 90.000000
_cell_angle_beta 90.000000
_cell_angle_gamma 90.000000
_cell_volume 2558.438485
_symmetry_space_group_name_H-M "P N M A"
_symmetry_group_IT_number 62
_symmetry_cell_setting 'orthorhombic'
loop_
_space_group_symop_operation_xyz
x,y,z
1/2-x,-y,1/2+z
1/2+x,1/2-y,1/2-z
-x,1/2+y,-z
-x,-y,-z
1/2+x,y,1/2-z
1/2-x,1/2+y,1/2+z
x,1/2-y,z
loop_
_atom_site_type_symbol
_atom_site_label
_atom_site_fract_x
_atom_site_fract_y
_atom_site_fract_z
Si Si1 0.040908 0.072537 0.749551
Si Si2 0.176247 0.072135 0.643267
Si Si3 0.593393 0.429397 0.166866
Si Si4 0.970712 0.070471 0.917157
Si Si5 0.417897 0.068335 0.998888
Si Si6 0.333925 0.929558 0.666266
O O1 0.017066 0.250000 0.735005
O O2 0.126814 0.047268 0.725118
O O3 0.027399 0.025390 0.843791
O O4 0.991753 0.965788 0.690568
O O5 0.198207 0.250000 0.632909
O O6 0.130741 0.017634 0.565461
O O7 0.249474 0.971109 0.649449
O O8 0.600209 0.250000 0.145303
O O9 0.646389 0.479235 0.241444
O O10 0.618112 0.530276 0.089190
O O11 0.966913 0.250000 0.930179
O O12 0.887797 0.013099 0.897737
O O13 0.000000 0.000000 0.000000
O O14 0.419049 0.250000 0.015123
O O15 0.500000 0.000000 0.000000
O O16 0.346663 0.750000 0.653867
#
# Coordination Sequence:
#
# PCOD8253047 Si02
#       6
#     8   8   8   8   8   8
#     4   9  19  35  58  83 111 148 191 235 284 344
#     4  11  22  38  59  86 118 153 193 241 294 347
#     4  10  20  36  59  84 113 151 193 233 280 342
#     4  10  20  38  62  87 114 152 199 245 290 344
#     4  12  23  36  58  88 120 155 194 238 287 344
#     4  10  22  40  60  85 117 154 193 240 294 346
#
# _framework density 18.761444000000001
#
# number of rings (size 3 to 8) (size 9 to 14) (size 15 to 20)
#    0.000    1.667    1.667    3.500    0.000    3.333 
#    3.000    0.000    0.000    0.000    0.000    0.000 
#    0.000    0.000    0.000    0.000    0.000    0.000 
#
# Total GULP energy -595329.393198 kJ/mol
# GULP energy per Si atom -12402.695692 kJ/mol
# Density = 1.871874 g / cm^3
# Si number density = 18.761444 Si / 1000 Ang^3
#
#
#
# Elastic Constant Matrix: (Units=GPa)
#
#
# Indices 1 2 3 4 5 6 
#
# 1 101.9265 9.3857 48.3195 0.0000 0.0000 0.0000
# 2 9.3857 48.0034 22.4058 0.0000 0.0000 0.0000
# 3 48.3195 22.4058 114.7661 0.0000 0.0000 0.0000
# 4 0.0000 0.0000 0.0000 33.6152 0.0000 0.0000
# 5 0.0000 0.0000 0.0000 0.0000 24.2678 0.0000
# 6 0.0000 0.0000 0.0000 0.0000 0.0000 32.3643
#
#
#
# Elastic Compliance Matrix: (Units=1/GPa)
#
#
# Indices 1 2 3 4 5 6 
#
# 1 0.012257 0.000013 -0.005163 0.000000 0.000000 0.000000
# 2 0.000013 0.022920 -0.004480 0.000000 0.000000 0.000000
# 3 -0.005163 -0.004480 0.011762 0.000000 0.000000 0.000000
# 4 0.000000 0.000000 0.000000 0.029748 0.000000 0.000000
# 5 0.000000 0.000000 0.000000 0.000000 0.041207 0.000000
# 6 0.000000 0.000000 0.000000 0.000000 0.000000 0.030898
#
#
# Mechanical properties :
#
#
# Convention : Reuss Voigt Hill
#
# Bulk Modulus (GPa) = 36.12814 47.21313 41.67064
# Shear Modulus (GPa) = 28.20388 30.35513 29.27951
#
# Velocity S-wave (km/s) = 3.88143 4.02674 3.95476
# Velocity P-wave (km/s) = 6.27581 6.84391 6.56601
#
# Compressibility (1/GPa) = 0.02767925
#
# Stress axis : x y z
#
# Youngs Moduli (GPa) = 81.58274 43.62912 85.01973
#
# Poissons Ratio (x) = -0.00058 0.43899
# Poissons Ratio (y) = -0.00109 0.38092
# Poissons Ratio (z) = 0.42124 0.19548
#
# Static dielectric constant tensor:
#      x y z
#    x 3.287260 0.000000 0.000000 
#    y 0.000000 3.575620 0.000000 
#    z 0.000000 0.000000 3.645220 
# 
# 
# High freq. dielectric constant tensor:
#      x y z
#    x 1.712000 0.000000 0.000000 
#    y 0.000000 1.742040 0.000000 
#    z 0.000000 0.000000 1.736630 
# 
# From -- ./inp_files/19619.got.cif
#   From: 2010.03.12/outbox.cif.g09.slc.cpg/sg62_10_cif.got.tgz:19619.got - 2010.04.10 19:12:36.
