data_PCOD8253474
_publ_section_title
;
Structure prediction by ZEFSAII (Michael W. Deem and Ramdas Pophale) SiO2 
 PCOD8253474
Probable space group: P N M A
;
_chemical_formula_sum "Si O2"
_cell_formula_units_Z 40
_cell_length_a 8.686279
_cell_length_b 21.982868
_cell_length_c 9.179060
_cell_angle_alpha 90.000000
_cell_angle_beta 90.000000
_cell_angle_gamma 90.000000
_cell_volume 1752.735308
_symmetry_space_group_name_H-M "P N M A"
_symmetry_group_IT_number 62
_symmetry_cell_setting 'orthorhombic'
loop_
_space_group_symop_operation_xyz
x,y,z
1/2-x,-y,1/2+z
1/2+x,1/2-y,1/2-z
-x,1/2+y,-z
-x,-y,-z
1/2+x,y,1/2-z
1/2-x,1/2+y,1/2+z
x,1/2-y,z
loop_
_atom_site_type_symbol
_atom_site_label
_atom_site_fract_x
_atom_site_fract_y
_atom_site_fract_z
Si Si1 0.852263 0.117151 0.345561
Si Si2 0.169546 0.052384 0.385313
Si Si3 0.825792 0.250000 0.281878
Si Si4 0.875807 0.625443 0.097032
Si Si5 0.532903 0.250000 0.467757
Si Si6 0.681967 0.563797 0.315721
O O1 0.790808 0.099990 0.184734
O O2 0.898087 0.188607 0.351087
O O3 0.712330 0.102173 0.454029
O O4 0.999160 0.078829 0.388623
O O5 0.214015 0.040585 0.551820
O O6 0.171597 0.989247 0.301658
O O7 0.644710 0.250000 0.324410
O O8 0.862509 0.250000 0.106805
O O9 0.760574 0.622252 0.236095
O O10 0.014058 0.579226 0.125439
O O11 0.940302 0.693038 0.073340
#
# Coordination Sequence:
#
# PCOD8253474 Si02
#       6
#     8   8   4   8   4   8
#     4  11  23  42  67  99 130 171 218 271 326 392
#     4  12  25  42  67  94 130 172 221 271 330 391
#     4  10  20  38  66  96 130 166 210 258 316 382
#     4  11  25  44  67  96 133 171 219 269 329 389
#     4  10  22  42  68 100 134 172 216 268 322 388
#     4  12  26  45  66  94 131 176 219 274 330 393
#
# _framework density 22.821473999999998
#
# number of rings (size 3 to 8) (size 9 to 14) (size 15 to 20)
#    0.000    0.800    0.000    8.400    0.000    5.600 
#    0.000    6.000    0.000    0.000    0.000    0.000 
#    0.000    0.000    0.000    0.000    0.000    0.000 
#
# Total GULP energy -496108.499443 kJ/mol
# GULP energy per Si atom -12402.712486 kJ/mol
# Density = 2.276953 g / cm^3
# Si number density = 22.821474 Si / 1000 Ang^3
#
#
#
# Elastic Constant Matrix: (Units=GPa)
#
#
# Indices 1 2 3 4 5 6 
#
# 1 86.0471 46.4240 28.4136 0.0000 0.0000 0.0000
# 2 46.4240 123.7183 68.2826 0.0000 0.0000 0.0000
# 3 28.4136 68.2826 117.0472 0.0000 0.0000 0.0000
# 4 0.0000 0.0000 0.0000 36.2554 0.0000 0.0000
# 5 0.0000 0.0000 0.0000 0.0000 51.2835 0.0000
# 6 0.0000 0.0000 0.0000 0.0000 0.0000 26.6828
#
#
#
# Elastic Compliance Matrix: (Units=1/GPa)
#
#
# Indices 1 2 3 4 5 6 
#
# 1 0.014592 -0.005192 -0.000513 0.000000 0.000000 0.000000
# 2 -0.005192 0.013769 -0.006772 0.000000 0.000000 0.000000
# 3 -0.000513 -0.006772 0.012619 0.000000 0.000000 0.000000
# 4 0.000000 0.000000 0.000000 0.027582 0.000000 0.000000
# 5 0.000000 0.000000 0.000000 0.000000 0.019499 0.000000
# 6 0.000000 0.000000 0.000000 0.000000 0.000000 0.037477
#
#
# Mechanical properties :
#
#
# Convention : Reuss Voigt Hill
#
# Bulk Modulus (GPa) = 62.40308 68.11701 65.26005
# Shear Modulus (GPa) = 32.08509 35.09051 33.58780
#
# Velocity S-wave (km/s) = 3.75362 3.92549 3.84052
# Velocity P-wave (km/s) = 6.79630 7.10342 6.95155
#
# Compressibility (1/GPa) = 0.01602485
#
# Stress axis : x y z
#
# Youngs Moduli (GPa) = 68.52881 72.62769 79.24708
#
# Poissons Ratio (x) = 0.37711 0.04067
# Poissons Ratio (y) = 0.35583 0.53666
# Poissons Ratio (z) = 0.03517 0.49183
#
# Static dielectric constant tensor:
#      x y z
#    x 4.188250 0.000000 0.000000 
#    y 0.000000 4.199600 0.000000 
#    z 0.000000 0.000000 4.216870 
# 
# 
# High freq. dielectric constant tensor:
#      x y z
#    x 1.909320 0.000000 0.000000 
#    y 0.000000 1.908380 0.000000 
#    z 0.000000 0.000000 1.898980 
# 
# From -- ./inp_files/4310.got.cif
#   From: 2010.03.12/outbox.cif.g09.slc.cpg/sg62_3_cif.got.tgz:4310.got - 2010.04.10 19:12:36.
