data_PCOD8253249
_publ_section_title
;
Structure prediction by ZEFSAII (Michael W. Deem and Ramdas Pophale) SiO2 
 PCOD8253249
Probable space group: P N M A
;
_chemical_formula_sum "Si O2"
_cell_formula_units_Z 64
_cell_length_a 16.040370
_cell_length_b 22.106110
_cell_length_c 8.578374
_cell_angle_alpha 90.000000
_cell_angle_beta 90.000000
_cell_angle_gamma 90.000000
_cell_volume 3041.807212
_symmetry_space_group_name_H-M "P N M A"
_symmetry_group_IT_number 62
_symmetry_cell_setting 'orthorhombic'
loop_
_space_group_symop_operation_xyz
x,y,z
1/2-x,-y,1/2+z
1/2+x,1/2-y,1/2-z
-x,1/2+y,-z
-x,-y,-z
1/2+x,y,1/2-z
1/2-x,1/2+y,1/2+z
x,1/2-y,z
loop_
_atom_site_type_symbol
_atom_site_label
_atom_site_fract_x
_atom_site_fract_y
_atom_site_fract_z
Si Si1 0.296481 0.917479 0.139680
Si Si2 0.347515 0.619284 0.813481
Si Si3 0.693258 0.681239 0.817979
Si Si4 0.532024 0.896249 0.817229
Si Si5 0.801752 0.180126 0.680362
Si Si6 0.152904 0.000276 0.149258
Si Si7 0.571578 0.478681 0.663195
Si Si8 0.441268 0.092791 0.823251
O O1 0.267675 0.856235 0.224989
O O2 0.222201 0.958252 0.068067
O O3 0.339234 0.962585 0.263144
O O4 0.353092 0.897300 0.995733
O O5 0.277554 0.670302 0.782765
O O6 0.443754 0.636003 0.767612
O O7 0.313347 0.564256 0.707740
O O8 0.665766 0.750000 0.790651
O O9 0.613408 0.641460 0.762977
O O10 0.715153 0.669406 0.997768
O O11 0.531896 0.962342 0.742199
O O12 0.528314 0.904983 0.001400
O O13 0.797139 0.250000 0.728773
O O14 0.894086 0.155029 0.722003
O O15 0.120985 0.964204 0.301987
O O16 0.079345 0.010102 0.021976
O O17 0.516571 0.418796 0.702075
#
# Coordination Sequence:
#
# PCOD8253249 Si02
#       8
#     8   8   8   8   8   8   8   8
#     4  11  22  36  60  90 123 159 204 250 307 364
#     4  12  23  39  61  92 125 165 202 254 306 370
#     4  10  23  43  64  86 118 162 210 257 309 366
#     4  11  22  39  63  90 127 164 208 252 314 372
#     4   9  21  43  64  83 113 157 207 255 306 365
#     4  11  22  35  57  89 127 164 199 246 311 370
#     4  12  21  37  58  93 128 158 201 253 305 375
#     4  10  20  37  60  88 120 158 198 256 307 366
#
# _framework density 21.040123000000001
#
# number of rings (size 3 to 8) (size 9 to 14) (size 15 to 20)
#    0.000    1.250    2.500    4.500    0.000    3.000 
#    0.000    0.625    0.000    0.750    0.000    0.000 
#    0.000    0.000    0.000    0.000    0.000    0.000 
#
# Total GULP energy -793415.018445 kJ/mol
# GULP energy per Si atom -12397.109663 kJ/mol
# Density = 2.099223 g / cm^3
# Si number density = 21.040123 Si / 1000 Ang^3
#
#
#
# Elastic Constant Matrix: (Units=GPa)
#
#
# Indices 1 2 3 4 5 6 
#
# 1 126.2582 41.6359 25.3215 0.0000 0.0000 0.0000
# 2 41.6359 79.7058 26.1652 0.0000 0.0000 0.0000
# 3 25.3215 26.1652 50.3989 0.0000 0.0000 0.0000
# 4 0.0000 0.0000 0.0000 23.3636 0.0000 0.0000
# 5 0.0000 0.0000 0.0000 0.0000 33.5655 0.0000
# 6 0.0000 0.0000 0.0000 0.0000 0.0000 29.3528
#
#
#
# Elastic Compliance Matrix: (Units=1/GPa)
#
#
# Indices 1 2 3 4 5 6 
#
# 1 0.009875 -0.004255 -0.002753 0.000000 0.000000 0.000000
# 2 -0.004255 0.016957 -0.006666 0.000000 0.000000 0.000000
# 3 -0.002753 -0.006666 0.024685 0.000000 0.000000 0.000000
# 4 0.000000 0.000000 0.000000 0.042802 0.000000 0.000000
# 5 0.000000 0.000000 0.000000 0.000000 0.029792 0.000000
# 6 0.000000 0.000000 0.000000 0.000000 0.000000 0.034068
#
#
# Mechanical properties :
#
#
# Convention : Reuss Voigt Hill
#
# Bulk Modulus (GPa) = 41.37162 49.17870 45.27516
# Shear Modulus (GPa) = 25.82864 28.13908 26.98386
#
# Velocity S-wave (km/s) = 3.50750 3.66102 3.58508
# Velocity P-wave (km/s) = 6.00910 6.42614 6.22111
#
# Compressibility (1/GPa) = 0.02417116
#
# Stress axis : x y z
#
# Youngs Moduli (GPa) = 101.26071 58.97279 40.51010
#
# Poissons Ratio (x) = 0.25093 0.11151
# Poissons Ratio (y) = 0.43087 0.27002
# Poissons Ratio (z) = 0.27873 0.39309
#
# Static dielectric constant tensor:
#      x y z
#    x 3.981490 0.000000 0.000000 
#    y 0.000000 3.622240 0.000000 
#    z 0.000000 0.000000 3.684400 
# 
# 
# High freq. dielectric constant tensor:
#      x y z
#    x 1.840220 0.000000 0.000000 
#    y 0.000000 1.801200 0.000000 
#    z 0.000000 0.000000 1.820090 
# 
# From -- ./inp_files/6960.got.cif
#   From: 2010.03.12/outbox.cif.g09.slc.cpg/sg62_4_cif.got.tgz:6960.got - 2010.04.10 19:12:36.
