data_PCOD8253206
_publ_section_title
;
Structure prediction by ZEFSAII (Michael W. Deem and Ramdas Pophale) SiO2 
 PCOD8253206
Probable space group: P N M A
;
_chemical_formula_sum "Si O2"
_cell_formula_units_Z 64
_cell_length_a 19.195721
_cell_length_b 9.052273
_cell_length_c 18.946085
_cell_angle_alpha 90.000000
_cell_angle_beta 90.000000
_cell_angle_gamma 90.000000
_cell_volume 3292.164697
_symmetry_space_group_name_H-M "P N M A"
_symmetry_group_IT_number 62
_symmetry_cell_setting 'orthorhombic'
loop_
_space_group_symop_operation_xyz
x,y,z
1/2-x,-y,1/2+z
1/2+x,1/2-y,1/2-z
-x,1/2+y,-z
-x,-y,-z
1/2+x,y,1/2-z
1/2-x,1/2+y,1/2+z
x,1/2-y,z
loop_
_atom_site_type_symbol
_atom_site_label
_atom_site_fract_x
_atom_site_fract_y
_atom_site_fract_z
Si Si1 0.402214 0.420619 0.047374
Si Si2 0.465810 0.577404 0.633806
Si Si3 0.725411 0.075089 0.891395
Si Si4 0.610544 0.419879 0.222698
Si Si5 0.771310 0.422243 0.243760
Si Si6 0.876885 0.424634 0.125518
Si Si7 0.133964 0.924661 0.032886
Si Si8 0.030086 0.920178 0.397472
O O1 0.390389 0.250000 0.065931
O O2 0.331300 0.510314 0.055348
O O3 0.459804 0.484167 0.101014
O O4 0.425585 0.446242 0.967605
O O5 0.463327 0.750000 0.616893
O O6 0.419526 0.536532 0.701314
O O7 0.545155 0.524717 0.646536
O O8 0.435342 0.494163 0.566058
O O9 0.718868 0.250000 0.889527
O O10 0.799888 0.023830 0.921356
O O11 0.712082 0.011517 0.814133
O O12 0.592952 0.250000 0.204218
O O13 0.692501 0.449440 0.220004
O O14 0.576502 0.528619 0.167159
O O15 0.785256 0.250000 0.258988
O O16 0.821884 0.486605 0.182705
O O17 0.870734 0.250000 0.126168
O O18 0.857754 0.483285 0.047321
O O19 0.124950 0.750000 0.033726
O O20 0.009197 0.750000 0.388228
#
# Coordination Sequence:
#
# PCOD8253206 Si02
#       8
#     8   8   8   8   8   8   8   8
#     4  10  22  40  61  85 116 154 196 240 294 356
#     4  10  20  37  59  86 115 149 200 245 287 345
#     4  11  23  37  58  86 119 154 195 245 295 351
#     4  10  21  35  57  86 117 158 200 241 292 352
#     4  10  21  39  60  82 115 158 202 240 289 356
#     4   9  20  37  60  86 113 150 195 243 291 349
#     4  10  21  38  59  84 115 154 194 239 301 350
#     4  10  22  39  60  88 118 151 194 246 297 349
#
# _framework density 19.440097000000002
#
# number of rings (size 3 to 8) (size 9 to 14) (size 15 to 20)
#    0.000    2.000    1.250    1.500    3.500    3.000 
#    0.000    1.250    0.000    0.000    0.000    0.000 
#    0.000    0.000    0.000    0.000    0.000    0.000 
#
# Total GULP energy -793847.720060 kJ/mol
# GULP energy per Si atom -12403.870626 kJ/mol
# Density = 1.939585 g / cm^3
# Si number density = 19.440097 Si / 1000 Ang^3
#
#
#
# Elastic Constant Matrix: (Units=GPa)
#
#
# Indices 1 2 3 4 5 6 
#
# 1 127.0195 32.6833 64.4020 0.0000 0.0000 0.0000
# 2 32.6833 49.2178 34.3463 0.0000 0.0000 0.0000
# 3 64.4020 34.3463 106.5275 0.0000 0.0000 0.0000
# 4 0.0000 0.0000 0.0000 30.8864 0.0000 0.0000
# 5 0.0000 0.0000 0.0000 0.0000 41.2329 0.0000
# 6 0.0000 0.0000 0.0000 0.0000 0.0000 25.2888
#
#
#
# Elastic Compliance Matrix: (Units=1/GPa)
#
#
# Indices 1 2 3 4 5 6 
#
# 1 0.011854 -0.003704 -0.005972 0.000000 0.000000 0.000000
# 2 -0.003704 0.027374 -0.006587 0.000000 0.000000 0.000000
# 3 -0.005972 -0.006587 0.015121 0.000000 0.000000 0.000000
# 4 0.000000 0.000000 0.000000 0.032377 0.000000 0.000000
# 5 0.000000 0.000000 0.000000 0.000000 0.024252 0.000000
# 6 0.000000 0.000000 0.000000 0.000000 0.000000 0.039543
#
#
# Mechanical properties :
#
#
# Convention : Reuss Voigt Hill
#
# Bulk Modulus (GPa) = 45.82151 60.62533 53.22342
# Shear Modulus (GPa) = 26.27134 29.57050 27.92092
#
# Velocity S-wave (km/s) = 3.68013 3.90437 3.79391
# Velocity P-wave (km/s) = 6.45597 7.18184 6.82856
#
# Compressibility (1/GPa) = 0.02182381
#
# Stress axis : x y z
#
# Youngs Moduli (GPa) = 84.36040 36.53113 66.13172
#
# Poissons Ratio (x) = 0.13531 0.39495
# Poissons Ratio (y) = 0.31247 0.43558
# Poissons Ratio (z) = 0.50381 0.24061
#
# Static dielectric constant tensor:
#      x y z
#    x 3.728900 0.000000 0.000000 
#    y 0.000000 3.376350 0.000000 
#    z 0.000000 0.000000 3.608670 
# 
# 
# High freq. dielectric constant tensor:
#      x y z
#    x 1.769410 0.000000 0.000000 
#    y 0.000000 1.740990 0.000000 
#    z 0.000000 0.000000 1.763320 
# 
# From -- ./inp_files/24778.got.cif
#   From: 2010.03.12/outbox.cif.g09.slc.cpg/sg62_13_cif.got.tgz:24778.got - 2010.04.10 19:12:36.
