data_PCOD8253317
_publ_section_title
;
Structure prediction by ZEFSAII (Michael W. Deem and Ramdas Pophale) SiO2 
 PCOD8253317
Probable space group: P N M A
;
_chemical_formula_sum "Si O2"
_cell_formula_units_Z 64
_cell_length_a 14.370760
_cell_length_b 8.652757
_cell_length_c 24.749964
_cell_angle_alpha 90.000000
_cell_angle_beta 90.000000
_cell_angle_gamma 90.000000
_cell_volume 3077.576205
_symmetry_space_group_name_H-M "P N M A"
_symmetry_group_IT_number 62
_symmetry_cell_setting 'orthorhombic'
loop_
_space_group_symop_operation_xyz
x,y,z
1/2-x,-y,1/2+z
1/2+x,1/2-y,1/2-z
-x,1/2+y,-z
-x,-y,-z
1/2+x,y,1/2-z
1/2-x,1/2+y,1/2+z
x,1/2-y,z
loop_
_atom_site_type_symbol
_atom_site_label
_atom_site_fract_x
_atom_site_fract_y
_atom_site_fract_z
Si Si1 0.148683 0.069040 0.602899
Si Si2 0.271021 0.931439 0.520398
Si Si3 0.477637 0.931386 0.941600
Si Si4 0.954096 0.067296 0.947009
Si Si5 0.985611 0.931623 0.837316
Si Si6 0.232286 0.431597 0.412515
Si Si7 0.219445 0.433340 0.193832
Si Si8 0.315880 0.068216 0.300846
O O1 0.150108 0.250000 0.612473
O O2 0.181166 0.023534 0.542146
O O3 0.216636 0.989339 0.645232
O O4 0.043780 0.004285 0.605105
O O5 0.255661 0.750000 0.525867
O O6 0.354266 0.986234 0.559006
O O7 0.291098 0.979966 0.458699
O O8 0.494090 0.750000 0.944417
O O9 0.375172 0.973641 0.920938
O O10 0.500000 0.000000 0.000000
O O11 0.945075 0.250000 0.952137
O O12 0.008857 0.020268 0.893026
O O13 0.000000 0.000000 0.000000
O O14 0.981547 0.750000 0.849661
O O15 0.888091 0.990113 0.811361
O O16 0.073441 0.971209 0.798529
O O17 0.252107 0.250000 0.418180
O O18 0.267575 0.496953 0.355141
O O19 0.222191 0.250000 0.194337
O O20 0.263384 0.503464 0.248941
O O21 0.300650 0.250000 0.300146
#
# Coordination Sequence:
#
# PCOD8253317 Si02
#       8
#     8   8   8   8   8   8   8   8
#     4  12  24  39  60  87 121 162 209 260 313 368
#     4  12  23  37  60  89 123 161 205 254 312 376
#     4  11  22  36  59  89 125 166 210 258 315 379
#     4  12  24  38  59  89 126 163 206 255 315 376
#     4  10  20  37  63  91 123 162 207 255 309 367
#     4  10  21  38  61  90 126 165 207 258 317 375
#     4  10  21  39  64  91 121 160 210 259 306 368
#     4   9  20  39  63  92 123 160 208 258 306 368
#
# _framework density 20.795586
#
# number of rings (size 3 to 8) (size 9 to 14) (size 15 to 20)
#    0.000    1.250    2.500    4.500    0.000    2.500 
#    0.000    5.000    0.000    1.500    0.000    0.000 
#    0.000    0.000    0.000    0.000    0.000    0.000 
#
# Total GULP energy -793608.869020 kJ/mol
# GULP energy per Si atom -12400.138578 kJ/mol
# Density = 2.074825 g / cm^3
# Si number density = 20.795586 Si / 1000 Ang^3
#
#
#
# Elastic Constant Matrix: (Units=GPa)
#
#
# Indices 1 2 3 4 5 6 
#
# 1 115.7366 19.6513 53.6615 0.0000 0.0000 0.0000
# 2 19.6513 31.7883 10.3552 0.0000 0.0000 0.0000
# 3 53.6615 10.3552 117.8852 0.0000 0.0000 0.0000
# 4 0.0000 0.0000 0.0000 25.6026 0.0000 0.0000
# 5 0.0000 0.0000 0.0000 0.0000 36.1978 0.0000
# 6 0.0000 0.0000 0.0000 0.0000 0.0000 21.2151
#
#
#
# Elastic Compliance Matrix: (Units=1/GPa)
#
#
# Indices 1 2 3 4 5 6 
#
# 1 0.011893 -0.005753 -0.004908 0.000000 0.000000 0.000000
# 2 -0.005753 0.035168 -0.000470 0.000000 0.000000 0.000000
# 3 -0.004908 -0.000470 0.010758 0.000000 0.000000 0.000000
# 4 0.000000 0.000000 0.000000 0.039059 0.000000 0.000000
# 5 0.000000 0.000000 0.000000 0.000000 0.027626 0.000000
# 6 0.000000 0.000000 0.000000 0.000000 0.000000 0.047136
#
#
# Mechanical properties :
#
#
# Convention : Reuss Voigt Hill
#
# Bulk Modulus (GPa) = 28.12502 48.08292 38.10397
# Shear Modulus (GPa) = 24.30071 28.71925 26.50998
#
# Velocity S-wave (km/s) = 3.42212 3.72025 3.57429
# Velocity P-wave (km/s) = 5.40078 6.45179 5.94953
#
# Compressibility (1/GPa) = 0.03555552
#
# Stress axis : x y z
#
# Youngs Moduli (GPa) = 84.08376 28.43505 92.95055
#
# Poissons Ratio (x) = 0.16359 0.45623
# Poissons Ratio (y) = 0.48375 0.04372
# Poissons Ratio (z) = 0.41271 0.01337
#
# Static dielectric constant tensor:
#      x y z
#    x 4.143270 0.000000 0.000000 
#    y 0.000000 3.516310 0.000000 
#    z 0.000000 0.000000 3.879260 
# 
# 
# High freq. dielectric constant tensor:
#      x y z
#    x 1.832840 0.000000 0.000000 
#    y 0.000000 1.793360 0.000000 
#    z 0.000000 0.000000 1.807450 
# 
# From -- ./inp_files/29929.got.cif
#   From: 2010.03.12/outbox.cif.g09.slc.cpg/sg62_15_cif.got.tgz:29929.got - 2010.04.10 19:12:36.
