data_PCOD8253116
_publ_section_title
;
Structure prediction by ZEFSAII (Michael W. Deem and Ramdas Pophale) SiO2 
 PCOD8253116
Probable space group: P N M A
;
_chemical_formula_sum "Si O2"
_cell_formula_units_Z 48
_cell_length_a 16.468956
_cell_length_b 8.540786
_cell_length_c 17.722110
_cell_angle_alpha 90.000000
_cell_angle_beta 90.000000
_cell_angle_gamma 90.000000
_cell_volume 2492.753515
_symmetry_space_group_name_H-M "P N M A"
_symmetry_group_IT_number 62
_symmetry_cell_setting 'orthorhombic'
loop_
_space_group_symop_operation_xyz
x,y,z
1/2-x,-y,1/2+z
1/2+x,1/2-y,1/2-z
-x,1/2+y,-z
-x,-y,-z
1/2+x,y,1/2-z
1/2-x,1/2+y,1/2+z
x,1/2-y,z
loop_
_atom_site_type_symbol
_atom_site_label
_atom_site_fract_x
_atom_site_fract_y
_atom_site_fract_z
Si Si1 0.911552 0.933392 0.013606
Si Si2 0.676903 0.431583 0.665459
Si Si3 0.171448 0.431310 0.403881
Si Si4 0.742202 0.566733 0.440853
Si Si5 0.358815 0.067449 0.177656
Si Si6 0.503912 0.566951 0.083288
O O1 0.911013 0.750000 0.998638
O O2 0.885701 0.975598 0.098920
O O3 0.849868 0.012136 0.954322
O O4 0.000000 0.000000 0.000000
O O5 0.699763 0.250000 0.661759
O O6 0.759334 0.530816 0.656899
O O7 0.636137 0.473740 0.744298
O O8 0.147686 0.250000 0.399360
O O9 0.202799 0.477226 0.487105
O O10 0.093322 0.535530 0.383605
O O11 0.743378 0.750000 0.424519
O O12 0.778256 0.478546 0.368584
O O13 0.356889 0.250000 0.195229
O O14 0.439237 0.024419 0.132736
O O15 0.482932 0.750000 0.083580
O O16 0.500000 0.500000 0.000000
#
# Coordination Sequence:
#
# PCOD8253116 Si02
#       6
#     8   8   8   8   8   8
#     4  10  21  39  64  90 118 154 202 249 297 353
#     4  10  22  41  62  86 120 158 197 246 303 357
#     4  10  20  37  61  88 117 154 197 239 292 355
#     4  10  20  36  61  87 117 154 195 240 294 355
#     4  12  24  39  60  88 123 158 199 249 302 358
#     4  12  23  37  60  90 123 159 200 246 298 357
#
# _framework density 19.255814000000001
#
# number of rings (size 3 to 8) (size 9 to 14) (size 15 to 20)
#    0.000    1.333    1.667    5.000    0.000    3.333 
#    3.000    0.000    0.000    0.000    0.000    0.000 
#    0.000    0.000    0.000    0.000    0.000    0.000 
#
# Total GULP energy -595499.973566 kJ/mol
# GULP energy per Si atom -12406.249449 kJ/mol
# Density = 1.921199 g / cm^3
# Si number density = 19.255814 Si / 1000 Ang^3
#
#
#
# Elastic Constant Matrix: (Units=GPa)
#
#
# Indices 1 2 3 4 5 6 
#
# 1 130.3273 24.0229 40.0260 0.0000 0.0000 0.0000
# 2 24.0229 68.0560 15.7474 0.0000 0.0000 0.0000
# 3 40.0260 15.7474 92.7704 0.0000 0.0000 0.0000
# 4 0.0000 0.0000 0.0000 32.0797 0.0000 0.0000
# 5 0.0000 0.0000 0.0000 0.0000 24.6771 0.0000
# 6 0.0000 0.0000 0.0000 0.0000 0.0000 38.7208
#
#
#
# Elastic Compliance Matrix: (Units=1/GPa)
#
#
# Indices 1 2 3 4 5 6 
#
# 1 0.009215 -0.002428 -0.003564 0.000000 0.000000 0.000000
# 2 -0.002428 0.015934 -0.001657 0.000000 0.000000 0.000000
# 3 -0.003564 -0.001657 0.012598 0.000000 0.000000 0.000000
# 4 0.000000 0.000000 0.000000 0.031172 0.000000 0.000000
# 5 0.000000 0.000000 0.000000 0.000000 0.040523 0.000000
# 6 0.000000 0.000000 0.000000 0.000000 0.000000 0.025826
#
#
# Mechanical properties :
#
#
# Convention : Reuss Voigt Hill
#
# Bulk Modulus (GPa) = 44.54439 50.08292 47.31366
# Shear Modulus (GPa) = 31.63548 33.18602 32.41075
#
# Velocity S-wave (km/s) = 4.05767 4.15592 4.10709
# Velocity P-wave (km/s) = 6.71834 7.00676 6.86407
#
# Compressibility (1/GPa) = 0.02244951
#
# Stress axis : x y z
#
# Youngs Moduli (GPa) = 108.51820 62.75756 79.37671
#
# Poissons Ratio (x) = 0.15239 0.28287
# Poissons Ratio (y) = 0.26350 0.13154
# Poissons Ratio (z) = 0.38672 0.10400
#
# Static dielectric constant tensor:
#      x y z
#    x 3.697410 0.000000 0.000000 
#    y 0.000000 3.666260 0.000000 
#    z 0.000000 0.000000 3.420880 
# 
# 
# High freq. dielectric constant tensor:
#      x y z
#    x 1.755920 0.000000 0.000000 
#    y 0.000000 1.765910 0.000000 
#    z 0.000000 0.000000 1.735580 
# 
# From -- ./inp_files/23670.got.cif
#   From: 2010.03.12/outbox.cif.g09.slc.cpg/sg62_12_cif.got.tgz:23670.got - 2010.04.10 19:12:36.
