data_PCOD8253929
_publ_section_title
;
Structure prediction by ZEFSAII (Michael W. Deem and Ramdas Pophale) SiO2 
 PCOD8253929
Probable space group: P N M A
;
_chemical_formula_sum "Si O2"
_cell_formula_units_Z 48
_cell_length_a 9.320622
_cell_length_b 8.474421
_cell_length_c 30.353394
_cell_angle_alpha 90.000000
_cell_angle_beta 90.000000
_cell_angle_gamma 90.000000
_cell_volume 2397.519732
_symmetry_space_group_name_H-M "P N M A"
_symmetry_group_IT_number 62
_symmetry_cell_setting 'orthorhombic'
loop_
_space_group_symop_operation_xyz
x,y,z
1/2-x,-y,1/2+z
1/2+x,1/2-y,1/2-z
-x,1/2+y,-z
-x,-y,-z
1/2+x,y,1/2-z
1/2-x,1/2+y,1/2+z
x,1/2-y,z
loop_
_atom_site_type_symbol
_atom_site_label
_atom_site_fract_x
_atom_site_fract_y
_atom_site_fract_z
Si Si1 0.417389 0.066414 0.215276
Si Si2 0.905449 0.437881 0.636793
Si Si3 0.905401 0.434964 0.134497
Si Si4 0.416357 0.929468 0.459477
Si Si5 0.586735 0.926441 0.039202
Si Si6 0.104113 0.934294 0.207942
O O1 0.440202 0.250000 0.225767
O O2 0.482043 0.024790 0.167796
O O3 0.249880 0.028456 0.216365
O O4 0.496749 0.962834 0.251775
O O5 0.921714 0.250000 0.640457
O O6 0.742011 0.480858 0.649212
O O7 0.938598 0.503201 0.587441
O O8 0.889471 0.250000 0.142942
O O9 0.945441 0.467661 0.083872
O O10 0.034340 0.504278 0.163070
O O11 0.463974 0.750000 0.449869
O O12 0.251920 0.937293 0.473549
O O13 0.500000 0.000000 0.500000
O O14 0.531678 0.750000 0.043244
O O15 0.500000 0.000000 0.000000
O O16 0.138637 0.750000 0.203929
#
# Coordination Sequence:
#
# PCOD8253929 Si02
#       6
#     8   8   8   8   8   8
#     4  12  25  42  63  91 121 153 195 245 293 347
#     4  10  21  40  61  86 119 158 198 241 294 355
#     4  11  22  39  62  89 118 154 198 248 298 350
#     4  10  21  38  58  85 118 156 198 244 296 355
#     4   9  20  36  57  83 115 151 193 238 286 342
#     4  12  25  43  64  88 119 158 196 238 293 355
#
# _framework density 20.020690999999999
#
# number of rings (size 3 to 8) (size 9 to 14) (size 15 to 20)
#    0.000    1.333    0.000    7.500    0.000    5.333 
#    0.000    3.333    0.000    0.000    0.000    0.000 
#    0.000    0.000    0.000    0.000    0.000    0.000 
#
# Total GULP energy -595366.149899 kJ/mol
# GULP energy per Si atom -12403.461456 kJ/mol
# Density = 1.997512 g / cm^3
# Si number density = 20.020691 Si / 1000 Ang^3
#
#
#
# Elastic Constant Matrix: (Units=GPa)
#
#
# Indices 1 2 3 4 5 6 
#
# 1 89.9931 15.6972 50.6484 0.0000 0.0000 0.0000
# 2 15.6972 85.5820 23.4868 0.0000 0.0000 0.0000
# 3 50.6484 23.4868 102.5322 0.0000 0.0000 0.0000
# 4 0.0000 0.0000 0.0000 38.4468 0.0000 0.0000
# 5 0.0000 0.0000 0.0000 0.0000 44.7189 0.0000
# 6 0.0000 0.0000 0.0000 0.0000 0.0000 37.4738
#
#
#
# Elastic Compliance Matrix: (Units=1/GPa)
#
#
# Indices 1 2 3 4 5 6 
#
# 1 0.015440 -0.000788 -0.007447 0.000000 0.000000 0.000000
# 2 -0.000788 0.012509 -0.002476 0.000000 0.000000 0.000000
# 3 -0.007447 -0.002476 0.013999 0.000000 0.000000 0.000000
# 4 0.000000 0.000000 0.000000 0.026010 0.000000 0.000000
# 5 0.000000 0.000000 0.000000 0.000000 0.022362 0.000000
# 6 0.000000 0.000000 0.000000 0.000000 0.000000 0.026685
#
#
# Mechanical properties :
#
#
# Convention : Reuss Voigt Hill
#
# Bulk Modulus (GPa) = 48.71865 50.86355 49.79110
# Shear Modulus (GPa) = 34.41893 36.67956 35.54924
#
# Velocity S-wave (km/s) = 4.15078 4.28493 4.21839
# Velocity P-wave (km/s) = 6.88179 7.06693 6.97497
#
# Compressibility (1/GPa) = 0.02052602
#
# Stress axis : x y z
#
# Youngs Moduli (GPa) = 64.76493 79.94379 71.43556
#
# Poissons Ratio (x) = 0.06303 0.53195
# Poissons Ratio (y) = 0.05106 0.17687
# Poissons Ratio (z) = 0.48228 0.19793
#
# Static dielectric constant tensor:
#      x y z
#    x 3.603250 0.000000 0.000000 
#    y 0.000000 3.834060 0.000000 
#    z 0.000000 0.000000 3.903410 
# 
# 
# High freq. dielectric constant tensor:
#      x y z
#    x 1.780110 0.000000 0.000000 
#    y 0.000000 1.792230 0.000000 
#    z 0.000000 0.000000 1.795960 
# 
# From -- ./inp_files/32033.got.cif
#   From: 2010.03.12/outbox.cif.g09.slc.cpg/sg62_17_cif.got.tgz:32033.got - 2010.04.10 19:12:36.
