data_PCOD8253444
_publ_section_title
;
Structure prediction by ZEFSAII (Michael W. Deem and Ramdas Pophale) SiO2 
 PCOD8253444
Probable space group: P N M A
;
_chemical_formula_sum "Si O2"
_cell_formula_units_Z 64
_cell_length_a 28.118039
_cell_length_b 12.560650
_cell_length_c 9.142898
_cell_angle_alpha 90.000000
_cell_angle_beta 90.000000
_cell_angle_gamma 90.000000
_cell_volume 3229.096456
_symmetry_space_group_name_H-M "P N M A"
_symmetry_group_IT_number 62
_symmetry_cell_setting 'orthorhombic'
loop_
_space_group_symop_operation_xyz
x,y,z
1/2-x,-y,1/2+z
1/2+x,1/2-y,1/2-z
-x,1/2+y,-z
-x,-y,-z
1/2+x,y,1/2-z
1/2-x,1/2+y,1/2+z
x,1/2-y,z
loop_
_atom_site_type_symbol
_atom_site_label
_atom_site_fract_x
_atom_site_fract_y
_atom_site_fract_z
Si Si1 0.204856 0.512933 0.911116
Si Si2 0.508106 0.372300 0.174570
Si Si3 0.366179 0.130791 0.942340
Si Si4 0.935809 0.527764 0.424598
Si Si5 0.948056 0.965673 0.946991
Si Si6 0.380969 0.870434 0.320108
Si Si7 0.365913 0.129218 0.612883
Si Si8 0.271854 0.374753 0.118988
O O1 0.178390 0.597942 0.012516
O O2 0.239358 0.440609 0.007895
O O3 0.165936 0.437989 0.840154
O O4 0.232529 0.576045 0.782242
O O5 0.491612 0.250000 0.184277
O O6 0.463024 0.451658 0.192708
O O7 0.546739 0.397104 0.299075
O O8 0.529132 0.395644 0.013981
O O9 0.386954 0.250000 0.958691
O O10 0.347069 0.113275 0.778142
O O11 0.325481 0.112885 0.062113
O O12 0.408539 0.048478 0.963686
O O13 0.900198 0.604619 0.340724
O O14 0.914543 0.066636 0.918175
O O15 0.922562 0.890049 0.063245
O O16 0.000000 0.000000 0.000000
O O17 0.364463 0.750000 0.328832
O O18 0.379386 0.250000 0.578381
O O19 0.256530 0.250000 0.121932
#
# Coordination Sequence:
#
# PCOD8253444 Si02
#       8
#     8   8   8   8   8   8   8   8
#     4  11  23  42  66  92 131 157 205 254 306 373
#     4  11  23  38  60  86 121 162 206 252 300 354
#     4  10  20  38  64  90 120 158 199 252 307 359
#     4  11  21  40  59  88 122 157 209 247 301 361
#     4  11  22  40  56  87 121 161 207 255 297 357
#     4  11  23  40  62  87 122 164 201 250 310 365
#     4  10  22  40  64  88 120 162 207 253 305 359
#     4  11  23  41  68  97 125 161 202 251 313 373
#
# _framework density 19.819785
#
# number of rings (size 3 to 8) (size 9 to 14) (size 15 to 20)
#    0.000    1.250    3.750    2.625    0.000    1.000 
#    0.000    1.875    0.000    0.000    0.000    0.000 
#    0.000    0.000    0.000    0.000    0.000    0.000 
#
# Total GULP energy -793709.973691 kJ/mol
# GULP energy per Si atom -12401.718339 kJ/mol
# Density = 1.977467 g / cm^3
# Si number density = 19.819785 Si / 1000 Ang^3
#
#
#
# Elastic Constant Matrix: (Units=GPa)
#
#
# Indices 1 2 3 4 5 6 
#
# 1 55.3648 21.0046 17.5819 0.0000 0.0000 0.0000
# 2 21.0046 105.0167 41.3106 0.0000 0.0000 0.0000
# 3 17.5819 41.3106 95.6478 0.0000 0.0000 0.0000
# 4 0.0000 0.0000 0.0000 30.2015 0.0000 0.0000
# 5 0.0000 0.0000 0.0000 0.0000 35.3294 0.0000
# 6 0.0000 0.0000 0.0000 0.0000 0.0000 19.3455
#
#
#
# Elastic Compliance Matrix: (Units=1/GPa)
#
#
# Indices 1 2 3 4 5 6 
#
# 1 0.019972 -0.003073 -0.002344 0.000000 0.000000 0.000000
# 2 -0.003073 0.011944 -0.004594 0.000000 0.000000 0.000000
# 3 -0.002344 -0.004594 0.012870 0.000000 0.000000 0.000000
# 4 0.000000 0.000000 0.000000 0.033111 0.000000 0.000000
# 5 0.000000 0.000000 0.000000 0.000000 0.028305 0.000000
# 6 0.000000 0.000000 0.000000 0.000000 0.000000 0.051692
#
#
# Mechanical properties :
#
#
# Convention : Reuss Voigt Hill
#
# Bulk Modulus (GPa) = 40.37969 46.20261 43.29115
# Shear Modulus (GPa) = 26.85721 28.71743 27.78732
#
# Velocity S-wave (km/s) = 3.68512 3.81061 3.74839
# Velocity P-wave (km/s) = 6.20681 6.53628 6.37367
#
# Compressibility (1/GPa) = 0.02476492
#
# Stress axis : x y z
#
# Youngs Moduli (GPa) = 50.06981 83.72465 77.69990
#
# Poissons Ratio (x) = 0.25724 0.18215
# Poissons Ratio (y) = 0.15384 0.35694
# Poissons Ratio (z) = 0.11738 0.38462
#
# Static dielectric constant tensor:
#      x y z
#    x 3.501090 0.000000 0.000000 
#    y 0.000000 3.683550 0.000000 
#    z 0.000000 0.000000 3.723810 
# 
# 
# High freq. dielectric constant tensor:
#      x y z
#    x 1.763880 0.000000 0.000000 
#    y 0.000000 1.778500 0.000000 
#    z 0.000000 0.000000 1.786770 
# 
# From -- ./inp_files/10473.got.cif
#   From: 2010.03.12/outbox.cif.g09.slc.cpg/sg62_6_cif.got.tgz:10473.got - 2010.04.10 19:12:36.
