data_PCOD8253916
_publ_section_title
;
Structure prediction by ZEFSAII (Michael W. Deem and Ramdas Pophale) SiO2 
 PCOD8253916
Probable space group: P N M A
;
_chemical_formula_sum "Si O2"
_cell_formula_units_Z 48
_cell_length_a 21.624232
_cell_length_b 9.258535
_cell_length_c 12.407182
_cell_angle_alpha 90.000000
_cell_angle_beta 90.000000
_cell_angle_gamma 90.000000
_cell_volume 2484.025888
_symmetry_space_group_name_H-M "P N M A"
_symmetry_group_IT_number 62
_symmetry_cell_setting 'orthorhombic'
loop_
_space_group_symop_operation_xyz
x,y,z
1/2-x,-y,1/2+z
1/2+x,1/2-y,1/2-z
-x,1/2+y,-z
-x,-y,-z
1/2+x,y,1/2-z
1/2-x,1/2+y,1/2+z
x,1/2-y,z
loop_
_atom_site_type_symbol
_atom_site_label
_atom_site_fract_x
_atom_site_fract_y
_atom_site_fract_z
Si Si1 0.323146 0.077764 0.134638
Si Si2 0.700772 0.920104 0.417911
Si Si3 0.997740 0.415687 0.110167
Si Si4 0.904685 0.416100 0.755953
Si Si5 0.435669 0.082870 0.986646
Si Si6 0.142560 0.584902 0.863793
O O1 0.316054 0.250000 0.127505
O O2 0.324800 0.018966 0.257878
O O3 0.265004 0.003383 0.079626
O O4 0.386020 0.029095 0.074588
O O5 0.713517 0.750000 0.424739
O O6 0.660857 0.956875 0.310978
O O7 0.664009 0.983148 0.522529
O O8 0.015666 0.250000 0.088910
O O9 0.042687 0.482065 0.197791
O O10 0.929740 0.431921 0.157796
O O11 0.000000 0.500000 0.000000
O O12 0.920944 0.250000 0.784065
O O13 0.902733 0.443649 0.628571
O O14 0.451707 0.250000 0.003073
O O15 0.500000 0.000000 0.000000
O O16 0.161932 0.750000 0.871075
#
# Coordination Sequence:
#
# PCOD8253916 Si02
#       6
#     8   8   8   8   8   8
#     4  10  22  39  59  84 112 149 195 240 284 342
#     4  10  21  38  57  81 115 154 189 234 292 344
#     4  11  20  35  59  87 117 152 190 236 290 345
#     4  10  21  38  58  83 119 155 191 240 295 348
#     4  10  22  40  62  87 119 154 194 246 298 352
#     4   9  19  37  58  79 112 149 183 229 285 340
#
# _framework density 19.32347
#
# number of rings (size 3 to 8) (size 9 to 14) (size 15 to 20)
#    0.000    2.000    1.667    1.500    2.333    3.333 
#    0.000    1.667    0.000    0.000    0.000    0.000 
#    0.000    0.000    0.000    0.000    0.000    0.000 
#
# Total GULP energy -595120.586781 kJ/mol
# GULP energy per Si atom -12398.345558 kJ/mol
# Density = 1.927949 g / cm^3
# Si number density = 19.323470 Si / 1000 Ang^3
#
#
#
# Elastic Constant Matrix: (Units=GPa)
#
#
# Indices 1 2 3 4 5 6 
#
# 1 123.0554 43.7952 61.5593 0.0000 0.0000 0.0000
# 2 43.7952 57.5706 35.3687 0.0000 0.0000 0.0000
# 3 61.5593 35.3687 121.4710 0.0000 0.0000 0.0000
# 4 0.0000 0.0000 0.0000 21.1935 0.0000 0.0000
# 5 0.0000 0.0000 0.0000 0.0000 29.8834 0.0000
# 6 0.0000 0.0000 0.0000 0.0000 0.0000 38.0426
#
#
#
# Elastic Compliance Matrix: (Units=1/GPa)
#
#
# Indices 1 2 3 4 5 6 
#
# 1 0.012870 -0.007043 -0.004471 0.000000 0.000000 0.000000
# 2 -0.007043 0.025009 -0.003712 0.000000 0.000000 0.000000
# 3 -0.004471 -0.003712 0.011579 0.000000 0.000000 0.000000
# 4 0.000000 0.000000 0.000000 0.047184 0.000000 0.000000
# 5 0.000000 0.000000 0.000000 0.000000 0.033463 0.000000
# 6 0.000000 0.000000 0.000000 0.000000 0.000000 0.026286
#
#
# Mechanical properties :
#
#
# Convention : Reuss Voigt Hill
#
# Bulk Modulus (GPa) = 52.62123 64.83817 58.72970
# Shear Modulus (GPa) = 25.88243 28.58216 27.23230
#
# Velocity S-wave (km/s) = 3.66379 3.85013 3.75812
# Velocity P-wave (km/s) = 6.72226 7.30696 7.02070
#
# Compressibility (1/GPa) = 0.01900374
#
# Stress axis : x y z
#
# Youngs Moduli (GPa) = 77.69968 39.98593 86.36042
#
# Poissons Ratio (x) = 0.28164 0.38616
# Poissons Ratio (y) = 0.54728 0.32060
# Poissons Ratio (z) = 0.34743 0.14844
#
# Static dielectric constant tensor:
#      x y z
#    x 2.993300 0.000000 0.000000 
#    y 0.000000 3.225900 0.000000 
#    z 0.000000 0.000000 4.052520 
# 
# 
# High freq. dielectric constant tensor:
#      x y z
#    x 1.753770 0.000000 0.000000 
#    y 0.000000 1.729380 0.000000 
#    z 0.000000 0.000000 1.770010 
# 
# From -- ./inp_files/15132.got.cif
#   From: 2010.03.12/outbox.cif.g09.slc.cpg/sg62_8_cif.got.tgz:15132.got - 2010.04.10 19:12:36.
