data_PCOD8253250
_publ_section_title
;
Structure prediction by ZEFSAII (Michael W. Deem and Ramdas Pophale) SiO2 
 PCOD8253250
Probable space group: P N M A
;
_chemical_formula_sum "Si O2"
_cell_formula_units_Z 64
_cell_length_a 14.397422
_cell_length_b 9.077217
_cell_length_c 24.816335
_cell_angle_alpha 90.000000
_cell_angle_beta 90.000000
_cell_angle_gamma 90.000000
_cell_volume 3243.210186
_symmetry_space_group_name_H-M "P N M A"
_symmetry_group_IT_number 62
_symmetry_cell_setting 'orthorhombic'
loop_
_space_group_symop_operation_xyz
x,y,z
1/2-x,-y,1/2+z
1/2+x,1/2-y,1/2-z
-x,1/2+y,-z
-x,-y,-z
1/2+x,y,1/2-z
1/2-x,1/2+y,1/2+z
x,1/2-y,z
loop_
_atom_site_type_symbol
_atom_site_label
_atom_site_fract_x
_atom_site_fract_y
_atom_site_fract_z
Si Si1 0.776038 0.082021 0.313716
Si Si2 0.899467 0.074408 0.501479
Si Si3 0.407606 0.579598 0.362233
Si Si4 0.642592 0.423482 0.217627
Si Si5 0.451358 0.077090 0.549344
Si Si6 0.743284 0.076387 0.923455
Si Si7 0.203393 0.579567 0.389570
Si Si8 0.946897 0.081998 0.244598
O O1 0.750740 0.250000 0.330579
O O2 0.719233 0.031883 0.261181
O O3 0.883598 0.068654 0.297706
O O4 0.754001 0.969821 0.361267
O O5 0.909332 0.250000 0.495654
O O6 0.848090 0.027355 0.556357
O O7 0.837917 0.013760 0.452432
O O8 0.000000 0.000000 0.500000
O O9 0.417846 0.750000 0.348872
O O10 0.495975 0.523204 0.396521
O O11 0.313280 0.547349 0.395692
O O12 0.401055 0.499011 0.305572
O O13 0.637734 0.250000 0.208675
O O14 0.662014 0.492386 0.160153
O O15 0.545634 0.487155 0.239855
O O16 0.465630 0.250000 0.542382
O O17 0.343111 0.034466 0.551390
O O18 0.500000 0.000000 0.500000
O O19 0.723531 0.250000 0.927942
O O20 0.184173 0.750000 0.378816
O O21 0.957974 0.250000 0.226291
#
# Coordination Sequence:
#
# PCOD8253250 Si02
#       8
#     8   8   8   8   8   8   8   8
#     4  10  21  38  58  86 123 160 199 245 302 361
#     4  11  25  45  66  90 122 163 210 260 311 368
#     4  10  20  37  60  88 121 155 192 244 303 361
#     4  10  21  37  59  87 120 157 198 247 300 357
#     4  10  22  39  61  90 122 157 201 249 305 369
#     4  11  24  41  62  91 124 161 207 256 308 371
#     4  10  22  39  61  88 118 154 199 248 305 365
#     4  10  21  36  56  85 116 152 198 242 295 360
#
# _framework density 19.733535
#
# number of rings (size 3 to 8) (size 9 to 14) (size 15 to 20)
#    0.000    1.750    1.250    2.250    1.750    5.000 
#    0.000    0.000    0.000    0.000    0.000    0.000 
#    0.000    0.000    0.000    0.000    0.000    0.000 
#
# Total GULP energy -793786.740095 kJ/mol
# GULP energy per Si atom -12402.917814 kJ/mol
# Density = 1.968862 g / cm^3
# Si number density = 19.733535 Si / 1000 Ang^3
#
#
#
# Elastic Constant Matrix: (Units=GPa)
#
#
# Indices 1 2 3 4 5 6 
#
# 1 120.2075 41.0018 32.2902 0.0000 0.0000 0.0000
# 2 41.0018 59.0430 40.8407 0.0000 0.0000 0.0000
# 3 32.2902 40.8407 97.4190 0.0000 0.0000 0.0000
# 4 0.0000 0.0000 0.0000 40.4996 0.0000 0.0000
# 5 0.0000 0.0000 0.0000 0.0000 35.7120 0.0000
# 6 0.0000 0.0000 0.0000 0.0000 0.0000 27.8130
#
#
#
# Elastic Compliance Matrix: (Units=1/GPa)
#
#
# Indices 1 2 3 4 5 6 
#
# 1 0.010928 -0.007159 -0.000621 0.000000 0.000000 0.000000
# 2 -0.007159 0.028545 -0.009594 0.000000 0.000000 0.000000
# 3 -0.000621 -0.009594 0.014493 0.000000 0.000000 0.000000
# 4 0.000000 0.000000 0.000000 0.024692 0.000000 0.000000
# 5 0.000000 0.000000 0.000000 0.000000 0.028002 0.000000
# 6 0.000000 0.000000 0.000000 0.000000 0.000000 0.035954
#
#
# Mechanical properties :
#
#
# Convention : Reuss Voigt Hill
#
# Bulk Modulus (GPa) = 52.03574 56.10387 54.06981
# Shear Modulus (GPa) = 27.20857 31.64070 29.42464
#
# Velocity S-wave (km/s) = 3.71725 4.00859 3.86566
# Velocity P-wave (km/s) = 6.69704 7.06523 6.88360
#
# Compressibility (1/GPa) = 0.01921756
#
# Stress axis : x y z
#
# Youngs Moduli (GPa) = 91.51098 35.03299 69.00083
#
# Poissons Ratio (x) = 0.25081 0.04283
# Poissons Ratio (y) = 0.65515 0.66197
# Poissons Ratio (z) = 0.05680 0.33609
#
# Static dielectric constant tensor:
#      x y z
#    x 3.967870 0.000000 0.000000 
#    y 0.000000 4.362260 0.000000 
#    z 0.000000 0.000000 3.535680 
# 
# 
# High freq. dielectric constant tensor:
#      x y z
#    x 1.787510 0.000000 0.000000 
#    y 0.000000 1.761560 0.000000 
#    z 0.000000 0.000000 1.772400 
# 
# From -- ./inp_files/29882.got.cif
#   From: 2010.03.12/outbox.cif.g09.slc.cpg/sg62_15_cif.got.tgz:29882.got - 2010.04.10 19:12:36.
