data_PCOD8253698
_publ_section_title
;
Structure prediction by ZEFSAII (Michael W. Deem and Ramdas Pophale) SiO2 
 PCOD8253698
Probable space group: P N M A
;
_chemical_formula_sum "Si O2"
_cell_formula_units_Z 64
_cell_length_a 10.932617
_cell_length_b 9.212133
_cell_length_c 34.183234
_cell_angle_alpha 90.000000
_cell_angle_beta 90.000000
_cell_angle_gamma 90.000000
_cell_volume 3442.686538
_symmetry_space_group_name_H-M "P N M A"
_symmetry_group_IT_number 62
_symmetry_cell_setting 'orthorhombic'
loop_
_space_group_symop_operation_xyz
x,y,z
1/2-x,-y,1/2+z
1/2+x,1/2-y,1/2-z
-x,1/2+y,-z
-x,-y,-z
1/2+x,y,1/2-z
1/2-x,1/2+y,1/2+z
x,1/2-y,z
loop_
_atom_site_type_symbol
_atom_site_label
_atom_site_fract_x
_atom_site_fract_y
_atom_site_fract_z
Si Si1 0.251218 0.578457 0.418965
Si Si2 0.630675 0.414975 0.364043
Si Si3 0.329302 0.081922 0.714532
Si Si4 0.005257 0.915524 0.459977
Si Si5 0.881754 0.418770 0.013417
Si Si6 0.851435 0.083996 0.150445
Si Si7 0.253336 0.086208 0.566418
Si Si8 0.106203 0.418873 0.771669
O O1 0.277708 0.750000 0.418756
O O2 0.117774 0.536173 0.433616
O O3 0.345429 0.497065 0.446811
O O4 0.261821 0.513890 0.375579
O O5 0.674635 0.250000 0.360094
O O6 0.680468 0.497640 0.326152
O O7 0.485833 0.427161 0.367593
O O8 0.681038 0.477731 0.404419
O O9 0.328132 0.250000 0.703831
O O10 0.460295 0.046971 0.737033
O O11 0.204205 0.041795 0.737693
O O12 0.015712 0.750000 0.473048
O O13 0.890936 0.941810 0.431344
O O14 0.000000 0.000000 0.500000
O O15 0.906676 0.250000 0.022278
O O16 0.783576 0.441085 0.979120
O O17 0.000000 0.500000 0.000000
O O18 0.805425 0.250000 0.151751
O O19 0.848907 0.019628 0.193537
O O20 0.289577 0.250000 0.578557
O O21 0.119731 0.250000 0.782971
#
# Coordination Sequence:
#
# PCOD8253698 Si02
#       8
#     8   8   8   8   8   8   8   8
#     4  11  22  36  56  80 107 141 183 228 274 326
#     4  10  21  36  56  82 110 143 182 224 269 319
#     4   9  18  35  59  84 112 146 181 222 272 329
#     4  10  21  38  57  77 104 143 185 227 275 328
#     4  11  22  35  54  79 108 140 179 226 274 325
#     4  10  21  37  57  81 112 147 182 224 273 323
#     4  10  21  37  55  76 105 142 181 222 271 324
#     4   9  18  35  59  85 112 145 184 224 272 329
#
# _framework density 18.590132000000001
#
# number of rings (size 3 to 8) (size 9 to 14) (size 15 to 20)
#    0.000    2.000    1.250    2.250    0.000    6.000 
#    2.250    0.000    0.000    0.000    0.000    0.000 
#    0.000    0.000    0.000    0.000    0.000    0.000 
#
# Total GULP energy -793395.130333 kJ/mol
# GULP energy per Si atom -12396.798911 kJ/mol
# Density = 1.854782 g / cm^3
# Si number density = 18.590132 Si / 1000 Ang^3
#
#
#
# Elastic Constant Matrix: (Units=GPa)
#
#
# Indices 1 2 3 4 5 6 
#
# 1 45.5479 12.1446 5.4089 0.0000 0.0000 0.0000
# 2 12.1446 78.8727 33.1573 0.0000 0.0000 0.0000
# 3 5.4089 33.1573 62.7847 0.0000 0.0000 0.0000
# 4 0.0000 0.0000 0.0000 36.1661 0.0000 0.0000
# 5 0.0000 0.0000 0.0000 0.0000 23.6167 0.0000
# 6 0.0000 0.0000 0.0000 0.0000 0.0000 22.7026
#
#
#
# Elastic Compliance Matrix: (Units=1/GPa)
#
#
# Indices 1 2 3 4 5 6 
#
# 1 0.022896 -0.003466 -0.000142 0.000000 0.000000 0.000000
# 2 -0.003466 0.016821 -0.008585 0.000000 0.000000 0.000000
# 3 -0.000142 -0.008585 0.020474 0.000000 0.000000 0.000000
# 4 0.000000 0.000000 0.000000 0.027650 0.000000 0.000000
# 5 0.000000 0.000000 0.000000 0.000000 0.042343 0.000000
# 6 0.000000 0.000000 0.000000 0.000000 0.000000 0.044048
#
#
# Mechanical properties :
#
#
# Convention : Reuss Voigt Hill
#
# Bulk Modulus (GPa) = 27.92904 32.06965 29.99934
# Shear Modulus (GPa) = 23.74705 25.59670 24.67187
#
# Velocity S-wave (km/s) = 3.57795 3.71468 3.64696
# Velocity P-wave (km/s) = 5.66791 5.97385 5.82289
#
# Compressibility (1/GPa) = 0.03580503
#
# Stress axis : x y z
#
# Youngs Moduli (GPa) = 43.67604 59.44834 48.84352
#
# Poissons Ratio (x) = 0.20603 0.00695
# Poissons Ratio (y) = 0.15137 0.41932
# Poissons Ratio (z) = 0.00621 0.51036
#
# Static dielectric constant tensor:
#      x y z
#    x 3.744420 0.000000 0.000000 
#    y 0.000000 3.584680 0.000000 
#    z 0.000000 0.000000 3.363460 
# 
# 
# High freq. dielectric constant tensor:
#      x y z
#    x 1.724830 0.000000 0.000000 
#    y 0.000000 1.729170 0.000000 
#    z 0.000000 0.000000 1.712810 
# 
# From -- ./inp_files/32449.got.cif
#   From: 2010.03.12/outbox.cif.g09.slc.cpg/sg62_17_cif.got.tgz:32449.got - 2010.04.10 19:12:36.
