data_PCOD8253397
_publ_section_title
;
Structure prediction by ZEFSAII (Michael W. Deem and Ramdas Pophale) SiO2 
 PCOD8253397
Probable space group: P N M A
;
_chemical_formula_sum "Si O2"
_cell_formula_units_Z 64
_cell_length_a 14.685892
_cell_length_b 19.841993
_cell_length_c 11.380172
_cell_angle_alpha 90.000000
_cell_angle_beta 90.000000
_cell_angle_gamma 90.000000
_cell_volume 3316.152148
_symmetry_space_group_name_H-M "P N M A"
_symmetry_group_IT_number 62
_symmetry_cell_setting 'orthorhombic'
loop_
_space_group_symop_operation_xyz
x,y,z
1/2-x,-y,1/2+z
1/2+x,1/2-y,1/2-z
-x,1/2+y,-z
-x,-y,-z
1/2+x,y,1/2-z
1/2-x,1/2+y,1/2+z
x,1/2-y,z
loop_
_atom_site_type_symbol
_atom_site_label
_atom_site_fract_x
_atom_site_fract_y
_atom_site_fract_z
Si Si1 0.374629 0.051680 0.258182
Si Si2 0.320277 0.087030 0.508617
Si Si3 0.916014 0.564604 0.724867
Si Si4 0.343813 0.827020 0.958016
Si Si5 0.316580 0.902630 0.323214
Si Si6 0.217686 0.440142 0.075856
Si Si7 0.040068 0.325112 0.685926
Si Si8 0.119790 0.584911 0.250198
O O1 0.363212 0.091761 0.379516
O O2 0.475578 0.068550 0.213978
O O3 0.303385 0.078084 0.159838
O O4 0.362557 0.973025 0.285399
O O5 0.250330 0.149230 0.516928
O O6 0.399762 0.089738 0.608953
O O7 0.267636 0.016677 0.531736
O O8 0.869950 0.621392 0.645160
O O9 0.877356 0.573402 0.856555
O O10 0.884223 0.489038 0.689679
O O11 0.334548 0.750000 0.910676
O O12 0.420518 0.830813 0.056185
O O13 0.290900 0.894369 0.460372
O O14 0.388746 0.846484 0.286211
O O15 0.223278 0.889635 0.254949
O O16 0.010380 0.250000 0.717101
O O17 0.949458 0.369083 0.680595
#
# Coordination Sequence:
#
# PCOD8253397 Si02
#       8
#     8   8   8   8   8   8   8   8
#     4  11  20  36  62  94 124 151 200 258 309 365
#     4  10  20  38  62  87 121 160 203 243 306 372
#     4  11  22  37  63  92 122 159 205 261 308 356
#     4  11  23  43  63  85 126 170 207 252 310 380
#     4  11  21  38  60  89 125 158 197 252 317 363
#     4  10  21  36  60  95 123 153 201 257 312 365
#     4  11  25  41  60  89 122 164 209 251 315 381
#     4  11  22  37  64  93 119 160 209 261 306 361
#
# _framework density 19.299475000000001
#
# number of rings (size 3 to 8) (size 9 to 14) (size 15 to 20)
#    0.000    1.250    6.250    0.750    3.500    3.000 
#    0.000    1.250    0.000    0.000    0.000    0.000 
#    0.000    0.000    0.000    0.000    0.000    0.000 
#
# Total GULP energy -793323.740292 kJ/mol
# GULP energy per Si atom -12395.683442 kJ/mol
# Density = 1.925555 g / cm^3
# Si number density = 19.299475 Si / 1000 Ang^3
#
#
#
# Elastic Constant Matrix: (Units=GPa)
#
#
# Indices 1 2 3 4 5 6 
#
# 1 81.3324 33.4615 9.8934 0.0000 0.0000 0.0000
# 2 33.4615 112.4728 44.5424 0.0000 0.0000 0.0000
# 3 9.8934 44.5424 87.1610 0.0000 0.0000 0.0000
# 4 0.0000 0.0000 0.0000 22.6705 0.0000 0.0000
# 5 0.0000 0.0000 0.0000 0.0000 24.2430 0.0000
# 6 0.0000 0.0000 0.0000 0.0000 0.0000 18.8421
#
#
#
# Elastic Compliance Matrix: (Units=1/GPa)
#
#
# Indices 1 2 3 4 5 6 
#
# 1 0.014042 -0.004446 0.000678 0.000000 0.000000 0.000000
# 2 -0.004446 0.012555 -0.005911 0.000000 0.000000 0.000000
# 3 0.000678 -0.005911 0.014417 0.000000 0.000000 0.000000
# 4 0.000000 0.000000 0.000000 0.044110 0.000000 0.000000
# 5 0.000000 0.000000 0.000000 0.000000 0.041249 0.000000
# 6 0.000000 0.000000 0.000000 0.000000 0.000000 0.053073
#
#
# Mechanical properties :
#
#
# Convention : Reuss Voigt Hill
#
# Bulk Modulus (GPa) = 46.17805 50.75121 48.46463
# Shear Modulus (GPa) = 24.26921 26.02239 25.14580
#
# Velocity S-wave (km/s) = 3.54998 3.67597 3.61352
# Velocity P-wave (km/s) = 6.38609 6.66114 6.52506
#
# Compressibility (1/GPa) = 0.02165531
#
# Stress axis : x y z
#
# Youngs Moduli (GPa) = 71.21511 79.65033 69.36296
#
# Poissons Ratio (x) = 0.35414 -0.04705
# Poissons Ratio (y) = 0.31664 0.41003
# Poissons Ratio (z) = -0.04831 0.47084
#
# Static dielectric constant tensor:
#      x y z
#    x 3.493010 0.000000 0.000000 
#    y 0.000000 3.372380 0.000000 
#    z 0.000000 0.000000 3.689340 
# 
# 
# High freq. dielectric constant tensor:
#      x y z
#    x 1.752590 0.000000 0.000000 
#    y 0.000000 1.717540 0.000000 
#    z 0.000000 0.000000 1.759970 
# 
# From -- ./inp_files/13592.got.cif
#   From: 2010.03.12/outbox.cif.g09.slc.cpg/sg62_7_cif.got.tgz:13592.got - 2010.04.10 19:12:36.
