data_PCOD8253147
_publ_section_title
;
Structure prediction by ZEFSAII (Michael W. Deem and Ramdas Pophale) SiO2 
 PCOD8253147
Probable space group: P N M A
;
_chemical_formula_sum "Si O2"
_cell_formula_units_Z 40
_cell_length_a 14.653455
_cell_length_b 18.161609
_cell_length_c 6.751574
_cell_angle_alpha 90.000000
_cell_angle_beta 90.000000
_cell_angle_gamma 90.000000
_cell_volume 1796.798551
_symmetry_space_group_name_H-M "P N M A"
_symmetry_group_IT_number 62
_symmetry_cell_setting 'orthorhombic'
loop_
_space_group_symop_operation_xyz
x,y,z
1/2-x,-y,1/2+z
1/2+x,1/2-y,1/2-z
-x,1/2+y,-z
-x,-y,-z
1/2+x,y,1/2-z
1/2-x,1/2+y,1/2+z
x,1/2-y,z
loop_
_atom_site_type_symbol
_atom_site_label
_atom_site_fract_x
_atom_site_fract_y
_atom_site_fract_z
Si Si1 0.840165 0.451193 0.861419
Si Si2 0.216537 0.664562 0.822935
Si Si3 0.594919 0.334450 0.991811
Si Si4 0.359188 0.541826 0.282627
Si Si5 0.587156 0.910633 0.959910
O O1 0.747122 0.476406 0.756029
O O2 0.910779 0.425885 0.694479
O O3 0.832369 0.381008 0.004239
O O4 0.877775 0.521763 0.986934
O O5 0.191148 0.750000 0.847370
O O6 0.177711 0.634172 0.613517
O O7 0.325620 0.652617 0.844530
O O8 0.585565 0.250000 0.932056
O O9 0.617820 0.375137 0.782714
O O10 0.501973 0.362829 0.090519
O O11 0.421030 0.489427 0.145176
#
# Coordination Sequence:
#
# PCOD8253147 Si02
#       5
#     8   8   8   8   8
#     4  10  20  36  65  92 123 167 216 262 319 382
#     4   9  21  40  60  90 131 171 212 263 321 386
#     4  10  22  40  63  96 136 172 216 265 324 394
#     4  10  20  38  62  94 127 164 217 267 317 381
#     4  11  21  38  67  95 129 172 214 269 323 378
#
# _framework density 22.261817000000001
#
# number of rings (size 3 to 8) (size 9 to 14) (size 15 to 20)
#    0.000    2.000    2.000    1.200    0.000    2.400 
#    0.000    8.000    0.000   15.600    0.000    0.000 
#    0.000    0.000    0.000    0.000    0.000    0.000 
#
# Total GULP energy -495960.981285 kJ/mol
# GULP energy per Si atom -12399.024532 kJ/mol
# Density = 2.221115 g / cm^3
# Si number density = 22.261817 Si / 1000 Ang^3
#
#
#
# Elastic Constant Matrix: (Units=GPa)
#
#
# Indices 1 2 3 4 5 6 
#
# 1 84.4487 38.0735 24.8565 0.0000 0.0000 0.0000
# 2 38.0735 127.8191 36.0645 0.0000 0.0000 0.0000
# 3 24.8565 36.0645 112.2035 0.0000 0.0000 0.0000
# 4 0.0000 0.0000 0.0000 27.0683 0.0000 0.0000
# 5 0.0000 0.0000 0.0000 0.0000 20.2527 0.0000
# 6 0.0000 0.0000 0.0000 0.0000 0.0000 36.1845
#
#
#
# Elastic Compliance Matrix: (Units=1/GPa)
#
#
# Indices 1 2 3 4 5 6 
#
# 1 0.014054 -0.003638 -0.001944 0.000000 0.000000 0.000000
# 2 -0.003638 0.009545 -0.002262 0.000000 0.000000 0.000000
# 3 -0.001944 -0.002262 0.010070 0.000000 0.000000 0.000000
# 4 0.000000 0.000000 0.000000 0.036944 0.000000 0.000000
# 5 0.000000 0.000000 0.000000 0.000000 0.049376 0.000000
# 6 0.000000 0.000000 0.000000 0.000000 0.000000 0.027636
#
#
# Mechanical properties :
#
#
# Convention : Reuss Voigt Hill
#
# Bulk Modulus (GPa) = 55.61324 58.05114 56.83219
# Shear Modulus (GPa) = 29.53215 31.73289 30.63252
#
# Velocity S-wave (km/s) = 3.64618 3.77960 3.71349
# Velocity P-wave (km/s) = 6.53925 6.72163 6.63107
#
# Compressibility (1/GPa) = 0.01798133
#
# Stress axis : x y z
#
# Youngs Moduli (GPa) = 71.15526 104.76248 99.30300
#
# Poissons Ratio (x) = 0.38109 0.19306
# Poissons Ratio (y) = 0.25884 0.22465
# Poissons Ratio (z) = 0.13833 0.23700
#
# Static dielectric constant tensor:
#      x y z
#    x 3.967880 0.000000 0.000000 
#    y 0.000000 4.081460 0.000000 
#    z 0.000000 0.000000 3.854790 
# 
# 
# High freq. dielectric constant tensor:
#      x y z
#    x 1.876100 0.000000 0.000000 
#    y 0.000000 1.880820 0.000000 
#    z 0.000000 0.000000 1.858120 
# 
# From -- ./inp_files/1565.got.cif
#   From: 2010.03.12/outbox.cif.g09.slc.cpg/sg62_1_cif.got.tgz:1565.got - 2010.04.10 19:12:36.
