data_PCOD8253632
_publ_section_title
;
Structure prediction by ZEFSAII (Michael W. Deem and Ramdas Pophale) SiO2 
 PCOD8253632
Probable space group: P N M A
;
_chemical_formula_sum "Si O2"
_cell_formula_units_Z 60
_cell_length_a 5.109712
_cell_length_b 32.256502
_cell_length_c 18.260960
_cell_angle_alpha 90.000000
_cell_angle_beta 90.000000
_cell_angle_gamma 90.000000
_cell_volume 3009.797638
_symmetry_space_group_name_H-M "P N M A"
_symmetry_group_IT_number 62
_symmetry_cell_setting 'orthorhombic'
loop_
_space_group_symop_operation_xyz
x,y,z
1/2-x,-y,1/2+z
1/2+x,1/2-y,1/2-z
-x,1/2+y,-z
-x,-y,-z
1/2+x,y,1/2-z
1/2-x,1/2+y,1/2+z
x,1/2-y,z
loop_
_atom_site_type_symbol
_atom_site_label
_atom_site_fract_x
_atom_site_fract_y
_atom_site_fract_z
Si Si1 0.499782 0.886233 0.927674
Si Si2 0.045960 0.250000 0.800484
Si Si3 0.480533 0.948755 0.797924
Si Si4 0.445497 0.043961 0.795487
Si Si5 0.004955 0.665582 0.931559
Si Si6 0.615046 0.202616 0.286111
Si Si7 0.544682 0.115277 0.906328
Si Si8 0.961645 0.670017 0.097584
O O1 0.451997 0.923910 0.873058
O O2 0.800026 0.871939 0.922432
O O3 0.296357 0.849217 0.910777
O O4 0.440882 0.900411 0.010376
O O5 0.327336 0.250000 0.762173
O O6 0.016219 0.209653 0.850783
O O7 0.249067 0.937241 0.742348
O O8 0.473798 0.996693 0.821638
O O9 0.152045 0.053136 0.768919
O O10 0.505027 0.073332 0.862798
O O11 0.925663 0.700580 0.873221
O O12 0.994103 0.684658 0.013077
O O13 0.380441 0.180233 0.241090
O O14 0.636395 0.250000 0.261336
O O15 0.316953 0.148395 0.891091
O O16 0.813185 0.137264 0.881746
#
# Coordination Sequence:
#
# PCOD8253632 Si02
#       8
#     8   4   8   8   8   8   8   8
#     4  10  21  36  55  82 110 144 187 229 271 326
#     4  12  26  42  62  90 116 144 186 230 284 342
#     4  10  21  36  54  82 116 148 187 230 275 329
#     4  10  21  36  57  83 110 147 187 224 280 338
#     4  10  21  37  57  79 109 149 186 220 276 336
#     4  10  21  35  52  79 108 137 182 230 265 317
#     4  10  21  39  59  84 113 144 189 231 272 331
#     4  10  23  40  59  84 113 146 184 229 278 339
#
# _framework density 19.934895000000001
#
# number of rings (size 3 to 8) (size 9 to 14) (size 15 to 20)
#    0.000    1.867    0.000    3.200    0.933    6.933 
#    0.000    0.000    0.000    9.600    0.000    0.000 
#    0.000    0.000    0.000    0.000    0.000    0.000 
#
# Total GULP energy -744056.778661 kJ/mol
# GULP energy per Si atom -12400.946311 kJ/mol
# Density = 1.988952 g / cm^3
# Si number density = 19.934895 Si / 1000 Ang^3
#
#
#
# Elastic Constant Matrix: (Units=GPa)
#
#
# Indices 1 2 3 4 5 6 
#
# 1 92.8544 12.0745 15.7841 0.0000 0.0000 0.0000
# 2 12.0745 63.2005 53.8795 0.0000 0.0000 0.0000
# 3 15.7841 53.8795 94.9506 0.0000 0.0000 0.0000
# 4 0.0000 0.0000 0.0000 34.9947 0.0000 0.0000
# 5 0.0000 0.0000 0.0000 0.0000 26.4884 0.0000
# 6 0.0000 0.0000 0.0000 0.0000 0.0000 18.6436
#
#
#
# Elastic Compliance Matrix: (Units=1/GPa)
#
#
# Indices 1 2 3 4 5 6 
#
# 1 0.011119 -0.001063 -0.001245 0.000000 0.000000 0.000000
# 2 -0.001063 0.030751 -0.017273 0.000000 0.000000 0.000000
# 3 -0.001245 -0.017273 0.020540 0.000000 0.000000 0.000000
# 4 0.000000 0.000000 0.000000 0.028576 0.000000 0.000000
# 5 0.000000 0.000000 0.000000 0.000000 0.037752 0.000000
# 6 0.000000 0.000000 0.000000 0.000000 0.000000 0.053638
#
#
# Mechanical properties :
#
#
# Convention : Reuss Voigt Hill
#
# Bulk Modulus (GPa) = 43.01299 46.05353 44.53326
# Shear Modulus (GPa) = 21.80657 27.30983 24.55820
#
# Velocity S-wave (km/s) = 3.31099 3.70530 3.51368
# Velocity P-wave (km/s) = 6.02000 6.43877 6.23291
#
# Compressibility (1/GPa) = 0.02324879
#
# Stress axis : x y z
#
# Youngs Moduli (GPa) = 89.93262 32.51905 48.68457
#
# Poissons Ratio (x) = 0.03455 0.06064
# Poissons Ratio (y) = 0.09556 0.84093
# Poissons Ratio (z) = 0.11201 0.56170
#
# Static dielectric constant tensor:
#      x y z
#    x 4.054780 0.000000 0.000000 
#    y 0.000000 3.332700 0.000000 
#    z 0.000000 0.000000 3.628510 
# 
# 
# High freq. dielectric constant tensor:
#      x y z
#    x 1.804140 0.000000 0.000000 
#    y 0.000000 1.758270 0.000000 
#    z 0.000000 0.000000 1.781900 
# 
# From -- ./inp_files/21657.got.cif
#   From: 2010.03.12/outbox.cif.g09.slc.cpg/sg62_11_cif.got.tgz:21657.got - 2010.04.10 19:12:36.
