data_PCOD8253912
_publ_section_title
;
Structure prediction by ZEFSAII (Michael W. Deem and Ramdas Pophale) SiO2 
 PCOD8253912
Probable space group: P N M A
;
_chemical_formula_sum "Si O2"
_cell_formula_units_Z 56
_cell_length_a 7.785593
_cell_length_b 16.241927
_cell_length_c 20.807167
_cell_angle_alpha 90.000000
_cell_angle_beta 90.000000
_cell_angle_gamma 90.000000
_cell_volume 2631.129379
_symmetry_space_group_name_H-M "P N M A"
_symmetry_group_IT_number 62
_symmetry_cell_setting 'orthorhombic'
loop_
_space_group_symop_operation_xyz
x,y,z
1/2-x,-y,1/2+z
1/2+x,1/2-y,1/2-z
-x,1/2+y,-z
-x,-y,-z
1/2+x,y,1/2-z
1/2-x,1/2+y,1/2+z
x,1/2-y,z
loop_
_atom_site_type_symbol
_atom_site_label
_atom_site_fract_x
_atom_site_fract_y
_atom_site_fract_z
Si Si1 0.857385 0.055606 0.746113
Si Si2 0.230750 0.024350 0.621434
Si Si3 0.037401 0.592938 0.910982
Si Si4 0.878049 0.656698 0.173186
Si Si5 0.914995 0.574909 0.645143
Si Si6 0.406867 0.155824 0.550457
Si Si7 0.902515 0.750000 0.689783
Si Si8 0.004608 0.750000 0.833857
O O1 0.013966 0.094753 0.783670
O O2 0.809981 0.119566 0.688119
O O3 0.713571 0.041210 0.801989
O O4 0.896059 0.967023 0.715037
O O5 0.413193 0.982662 0.604151
O O6 0.061900 0.971193 0.602528
O O7 0.240343 0.110380 0.581851
O O8 0.232818 0.571651 0.891154
O O9 0.953594 0.669090 0.873142
O O10 0.033279 0.611318 0.986256
O O11 0.892335 0.750000 0.198505
O O12 0.930241 0.652135 0.098775
O O13 0.983158 0.668021 0.657872
O O14 0.351707 0.250000 0.536705
O O15 0.705388 0.750000 0.674014
O O16 0.910563 0.750000 0.766243
#
# Coordination Sequence:
#
# PCOD8253912 Si02
#       8
#     8   8   8   8   8   8   4   4
#     4  11  20  39  59  94 135 155 207 266 331 379
#     4  11  24  39  67  94 123 171 208 266 323 381
#     4  11  23  42  67  89 129 173 212 256 321 374
#     4  10  21  37  66  93 123 167 207 265 320 384
#     4  11  24  40  61  96 131 164 212 269 315 391
#     4  10  22  44  65  91 129 169 219 260 316 384
#     4  10  24  36  58  94 132 158 216 256 324 391
#     4  10  22  38  62  94 124 174 194 266 320 373
#
# _framework density 21.283636999999999
#
# number of rings (size 3 to 8) (size 9 to 14) (size 15 to 20)
#    0.000    1.429    2.143    3.429    6.000    1.143 
#    0.000    0.000    0.000    2.571    0.000    0.000 
#    0.000    0.000    0.000    0.000    0.000    0.000 
#
# Total GULP energy -694146.001542 kJ/mol
# GULP energy per Si atom -12395.464313 kJ/mol
# Density = 2.123519 g / cm^3
# Si number density = 21.283637 Si / 1000 Ang^3
#
#
#
# Elastic Constant Matrix: (Units=GPa)
#
#
# Indices 1 2 3 4 5 6 
#
# 1 49.7235 21.3237 25.5100 0.0000 0.0000 0.0000
# 2 21.3237 112.5793 38.2282 0.0000 0.0000 0.0000
# 3 25.5100 38.2282 107.8697 0.0000 0.0000 0.0000
# 4 0.0000 0.0000 0.0000 20.9508 0.0000 0.0000
# 5 0.0000 0.0000 0.0000 0.0000 24.2051 0.0000
# 6 0.0000 0.0000 0.0000 0.0000 0.0000 23.1149
#
#
#
# Elastic Compliance Matrix: (Units=1/GPa)
#
#
# Indices 1 2 3 4 5 6 
#
# 1 0.023715 -0.002941 -0.004566 0.000000 0.000000 0.000000
# 2 -0.002941 0.010463 -0.003012 0.000000 0.000000 0.000000
# 3 -0.004566 -0.003012 0.011418 0.000000 0.000000 0.000000
# 4 0.000000 0.000000 0.000000 0.047731 0.000000 0.000000
# 5 0.000000 0.000000 0.000000 0.000000 0.041314 0.000000
# 6 0.000000 0.000000 0.000000 0.000000 0.000000 0.043262
#
#
# Mechanical properties :
#
#
# Convention : Reuss Voigt Hill
#
# Bulk Modulus (GPa) = 40.72284 48.92180 44.82232
# Shear Modulus (GPa) = 24.13979 25.99486 25.06733
#
# Velocity S-wave (km/s) = 3.37143 3.49858 3.43560
# Velocity P-wave (km/s) = 5.85921 6.27341 6.06984
#
# Compressibility (1/GPa) = 0.02455624
#
# Stress axis : x y z
#
# Youngs Moduli (GPa) = 42.16713 95.57824 87.58287
#
# Poissons Ratio (x) = 0.28114 0.39990
# Poissons Ratio (y) = 0.12403 0.26382
# Poissons Ratio (z) = 0.19253 0.28791
#
# Static dielectric constant tensor:
#      x y z
#    x 3.678890 0.000000 0.000000 
#    y 0.000000 4.342060 0.000000 
#    z 0.000000 0.000000 3.839770 
# 
# 
# High freq. dielectric constant tensor:
#      x y z
#    x 1.816120 0.000000 0.000000 
#    y 0.000000 1.856410 0.000000 
#    z 0.000000 0.000000 1.827440 
# 
# From -- ./inp_files/26047.got.cif
#   From: 2010.03.12/outbox.cif.g09.slc.cpg/sg62_14_cif.got.tgz:26047.got - 2010.04.10 19:12:36.
