data_PCOD8253460
_publ_section_title
;
Structure prediction by ZEFSAII (Michael W. Deem and Ramdas Pophale) SiO2 
 PCOD8253460
Probable space group: P N M A
;
_chemical_formula_sum "Si O2"
_cell_formula_units_Z 56
_cell_length_a 14.619529
_cell_length_b 8.683942
_cell_length_c 21.849072
_cell_angle_alpha 90.000000
_cell_angle_beta 90.000000
_cell_angle_gamma 90.000000
_cell_volume 2773.852036
_symmetry_space_group_name_H-M "P N M A"
_symmetry_group_IT_number 62
_symmetry_cell_setting 'orthorhombic'
loop_
_space_group_symop_operation_xyz
x,y,z
1/2-x,-y,1/2+z
1/2+x,1/2-y,1/2-z
-x,1/2+y,-z
-x,-y,-z
1/2+x,y,1/2-z
1/2-x,1/2+y,1/2+z
x,1/2-y,z
loop_
_atom_site_type_symbol
_atom_site_label
_atom_site_fract_x
_atom_site_fract_y
_atom_site_fract_z
Si Si1 0.423923 0.568422 0.043549
Si Si2 0.804696 0.429589 0.224099
Si Si3 0.420432 0.067221 0.607196
Si Si4 0.875117 0.569060 0.102132
Si Si5 0.382130 0.430584 0.743593
Si Si6 0.276212 0.432435 0.509415
Si Si7 0.434798 0.570593 0.182912
O O1 0.426204 0.750000 0.036481
O O2 0.445050 0.518009 0.112835
O O3 0.500000 0.500000 0.000000
O O4 0.324585 0.503366 0.024079
O O5 0.815539 0.250000 0.210257
O O6 0.853936 0.527484 0.171735
O O7 0.698571 0.473246 0.225781
O O8 0.852060 0.473871 0.288094
O O9 0.417456 0.250000 0.608671
O O10 0.521725 0.012851 0.587351
O O11 0.396881 0.006744 0.674910
O O12 0.347543 0.998679 0.559088
O O13 0.864313 0.750000 0.092924
O O14 0.804189 0.483925 0.058150
O O15 0.358037 0.250000 0.744758
O O16 0.471688 0.467163 0.782706
O O17 0.277432 0.250000 0.513273
O O18 0.408763 0.750000 0.187511
#
# Coordination Sequence:
#
# PCOD8253460 Si02
#       7
#     8   8   8   8   8   8   8
#     4  10  23  41  63  90 123 162 208 257 304 361
#     4  12  25  39  59  92 130 162 197 253 316 366
#     4   9  18  37  64  91 119 153 197 250 305 361
#     4  11  22  39  62  89 119 159 209 251 297 366
#     4  10  20  38  65  91 119 158 206 251 297 364
#     4  10  21  38  59  88 124 159 196 250 313 359
#     4  10  21  42  68  91 118 162 211 252 300 362
#
# _framework density 20.188534000000001
#
# number of rings (size 3 to 8) (size 9 to 14) (size 15 to 20)
#    0.000    1.714    1.429    3.000    2.000    4.000 
#    0.000    2.857    0.000    0.000    0.000    0.000 
#    0.000    0.000    0.000    0.000    0.000    0.000 
#
# Total GULP energy -694667.278357 kJ/mol
# GULP energy per Si atom -12404.772828 kJ/mol
# Density = 2.014258 g / cm^3
# Si number density = 20.188534 Si / 1000 Ang^3
#
#
#
# Elastic Constant Matrix: (Units=GPa)
#
#
# Indices 1 2 3 4 5 6 
#
# 1 134.1412 31.4659 52.6388 0.0000 0.0000 0.0000
# 2 31.4659 23.5894 13.9091 0.0000 0.0000 0.0000
# 3 52.6388 13.9091 121.6843 0.0000 0.0000 0.0000
# 4 0.0000 0.0000 0.0000 25.1502 0.0000 0.0000
# 5 0.0000 0.0000 0.0000 0.0000 37.3735 0.0000
# 6 0.0000 0.0000 0.0000 0.0000 0.0000 27.3241
#
#
#
# Elastic Compliance Matrix: (Units=1/GPa)
#
#
# Indices 1 2 3 4 5 6 
#
# 1 0.012205 -0.014119 -0.003666 0.000000 0.000000 0.000000
# 2 -0.014119 0.061789 -0.000955 0.000000 0.000000 0.000000
# 3 -0.003666 -0.000955 0.009913 0.000000 0.000000 0.000000
# 4 0.000000 0.000000 0.000000 0.039761 0.000000 0.000000
# 5 0.000000 0.000000 0.000000 0.000000 0.026757 0.000000
# 6 0.000000 0.000000 0.000000 0.000000 0.000000 0.036598
#
#
# Mechanical properties :
#
#
# Convention : Reuss Voigt Hill
#
# Bulk Modulus (GPa) = 21.53935 52.82696 37.18315
# Shear Modulus (GPa) = 20.83520 30.06298 25.44909
#
# Velocity S-wave (km/s) = 3.21601 3.86309 3.55430
# Velocity P-wave (km/s) = 4.94798 6.79128 5.94155
#
# Compressibility (1/GPa) = 0.04642666
#
# Stress axis : x y z
#
# Youngs Moduli (GPa) = 81.93108 16.18423 100.87773
#
# Poissons Ratio (x) = 0.22851 0.36982
# Poissons Ratio (y) = 1.15680 0.09634
# Poissons Ratio (z) = 0.30036 0.01546
#
# Static dielectric constant tensor:
#      x y z
#    x 3.903570 0.000000 0.000000 
#    y 0.000000 3.333820 0.000000 
#    z 0.000000 0.000000 3.749800 
# 
# 
# High freq. dielectric constant tensor:
#      x y z
#    x 1.803780 0.000000 0.000000 
#    y 0.000000 1.759690 0.000000 
#    z 0.000000 0.000000 1.799780 
# 
# From -- ./inp_files/27109.got.cif
#   From: 2010.03.12/outbox.cif.g09.slc.cpg/sg62_14_cif.got.tgz:27109.got - 2010.04.10 19:12:36.
