data_PCOD8253094
_publ_section_title
;
Structure prediction by ZEFSAII (Michael W. Deem and Ramdas Pophale) SiO2 
 PCOD8253094
Probable space group: P N M A
;
_chemical_formula_sum "Si O2"
_cell_formula_units_Z 48
_cell_length_a 19.065270
_cell_length_b 8.801899
_cell_length_c 14.992638
_cell_angle_alpha 90.000000
_cell_angle_beta 90.000000
_cell_angle_gamma 90.000000
_cell_volume 2515.923293
_symmetry_space_group_name_H-M "P N M A"
_symmetry_group_IT_number 62
_symmetry_cell_setting 'orthorhombic'
loop_
_space_group_symop_operation_xyz
x,y,z
1/2-x,-y,1/2+z
1/2+x,1/2-y,1/2-z
-x,1/2+y,-z
-x,-y,-z
1/2+x,y,1/2-z
1/2-x,1/2+y,1/2+z
x,1/2-y,z
loop_
_atom_site_type_symbol
_atom_site_label
_atom_site_fract_x
_atom_site_fract_y
_atom_site_fract_z
Si Si1 0.080349 0.425793 0.229536
Si Si2 0.677699 0.928984 0.130545
Si Si3 0.426411 0.070429 0.222417
Si Si4 0.926251 0.071188 0.476420
Si Si5 0.073856 0.074452 0.022117
Si Si6 0.170801 0.930333 0.879744
O O1 0.088051 0.250000 0.258298
O O2 0.138244 0.525913 0.279108
O O3 0.092706 0.446560 0.125109
O O4 0.004053 0.491565 0.255880
O O5 0.691293 0.750000 0.128574
O O6 0.750148 0.016358 0.126758
O O7 0.632608 0.984244 0.045375
O O8 0.428355 0.250000 0.232307
O O9 0.403406 0.020025 0.123125
O O10 0.371063 0.004873 0.293608
O O11 0.936119 0.250000 0.481604
O O12 0.000000 0.000000 0.500000
O O13 0.069278 0.250000 0.995596
O O14 0.136151 0.995289 0.968713
O O15 0.000000 0.000000 0.000000
O O16 0.167791 0.750000 0.883526
#
# Coordination Sequence:
#
# PCOD8253094 Si02
#       6
#     8   8   8   8   8   8
#     4  10  20  38  63  87 115 157 202 243 295 362
#     4  11  24  39  57  91 127 156 194 251 306 352
#     4   9  18  36  61  86 112 150 201 241 287 356
#     4  10  20  36  60  86 116 150 193 242 291 351
#     4  11  22  38  62  91 121 156 202 253 304 361
#     4  11  23  41  62  87 120 163 203 245 302 362
#
# _framework density 19.078485000000001
#
# number of rings (size 3 to 8) (size 9 to 14) (size 15 to 20)
#    0.000    1.667    3.333    1.500    0.000    3.333 
#    0.000    5.000    0.000    0.000    0.000    0.000 
#    0.000    0.000    0.000    0.000    0.000    0.000 
#
# Total GULP energy -595342.213482 kJ/mol
# GULP energy per Si atom -12402.962781 kJ/mol
# Density = 1.903506 g / cm^3
# Si number density = 19.078485 Si / 1000 Ang^3
#
#
#
# Elastic Constant Matrix: (Units=GPa)
#
#
# Indices 1 2 3 4 5 6 
#
# 1 143.3814 38.8953 70.6794 0.0000 0.0000 0.0000
# 2 38.8953 63.5712 43.6481 0.0000 0.0000 0.0000
# 3 70.6794 43.6481 132.1364 0.0000 0.0000 0.0000
# 4 0.0000 0.0000 0.0000 29.5637 0.0000 0.0000
# 5 0.0000 0.0000 0.0000 0.0000 36.9579 0.0000
# 6 0.0000 0.0000 0.0000 0.0000 0.0000 34.7327
#
#
#
# Elastic Compliance Matrix: (Units=1/GPa)
#
#
# Indices 1 2 3 4 5 6 
#
# 1 0.009935 -0.003143 -0.004276 0.000000 0.000000 0.000000
# 2 -0.003143 0.021339 -0.005368 0.000000 0.000000 0.000000
# 3 -0.004276 -0.005368 0.011628 0.000000 0.000000 0.000000
# 4 0.000000 0.000000 0.000000 0.033825 0.000000 0.000000
# 5 0.000000 0.000000 0.000000 0.000000 0.027058 0.000000
# 6 0.000000 0.000000 0.000000 0.000000 0.000000 0.028791
#
#
# Mechanical properties :
#
#
# Convention : Reuss Voigt Hill
#
# Bulk Modulus (GPa) = 57.70667 71.72606 64.71636
# Shear Modulus (GPa) = 30.50175 32.64194 31.57185
#
# Velocity S-wave (km/s) = 4.00278 4.14083 4.07239
# Velocity P-wave (km/s) = 7.18858 7.78067 7.49047
#
# Compressibility (1/GPa) = 0.01732902
#
# Stress axis : x y z
#
# Youngs Moduli (GPa) = 100.65701 46.86330 85.99733
#
# Poissons Ratio (x) = 0.14727 0.36772
# Poissons Ratio (y) = 0.31632 0.46161
# Poissons Ratio (z) = 0.43041 0.25155
#
# Static dielectric constant tensor:
#      x y z
#    x 4.253120 0.000000 0.000000 
#    y 0.000000 3.411080 0.000000 
#    z 0.000000 0.000000 3.187820 
# 
# 
# High freq. dielectric constant tensor:
#      x y z
#    x 1.742850 0.000000 0.000000 
#    y 0.000000 1.730180 0.000000 
#    z 0.000000 0.000000 1.759270 
# 
# From -- ./inp_files/19636.got.cif
#   From: 2010.03.12/outbox.cif.g09.slc.cpg/sg62_10_cif.got.tgz:19636.got - 2010.04.10 19:12:36.
