data_PCOD8253082
_publ_section_title
;
Structure prediction by ZEFSAII (Michael W. Deem and Ramdas Pophale) SiO2 
 PCOD8253082
Probable space group: P N M A
;
_chemical_formula_sum "Si O2"
_cell_formula_units_Z 40
_cell_length_a 8.543158
_cell_length_b 14.269838
_cell_length_c 14.042638
_cell_angle_alpha 90.000000
_cell_angle_beta 90.000000
_cell_angle_gamma 90.000000
_cell_volume 1711.930706
_symmetry_space_group_name_H-M "P N M A"
_symmetry_group_IT_number 62
_symmetry_cell_setting 'orthorhombic'
loop_
_space_group_symop_operation_xyz
x,y,z
1/2-x,-y,1/2+z
1/2+x,1/2-y,1/2-z
-x,1/2+y,-z
-x,-y,-z
1/2+x,y,1/2-z
1/2-x,1/2+y,1/2+z
x,1/2-y,z
loop_
_atom_site_type_symbol
_atom_site_label
_atom_site_fract_x
_atom_site_fract_y
_atom_site_fract_z
Si Si1 0.646139 0.750000 0.669136
Si Si2 0.907757 0.587637 0.372856
Si Si3 0.804983 0.455928 0.133847
Si Si4 0.288134 0.750000 0.628253
Si Si5 0.858207 0.086944 0.480350
Si Si6 0.603527 0.953970 0.293787
O O1 0.713774 0.656306 0.618367
O O2 0.461485 0.750000 0.664531
O O3 0.673670 0.750000 0.782172
O O4 0.929828 0.475209 0.394276
O O5 0.721334 0.609417 0.360581
O O6 0.998871 0.637763 0.460821
O O7 0.000133 0.612633 0.275166
O O8 0.719739 0.480448 0.232990
O O9 0.989600 0.482491 0.142186
O O10 0.736273 0.513813 0.046367
O O11 0.260267 0.661350 0.560687
#
# Coordination Sequence:
#
# PCOD8253082 Si02
#       6
#     4   8   8   4   8   8
#     4  12  24  38  62  94 123 166 212 252 303 376
#     4   9  18  34  56  81 110 151 196 241 304 360
#     4  10  20  36  59  89 126 163 210 260 311 365
#     4  12  26  42  62  94 131 162 204 256 311 370
#     4  10  22  38  57  87 128 165 199 257 317 360
#     4   9  17  33  58  83 112 155 203 249 302 369
#
# _framework density 23.36543
#
# number of rings (size 3 to 8) (size 9 to 14) (size 15 to 20)
#    0.000    2.000    0.000    4.800    0.000    6.400 
#    0.000    0.000    0.000   19.200    0.000    9.800 
#    0.000    0.000    0.000    0.000    0.000    0.000 
#
# Total GULP energy -495556.626329 kJ/mol
# GULP energy per Si atom -12388.915658 kJ/mol
# Density = 2.331225 g / cm^3
# Si number density = 23.365430 Si / 1000 Ang^3
#
#
#
# Elastic Constant Matrix: (Units=GPa)
#
#
# Indices 1 2 3 4 5 6 
#
# 1 140.5953 35.5436 39.0194 0.0000 0.0000 0.0000
# 2 35.5436 89.6012 40.2457 0.0000 0.0000 0.0000
# 3 39.0194 40.2457 87.6911 0.0000 0.0000 0.0000
# 4 0.0000 0.0000 0.0000 20.3975 0.0000 0.0000
# 5 0.0000 0.0000 0.0000 0.0000 29.6289 0.0000
# 6 0.0000 0.0000 0.0000 0.0000 0.0000 11.9564
#
#
#
# Elastic Compliance Matrix: (Units=1/GPa)
#
#
# Indices 1 2 3 4 5 6 
#
# 1 0.008413 -0.002086 -0.002786 0.000000 0.000000 0.000000
# 2 -0.002086 0.014576 -0.005761 0.000000 0.000000 0.000000
# 3 -0.002786 -0.005761 0.015288 0.000000 0.000000 0.000000
# 4 0.000000 0.000000 0.000000 0.049026 0.000000 0.000000
# 5 0.000000 0.000000 0.000000 0.000000 0.033751 0.000000
# 6 0.000000 0.000000 0.000000 0.000000 0.000000 0.083637
#
#
# Mechanical properties :
#
#
# Convention : Reuss Voigt Hill
#
# Bulk Modulus (GPa) = 58.79052 60.83388 59.81220
# Shear Modulus (GPa) = 21.58640 25.93516 23.76078
#
# Velocity S-wave (km/s) = 3.04281 3.33525 3.19238
# Velocity P-wave (km/s) = 6.12869 6.39720 6.26439
#
# Compressibility (1/GPa) = 0.01700955
#
# Stress axis : x y z
#
# Youngs Moduli (GPa) = 118.86055 68.60666 65.41231
#
# Poissons Ratio (x) = 0.14311 0.18225
# Poissons Ratio (y) = 0.24793 0.37687
# Poissons Ratio (z) = 0.33117 0.39527
#
# Static dielectric constant tensor:
#      x y z
#    x 4.620190 0.000000 0.000000 
#    y 0.000000 3.666270 0.000000 
#    z 0.000000 0.000000 4.368090 
# 
# 
# High freq. dielectric constant tensor:
#      x y z
#    x 1.951360 0.000000 0.000000 
#    y 0.000000 1.861450 0.000000 
#    z 0.000000 0.000000 1.928910 
# 
# From -- ./inp_files/16707.got.cif
#   From: 2010.03.12/outbox.cif.g09.slc.cpg/sg62_9_cif.got.tgz:16707.got - 2010.04.10 19:12:36.
