data_PCOD8253740
_publ_section_title
;
Structure prediction by ZEFSAII (Michael W. Deem and Ramdas Pophale) SiO2 
 PCOD8253740
Probable space group: P N M A
;
_chemical_formula_sum "Si O2"
_cell_formula_units_Z 48
_cell_length_a 23.195625
_cell_length_b 9.049677
_cell_length_c 11.586546
_cell_angle_alpha 90.000000
_cell_angle_beta 90.000000
_cell_angle_gamma 90.000000
_cell_volume 2432.165635
_symmetry_space_group_name_H-M "P N M A"
_symmetry_group_IT_number 62
_symmetry_cell_setting 'orthorhombic'
loop_
_space_group_symop_operation_xyz
x,y,z
1/2-x,-y,1/2+z
1/2+x,1/2-y,1/2-z
-x,1/2+y,-z
-x,-y,-z
1/2+x,y,1/2-z
1/2-x,1/2+y,1/2+z
x,1/2-y,z
loop_
_atom_site_type_symbol
_atom_site_label
_atom_site_fract_x
_atom_site_fract_y
_atom_site_fract_z
Si Si1 0.835812 0.082877 0.149553
Si Si2 0.937471 0.424968 0.982529
Si Si3 0.145308 0.912701 0.586042
Si Si4 0.377277 0.926096 0.736146
Si Si5 0.722032 0.917075 0.130191
Si Si6 0.944419 0.581299 0.538680
O O1 0.819974 0.250000 0.114249
O O2 0.834342 0.061197 0.285609
O O3 0.785997 0.975810 0.106171
O O4 0.898471 0.043419 0.095933
O O5 0.946538 0.250000 0.962214
O O6 0.901488 0.495068 0.877331
O O7 0.000000 0.500000 0.000000
O O8 0.115806 0.750000 0.574317
O O9 0.198145 0.923357 0.498891
O O10 0.102474 0.044747 0.557508
O O11 0.372204 0.750000 0.717233
O O12 0.423079 0.968264 0.835279
O O13 0.314833 0.987366 0.776915
O O14 0.723625 0.750000 0.177976
O O15 0.959400 0.750000 0.537722
O O16 0.000000 0.500000 0.500000
#
# Coordination Sequence:
#
# PCOD8253740 Si02
#       6
#     8   8   8   8   8   8
#     4  10  23  41  62  88 123 162 197 248 308 366
#     4  11  25  43  63  91 127 168 213 259 311 374
#     4   9  20  39  59  84 118 153 195 243 297 359
#     4  10  22  41  63  87 122 163 203 250 306 365
#     4  10  21  38  63  94 121 153 199 251 305 366
#     4  10  21  36  59  88 116 152 194 246 301 354
#
# _framework density 19.735498
#
# number of rings (size 3 to 8) (size 9 to 14) (size 15 to 20)
#    0.000    2.000    0.000    2.000    4.667    4.667 
#    0.000    0.000    0.000    0.000    0.000    0.000 
#    0.000    0.000    0.000    0.000    0.000    0.000 
#
# Total GULP energy -594995.343090 kJ/mol
# GULP energy per Si atom -12395.736314 kJ/mol
# Density = 1.969058 g / cm^3
# Si number density = 19.735498 Si / 1000 Ang^3
#
#
#
# Elastic Constant Matrix: (Units=GPa)
#
#
# Indices 1 2 3 4 5 6 
#
# 1 120.7131 55.0821 49.4612 0.0000 0.0000 0.0000
# 2 55.0821 76.7613 46.8459 0.0000 0.0000 0.0000
# 3 49.4612 46.8459 91.5207 0.0000 0.0000 0.0000
# 4 0.0000 0.0000 0.0000 30.9472 0.0000 0.0000
# 5 0.0000 0.0000 0.0000 0.0000 19.2664 0.0000
# 6 0.0000 0.0000 0.0000 0.0000 0.0000 42.7549
#
#
#
# Elastic Compliance Matrix: (Units=1/GPa)
#
#
# Indices 1 2 3 4 5 6 
#
# 1 0.012954 -0.007305 -0.003262 0.000000 0.000000 0.000000
# 2 -0.007305 0.023065 -0.007858 0.000000 0.000000 0.000000
# 3 -0.003262 -0.007858 0.016712 0.000000 0.000000 0.000000
# 4 0.000000 0.000000 0.000000 0.032313 0.000000 0.000000
# 5 0.000000 0.000000 0.000000 0.000000 0.051904 0.000000
# 6 0.000000 0.000000 0.000000 0.000000 0.000000 0.023389
#
#
# Mechanical properties :
#
#
# Convention : Reuss Voigt Hill
#
# Bulk Modulus (GPa) = 62.96908 65.75260 64.36084
# Shear Modulus (GPa) = 24.69391 27.76744 26.23068
#
# Velocity S-wave (km/s) = 3.54113 3.75504 3.64965
# Velocity P-wave (km/s) = 6.97820 7.22424 7.10229
#
# Compressibility (1/GPa) = 0.01588081
#
# Stress axis : x y z
#
# Youngs Moduli (GPa) = 77.19769 43.35597 59.83895
#
# Poissons Ratio (x) = 0.31671 0.19517
# Poissons Ratio (y) = 0.56391 0.47023
# Poissons Ratio (z) = 0.25179 0.34070
#
# Static dielectric constant tensor:
#      x y z
#    x 3.430010 0.000000 0.000000 
#    y 0.000000 3.899190 0.000000 
#    z 0.000000 0.000000 3.646870 
# 
# 
# High freq. dielectric constant tensor:
#      x y z
#    x 1.771370 0.000000 0.000000 
#    y 0.000000 1.780110 0.000000 
#    z 0.000000 0.000000 1.772940 
# 
# From -- ./inp_files/15093.got.cif
#   From: 2010.03.12/outbox.cif.g09.slc.cpg/sg62_8_cif.got.tgz:15093.got - 2010.04.10 19:12:36.
