data_PCOD8253898
_publ_section_title
;
Structure prediction by ZEFSAII (Michael W. Deem and Ramdas Pophale) SiO2 
 PCOD8253898
Probable space group: P N M A
;
_chemical_formula_sum "Si O2"
_cell_formula_units_Z 48
_cell_length_a 27.762470
_cell_length_b 8.833736
_cell_length_c 9.547686
_cell_angle_alpha 90.000000
_cell_angle_beta 90.000000
_cell_angle_gamma 90.000000
_cell_volume 2341.534958
_symmetry_space_group_name_H-M "P N M A"
_symmetry_group_IT_number 62
_symmetry_cell_setting 'orthorhombic'
loop_
_space_group_symop_operation_xyz
x,y,z
1/2-x,-y,1/2+z
1/2+x,1/2-y,1/2-z
-x,1/2+y,-z
-x,-y,-z
1/2+x,y,1/2-z
1/2-x,1/2+y,1/2+z
x,1/2-y,z
loop_
_atom_site_type_symbol
_atom_site_label
_atom_site_fract_x
_atom_site_fract_y
_atom_site_fract_z
Si Si1 0.795899 0.072279 0.832190
Si Si2 0.896812 0.580055 0.224195
Si Si3 0.293629 0.927087 0.364449
Si Si4 0.546511 0.082081 0.448943
Si Si5 0.448496 0.071674 0.035391
Si Si6 0.390051 0.569189 0.797535
O O1 0.806687 0.250000 0.835281
O O2 0.749269 0.032831 0.740457
O O3 0.838784 0.987701 0.753665
O O4 0.787980 0.016967 0.990589
O O5 0.901354 0.750000 0.287360
O O6 0.841562 0.524276 0.221402
O O7 0.932428 0.467601 0.306818
O O8 0.911763 0.579034 0.062968
O O9 0.295916 0.750000 0.402214
O O10 0.529637 0.250000 0.413183
O O11 0.568821 0.009660 0.309174
O O12 0.500000 0.000000 0.500000
O O13 0.452689 0.250000 0.014675
O O14 0.500000 0.000000 0.000000
O O15 0.404732 0.003367 0.944709
O O16 0.388623 0.750000 0.807770
#
# Coordination Sequence:
#
# PCOD8253898 Si02
#       6
#     8   8   8   8   8   8
#     4  11  24  41  66 100 129 165 214 264 318 380
#     4  10  21  42  65  89 124 169 211 259 318 380
#     4  10  23  44  66  93 129 167 212 261 318 383
#     4  10  21  37  62  90 118 157 203 251 310 371
#     4  12  26  43  63  95 130 170 217 265 317 382
#     4  11  23  43  66  91 127 171 210 260 321 378
#
# _framework density 20.499374
#
# number of rings (size 3 to 8) (size 9 to 14) (size 15 to 20)
#    0.000    1.333    1.667    3.500    2.333    6.667 
#    0.000    0.000    0.000    0.000    0.000    0.000 
#    0.000    0.000    0.000    0.000    0.000    0.000 
#
# Total GULP energy -595274.735317 kJ/mol
# GULP energy per Si atom -12401.556986 kJ/mol
# Density = 2.045272 g / cm^3
# Si number density = 20.499374 Si / 1000 Ang^3
#
#
#
# Elastic Constant Matrix: (Units=GPa)
#
#
# Indices 1 2 3 4 5 6 
#
# 1 111.5897 46.8016 19.5225 0.0000 0.0000 0.0000
# 2 46.8016 103.5387 33.8202 0.0000 0.0000 0.0000
# 3 19.5225 33.8202 74.8220 0.0000 0.0000 0.0000
# 4 0.0000 0.0000 0.0000 36.1331 0.0000 0.0000
# 5 0.0000 0.0000 0.0000 0.0000 38.7280 0.0000
# 6 0.0000 0.0000 0.0000 0.0000 0.0000 34.7985
#
#
#
# Elastic Compliance Matrix: (Units=1/GPa)
#
#
# Indices 1 2 3 4 5 6 
#
# 1 0.011092 -0.004773 -0.000737 0.000000 0.000000 0.000000
# 2 -0.004773 0.013385 -0.004805 0.000000 0.000000 0.000000
# 3 -0.000737 -0.004805 0.015729 0.000000 0.000000 0.000000
# 4 0.000000 0.000000 0.000000 0.027675 0.000000 0.000000
# 5 0.000000 0.000000 0.000000 0.000000 0.025821 0.000000
# 6 0.000000 0.000000 0.000000 0.000000 0.000000 0.028737
#
#
# Mechanical properties :
#
#
# Convention : Reuss Voigt Hill
#
# Bulk Modulus (GPa) = 51.07999 54.47101 52.77550
# Shear Modulus (GPa) = 33.42352 34.58566 34.00459
#
# Velocity S-wave (km/s) = 4.04228 4.11196 4.07727
# Velocity P-wave (km/s) = 6.83803 7.01242 6.92577
#
# Compressibility (1/GPa) = 0.01957714
#
# Stress axis : x y z
#
# Youngs Moduli (GPa) = 90.15324 74.70872 63.57653
#
# Poissons Ratio (x) = 0.35661 0.04683
# Poissons Ratio (y) = 0.43033 0.30547
# Poissons Ratio (z) = 0.06641 0.35896
#
# Static dielectric constant tensor:
#      x y z
#    x 4.000140 0.000000 0.000000 
#    y 0.000000 3.726860 0.000000 
#    z 0.000000 0.000000 3.011430 
# 
# 
# High freq. dielectric constant tensor:
#      x y z
#    x 1.816750 0.000000 0.000000 
#    y 0.000000 1.797870 0.000000 
#    z 0.000000 0.000000 1.811890 
# 
# From -- ./inp_files/10164.got.cif
#   From: 2010.03.12/outbox.cif.g09.slc.cpg/sg62_6_cif.got.tgz:10164.got - 2010.04.10 19:12:36.
