data_PCOD8253257
_publ_section_title
;
Structure prediction by ZEFSAII (Michael W. Deem and Ramdas Pophale) SiO2 
 PCOD8253257
Probable space group: P N M A
;
_chemical_formula_sum "Si O2"
_cell_formula_units_Z 64
_cell_length_a 8.954283
_cell_length_b 13.126395
_cell_length_c 29.055853
_cell_angle_alpha 90.000000
_cell_angle_beta 90.000000
_cell_angle_gamma 90.000000
_cell_volume 3415.151032
_symmetry_space_group_name_H-M "P N M A"
_symmetry_group_IT_number 62
_symmetry_cell_setting 'orthorhombic'
loop_
_space_group_symop_operation_xyz
x,y,z
1/2-x,-y,1/2+z
1/2+x,1/2-y,1/2-z
-x,1/2+y,-z
-x,-y,-z
1/2+x,y,1/2-z
1/2-x,1/2+y,1/2+z
x,1/2-y,z
loop_
_atom_site_type_symbol
_atom_site_label
_atom_site_fract_x
_atom_site_fract_y
_atom_site_fract_z
Si Si1 0.121245 0.519117 0.150511
Si Si2 0.093862 0.014886 0.383760
Si Si3 0.935679 0.862987 0.978807
Si Si4 0.172516 0.132236 0.298400
Si Si5 0.807223 0.131463 0.406403
Si Si6 0.107359 0.465912 0.930311
Si Si7 0.093976 0.130256 0.677571
Si Si8 0.555021 0.520921 0.743132
O O1 0.206423 0.416420 0.134464
O O2 0.241902 0.609069 0.156581
O O3 0.045963 0.497076 0.198929
O O4 0.996132 0.554031 0.114048
O O5 0.218501 0.971397 0.417886
O O6 0.031713 0.919521 0.354851
O O7 0.172013 0.099481 0.351545
O O8 0.962712 0.071512 0.411631
O O9 0.990233 0.750000 0.967971
O O10 0.776382 0.884614 0.954762
O O11 0.916635 0.874751 0.033590
O O12 0.065089 0.931667 0.957382
O O13 0.215690 0.250000 0.294582
O O14 0.284967 0.061287 0.270926
O O15 0.011747 0.108677 0.276200
O O16 0.834440 0.250000 0.394470
O O17 0.065171 0.250000 0.680406
O O18 0.077930 0.083832 0.728816
#
# Coordination Sequence:
#
# PCOD8253257 Si02
#       8
#     8   8   8   8   8   8   8   8
#     4  10  20  38  57  79 110 147 193 233 279 339
#     4  10  21  37  58  86 117 145 194 235 283 340
#     4   9  20  37  57  84 114 148 186 225 286 351
#     4  11  22  35  55  83 116 149 184 232 284 339
#     4   9  19  36  57  81 114 150 181 227 290 350
#     4  10  20  37  61  84 115 145 180 242 286 328
#     4  10  23  41  58  77 112 156 197 238 279 328
#     4  11  21  39  53  81 115 148 192 234 279 338
#
# _framework density 18.740022
#
# number of rings (size 3 to 8) (size 9 to 14) (size 15 to 20)
#    0.000    2.000    2.500    0.750    0.000    4.000 
#    0.000    0.000    0.000    0.000    0.000    0.000 
#    0.000    0.000    0.000    0.000    0.000    0.000 
#
# Total GULP energy -793666.489330 kJ/mol
# GULP energy per Si atom -12401.038896 kJ/mol
# Density = 1.869737 g / cm^3
# Si number density = 18.740022 Si / 1000 Ang^3
#
#
#
# Elastic Constant Matrix: (Units=GPa)
#
#
# Indices 1 2 3 4 5 6 
#
# 1 89.9450 33.2434 27.3683 0.0000 0.0000 0.0000
# 2 33.2434 108.9837 32.8969 0.0000 0.0000 0.0000
# 3 27.3683 32.8969 83.2779 0.0000 0.0000 0.0000
# 4 0.0000 0.0000 0.0000 18.3606 0.0000 0.0000
# 5 0.0000 0.0000 0.0000 0.0000 29.6644 0.0000
# 6 0.0000 0.0000 0.0000 0.0000 0.0000 15.0853
#
#
#
# Elastic Compliance Matrix: (Units=1/GPa)
#
#
# Indices 1 2 3 4 5 6 
#
# 1 0.013209 -0.003087 -0.003121 0.000000 0.000000 0.000000
# 2 -0.003087 0.011139 -0.003386 0.000000 0.000000 0.000000
# 3 -0.003121 -0.003386 0.014371 0.000000 0.000000 0.000000
# 4 0.000000 0.000000 0.000000 0.054464 0.000000 0.000000
# 5 0.000000 0.000000 0.000000 0.000000 0.033710 0.000000
# 6 0.000000 0.000000 0.000000 0.000000 0.000000 0.066290
#
#
# Mechanical properties :
#
#
# Convention : Reuss Voigt Hill
#
# Bulk Modulus (GPa) = 51.20093 52.13600 51.66847
# Shear Modulus (GPa) = 22.84333 25.20194 24.02263
#
# Velocity S-wave (km/s) = 3.49515 3.67116 3.58423
# Velocity P-wave (km/s) = 6.60826 6.77133 6.69029
#
# Compressibility (1/GPa) = 0.01953089
#
# Stress axis : x y z
#
# Youngs Moduli (GPa) = 75.70842 89.77243 69.58298
#
# Poissons Ratio (x) = 0.27711 0.21720
# Poissons Ratio (y) = 0.23370 0.23560
# Poissons Ratio (z) = 0.23632 0.30396
#
# Static dielectric constant tensor:
#      x y z
#    x 3.540900 0.000000 0.000000 
#    y 0.000000 3.242520 0.000000 
#    z 0.000000 0.000000 3.504720 
# 
# 
# High freq. dielectric constant tensor:
#      x y z
#    x 1.735080 0.000000 0.000000 
#    y 0.000000 1.713750 0.000000 
#    z 0.000000 0.000000 1.730460 
# 
# From -- ./inp_files/32253.got.cif
#   From: 2010.03.12/outbox.cif.g09.slc.cpg/sg62_17_cif.got.tgz:32253.got - 2010.04.10 19:12:36.
