data_PCOD8253554
_publ_section_title
;
Structure prediction by ZEFSAII (Michael W. Deem and Ramdas Pophale) SiO2 
 PCOD8253554
Probable space group: P N M A
;
_chemical_formula_sum "Si O2"
_cell_formula_units_Z 56
_cell_length_a 11.428120
_cell_length_b 12.023039
_cell_length_c 20.619864
_cell_angle_alpha 90.000000
_cell_angle_beta 90.000000
_cell_angle_gamma 90.000000
_cell_volume 2833.184417
_symmetry_space_group_name_H-M "P N M A"
_symmetry_group_IT_number 62
_symmetry_cell_setting 'orthorhombic'
loop_
_space_group_symop_operation_xyz
x,y,z
1/2-x,-y,1/2+z
1/2+x,1/2-y,1/2-z
-x,1/2+y,-z
-x,-y,-z
1/2+x,y,1/2-z
1/2-x,1/2+y,1/2+z
x,1/2-y,z
loop_
_atom_site_type_symbol
_atom_site_label
_atom_site_fract_x
_atom_site_fract_y
_atom_site_fract_z
Si Si1 0.760527 0.250000 0.696237
Si Si2 0.871807 0.376850 0.123678
Si Si3 0.127022 0.124247 0.136639
Si Si4 0.040774 0.250000 0.700679
Si Si5 0.708447 0.556565 0.098930
Si Si6 0.034921 0.486100 0.642756
Si Si7 0.672817 0.626463 0.956764
Si Si8 0.681627 0.623405 0.768893
O O1 0.649192 0.250000 0.746633
O O2 0.739604 0.357193 0.650997
O O3 0.899192 0.250000 0.723941
O O4 0.871650 0.250000 0.096436
O O5 0.801112 0.461101 0.077993
O O6 0.805783 0.383358 0.192473
O O7 0.000481 0.431668 0.129710
O O8 0.098212 0.250000 0.157391
O O9 0.193560 0.116037 0.068108
O O10 0.204501 0.070689 0.194857
O O11 0.061190 0.355970 0.654571
O O12 0.600957 0.493216 0.131802
O O13 0.667579 0.617236 0.033849
O O14 0.099776 0.530132 0.578325
O O15 0.069231 0.555271 0.706781
O O16 0.624931 0.750000 0.938500
O O17 0.665841 0.750000 0.793071
#
# Coordination Sequence:
#
# PCOD8253554 Si02
#       8
#     4   8   8   4   8   8   8   8
#     4  10  22  44  64  90 124 164 209 249 306 368
#     4  10  21  34  53  85 120 147 186 243 300 347
#     4   8  17  34  55  78 108 150 185 232 290 350
#     4  10  22  42  64  88 132 156 203 259 300 374
#     4  11  22  37  59  87 115 158 201 242 298 355
#     4  10  21  37  59  89 113 151 198 245 300 345
#     4  10  20  40  63  81 113 156 203 246 293 363
#     4   9  18  34  57  83 114 150 191 233 292 362
#
# _framework density 19.765744999999999
#
# number of rings (size 3 to 8) (size 9 to 14) (size 15 to 20)
#    0.000    2.286    0.714    2.571    2.000    1.714 
#    9.000    0.000    0.000    0.000    0.000    0.000 
#    0.000    0.000    0.000    0.000    0.000    0.000 
#
# Total GULP energy -693791.817567 kJ/mol
# GULP energy per Si atom -12389.139599 kJ/mol
# Density = 1.972076 g / cm^3
# Si number density = 19.765745 Si / 1000 Ang^3
#
#
#
# Elastic Constant Matrix: (Units=GPa)
#
#
# Indices 1 2 3 4 5 6 
#
# 1 105.5115 48.1804 9.6759 0.0000 0.0000 0.0000
# 2 48.1804 92.8722 12.8474 0.0000 0.0000 0.0000
# 3 9.6759 12.8474 43.4655 0.0000 0.0000 0.0000
# 4 0.0000 0.0000 0.0000 17.9723 0.0000 0.0000
# 5 0.0000 0.0000 0.0000 0.0000 16.0820 0.0000
# 6 0.0000 0.0000 0.0000 0.0000 0.0000 30.6563
#
#
#
# Elastic Compliance Matrix: (Units=1/GPa)
#
#
# Indices 1 2 3 4 5 6 
#
# 1 0.012453 -0.006336 -0.000899 0.000000 0.000000 0.000000
# 2 -0.006336 0.014450 -0.002861 0.000000 0.000000 0.000000
# 3 -0.000899 -0.002861 0.024053 0.000000 0.000000 0.000000
# 4 0.000000 0.000000 0.000000 0.055641 0.000000 0.000000
# 5 0.000000 0.000000 0.000000 0.000000 0.062181 0.000000
# 6 0.000000 0.000000 0.000000 0.000000 0.000000 0.032620
#
#
# Mechanical properties :
#
#
# Convention : Reuss Voigt Hill
#
# Bulk Modulus (GPa) = 32.50587 42.58406 37.54496
# Shear Modulus (GPa) = 21.56608 24.35183 22.95896
#
# Velocity S-wave (km/s) = 3.30674 3.51382 3.41185
# Velocity P-wave (km/s) = 5.57321 6.16877 5.87854
#
# Compressibility (1/GPa) = 0.03076368
#
# Stress axis : x y z
#
# Youngs Moduli (GPa) = 80.29897 69.20261 41.57569
#
# Poissons Ratio (x) = 0.43848 0.03740
# Poissons Ratio (y) = 0.50879 0.11893
# Poissons Ratio (z) = 0.07222 0.19797
#
# Static dielectric constant tensor:
#      x y z
#    x 3.847790 0.000000 0.000000 
#    y 0.000000 3.622930 0.000000 
#    z 0.000000 0.000000 3.391380 
# 
# 
# High freq. dielectric constant tensor:
#      x y z
#    x 1.773310 0.000000 0.000000 
#    y 0.000000 1.765280 0.000000 
#    z 0.000000 0.000000 1.751490 
# 
# From -- ./inp_files/26659.got.cif
#   From: 2010.03.12/outbox.cif.g09.slc.cpg/sg62_14_cif.got.tgz:26659.got - 2010.04.10 19:12:36.
