data_PCOD8253069
_publ_section_title
;
Structure prediction by ZEFSAII (Michael W. Deem and Ramdas Pophale) SiO2 
 PCOD8253069
Probable space group: P N M A
;
_chemical_formula_sum "Si O2"
_cell_formula_units_Z 48
_cell_length_a 9.971879
_cell_length_b 9.096458
_cell_length_c 27.626641
_cell_angle_alpha 90.000000
_cell_angle_beta 90.000000
_cell_angle_gamma 90.000000
_cell_volume 2505.978859
_symmetry_space_group_name_H-M "P N M A"
_symmetry_group_IT_number 62
_symmetry_cell_setting 'orthorhombic'
loop_
_space_group_symop_operation_xyz
x,y,z
1/2-x,-y,1/2+z
1/2+x,1/2-y,1/2-z
-x,1/2+y,-z
-x,-y,-z
1/2+x,y,1/2-z
1/2-x,1/2+y,1/2+z
x,1/2-y,z
loop_
_atom_site_type_symbol
_atom_site_label
_atom_site_fract_x
_atom_site_fract_y
_atom_site_fract_z
Si Si1 0.529356 0.421754 0.603258
Si Si2 0.732259 0.420047 0.930793
Si Si3 0.388651 0.922461 0.785091
Si Si4 0.743789 0.576758 0.541337
Si Si5 0.481488 0.924006 0.888509
Si Si6 0.413330 0.076645 0.296531
O O1 0.561118 0.250000 0.605545
O O2 0.374516 0.453261 0.593180
O O3 0.613244 0.492283 0.559796
O O4 0.570129 0.495099 0.653257
O O5 0.693422 0.250000 0.927319
O O6 0.625499 0.512056 0.900859
O O7 0.731492 0.471582 0.986359
O O8 0.413517 0.750000 0.786758
O O9 0.435451 0.988317 0.836570
O O10 0.233567 0.959715 0.775190
O O11 0.478326 0.987116 0.741464
O O12 0.716667 0.750000 0.546223
O O13 0.872786 0.526107 0.571905
O O14 0.493440 0.750000 0.887179
O O15 0.429835 0.250000 0.306086
#
# Coordination Sequence:
#
# PCOD8253069 Si02
#       6
#     8   8   8   8   8   8
#     4  11  23  38  56  84 119 152 192 234 282 343
#     4  10  23  38  55  84 119 154 190 232 284 343
#     4   9  19  35  59  87 109 139 186 236 280 332
#     4  10  20  39  62  82 112 152 194 240 285 334
#     4  10  20  36  59  87 113 143 190 238 285 339
#     4  10  20  38  61  84 113 146 187 237 286 335
#
# _framework density 19.154192999999999
#
# number of rings (size 3 to 8) (size 9 to 14) (size 15 to 20)
#    0.000    2.000    1.667    1.500    2.333    2.667 
#    0.000    1.667    0.000    0.000    0.000    0.000 
#    0.000    0.000    0.000    0.000    0.000    0.000 
#
# Total GULP energy -595362.286347 kJ/mol
# GULP energy per Si atom -12403.380966 kJ/mol
# Density = 1.911060 g / cm^3
# Si number density = 19.154193 Si / 1000 Ang^3
#
#
#
# Elastic Constant Matrix: (Units=GPa)
#
#
# Indices 1 2 3 4 5 6 
#
# 1 88.9728 26.9869 22.3154 0.0000 0.0000 0.0000
# 2 26.9869 33.2910 6.0253 0.0000 0.0000 0.0000
# 3 22.3154 6.0253 45.0924 0.0000 0.0000 0.0000
# 4 0.0000 0.0000 0.0000 17.7181 0.0000 0.0000
# 5 0.0000 0.0000 0.0000 0.0000 41.2121 0.0000
# 6 0.0000 0.0000 0.0000 0.0000 0.0000 25.8454
#
#
#
# Elastic Compliance Matrix: (Units=1/GPa)
#
#
# Indices 1 2 3 4 5 6 
#
# 1 0.016614 -0.012277 -0.006581 0.000000 0.000000 0.000000
# 2 -0.012277 0.039854 0.000750 0.000000 0.000000 0.000000
# 3 -0.006581 0.000750 0.025334 0.000000 0.000000 0.000000
# 4 0.000000 0.000000 0.000000 0.056439 0.000000 0.000000
# 5 0.000000 0.000000 0.000000 0.000000 0.024265 0.000000
# 6 0.000000 0.000000 0.000000 0.000000 0.000000 0.038692
#
#
# Mechanical properties :
#
#
# Convention : Reuss Voigt Hill
#
# Bulk Modulus (GPa) = 21.93674 30.89016 26.41345
# Shear Modulus (GPa) = 19.79348 24.42368 22.10858
#
# Velocity S-wave (km/s) = 3.21810 3.57474 3.40110
# Velocity P-wave (km/s) = 5.02850 5.76198 5.40769
#
# Compressibility (1/GPa) = 0.04558562
#
# Stress axis : x y z
#
# Youngs Moduli (GPa) = 60.19100 25.09144 39.47341
#
# Poissons Ratio (x) = 0.30804 0.25979
# Poissons Ratio (y) = 0.73894 -0.02961
# Poissons Ratio (z) = 0.39614 -0.01882
#
# Static dielectric constant tensor:
#      x y z
#    x 3.659840 0.000000 0.000000 
#    y 0.000000 3.248260 0.000000 
#    z 0.000000 0.000000 3.698840 
# 
# 
# High freq. dielectric constant tensor:
#      x y z
#    x 1.759760 0.000000 0.000000 
#    y 0.000000 1.717510 0.000000 
#    z 0.000000 0.000000 1.757890 
# 
# From -- ./inp_files/31916.got.cif
#   From: 2010.03.12/outbox.cif.g09.slc.cpg/sg62_16_cif.got.tgz:31916.got - 2010.04.10 19:12:36.
