data_PCOD8253405
_publ_section_title
;
Structure prediction by ZEFSAII (Michael W. Deem and Ramdas Pophale) SiO2 
 PCOD8253405
Probable space group: P N M A
;
_chemical_formula_sum "Si O2"
_cell_formula_units_Z 40
_cell_length_a 18.693115
_cell_length_b 8.364790
_cell_length_c 12.395378
_cell_angle_alpha 90.000000
_cell_angle_beta 90.000000
_cell_angle_gamma 90.000000
_cell_volume 1938.190655
_symmetry_space_group_name_H-M "P N M A"
_symmetry_group_IT_number 62
_symmetry_cell_setting 'orthorhombic'
loop_
_space_group_symop_operation_xyz
x,y,z
1/2-x,-y,1/2+z
1/2+x,1/2-y,1/2-z
-x,1/2+y,-z
-x,-y,-z
1/2+x,y,1/2-z
1/2-x,1/2+y,1/2+z
x,1/2-y,z
loop_
_atom_site_type_symbol
_atom_site_label
_atom_site_fract_x
_atom_site_fract_y
_atom_site_fract_z
Si Si1 0.893531 0.563563 0.316079
Si Si2 0.840587 0.436276 0.534275
Si Si3 0.187019 0.439432 0.895157
Si Si4 0.450397 0.563698 0.799562
Si Si5 0.430194 0.938984 0.558643
O O1 0.911843 0.750000 0.301553
O O2 0.850088 0.536169 0.425372
O O3 0.845384 0.497300 0.217429
O O4 0.966082 0.462988 0.319884
O O5 0.835044 0.250000 0.505001
O O6 0.767970 0.500914 0.590303
O O7 0.906549 0.462837 0.613893
O O8 0.185824 0.250000 0.893597
O O9 0.139197 0.503770 0.994932
O O10 0.432670 0.750000 0.814026
O O11 0.428165 0.498881 0.681446
O O12 0.432937 0.750000 0.558194
O O13 0.500000 0.000000 0.500000
#
# Coordination Sequence:
#
# PCOD8253405 Si02
#       5
#     8   8   8   8   8
#     4  11  22  41  65  88 120 159 203 249 299 359
#     4  11  24  41  62  88 123 162 201 247 304 359
#     4   9  21  40  61  87 121 158 194 245 305 355
#     4  11  23  39  63  93 122 157 203 249 300 357
#     4  10  20  38  62  89 119 155 197 246 297 354
#
# _framework density 20.637803000000002
#
# number of rings (size 3 to 8) (size 9 to 14) (size 15 to 20)
#    0.000    1.600    2.000    2.400    2.800    0.800 
#    0.000    5.000    0.000    0.000    0.000    0.000 
#    0.000    0.000    0.000    0.000    0.000    0.000 
#
# Total GULP energy -496159.996268 kJ/mol
# GULP energy per Si atom -12403.999907 kJ/mol
# Density = 2.059083 g / cm^3
# Si number density = 20.637803 Si / 1000 Ang^3
#
#
#
# Elastic Constant Matrix: (Units=GPa)
#
#
# Indices 1 2 3 4 5 6 
#
# 1 142.1676 3.6030 64.7587 0.0000 0.0000 0.0000
# 2 3.6030 30.4190 10.4415 0.0000 0.0000 0.0000
# 3 64.7587 10.4415 145.8560 0.0000 0.0000 0.0000
# 4 0.0000 0.0000 0.0000 21.9895 0.0000 0.0000
# 5 0.0000 0.0000 0.0000 0.0000 40.6132 0.0000
# 6 0.0000 0.0000 0.0000 0.0000 0.0000 18.4879
#
#
#
# Elastic Compliance Matrix: (Units=1/GPa)
#
#
# Indices 1 2 3 4 5 6 
#
# 1 0.008820 0.000307 -0.003938 0.000000 0.000000 0.000000
# 2 0.000307 0.033713 -0.002550 0.000000 0.000000 0.000000
# 3 -0.003938 -0.002550 0.008787 0.000000 0.000000 0.000000
# 4 0.000000 0.000000 0.000000 0.045476 0.000000 0.000000
# 5 0.000000 0.000000 0.000000 0.000000 0.024623 0.000000
# 6 0.000000 0.000000 0.000000 0.000000 0.000000 0.054089
#
#
# Mechanical properties :
#
#
# Convention : Reuss Voigt Hill
#
# Bulk Modulus (GPa) = 25.66822 52.89433 39.28127
# Shear Modulus (GPa) = 24.89349 32.19409 28.54379
#
# Velocity S-wave (km/s) = 3.47682 3.95391 3.72302
# Velocity P-wave (km/s) = 5.34623 6.82129 6.12830
#
# Compressibility (1/GPa) = 0.03895868
#
# Stress axis : x y z
#
# Youngs Moduli (GPa) = 113.37945 29.66210 113.80424
#
# Poissons Ratio (x) = -0.00911 0.44816
# Poissons Ratio (y) = -0.03481 0.29017
# Poissons Ratio (z) = 0.44648 0.07563
#
# Static dielectric constant tensor:
#      x y z
#    x 3.867340 0.000000 0.000000 
#    y 0.000000 3.476530 0.000000 
#    z 0.000000 0.000000 4.047950 
# 
# 
# High freq. dielectric constant tensor:
#      x y z
#    x 1.813950 0.000000 0.000000 
#    y 0.000000 1.787480 0.000000 
#    z 0.000000 0.000000 1.824100 
# 
# From -- ./inp_files/13845.got.cif
#   From: 2010.03.12/outbox.cif.g09.slc.cpg/sg62_7_cif.got.tgz:13845.got - 2010.04.10 19:12:36.
