data_PCOD8253189
_publ_section_title
;
Structure prediction by ZEFSAII (Michael W. Deem and Ramdas Pophale) SiO2 
 PCOD8253189
Probable space group: P N M A
;
_chemical_formula_sum "Si O2"
_cell_formula_units_Z 64
_cell_length_a 18.806087
_cell_length_b 9.098907
_cell_length_c 19.947994
_cell_angle_alpha 90.000000
_cell_angle_beta 90.000000
_cell_angle_gamma 90.000000
_cell_volume 3413.397735
_symmetry_space_group_name_H-M "P N M A"
_symmetry_group_IT_number 62
_symmetry_cell_setting 'orthorhombic'
loop_
_space_group_symop_operation_xyz
x,y,z
1/2-x,-y,1/2+z
1/2+x,1/2-y,1/2-z
-x,1/2+y,-z
-x,-y,-z
1/2+x,y,1/2-z
1/2-x,1/2+y,1/2+z
x,1/2-y,z
loop_
_atom_site_type_symbol
_atom_site_label
_atom_site_fract_x
_atom_site_fract_y
_atom_site_fract_z
Si Si1 0.955766 0.418146 0.176318
Si Si2 0.687652 0.925329 0.259804
Si Si3 0.707430 0.576755 0.662084
Si Si4 0.948438 0.581792 0.701977
Si Si5 0.306056 0.078995 0.590437
Si Si6 0.713221 0.075300 0.028531
Si Si7 0.534447 0.920293 0.438090
Si Si8 0.946494 0.922479 0.549892
O O1 0.964876 0.250000 0.152786
O O2 0.874832 0.467893 0.167120
O O3 0.005978 0.518983 0.131794
O O4 0.980683 0.438239 0.253345
O O5 0.686890 0.750000 0.258175
O O6 0.696445 0.989454 0.335236
O O7 0.754216 0.987221 0.219997
O O8 0.614117 0.979772 0.228630
O O9 0.719002 0.750000 0.673250
O O10 0.738915 0.523212 0.591134
O O11 0.920736 0.750000 0.703771
O O12 0.968239 0.537944 0.626027
O O13 0.290857 0.250000 0.597955
O O14 0.246992 0.010092 0.540231
O O15 0.382014 0.050510 0.556831
O O16 0.714355 0.250000 0.026750
O O17 0.633046 0.016797 0.036369
O O18 0.515649 0.750000 0.441859
O O19 0.500000 0.000000 0.500000
O O20 0.950406 0.750000 0.536327
O O21 0.000000 0.000000 0.500000
#
# Coordination Sequence:
#
# PCOD8253189 Si02
#       8
#     8   8   8   8   8   8   8   8
#     4  10  21  36  59  86 114 150 194 242 292 348
#     4  11  21  35  57  85 114 149 192 240 291 339
#     4  10  20  37  59  83 111 152 194 233 288 352
#     4  10  20  38  60  84 115 152 196 238 287 352
#     4   9  19  34  54  81 112 147 187 233 281 338
#     4   9  17  34  57  77 107 151 194 225 273 347
#     4  11  21  35  54  80 117 154 191 237 288 343
#     4  10  21  37  59  84 111 150 193 240 288 344
#
# _framework density 18.749645999999998
#
# number of rings (size 3 to 8) (size 9 to 14) (size 15 to 20)
#    0.000    2.000    2.500    1.500    0.000    4.000 
#    0.000    0.000    0.000    3.750    0.000    0.000 
#    0.000    0.000    0.000    0.000    0.000    0.000 
#
# Total GULP energy -793631.936159 kJ/mol
# GULP energy per Si atom -12400.499002 kJ/mol
# Density = 1.870697 g / cm^3
# Si number density = 18.749646 Si / 1000 Ang^3
#
#
#
# Elastic Constant Matrix: (Units=GPa)
#
#
# Indices 1 2 3 4 5 6 
#
# 1 96.7709 41.4551 56.7073 0.0000 0.0000 0.0000
# 2 41.4551 47.9714 42.4877 0.0000 0.0000 0.0000
# 3 56.7073 42.4877 155.5199 0.0000 0.0000 0.0000
# 4 0.0000 0.0000 0.0000 25.7469 0.0000 0.0000
# 5 0.0000 0.0000 0.0000 0.0000 35.1996 0.0000
# 6 0.0000 0.0000 0.0000 0.0000 0.0000 27.4698
#
#
#
# Elastic Compliance Matrix: (Units=1/GPa)
#
#
# Indices 1 2 3 4 5 6 
#
# 1 0.017374 -0.012405 -0.002946 0.000000 0.000000 0.000000
# 2 -0.012405 0.036356 -0.005409 0.000000 0.000000 0.000000
# 3 -0.002946 -0.005409 0.008982 0.000000 0.000000 0.000000
# 4 0.000000 0.000000 0.000000 0.038840 0.000000 0.000000
# 5 0.000000 0.000000 0.000000 0.000000 0.028409 0.000000
# 6 0.000000 0.000000 0.000000 0.000000 0.000000 0.036404
#
#
# Mechanical properties :
#
#
# Convention : Reuss Voigt Hill
#
# Bulk Modulus (GPa) = 47.18719 64.61804 55.90261
# Shear Modulus (GPa) = 23.26125 28.32407 25.79266
#
# Velocity S-wave (km/s) = 3.52607 3.89092 3.71298
# Velocity P-wave (km/s) = 6.46523 7.39757 6.94706
#
# Compressibility (1/GPa) = 0.02119219
#
# Stress axis : x y z
#
# Youngs Moduli (GPa) = 57.55695 27.50549 111.33182
#
# Poissons Ratio (x) = 0.34120 0.32801
# Poissons Ratio (y) = 0.71397 0.60224
# Poissons Ratio (z) = 0.16957 0.14879
#
# Static dielectric constant tensor:
#      x y z
#    x 3.438530 0.000000 0.000000 
#    y 0.000000 3.210080 0.000000 
#    z 0.000000 0.000000 3.792300 
# 
# 
# High freq. dielectric constant tensor:
#      x y z
#    x 1.731950 0.000000 0.000000 
#    y 0.000000 1.700190 0.000000 
#    z 0.000000 0.000000 1.744240 
# 
# From -- ./inp_files/27707.got.cif
#   From: 2010.03.12/outbox.cif.g09.slc.cpg/sg62_14_cif.got.tgz:27707.got - 2010.04.10 19:12:36.
