data_PCOD8253521
_publ_section_title
;
Structure prediction by ZEFSAII (Michael W. Deem and Ramdas Pophale) SiO2 
 PCOD8253521
Probable space group: P N M A
;
_chemical_formula_sum "Si O2"
_cell_formula_units_Z 48
_cell_length_a 18.655818
_cell_length_b 8.779297
_cell_length_c 14.841090
_cell_angle_alpha 90.000000
_cell_angle_beta 90.000000
_cell_angle_gamma 90.000000
_cell_volume 2430.747436
_symmetry_space_group_name_H-M "P N M A"
_symmetry_group_IT_number 62
_symmetry_cell_setting 'orthorhombic'
loop_
_space_group_symop_operation_xyz
x,y,z
1/2-x,-y,1/2+z
1/2+x,1/2-y,1/2-z
-x,1/2+y,-z
-x,-y,-z
1/2+x,y,1/2-z
1/2-x,1/2+y,1/2+z
x,1/2-y,z
loop_
_atom_site_type_symbol
_atom_site_label
_atom_site_fract_x
_atom_site_fract_y
_atom_site_fract_z
Si Si1 0.023962 0.069453 0.593807
Si Si2 0.085021 0.930946 0.255304
Si Si3 0.326720 0.428395 0.145926
Si Si4 0.708260 0.074802 0.499565
Si Si5 0.935689 0.071057 0.945436
Si Si6 0.743234 0.572731 0.199739
O O1 0.019494 0.250000 0.586973
O O2 0.970782 0.006043 0.671176
O O3 0.103615 0.020649 0.617957
O O4 0.000000 0.000000 0.500000
O O5 0.085692 0.750000 0.257681
O O6 0.062191 0.991718 0.156950
O O7 0.164529 0.991650 0.277109
O O8 0.344104 0.250000 0.143237
O O9 0.302514 0.478354 0.245394
O O10 0.264207 0.473549 0.076841
O O11 0.684988 0.250000 0.488878
O O12 0.745155 0.044335 0.594757
O O13 0.638727 0.970638 0.492402
O O14 0.945330 0.250000 0.946222
O O15 0.000000 0.000000 0.000000
O O16 0.750838 0.750000 0.225386
#
# Coordination Sequence:
#
# PCOD8253521 Si02
#       6
#     8   8   8   8   8   8
#     4  11  23  41  64  91 123 163 205 250 304 365
#     4   9  20  40  64  87 119 163 203 241 298 366
#     4  11  23  40  61  92 126 157 199 253 304 361
#     4  10  22  40  63  88 122 161 199 250 308 362
#     4  11  23  40  62  88 121 161 207 253 301 363
#     4  10  20  39  64  87 115 158 203 245 301 363
#
# _framework density 19.747012999999999
#
# number of rings (size 3 to 8) (size 9 to 14) (size 15 to 20)
#    0.000    1.667    1.667    2.500    2.333    4.000 
#    0.000    5.833    0.000    0.000    0.000    0.000 
#    0.000    0.000    0.000    0.000    0.000    0.000 
#
# Total GULP energy -595442.347551 kJ/mol
# GULP energy per Si atom -12405.048907 kJ/mol
# Density = 1.970207 g / cm^3
# Si number density = 19.747013 Si / 1000 Ang^3
#
#
#
# Elastic Constant Matrix: (Units=GPa)
#
#
# Indices 1 2 3 4 5 6 
#
# 1 123.2360 35.0851 49.5076 0.0000 0.0000 0.0000
# 2 35.0851 54.8576 33.6688 0.0000 0.0000 0.0000
# 3 49.5076 33.6688 122.2923 0.0000 0.0000 0.0000
# 4 0.0000 0.0000 0.0000 32.6597 0.0000 0.0000
# 5 0.0000 0.0000 0.0000 0.0000 41.1736 0.0000
# 6 0.0000 0.0000 0.0000 0.0000 0.0000 35.5799
#
#
#
# Elastic Compliance Matrix: (Units=1/GPa)
#
#
# Indices 1 2 3 4 5 6 
#
# 1 0.010742 -0.005055 -0.002957 0.000000 0.000000 0.000000
# 2 -0.005055 0.024315 -0.004648 0.000000 0.000000 0.000000
# 3 -0.002957 -0.004648 0.010654 0.000000 0.000000 0.000000
# 4 0.000000 0.000000 0.000000 0.030619 0.000000 0.000000
# 5 0.000000 0.000000 0.000000 0.000000 0.024287 0.000000
# 6 0.000000 0.000000 0.000000 0.000000 0.000000 0.028106
#
#
# Mechanical properties :
#
#
# Convention : Reuss Voigt Hill
#
# Bulk Modulus (GPa) = 49.04211 59.65655 54.34933
# Shear Modulus (GPa) = 31.08719 34.02427 32.55573
#
# Velocity S-wave (km/s) = 3.97202 4.15542 4.06475
# Velocity P-wave (km/s) = 6.77680 7.30064 7.04359
#
# Compressibility (1/GPa) = 0.02039064
#
# Stress axis : x y z
#
# Youngs Moduli (GPa) = 93.09650 41.12738 93.86444
#
# Poissons Ratio (x) = 0.20791 0.27753
# Poissons Ratio (y) = 0.47063 0.43625
# Poissons Ratio (z) = 0.27526 0.19115
#
# Static dielectric constant tensor:
#      x y z
#    x 3.836890 0.000000 0.000000 
#    y 0.000000 3.475270 0.000000 
#    z 0.000000 0.000000 3.845700 
# 
# 
# High freq. dielectric constant tensor:
#      x y z
#    x 1.781760 0.000000 0.000000 
#    y 0.000000 1.754670 0.000000 
#    z 0.000000 0.000000 1.787480 
# 
# From -- ./inp_files/19634.got.cif
#   From: 2010.03.12/outbox.cif.g09.slc.cpg/sg62_10_cif.got.tgz:19634.got - 2010.04.10 19:12:36.
