data_PCOD8253092
_publ_section_title
;
Structure prediction by ZEFSAII (Michael W. Deem and Ramdas Pophale) SiO2 
 PCOD8253092
Probable space group: P N M A
;
_chemical_formula_sum "Si O2"
_cell_formula_units_Z 20
_cell_length_a 4.768126
_cell_length_b 14.306733
_cell_length_c 11.560114
_cell_angle_alpha 90.000000
_cell_angle_beta 90.000000
_cell_angle_gamma 90.000000
_cell_volume 788.588269
_symmetry_space_group_name_H-M "P N M A"
_symmetry_group_IT_number 62
_symmetry_cell_setting 'orthorhombic'
loop_
_space_group_symop_operation_xyz
x,y,z
1/2-x,-y,1/2+z
1/2+x,1/2-y,1/2-z
-x,1/2+y,-z
-x,-y,-z
1/2+x,y,1/2-z
1/2-x,1/2+y,1/2+z
x,1/2-y,z
loop_
_atom_site_type_symbol
_atom_site_label
_atom_site_fract_x
_atom_site_fract_y
_atom_site_fract_z
Si Si1 0.211216 0.494860 0.669885
Si Si2 0.933354 0.646466 0.519671
Si Si3 0.053408 0.750000 0.828836
O O1 0.530076 0.497333 0.712533
O O2 0.156816 0.399336 0.600762
O O3 0.158269 0.583291 0.586889
O O4 0.066611 0.750000 0.493947
O O5 0.653106 0.658187 0.600003
O O6 0.224202 0.750000 0.704172
#
# Coordination Sequence:
#
# PCOD8253092 Si02
#       3
#     8   8   4
#     4  11  24  42  63  91 128 162 201 257 310 359
#     4   9  23  42  62  97 118 165 210 250 300 376
#     4  10  20  36  60  86 114 152 198 246 290 346
#
# _framework density 25.361777
#
# number of rings (size 3 to 8) (size 9 to 14) (size 15 to 20)
#    1.200    0.800    0.000    2.400    0.000   11.200 
#    0.000    0.000    0.000    0.000    0.000    0.000 
#    0.000    0.000    0.000    0.000    0.000    0.000 
#
# Total GULP energy -247951.205106 kJ/mol
# GULP energy per Si atom -12397.560255 kJ/mol
# Density = 2.530405 g / cm^3
# Si number density = 25.361777 Si / 1000 Ang^3
#
#
#
# Elastic Constant Matrix: (Units=GPa)
#
#
# Indices 1 2 3 4 5 6 
#
# 1 51.1521 4.9349 7.4861 0.0000 0.0000 0.0000
# 2 4.9349 175.3645 43.4324 0.0000 0.0000 0.0000
# 3 7.4861 43.4324 79.6028 0.0000 0.0000 0.0000
# 4 0.0000 0.0000 0.0000 47.2985 0.0000 0.0000
# 5 0.0000 0.0000 0.0000 0.0000 7.8013 0.0000
# 6 0.0000 0.0000 0.0000 0.0000 0.0000 20.3223
#
#
#
# Elastic Compliance Matrix: (Units=1/GPa)
#
#
# Indices 1 2 3 4 5 6 
#
# 1 0.019824 -0.000111 -0.001804 0.000000 0.000000 0.000000
# 2 -0.000111 0.006594 -0.003587 0.000000 0.000000 0.000000
# 3 -0.001804 -0.003587 0.014689 0.000000 0.000000 0.000000
# 4 0.000000 0.000000 0.000000 0.021142 0.000000 0.000000
# 5 0.000000 0.000000 0.000000 0.000000 0.128184 0.000000
# 6 0.000000 0.000000 0.000000 0.000000 0.000000 0.049207
#
#
# Mechanical properties :
#
#
# Convention : Reuss Voigt Hill
#
# Bulk Modulus (GPa) = 33.21906 46.42515 39.82210
# Shear Modulus (GPa) = 19.18066 31.76880 25.47473
#
# Velocity S-wave (km/s) = 2.75304 3.54308 3.17275
# Velocity P-wave (km/s) = 4.81998 5.92308 5.39977
#
# Compressibility (1/GPa) = 0.03010320
#
# Stress axis : x y z
#
# Youngs Moduli (GPa) = 50.44329 151.65278 68.07680
#
# Poissons Ratio (x) = 0.01686 0.12279
# Poissons Ratio (y) = 0.00561 0.24421
# Poissons Ratio (z) = 0.09098 0.54403
#
# Static dielectric constant tensor:
#      x y z
#    x 4.132060 0.000000 0.000000 
#    y 0.000000 4.753490 0.000000 
#    z 0.000000 0.000000 4.447350 
# 
# 
# High freq. dielectric constant tensor:
#      x y z
#    x 2.002940 0.000000 0.000000 
#    y 0.000000 2.021380 0.000000 
#    z 0.000000 0.000000 2.005450 
# 
# From -- ./inp_files/3758.got.cif
#   From: 2010.03.12/outbox.cif.g09.slc.cpg/sg62_2_cif.got.tgz:3758.got - 2010.04.10 19:12:36.
