data_PCOD8253083
_publ_section_title
;
Structure prediction by ZEFSAII (Michael W. Deem and Ramdas Pophale) SiO2 
 PCOD8253083
Probable space group: P N M A
;
_chemical_formula_sum "Si O2"
_cell_formula_units_Z 56
_cell_length_a 14.148961
_cell_length_b 9.195784
_cell_length_c 19.186061
_cell_angle_alpha 90.000000
_cell_angle_beta 90.000000
_cell_angle_gamma 90.000000
_cell_volume 2496.313538
_symmetry_space_group_name_H-M "P N M A"
_symmetry_group_IT_number 62
_symmetry_cell_setting 'orthorhombic'
loop_
_space_group_symop_operation_xyz
x,y,z
1/2-x,-y,1/2+z
1/2+x,1/2-y,1/2-z
-x,1/2+y,-z
-x,-y,-z
1/2+x,y,1/2-z
1/2-x,1/2+y,1/2+z
x,1/2-y,z
loop_
_atom_site_type_symbol
_atom_site_label
_atom_site_fract_x
_atom_site_fract_y
_atom_site_fract_z
Si Si1 0.288872 0.913406 0.724840
Si Si2 0.025318 0.498973 0.289574
Si Si3 0.872071 0.092627 0.588670
Si Si4 0.541808 0.911165 0.932763
Si Si5 0.136334 0.416727 0.811278
Si Si6 0.189352 0.922874 0.938237
Si Si7 0.260631 0.918656 0.569243
O O1 0.246728 0.750000 0.728270
O O2 0.281059 0.976646 0.646480
O O3 0.399073 0.904345 0.746301
O O4 0.227232 0.016426 0.773598
O O5 0.087572 0.615377 0.333299
O O6 0.965658 0.407841 0.347457
O O7 0.955618 0.578203 0.236677
O O8 0.835634 0.250000 0.561016
O O9 0.792128 0.970286 0.590200
O O10 0.961931 0.033975 0.541530
O O11 0.513828 0.750000 0.958524
O O12 0.651065 0.946828 0.953004
O O13 0.159945 0.250000 0.830120
O O14 0.115968 0.506251 0.882966
O O15 0.178736 0.750000 0.939277
O O16 0.174779 0.988795 0.015558
O O17 0.288412 0.750000 0.563877
#
# Coordination Sequence:
#
# PCOD8253083 Si02
#       7
#     8   8   8   8   8   8   8
#     4  11  22  40  69  99 131 170 214 267 321 383
#     4  10  22  36  65 100 130 163 207 258 323 383
#     4  10  20  36  59  90 125 161 205 258 318 381
#     4   9  18  34  59  89 125 162 204 256 315 382
#     4  12  24  41  67  96 131 170 214 269 319 382
#     4  12  26  42  61  88 124 171 218 265 324 382
#     4  10  22  41  62  90 126 171 216 260 320 382
#
# _framework density 22.43308
#
# number of rings (size 3 to 8) (size 9 to 14) (size 15 to 20)
#    0.857    0.571    2.857    3.000    0.000    4.000 
#    0.000    0.714    0.000    0.000    0.000    0.000 
#    0.000    0.000    0.000    0.000    0.000    0.000 
#
# Total GULP energy -694066.793920 kJ/mol
# GULP energy per Si atom -12394.049891 kJ/mol
# Density = 2.238202 g / cm^3
# Si number density = 22.433080 Si / 1000 Ang^3
#
#
#
# Elastic Constant Matrix: (Units=GPa)
#
#
# Indices 1 2 3 4 5 6 
#
# 1 40.8617 6.5581 9.6646 0.0000 0.0000 0.0000
# 2 6.5581 137.2720 38.3297 0.0000 0.0000 0.0000
# 3 9.6646 38.3297 113.8866 0.0000 0.0000 0.0000
# 4 0.0000 0.0000 0.0000 32.3154 0.0000 0.0000
# 5 0.0000 0.0000 0.0000 0.0000 45.9306 0.0000
# 6 0.0000 0.0000 0.0000 0.0000 0.0000 23.0158
#
#
#
# Elastic Compliance Matrix: (Units=1/GPa)
#
#
# Indices 1 2 3 4 5 6 
#
# 1 0.025029 -0.000665 -0.001900 0.000000 0.000000 0.000000
# 2 -0.000665 0.008058 -0.002656 0.000000 0.000000 0.000000
# 3 -0.001900 -0.002656 0.009836 0.000000 0.000000 0.000000
# 4 0.000000 0.000000 0.000000 0.030945 0.000000 0.000000
# 5 0.000000 0.000000 0.000000 0.000000 0.021772 0.000000
# 6 0.000000 0.000000 0.000000 0.000000 0.000000 0.043448
#
#
# Mechanical properties :
#
#
# Convention : Reuss Voigt Hill
#
# Bulk Modulus (GPa) = 30.78731 44.56947 37.67839
# Shear Modulus (GPa) = 31.18045 36.08354 33.63200
#
# Velocity S-wave (km/s) = 3.73222 4.01496 3.87617
# Velocity P-wave (km/s) = 5.68564 6.43460 6.07168
#
# Compressibility (1/GPa) = 0.03248092
#
# Stress axis : x y z
#
# Youngs Moduli (GPa) = 39.95372 124.09887 101.67066
#
# Poissons Ratio (x) = 0.08255 0.19319
# Poissons Ratio (y) = 0.02658 0.26999
# Poissons Ratio (z) = 0.07592 0.32955
#
# Static dielectric constant tensor:
#      x y z
#    x 3.745130 0.000000 0.000000 
#    y 0.000000 3.727580 0.000000 
#    z 0.000000 0.000000 4.549670 
# 
# 
# High freq. dielectric constant tensor:
#      x y z
#    x 1.852650 0.000000 0.000000 
#    y 0.000000 1.872320 0.000000 
#    z 0.000000 0.000000 1.925510 
# 
# From -- ./inp_files/27144.got.cif
#   From: 2010.03.12/outbox.cif.g09.slc.cpg/sg62_14_cif.got.tgz:27144.got - 2010.04.10 19:12:36.
