data_PCOD8253798
_publ_section_title
;
Structure prediction by ZEFSAII (Michael W. Deem and Ramdas Pophale) SiO2 
 PCOD8253798
Probable space group: P N M A
;
_chemical_formula_sum "Si O2"
_cell_formula_units_Z 48
_cell_length_a 30.304801
_cell_length_b 8.815751
_cell_length_c 9.369210
_cell_angle_alpha 90.000000
_cell_angle_beta 90.000000
_cell_angle_gamma 90.000000
_cell_volume 2503.074206
_symmetry_space_group_name_H-M "P N M A"
_symmetry_group_IT_number 62
_symmetry_cell_setting 'orthorhombic'
loop_
_space_group_symop_operation_xyz
x,y,z
1/2-x,-y,1/2+z
1/2+x,1/2-y,1/2-z
-x,1/2+y,-z
-x,-y,-z
1/2+x,y,1/2-z
1/2-x,1/2+y,1/2+z
x,1/2-y,z
loop_
_atom_site_type_symbol
_atom_site_label
_atom_site_fract_x
_atom_site_fract_y
_atom_site_fract_z
Si Si1 0.461179 0.072160 0.910372
Si Si2 0.708439 0.921478 0.576450
Si Si3 0.617217 0.071830 0.590620
Si Si4 0.540437 0.930185 0.414893
Si Si5 0.118338 0.927369 0.608387
Si Si6 0.782400 0.079039 0.404969
O O1 0.468362 0.250000 0.914057
O O2 0.461946 0.012283 0.748521
O O3 0.414513 0.027566 0.981418
O O4 0.500000 0.000000 0.000000
O O5 0.693439 0.750000 0.542401
O O6 0.725210 0.935179 0.737120
O O7 0.667262 0.031503 0.548583
O O8 0.749212 0.963656 0.477499
O O9 0.609550 0.250000 0.578044
O O10 0.586087 0.987075 0.479447
O O11 0.605319 0.020115 0.750612
O O12 0.538101 0.750000 0.424399
O O13 0.500000 0.000000 0.500000
O O14 0.116081 0.750000 0.649313
O O15 0.167549 0.969084 0.556335
O O16 0.773032 0.250000 0.458427
#
# Coordination Sequence:
#
# PCOD8253798 Si02
#       6
#     8   8   8   8   8   8
#     4  10  22  38  58  83 111 144 183 226 274 328
#     4  10  21  37  57  82 113 149 186 228 279 332
#     4  11  22  37  58  84 112 146 187 230 276 329
#     4  11  23  39  58  84 115 149 187 227 276 331
#     4   9  19  38  59  80 110 146 183 229 281 331
#     4   9  19  35  55  81 111 144 185 230 277 331
#
# _framework density 19.17642
#
# number of rings (size 3 to 8) (size 9 to 14) (size 15 to 20)
#    0.000    2.000    0.000    4.500    0.000    9.333 
#    0.000    1.667    0.000    0.000    0.000    0.000 
#    0.000    0.000    0.000    0.000    0.000    0.000 
#
# Total GULP energy -595366.483589 kJ/mol
# GULP energy per Si atom -12403.468408 kJ/mol
# Density = 1.913277 g / cm^3
# Si number density = 19.176420 Si / 1000 Ang^3
#
#
#
# Elastic Constant Matrix: (Units=GPa)
#
#
# Indices 1 2 3 4 5 6 
#
# 1 112.6646 37.1095 81.5408 0.0000 0.0000 0.0000
# 2 37.1095 71.9589 47.3725 0.0000 0.0000 0.0000
# 3 81.5408 47.3725 130.0285 0.0000 0.0000 0.0000
# 4 0.0000 0.0000 0.0000 30.7562 0.0000 0.0000
# 5 0.0000 0.0000 0.0000 0.0000 39.8224 0.0000
# 6 0.0000 0.0000 0.0000 0.0000 0.0000 37.0862
#
#
#
# Elastic Compliance Matrix: (Units=1/GPa)
#
#
# Indices 1 2 3 4 5 6 
#
# 1 0.016521 -0.002236 -0.009546 0.000000 0.000000 0.000000
# 2 -0.002236 0.018584 -0.005369 0.000000 0.000000 0.000000
# 3 -0.009546 -0.005369 0.015633 0.000000 0.000000 0.000000
# 4 0.000000 0.000000 0.000000 0.032514 0.000000 0.000000
# 5 0.000000 0.000000 0.000000 0.000000 0.025111 0.000000
# 6 0.000000 0.000000 0.000000 0.000000 0.000000 0.026964
#
#
# Mechanical properties :
#
#
# Convention : Reuss Voigt Hill
#
# Bulk Modulus (GPa) = 60.83623 71.85528 66.34576
# Shear Modulus (GPa) = 28.55399 31.44159 29.99779
#
# Velocity S-wave (km/s) = 3.86296 4.05359 3.95942
# Velocity P-wave (km/s) = 7.18958 7.71108 7.45489
#
# Compressibility (1/GPa) = 0.01643757
#
# Stress axis : x y z
#
# Youngs Moduli (GPa) = 60.52862 53.80951 63.96828
#
# Poissons Ratio (x) = 0.12030 0.61063
# Poissons Ratio (y) = 0.13532 0.34342
# Poissons Ratio (z) = 0.57780 0.28888
#
# Static dielectric constant tensor:
#      x y z
#    x 3.495070 0.000000 0.000000 
#    y 0.000000 3.484880 0.000000 
#    z 0.000000 0.000000 3.606390 
# 
# 
# High freq. dielectric constant tensor:
#      x y z
#    x 1.757670 0.000000 0.000000 
#    y 0.000000 1.746670 0.000000 
#    z 0.000000 0.000000 1.745410 
# 
# From -- ./inp_files/10210.got.cif
#   From: 2010.03.12/outbox.cif.g09.slc.cpg/sg62_6_cif.got.tgz:10210.got - 2010.04.10 19:12:36.
