data_PCOD8253508
_publ_section_title
;
Structure prediction by ZEFSAII (Michael W. Deem and Ramdas Pophale) SiO2 
 PCOD8253508
Probable space group: P N M A
;
_chemical_formula_sum "Si O2"
_cell_formula_units_Z 56
_cell_length_a 21.014935
_cell_length_b 8.721465
_cell_length_c 14.615980
_cell_angle_alpha 90.000000
_cell_angle_beta 90.000000
_cell_angle_gamma 90.000000
_cell_volume 2678.831724
_symmetry_space_group_name_H-M "P N M A"
_symmetry_group_IT_number 62
_symmetry_cell_setting 'orthorhombic'
loop_
_space_group_symop_operation_xyz
x,y,z
1/2-x,-y,1/2+z
1/2+x,1/2-y,1/2-z
-x,1/2+y,-z
-x,-y,-z
1/2+x,y,1/2-z
1/2-x,1/2+y,1/2+z
x,1/2-y,z
loop_
_atom_site_type_symbol
_atom_site_label
_atom_site_fract_x
_atom_site_fract_y
_atom_site_fract_z
Si Si1 0.472706 0.069283 0.263616
Si Si2 0.143638 0.574196 0.445815
Si Si3 0.347846 0.931751 0.335481
Si Si4 0.101151 0.925668 0.249806
Si Si5 0.450539 0.930536 0.068839
Si Si6 0.767067 0.069844 0.017251
Si Si7 0.739649 0.568530 0.307218
O O1 0.469703 0.250000 0.250864
O O2 0.416651 0.012227 0.329151
O O3 0.543726 0.021038 0.297528
O O4 0.461730 0.981801 0.170236
O O5 0.160133 0.750000 0.467093
O O6 0.094911 0.562659 0.360439
O O7 0.117549 0.492858 0.536669
O O8 0.207741 0.483667 0.420713
O O9 0.356200 0.750000 0.328426
O O10 0.298179 0.992463 0.256462
O O11 0.326104 0.980984 0.437215
O O12 0.094993 0.750000 0.217010
O O13 0.170231 0.994128 0.223418
O O14 0.452174 0.750000 0.062654
O O15 0.500000 0.000000 0.000000
O O16 0.779149 0.250000 0.024286
O O17 0.753369 0.017769 0.912875
O O18 0.739166 0.750000 0.295838
#
# Coordination Sequence:
#
# PCOD8253508 Si02
#       7
#     8   8   8   8   8   8   8
#     4  12  25  40  59  90 126 162 207 259 315 377
#     4  11  21  36  60  87 120 161 206 253 308 373
#     4  11  22  42  66  91 126 169 210 256 316 379
#     4  10  20  39  63  86 117 162 208 252 306 370
#     4  12  23  36  55  84 121 161 200 246 308 376
#     4  11  22  38  63  94 125 159 207 265 316 370
#     4   9  20  40  65  90 120 162 209 255 309 370
#
# _framework density 20.904634000000001
#
# number of rings (size 3 to 8) (size 9 to 14) (size 15 to 20)
#    0.000    1.143    2.857    4.714    0.000    1.714 
#    0.000    4.286    0.000    0.000    0.000    0.000 
#    0.000    0.000    0.000    0.000    0.000    0.000 
#
# Total GULP energy -694239.576341 kJ/mol
# GULP energy per Si atom -12397.135292 kJ/mol
# Density = 2.085705 g / cm^3
# Si number density = 20.904634 Si / 1000 Ang^3
#
#
#
# Elastic Constant Matrix: (Units=GPa)
#
#
# Indices 1 2 3 4 5 6 
#
# 1 119.5405 38.5359 7.9762 0.0000 0.0000 0.0000
# 2 38.5359 139.3802 15.3212 0.0000 0.0000 0.0000
# 3 7.9762 15.3212 48.0248 0.0000 0.0000 0.0000
# 4 0.0000 0.0000 0.0000 27.1028 0.0000 0.0000
# 5 0.0000 0.0000 0.0000 0.0000 31.6298 0.0000
# 6 0.0000 0.0000 0.0000 0.0000 0.0000 34.7319
#
#
#
# Elastic Compliance Matrix: (Units=1/GPa)
#
#
# Indices 1 2 3 4 5 6 
#
# 1 0.009209 -0.002465 -0.000743 0.000000 0.000000 0.000000
# 2 -0.002465 0.008095 -0.002173 0.000000 0.000000 0.000000
# 3 -0.000743 -0.002173 0.021639 0.000000 0.000000 0.000000
# 4 0.000000 0.000000 0.000000 0.036897 0.000000 0.000000
# 5 0.000000 0.000000 0.000000 0.000000 0.031616 0.000000
# 6 0.000000 0.000000 0.000000 0.000000 0.000000 0.028792
#
#
# Mechanical properties :
#
#
# Convention : Reuss Voigt Hill
#
# Bulk Modulus (GPa) = 35.48403 47.84580 41.66491
# Shear Modulus (GPa) = 31.96852 35.03372 33.50112
#
# Velocity S-wave (km/s) = 3.91481 4.09820 4.00755
# Velocity P-wave (km/s) = 6.11927 6.73283 6.43337
#
# Compressibility (1/GPa) = 0.02818169
#
# Stress axis : x y z
#
# Youngs Moduli (GPa) = 108.58423 123.53459 46.21212
#
# Poissons Ratio (x) = 0.30445 0.03435
# Poissons Ratio (y) = 0.26761 0.10043
# Poissons Ratio (z) = 0.08071 0.26846
#
# Static dielectric constant tensor:
#      x y z
#    x 4.264780 0.000000 0.000000 
#    y 0.000000 3.691270 0.000000 
#    z 0.000000 0.000000 3.757640 
# 
# 
# High freq. dielectric constant tensor:
#      x y z
#    x 1.834670 0.000000 0.000000 
#    y 0.000000 1.807290 0.000000 
#    z 0.000000 0.000000 1.798890 
# 
# From -- ./inp_files/20346.got.cif
#   From: 2010.03.12/outbox.cif.g09.slc.cpg/sg62_11_cif.got.tgz:20346.got - 2010.04.10 19:12:36.
