data_PCOD8253746
_publ_section_title
;
Structure prediction by ZEFSAII (Michael W. Deem and Ramdas Pophale) SiO2 
 PCOD8253746
Probable space group: P N M A
;
_chemical_formula_sum "Si O2"
_cell_formula_units_Z 56
_cell_length_a 21.749271
_cell_length_b 9.165169
_cell_length_c 14.250717
_cell_angle_alpha 90.000000
_cell_angle_beta 90.000000
_cell_angle_gamma 90.000000
_cell_volume 2840.677281
_symmetry_space_group_name_H-M "P N M A"
_symmetry_group_IT_number 62
_symmetry_cell_setting 'orthorhombic'
loop_
_space_group_symop_operation_xyz
x,y,z
1/2-x,-y,1/2+z
1/2+x,1/2-y,1/2-z
-x,1/2+y,-z
-x,-y,-z
1/2+x,y,1/2-z
1/2-x,1/2+y,1/2+z
x,1/2-y,z
loop_
_atom_site_type_symbol
_atom_site_label
_atom_site_fract_x
_atom_site_fract_y
_atom_site_fract_z
Si Si1 0.450092 0.916715 0.618089
Si Si2 0.027839 0.082370 0.587719
Si Si3 0.811340 0.418704 0.180930
Si Si4 0.700249 0.918640 0.085596
Si Si5 0.924775 0.917597 0.092025
Si Si6 0.586750 0.914654 0.214143
Si Si7 0.152166 0.582527 0.613410
O O1 0.468406 0.750000 0.638541
O O2 0.414771 0.930965 0.519656
O O3 0.510667 0.014339 0.620858
O O4 0.404259 0.976453 0.698210
O O5 0.037227 0.250000 0.559264
O O6 0.981667 0.065985 0.674463
O O7 0.092222 0.016760 0.620331
O O8 0.000000 0.000000 0.500000
O O9 0.816512 0.250000 0.153796
O O10 0.751122 0.482669 0.133421
O O11 0.871045 0.498657 0.143268
O O12 0.807149 0.440419 0.293291
O O13 0.719105 0.750000 0.098034
O O14 0.635077 0.954542 0.133215
O O15 0.694097 0.960229 0.975879
O O16 0.924603 0.750000 0.124749
O O17 0.597817 0.750000 0.249479
O O18 0.130132 0.750000 0.602968
#
# Coordination Sequence:
#
# PCOD8253746 Si02
#       7
#     8   8   8   8   8   8   8
#     4  10  21  36  59  89 119 151 191 243 293 341
#     4  11  21  35  59  90 122 155 193 240 298 355
#     4  11  24  40  62  89 116 151 201 252 294 346
#     4  10  22  42  61  80 116 158 195 237 290 352
#     4  10  21  39  60  84 117 156 194 235 293 354
#     4  10  21  37  58  86 120 158 195 236 294 357
#     4  10  22  42  62  85 119 156 196 245 299 352
#
# _framework density 19.713608000000001
#
# number of rings (size 3 to 8) (size 9 to 14) (size 15 to 20)
#    0.000    1.714    1.429    2.571    0.000    8.571 
#    0.000    4.286    0.000    0.000    0.000    0.000 
#    0.000    0.000    0.000    0.000    0.000    0.000 
#
# Total GULP energy -694637.312526 kJ/mol
# GULP energy per Si atom -12404.237724 kJ/mol
# Density = 1.966874 g / cm^3
# Si number density = 19.713608 Si / 1000 Ang^3
#
#
#
# Elastic Constant Matrix: (Units=GPa)
#
#
# Indices 1 2 3 4 5 6 
#
# 1 73.9959 47.5466 46.0681 0.0000 0.0000 0.0000
# 2 47.5466 124.2166 69.6214 0.0000 0.0000 0.0000
# 3 46.0681 69.6214 130.9244 0.0000 0.0000 0.0000
# 4 0.0000 0.0000 0.0000 33.0554 0.0000 0.0000
# 5 0.0000 0.0000 0.0000 0.0000 24.7530 0.0000
# 6 0.0000 0.0000 0.0000 0.0000 0.0000 37.4787
#
#
#
# Elastic Compliance Matrix: (Units=1/GPa)
#
#
# Indices 1 2 3 4 5 6 
#
# 1 0.019345 -0.005114 -0.004088 0.000000 0.000000 0.000000
# 2 -0.005114 0.012820 -0.005018 0.000000 0.000000 0.000000
# 3 -0.004088 -0.005018 0.011745 0.000000 0.000000 0.000000
# 4 0.000000 0.000000 0.000000 0.030252 0.000000 0.000000
# 5 0.000000 0.000000 0.000000 0.000000 0.040399 0.000000
# 6 0.000000 0.000000 0.000000 0.000000 0.000000 0.026682
#
#
# Mechanical properties :
#
#
# Convention : Reuss Voigt Hill
#
# Bulk Modulus (GPa) = 64.63572 72.84545 68.74059
# Shear Modulus (GPa) = 28.59772 30.11748 29.35760
#
# Velocity S-wave (km/s) = 3.81288 3.91289 3.86321
# Velocity P-wave (km/s) = 7.22791 7.57933 7.40571
#
# Compressibility (1/GPa) = 0.01547132
#
# Stress axis : x y z
#
# Youngs Moduli (GPa) = 51.69325 78.00058 85.14423
#
# Poissons Ratio (x) = 0.39887 0.34803
# Poissons Ratio (y) = 0.26434 0.42727
# Poissons Ratio (z) = 0.21130 0.39142
#
# Static dielectric constant tensor:
#      x y z
#    x 3.486380 0.000000 0.000000 
#    y 0.000000 3.780150 0.000000 
#    z 0.000000 0.000000 3.808340 
# 
# 
# High freq. dielectric constant tensor:
#      x y z
#    x 1.753010 0.000000 0.000000 
#    y 0.000000 1.776630 0.000000 
#    z 0.000000 0.000000 1.783720 
# 
# From -- ./inp_files/20396.got.cif
#   From: 2010.03.12/outbox.cif.g09.slc.cpg/sg62_11_cif.got.tgz:20396.got - 2010.04.10 19:12:36.
