data_PCOD8253078
_publ_section_title
;
Structure prediction by ZEFSAII (Michael W. Deem and Ramdas Pophale) SiO2 
 PCOD8253078
Probable space group: P N M A
;
_chemical_formula_sum "Si O2"
_cell_formula_units_Z 56
_cell_length_a 23.761460
_cell_length_b 8.827716
_cell_length_c 13.386157
_cell_angle_alpha 90.000000
_cell_angle_beta 90.000000
_cell_angle_gamma 90.000000
_cell_volume 2807.872537
_symmetry_space_group_name_H-M "P N M A"
_symmetry_group_IT_number 62
_symmetry_cell_setting 'orthorhombic'
loop_
_space_group_symop_operation_xyz
x,y,z
1/2-x,-y,1/2+z
1/2+x,1/2-y,1/2-z
-x,1/2+y,-z
-x,-y,-z
1/2+x,y,1/2-z
1/2-x,1/2+y,1/2+z
x,1/2-y,z
loop_
_atom_site_type_symbol
_atom_site_label
_atom_site_fract_x
_atom_site_fract_y
_atom_site_fract_z
Si Si1 0.233446 0.075746 0.771455
Si Si2 0.438265 0.428326 0.201371
Si Si3 0.378283 0.926028 0.385941
Si Si4 0.444940 0.428095 0.547582
Si Si5 0.158174 0.075606 0.589280
Si Si6 0.838595 0.924321 0.638566
Si Si7 0.947099 0.072591 0.722466
O O1 0.253111 0.250000 0.773438
O O2 0.186040 0.045458 0.855116
O O3 0.209238 0.030091 0.662844
O O4 0.286248 0.969751 0.792666
O O5 0.436674 0.250000 0.216369
O O6 0.420669 0.508063 0.303959
O O7 0.396658 0.474941 0.111749
O O8 0.500888 0.482498 0.173829
O O9 0.392342 0.750000 0.396166
O O10 0.389741 0.008020 0.491172
O O11 0.500000 0.500000 0.500000
O O12 0.447901 0.250000 0.533475
O O13 0.439285 0.475049 0.662514
O O14 0.141630 0.250000 0.610270
O O15 0.178296 0.048206 0.476658
O O16 0.853704 0.750000 0.659094
O O17 0.891666 0.027681 0.662583
O O18 0.958111 0.250000 0.710460
#
# Coordination Sequence:
#
# PCOD8253078 Si02
#       7
#     8   8   8   8   8   8   8
#     4   9  20  40  63  85 115 156 197 240 296 359
#     4  11  21  35  60  90 117 151 199 246 291 353
#     4  10  20  36  59  87 121 160 199 243 297 354
#     4  11  22  35  57  87 121 160 199 244 297 356
#     4   9  21  42  64  85 116 157 196 241 297 354
#     4  11  24  41  62  89 119 153 199 252 297 349
#     4  11  24  40  58  83 122 163 196 242 303 358
#
# _framework density 19.943925
#
# number of rings (size 3 to 8) (size 9 to 14) (size 15 to 20)
#    0.000    1.714    1.429    3.857    0.000    7.429 
#    0.000    4.286    0.000    0.000    0.000    0.000 
#    0.000    0.000    0.000    0.000    0.000    0.000 
#
# Total GULP energy -694689.206985 kJ/mol
# GULP energy per Si atom -12405.164410 kJ/mol
# Density = 1.989853 g / cm^3
# Si number density = 19.943925 Si / 1000 Ang^3
#
#
#
# Elastic Constant Matrix: (Units=GPa)
#
#
# Indices 1 2 3 4 5 6 
#
# 1 100.7985 32.7058 33.0624 0.0000 0.0000 0.0000
# 2 32.7058 81.8511 31.3769 0.0000 0.0000 0.0000
# 3 33.0624 31.3769 84.9113 0.0000 0.0000 0.0000
# 4 0.0000 0.0000 0.0000 30.9327 0.0000 0.0000
# 5 0.0000 0.0000 0.0000 0.0000 26.8943 0.0000
# 6 0.0000 0.0000 0.0000 0.0000 0.0000 37.1693
#
#
#
# Elastic Compliance Matrix: (Units=1/GPa)
#
#
# Indices 1 2 3 4 5 6 
#
# 1 0.012203 -0.003559 -0.003436 0.000000 0.000000 0.000000
# 2 -0.003559 0.015271 -0.004258 0.000000 0.000000 0.000000
# 3 -0.003436 -0.004258 0.014688 0.000000 0.000000 0.000000
# 4 0.000000 0.000000 0.000000 0.032328 0.000000 0.000000
# 5 0.000000 0.000000 0.000000 0.000000 0.037183 0.000000
# 6 0.000000 0.000000 0.000000 0.000000 0.000000 0.026904
#
#
# Mechanical properties :
#
#
# Convention : Reuss Voigt Hill
#
# Bulk Modulus (GPa) = 50.87188 51.31679 51.09433
# Shear Modulus (GPa) = 29.82682 30.36032 30.09357
#
# Velocity S-wave (km/s) = 3.87141 3.90588 3.88868
# Velocity P-wave (km/s) = 6.74882 6.79173 6.77031
#
# Compressibility (1/GPa) = 0.01965723
#
# Stress axis : x y z
#
# Youngs Moduli (GPa) = 81.94987 65.48234 68.08131
#
# Poissons Ratio (x) = 0.23302 0.23396
# Poissons Ratio (y) = 0.29162 0.28986
# Poissons Ratio (z) = 0.28161 0.27879
#
# Static dielectric constant tensor:
#      x y z
#    x 8.077540 0.000000 0.000000 
#    y 0.000000 3.646200 0.000000 
#    z 0.000000 0.000000 3.641150 
# 
# 
# High freq. dielectric constant tensor:
#      x y z
#    x 1.775200 0.000000 0.000000 
#    y 0.000000 1.784690 0.000000 
#    z 0.000000 0.000000 1.774930 
# 
# From -- ./inp_files/20273.got.cif
#   From: 2010.03.12/outbox.cif.g09.slc.cpg/sg62_11_cif.got.tgz:20273.got - 2010.04.10 19:12:36.
