data_PCOD8253429
_publ_section_title
;
Structure prediction by ZEFSAII (Michael W. Deem and Ramdas Pophale) SiO2 
 PCOD8253429
Probable space group: P N M A
;
_chemical_formula_sum "Si O2"
_cell_formula_units_Z 48
_cell_length_a 9.535897
_cell_length_b 9.020607
_cell_length_c 27.678873
_cell_angle_alpha 90.000000
_cell_angle_beta 90.000000
_cell_angle_gamma 90.000000
_cell_volume 2380.925009
_symmetry_space_group_name_H-M "P N M A"
_symmetry_group_IT_number 62
_symmetry_cell_setting 'orthorhombic'
loop_
_space_group_symop_operation_xyz
x,y,z
1/2-x,-y,1/2+z
1/2+x,1/2-y,1/2-z
-x,1/2+y,-z
-x,-y,-z
1/2+x,y,1/2-z
1/2-x,1/2+y,1/2+z
x,1/2-y,z
loop_
_atom_site_type_symbol
_atom_site_label
_atom_site_fract_x
_atom_site_fract_y
_atom_site_fract_z
Si Si1 0.449694 0.080315 0.548044
Si Si2 0.715341 0.583173 0.896666
Si Si3 0.862640 0.073870 0.293267
Si Si4 0.720346 0.420819 0.606788
Si Si5 0.318932 0.573323 0.796929
Si Si6 0.059844 0.082359 0.454295
O O1 0.427142 0.250000 0.533893
O O2 0.558300 0.062770 0.592151
O O3 0.500000 0.000000 0.500000
O O4 0.302643 0.016753 0.566635
O O5 0.776948 0.750000 0.898540
O O6 0.715532 0.519026 0.842062
O O7 0.553105 0.583369 0.911599
O O8 0.868360 0.250000 0.293840
O O9 0.772332 0.015412 0.248289
O O10 0.022279 0.013703 0.290444
O O11 0.764875 0.250000 0.612702
O O12 0.746335 0.507089 0.656024
O O13 0.805284 0.492934 0.562919
O O14 0.314919 0.750000 0.801363
O O15 0.103169 0.250000 0.467995
O O16 0.000000 0.000000 0.500000
#
# Coordination Sequence:
#
# PCOD8253429 Si02
#       6
#     8   8   8   8   8   8
#     4  11  25  42  60  87 121 159 205 249 298 358
#     4  10  21  39  61  88 121 155 195 248 300 356
#     4   9  19  36  61  92 119 149 197 248 297 355
#     4  11  24  41  59  86 124 161 201 248 297 359
#     4  10  20  38  63  91 120 155 200 249 300 357
#     4  11  22  38  62  90 120 154 199 248 302 363
#
# _framework density 20.160231
#
# number of rings (size 3 to 8) (size 9 to 14) (size 15 to 20)
#    0.000    1.667    1.667    2.500    2.333    8.000 
#    0.000    1.667    0.000    0.000    0.000    0.000 
#    0.000    0.000    0.000    0.000    0.000    0.000 
#
# Total GULP energy -595349.163479 kJ/mol
# GULP energy per Si atom -12403.107572 kJ/mol
# Density = 2.011435 g / cm^3
# Si number density = 20.160231 Si / 1000 Ang^3
#
#
#
# Elastic Constant Matrix: (Units=GPa)
#
#
# Indices 1 2 3 4 5 6 
#
# 1 74.9531 25.7059 15.4438 0.0000 0.0000 0.0000
# 2 25.7059 82.3028 26.6123 0.0000 0.0000 0.0000
# 3 15.4438 26.6123 107.3523 0.0000 0.0000 0.0000
# 4 0.0000 0.0000 0.0000 31.5043 0.0000 0.0000
# 5 0.0000 0.0000 0.0000 0.0000 39.2180 0.0000
# 6 0.0000 0.0000 0.0000 0.0000 0.0000 28.5276
#
#
#
# Elastic Compliance Matrix: (Units=1/GPa)
#
#
# Indices 1 2 3 4 5 6 
#
# 1 0.015058 -0.004351 -0.001088 0.000000 0.000000 0.000000
# 2 -0.004351 0.014467 -0.002960 0.000000 0.000000 0.000000
# 3 -0.001088 -0.002960 0.010205 0.000000 0.000000 0.000000
# 4 0.000000 0.000000 0.000000 0.031742 0.000000 0.000000
# 5 0.000000 0.000000 0.000000 0.000000 0.025499 0.000000
# 6 0.000000 0.000000 0.000000 0.000000 0.000000 0.035054
#
#
# Mechanical properties :
#
#
# Convention : Reuss Voigt Hill
#
# Bulk Modulus (GPa) = 43.60798 44.45914 44.03356
# Shear Modulus (GPa) = 31.95574 32.97306 32.46440
#
# Velocity S-wave (km/s) = 3.98564 4.04858 4.01723
# Velocity P-wave (km/s) = 6.54661 6.62989 6.58838
#
# Compressibility (1/GPa) = 0.02293158
#
# Stress axis : x y z
#
# Youngs Moduli (GPa) = 66.40920 69.12506 97.98728
#
# Poissons Ratio (x) = 0.30080 0.10657
# Poissons Ratio (y) = 0.28898 0.29006
# Poissons Ratio (z) = 0.07222 0.20462
#
# Static dielectric constant tensor:
#      x y z
#    x 3.647340 0.000000 0.000000 
#    y 0.000000 3.626960 0.000000 
#    z 0.000000 0.000000 3.738390 
# 
# 
# High freq. dielectric constant tensor:
#      x y z
#    x 1.792930 0.000000 0.000000 
#    y 0.000000 1.768610 0.000000 
#    z 0.000000 0.000000 1.801240 
# 
# From -- ./inp_files/32011.got.cif
#   From: 2010.03.12/outbox.cif.g09.slc.cpg/sg62_17_cif.got.tgz:32011.got - 2010.04.10 19:12:36.
