data_PCOD8253366
_publ_section_title
;
Structure prediction by ZEFSAII (Michael W. Deem and Ramdas Pophale) SiO2 
 PCOD8253366
Probable space group: P N M A
;
_chemical_formula_sum "Si O2"
_cell_formula_units_Z 64
_cell_length_a 12.868495
_cell_length_b 8.917131
_cell_length_c 28.725411
_cell_angle_alpha 90.000000
_cell_angle_beta 90.000000
_cell_angle_gamma 90.000000
_cell_volume 3296.242512
_symmetry_space_group_name_H-M "P N M A"
_symmetry_group_IT_number 62
_symmetry_cell_setting 'orthorhombic'
loop_
_space_group_symop_operation_xyz
x,y,z
1/2-x,-y,1/2+z
1/2+x,1/2-y,1/2-z
-x,1/2+y,-z
-x,-y,-z
1/2+x,y,1/2-z
1/2-x,1/2+y,1/2+z
x,1/2-y,z
loop_
_atom_site_type_symbol
_atom_site_label
_atom_site_fract_x
_atom_site_fract_y
_atom_site_fract_z
Si Si1 0.092130 0.574791 0.557081
Si Si2 0.495045 0.573753 0.642811
Si Si3 0.648117 0.082344 0.789271
Si Si4 0.380571 0.425902 0.950361
Si Si5 0.716035 0.572431 0.613502
Si Si6 0.234477 0.072639 0.130414
Si Si7 0.715965 0.916929 0.204408
Si Si8 0.967180 0.574067 0.751643
O O1 0.070236 0.750000 0.562559
O O2 0.122171 0.531660 0.504659
O O3 0.188775 0.522786 0.588934
O O4 0.986429 0.490787 0.572556
O O5 0.505038 0.750000 0.640408
O O6 0.596312 0.510464 0.615091
O O7 0.385184 0.523592 0.619364
O O8 0.501280 0.524312 0.696605
O O9 0.620345 0.250000 0.807173
O O10 0.681329 0.091652 0.735460
O O11 0.734113 0.010392 0.822511
O O12 0.548993 0.973159 0.788339
O O13 0.378739 0.250000 0.941545
O O14 0.276756 0.497227 0.929059
O O15 0.721445 0.750000 0.607539
O O16 0.772581 0.527906 0.661204
O O17 0.239528 0.250000 0.139273
O O18 0.685176 0.750000 0.186625
O O19 0.634665 0.982294 0.240568
O O20 0.945512 0.750000 0.748515
#
# Coordination Sequence:
#
# PCOD8253366 Si02
#       8
#     8   8   8   8   8   8   8   8
#     4   9  20  39  64  88 112 146 186 232 287 346
#     4   9  19  35  57  82 110 147 192 239 277 324
#     4  11  23  36  52  80 117 152 187 232 286 336
#     4  10  21  39  61  87 117 146 181 233 293 344
#     4  11  22  38  59  84 112 150 196 233 280 344
#     4  10  20  38  61  84 110 147 196 239 279 335
#     4  11  23  37  53  79 114 151 190 236 285 330
#     4  11  21  36  56  77 107 152 197 236 279 330
#
# _framework density 19.416048
#
# number of rings (size 3 to 8) (size 9 to 14) (size 15 to 20)
#    0.000    1.750    2.500    1.875    1.750    2.000 
#    0.000    1.875    0.000    0.000    0.000    0.000 
#    0.000    0.000    0.000    0.000    0.000    0.000 
#
# Total GULP energy -793384.624854 kJ/mol
# GULP energy per Si atom -12396.634763 kJ/mol
# Density = 1.937186 g / cm^3
# Si number density = 19.416048 Si / 1000 Ang^3
#
#
#
# Elastic Constant Matrix: (Units=GPa)
#
#
# Indices 1 2 3 4 5 6 
#
# 1 142.9551 38.0700 46.2307 0.0000 0.0000 0.0000
# 2 38.0700 58.9000 20.1899 0.0000 0.0000 0.0000
# 3 46.2307 20.1899 64.5058 0.0000 0.0000 0.0000
# 4 0.0000 0.0000 0.0000 26.1090 0.0000 0.0000
# 5 0.0000 0.0000 0.0000 0.0000 37.9368 0.0000
# 6 0.0000 0.0000 0.0000 0.0000 0.0000 20.7687
#
#
#
# Elastic Compliance Matrix: (Units=1/GPa)
#
#
# Indices 1 2 3 4 5 6 
#
# 1 0.010078 -0.004523 -0.005807 0.000000 0.000000 0.000000
# 2 -0.004523 0.021049 -0.003346 0.000000 0.000000 0.000000
# 3 -0.005807 -0.003346 0.020712 0.000000 0.000000 0.000000
# 4 0.000000 0.000000 0.000000 0.038301 0.000000 0.000000
# 5 0.000000 0.000000 0.000000 0.000000 0.026360 0.000000
# 6 0.000000 0.000000 0.000000 0.000000 0.000000 0.048149
#
#
# Mechanical properties :
#
#
# Convention : Reuss Voigt Hill
#
# Bulk Modulus (GPa) = 40.84122 52.81580 46.82851
# Shear Modulus (GPa) = 24.97974 27.75425 26.36700
#
# Velocity S-wave (km/s) = 3.59074 3.78491 3.68910
# Velocity P-wave (km/s) = 6.18641 6.80896 6.50514
#
# Compressibility (1/GPa) = 0.02448507
#
# Stress axis : x y z
#
# Youngs Moduli (GPa) = 99.22941 47.50916 48.28226
#
# Poissons Ratio (x) = 0.21489 0.28037
# Poissons Ratio (y) = 0.44884 0.16157
# Poissons Ratio (z) = 0.57621 0.15898
#
# Static dielectric constant tensor:
#      x y z
#    x 3.907890 0.000000 0.000000 
#    y 0.000000 3.487080 0.000000 
#    z 0.000000 0.000000 3.369450 
# 
# 
# High freq. dielectric constant tensor:
#      x y z
#    x 1.767560 0.000000 0.000000 
#    y 0.000000 1.750690 0.000000 
#    z 0.000000 0.000000 1.734520 
# 
# From -- ./inp_files/32526.got.cif
#   From: 2010.03.12/outbox.cif.g09.slc.cpg/sg62_17_cif.got.tgz:32526.got - 2010.04.10 19:12:36.
