data_PCOD8253781
_publ_section_title
;
Structure prediction by ZEFSAII (Michael W. Deem and Ramdas Pophale) SiO2 
 PCOD8253781
Probable space group: P N M A
;
_chemical_formula_sum "Si O2"
_cell_formula_units_Z 40
_cell_length_a 13.279532
_cell_length_b 8.825014
_cell_length_c 18.602373
_cell_angle_alpha 90.000000
_cell_angle_beta 90.000000
_cell_angle_gamma 90.000000
_cell_volume 2180.050335
_symmetry_space_group_name_H-M "P N M A"
_symmetry_group_IT_number 62
_symmetry_cell_setting 'orthorhombic'
loop_
_space_group_symop_operation_xyz
x,y,z
1/2-x,-y,1/2+z
1/2+x,1/2-y,1/2-z
-x,1/2+y,-z
-x,-y,-z
1/2+x,y,1/2-z
1/2-x,1/2+y,1/2+z
x,1/2-y,z
loop_
_atom_site_type_symbol
_atom_site_label
_atom_site_fract_x
_atom_site_fract_y
_atom_site_fract_z
Si Si1 0.304077 0.074133 0.358305
Si Si2 0.606512 0.072937 0.780269
Si Si3 0.716177 0.426659 0.356498
Si Si4 0.890767 0.928445 0.002190
Si Si5 0.402837 0.576961 0.784810
O O1 0.329503 0.250000 0.369763
O O2 0.186966 0.047708 0.340956
O O3 0.372806 0.015999 0.293338
O O4 0.328026 0.982674 0.429709
O O5 0.617657 0.250000 0.766132
O O6 0.682866 0.022216 0.842765
O O7 0.493910 0.033336 0.805983
O O8 0.745244 0.250000 0.355047
O O9 0.670458 0.479545 0.431869
O O10 0.634386 0.462710 0.295277
O O11 0.903985 0.750000 0.004595
O O12 0.000000 0.000000 0.000000
O O13 0.439927 0.750000 0.788993
#
# Coordination Sequence:
#
# PCOD8253781 Si02
#       5
#     8   8   8   8   8
#     4  10  21  37  56  78 108 144 180 219 265 317
#     4  11  21  33  55  83 108 137 177 225 268 313
#     4   9  20  37  55  77 107 143 178 214 262 318
#     4  11  22  36  57  83 111 142 176 218 267 318
#     4   9  18  35  57  77 103 142 181 218 265 318
#
# _framework density 18.348201
#
# number of rings (size 3 to 8) (size 9 to 14) (size 15 to 20)
#    0.000    2.000    0.000    5.400    0.000    7.200 
#    0.000    1.000    0.000    0.000    0.000    0.000 
#    0.000    0.000    0.000    0.000    0.000    0.000 
#
# Total GULP energy -496186.419752 kJ/mol
# GULP energy per Si atom -12404.660494 kJ/mol
# Density = 1.830644 g / cm^3
# Si number density = 18.348201 Si / 1000 Ang^3
#
#
#
# Elastic Constant Matrix: (Units=GPa)
#
#
# Indices 1 2 3 4 5 6 
#
# 1 118.7496 44.8442 53.4012 0.0000 0.0000 0.0000
# 2 44.8442 60.6910 30.7818 0.0000 0.0000 0.0000
# 3 53.4012 30.7818 124.6505 0.0000 0.0000 0.0000
# 4 0.0000 0.0000 0.0000 31.7501 0.0000 0.0000
# 5 0.0000 0.0000 0.0000 0.0000 17.6885 0.0000
# 6 0.0000 0.0000 0.0000 0.0000 0.0000 31.7855
#
#
#
# Elastic Compliance Matrix: (Units=1/GPa)
#
#
# Indices 1 2 3 4 5 6 
#
# 1 0.012988 -0.007745 -0.003652 0.000000 0.000000 0.000000
# 2 -0.007745 0.023454 -0.002474 0.000000 0.000000 0.000000
# 3 -0.003652 -0.002474 0.010198 0.000000 0.000000 0.000000
# 4 0.000000 0.000000 0.000000 0.031496 0.000000 0.000000
# 5 0.000000 0.000000 0.000000 0.000000 0.056534 0.000000
# 6 0.000000 0.000000 0.000000 0.000000 0.000000 0.031461
#
#
# Mechanical properties :
#
#
# Convention : Reuss Voigt Hill
#
# Bulk Modulus (GPa) = 52.91204 62.46059 57.68631
# Shear Modulus (GPa) = 24.97869 27.91575 26.44722
#
# Velocity S-wave (km/s) = 3.69368 3.90480 3.80070
# Velocity P-wave (km/s) = 6.86231 7.37873 7.12520
#
# Compressibility (1/GPa) = 0.01889929
#
# Stress axis : x y z
#
# Youngs Moduli (GPa) = 76.99519 42.63642 98.06074
#
# Poissons Ratio (x) = 0.33020 0.35808
# Poissons Ratio (y) = 0.59629 0.24261
# Poissons Ratio (z) = 0.28116 0.10548
#
# Static dielectric constant tensor:
#      x y z
#    x 3.393650 0.000000 0.000000 
#    y 0.000000 3.382660 0.000000 
#    z 0.000000 0.000000 3.386450 
# 
# 
# High freq. dielectric constant tensor:
#      x y z
#    x 1.717910 0.000000 0.000000 
#    y 0.000000 1.716500 0.000000 
#    z 0.000000 0.000000 1.701200 
# 
# From -- ./inp_files/22758.got.cif
#   From: 2010.03.12/outbox.cif.g09.slc.cpg/sg62_12_cif.got.tgz:22758.got - 2010.04.10 19:12:36.
