data_PCOD8253431
_publ_section_title
;
Structure prediction by ZEFSAII (Michael W. Deem and Ramdas Pophale) SiO2 
 PCOD8253431
Probable space group: P N M A
;
_chemical_formula_sum "Si O2"
_cell_formula_units_Z 48
_cell_length_a 9.421312
_cell_length_b 13.599128
_cell_length_c 17.844998
_cell_angle_alpha 90.000000
_cell_angle_beta 90.000000
_cell_angle_gamma 90.000000
_cell_volume 2286.330192
_symmetry_space_group_name_H-M "P N M A"
_symmetry_group_IT_number 62
_symmetry_cell_setting 'orthorhombic'
loop_
_space_group_symop_operation_xyz
x,y,z
1/2-x,-y,1/2+z
1/2+x,1/2-y,1/2-z
-x,1/2+y,-z
-x,-y,-z
1/2+x,y,1/2-z
1/2-x,1/2+y,1/2+z
x,1/2-y,z
loop_
_atom_site_type_symbol
_atom_site_label
_atom_site_fract_x
_atom_site_fract_y
_atom_site_fract_z
Si Si1 0.924103 0.861690 0.566694
Si Si2 0.244558 0.863948 0.570552
Si Si3 0.917081 0.363402 0.706348
Si Si4 0.272526 0.959577 0.409479
Si Si5 0.163220 0.360109 0.596471
Si Si6 0.910608 0.483956 0.856031
O O1 0.875723 0.750000 0.586586
O O2 0.933205 0.875973 0.476869
O O3 0.082381 0.882343 0.597098
O O4 0.814837 0.938968 0.601810
O O5 0.277263 0.750000 0.559068
O O6 0.272950 0.919202 0.492948
O O7 0.349017 0.904908 0.636116
O O8 0.910222 0.250000 0.734366
O O9 0.791213 0.378299 0.646635
O O10 0.898071 0.440340 0.773198
O O11 0.068359 0.386829 0.668454
O O12 0.432566 0.980746 0.386827
O O13 0.218493 0.250000 0.602660
O O14 0.304545 0.424011 0.589658
#
# Coordination Sequence:
#
# PCOD8253431 Si02
#       6
#     8   8   8   8   8   8
#     4  10  21  40  67  93 121 165 216 260 310 376
#     4  11  23  41  64  91 125 170 217 263 313 374
#     4  11  24  43  66  92 128 173 214 258 319 388
#     4  12  23  41  65  99 131 162 213 267 321 375
#     4  10  20  38  63  91 125 165 209 255 310 379
#     4  12  25  38  58  98 134 168 199 263 329 380
#
# _framework density 20.994343000000001
#
# number of rings (size 3 to 8) (size 9 to 14) (size 15 to 20)
#    0.000    1.000    3.333    4.000    0.000    4.667 
#    0.000    0.833    0.000    3.000    0.000    0.000 
#    0.000    0.000    0.000    0.000    0.000    0.000 
#
# Total GULP energy -595216.858240 kJ/mol
# GULP energy per Si atom -12400.351213 kJ/mol
# Density = 2.094656 g / cm^3
# Si number density = 20.994343 Si / 1000 Ang^3
#
#
#
# Elastic Constant Matrix: (Units=GPa)
#
#
# Indices 1 2 3 4 5 6 
#
# 1 133.6120 56.2135 37.3286 0.0000 0.0000 0.0000
# 2 56.2135 110.5096 51.2531 0.0000 0.0000 0.0000
# 3 37.3286 51.2531 68.0195 0.0000 0.0000 0.0000
# 4 0.0000 0.0000 0.0000 32.7881 0.0000 0.0000
# 5 0.0000 0.0000 0.0000 0.0000 26.6757 0.0000
# 6 0.0000 0.0000 0.0000 0.0000 0.0000 24.3510
#
#
#
# Elastic Compliance Matrix: (Units=1/GPa)
#
#
# Indices 1 2 3 4 5 6 
#
# 1 0.009789 -0.003824 -0.002490 0.000000 0.000000 0.000000
# 2 -0.003824 0.015404 -0.009508 0.000000 0.000000 0.000000
# 3 -0.002490 -0.009508 0.023233 0.000000 0.000000 0.000000
# 4 0.000000 0.000000 0.000000 0.030499 0.000000 0.000000
# 5 0.000000 0.000000 0.000000 0.000000 0.037487 0.000000
# 6 0.000000 0.000000 0.000000 0.000000 0.000000 0.041066
#
#
# Mechanical properties :
#
#
# Convention : Reuss Voigt Hill
#
# Bulk Modulus (GPa) = 59.59520 66.85906 63.22713
# Shear Modulus (GPa) = 25.67807 27.91935 26.79871
#
# Velocity S-wave (km/s) = 3.50107 3.65067 3.57665
# Velocity P-wave (km/s) = 6.69263 7.04877 6.87301
#
# Compressibility (1/GPa) = 0.01677987
#
# Stress axis : x y z
#
# Youngs Moduli (GPa) = 102.15358 64.91707 43.04215
#
# Poissons Ratio (x) = 0.24827 0.10720
# Poissons Ratio (y) = 0.39068 0.40926
# Poissons Ratio (z) = 0.25441 0.61726
#
# Static dielectric constant tensor:
#      x y z
#    x 3.884870 0.000000 0.000000 
#    y 0.000000 4.089040 0.000000 
#    z 0.000000 0.000000 3.673030 
# 
# 
# High freq. dielectric constant tensor:
#      x y z
#    x 1.828750 0.000000 0.000000 
#    y 0.000000 1.833960 0.000000 
#    z 0.000000 0.000000 1.800060 
# 
# From -- ./inp_files/22206.got.cif
#   From: 2010.03.12/outbox.cif.g09.slc.cpg/sg62_12_cif.got.tgz:22206.got - 2010.04.10 19:12:36.
