data_PCOD8253734
_publ_section_title
;
Structure prediction by ZEFSAII (Michael W. Deem and Ramdas Pophale) SiO2 
 PCOD8253734
Probable space group: P N M A
;
_chemical_formula_sum "Si O2"
_cell_formula_units_Z 56
_cell_length_a 14.837132
_cell_length_b 8.849476
_cell_length_c 20.911948
_cell_angle_alpha 90.000000
_cell_angle_beta 90.000000
_cell_angle_gamma 90.000000
_cell_volume 2745.756413
_symmetry_space_group_name_H-M "P N M A"
_symmetry_group_IT_number 62
_symmetry_cell_setting 'orthorhombic'
loop_
_space_group_symop_operation_xyz
x,y,z
1/2-x,-y,1/2+z
1/2+x,1/2-y,1/2-z
-x,1/2+y,-z
-x,-y,-z
1/2+x,y,1/2-z
1/2-x,1/2+y,1/2+z
x,1/2-y,z
loop_
_atom_site_type_symbol
_atom_site_label
_atom_site_fract_x
_atom_site_fract_y
_atom_site_fract_z
Si Si1 0.968297 0.078541 0.402108
Si Si2 0.557142 0.574351 0.311263
Si Si3 0.780206 0.425975 0.097299
Si Si4 0.721568 0.426594 0.239037
Si Si5 0.396738 0.923539 0.218286
Si Si6 0.484328 0.427313 0.431419
Si Si7 0.628519 0.922178 0.029534
O O1 0.975920 0.250000 0.376280
O O2 0.888577 0.064025 0.453925
O O3 0.950283 0.963003 0.345596
O O4 0.063250 0.034821 0.432825
O O5 0.575764 0.750000 0.322106
O O6 0.634643 0.510919 0.265601
O O7 0.461237 0.544089 0.278130
O O8 0.555784 0.493394 0.380292
O O9 0.765426 0.250000 0.083436
O O10 0.739033 0.473382 0.165723
O O11 0.884889 0.468185 0.093683
O O12 0.730068 0.523981 0.043160
O O13 0.705078 0.250000 0.246500
O O14 0.809155 0.471704 0.279440
O O15 0.366315 0.750000 0.216451
O O16 0.500000 0.500000 0.500000
O O17 0.500236 0.250000 0.436960
O O18 0.613353 0.750000 0.052323
#
# Coordination Sequence:
#
# PCOD8253734 Si02
#       7
#     8   8   8   8   8   8   8
#     4  10  21  37  57  85 123 163 203 250 308 370
#     4  11  24  42  64  94 128 165 211 266 324 380
#     4  10  22  40  63  90 121 163 210 255 312 381
#     4  11  23  40  64  92 123 163 209 258 317 383
#     4  11  23  39  62  91 123 159 202 258 313 368
#     4  11  24  44  67  93 126 168 214 263 320 383
#     4  10  21  36  58  87 119 158 204 252 305 366
#
# _framework density 20.395109999999999
#
# number of rings (size 3 to 8) (size 9 to 14) (size 15 to 20)
#    0.000    1.429    1.429    3.429    0.000    9.143 
#    0.000    2.857    0.000    0.000    0.000    0.000 
#    0.000    0.000    0.000    0.000    0.000    0.000 
#
# Total GULP energy -694708.725888 kJ/mol
# GULP energy per Si atom -12405.512962 kJ/mol
# Density = 2.034869 g / cm^3
# Si number density = 20.395110 Si / 1000 Ang^3
#
#
#
# Elastic Constant Matrix: (Units=GPa)
#
#
# Indices 1 2 3 4 5 6 
#
# 1 74.6895 57.4643 31.1227 0.0000 0.0000 0.0000
# 2 57.4643 96.9990 60.7920 0.0000 0.0000 0.0000
# 3 31.1227 60.7920 108.3098 0.0000 0.0000 0.0000
# 4 0.0000 0.0000 0.0000 36.4541 0.0000 0.0000
# 5 0.0000 0.0000 0.0000 0.0000 33.6362 0.0000
# 6 0.0000 0.0000 0.0000 0.0000 0.0000 37.3542
#
#
#
# Elastic Compliance Matrix: (Units=1/GPa)
#
#
# Indices 1 2 3 4 5 6 
#
# 1 0.024810 -0.015782 0.001729 0.000000 0.000000 0.000000
# 2 -0.015782 0.025942 -0.010026 0.000000 0.000000 0.000000
# 3 0.001729 -0.010026 0.014363 0.000000 0.000000 0.000000
# 4 0.000000 0.000000 0.000000 0.027432 0.000000 0.000000
# 5 0.000000 0.000000 0.000000 0.000000 0.029730 0.000000
# 6 0.000000 0.000000 0.000000 0.000000 0.000000 0.026771
#
#
# Mechanical properties :
#
#
# Convention : Reuss Voigt Hill
#
# Bulk Modulus (GPa) = 58.96859 64.30623 61.63741
# Shear Modulus (GPa) = 24.64759 30.19685 27.42222
#
# Velocity S-wave (km/s) = 3.48013 3.85202 3.67079
# Velocity P-wave (km/s) = 6.71746 7.16818 6.94647
#
# Compressibility (1/GPa) = 0.01695818
#
# Stress axis : x y z
#
# Youngs Moduli (GPa) = 40.30559 38.54693 69.62100
#
# Poissons Ratio (x) = 0.60833 -0.12035
# Poissons Ratio (y) = 0.63609 0.69803
# Poissons Ratio (z) = -0.06967 0.38647
#
# Static dielectric constant tensor:
#      x y z
#    x 3.636200 0.000000 0.000000 
#    y 0.000000 3.727860 0.000000 
#    z 0.000000 0.000000 3.703260 
# 
# 
# High freq. dielectric constant tensor:
#      x y z
#    x 1.796030 0.000000 0.000000 
#    y 0.000000 1.807900 0.000000 
#    z 0.000000 0.000000 1.799230 
# 
# From -- ./inp_files/27293.got.cif
#   From: 2010.03.12/outbox.cif.g09.slc.cpg/sg62_14_cif.got.tgz:27293.got - 2010.04.10 19:12:36.
