data_PCOD8253982
_publ_section_title
;
Structure prediction by ZEFSAII (Michael W. Deem and Ramdas Pophale) SiO2 
 PCOD8253982
Probable space group: P N M A
;
_chemical_formula_sum "Si O2"
_cell_formula_units_Z 56
_cell_length_a 19.819160
_cell_length_b 8.682435
_cell_length_c 16.548117
_cell_angle_alpha 90.000000
_cell_angle_beta 90.000000
_cell_angle_gamma 90.000000
_cell_volume 2847.576284
_symmetry_space_group_name_H-M "P N M A"
_symmetry_group_IT_number 62
_symmetry_cell_setting 'orthorhombic'
loop_
_space_group_symop_operation_xyz
x,y,z
1/2-x,-y,1/2+z
1/2+x,1/2-y,1/2-z
-x,1/2+y,-z
-x,-y,-z
1/2+x,y,1/2-z
1/2-x,1/2+y,1/2+z
x,1/2-y,z
loop_
_atom_site_type_symbol
_atom_site_label
_atom_site_fract_x
_atom_site_fract_y
_atom_site_fract_z
Si Si1 0.382461 0.570801 0.680810
Si Si2 0.837329 0.068787 0.984393
Si Si3 0.256066 0.071038 0.744314
Si Si4 0.303101 0.568377 0.077206
Si Si5 0.048697 0.431722 0.566338
Si Si6 0.976969 0.070657 0.262299
Si Si7 0.866323 0.928577 0.149356
O O1 0.376862 0.750000 0.659732
O O2 0.373598 0.473307 0.599162
O O3 0.325473 0.525286 0.746972
O O4 0.454175 0.526981 0.717494
O O5 0.844600 0.250000 0.999336
O O6 0.758361 0.017279 0.981047
O O7 0.873650 0.978554 0.056575
O O8 0.275060 0.250000 0.734632
O O9 0.212378 0.012021 0.667969
O O10 0.211067 0.040310 0.823541
O O11 0.308690 0.750000 0.078268
O O12 0.375562 0.501096 0.049931
O O13 0.047534 0.250000 0.557933
O O14 0.024844 0.475324 0.655491
O O15 0.000000 0.500000 0.500000
O O16 0.973631 0.250000 0.283728
O O17 0.915824 0.028216 0.203834
O O18 0.885407 0.750000 0.159564
#
# Coordination Sequence:
#
# PCOD8253982 Si02
#       7
#     8   8   8   8   8   8   8
#     4  10  22  39  59  86 121 158 199 249 299 353
#     4  10  21  38  60  87 117 154 200 249 300 353
#     4   9  18  36  60  84 111 151 196 242 297 356
#     4   8  16  35  58  79 110 148 187 236 292 345
#     4  11  22  39  61  88 122 158 198 246 300 356
#     4  11  24  41  60  87 121 160 203 245 300 363
#     4  11  22  38  61  89 120 156 201 248 300 359
#
# _framework density 19.665845999999998
#
# number of rings (size 3 to 8) (size 9 to 14) (size 15 to 20)
#    0.000    2.000    1.429    3.000    0.000    5.143 
#    0.000    6.429    0.000    0.000    0.000    0.000 
#    0.000    0.000    0.000    0.000    0.000    0.000 
#
# Total GULP energy -694398.174443 kJ/mol
# GULP energy per Si atom -12399.967401 kJ/mol
# Density = 1.962109 g / cm^3
# Si number density = 19.665846 Si / 1000 Ang^3
#
#
#
# Elastic Constant Matrix: (Units=GPa)
#
#
# Indices 1 2 3 4 5 6 
#
# 1 97.3016 36.9171 52.7549 0.0000 0.0000 0.0000
# 2 36.9171 47.6076 20.4543 0.0000 0.0000 0.0000
# 3 52.7549 20.4543 80.6037 0.0000 0.0000 0.0000
# 4 0.0000 0.0000 0.0000 33.5879 0.0000 0.0000
# 5 0.0000 0.0000 0.0000 0.0000 28.0857 0.0000
# 6 0.0000 0.0000 0.0000 0.0000 0.0000 30.3902
#
#
#
# Elastic Compliance Matrix: (Units=1/GPa)
#
#
# Indices 1 2 3 4 5 6 
#
# 1 0.020112 -0.011157 -0.010332 0.000000 0.000000 0.000000
# 2 -0.011157 0.029764 -0.000251 0.000000 0.000000 0.000000
# 3 -0.010332 -0.000251 0.019232 0.000000 0.000000 0.000000
# 4 0.000000 0.000000 0.000000 0.029773 0.000000 0.000000
# 5 0.000000 0.000000 0.000000 0.000000 0.035605 0.000000
# 6 0.000000 0.000000 0.000000 0.000000 0.000000 0.032905
#
#
# Mechanical properties :
#
#
# Convention : Reuss Voigt Hill
#
# Bulk Modulus (GPa) = 39.01825 49.52950 44.27387
# Shear Modulus (GPa) = 22.78783 26.10521 24.44652
#
# Velocity S-wave (km/s) = 3.40774 3.64736 3.52958
# Velocity P-wave (km/s) = 5.94704 6.55575 6.25880
#
# Compressibility (1/GPa) = 0.02562903
#
# Stress axis : x y z
#
# Youngs Moduli (GPa) = 49.72100 33.59725 51.99535
#
# Poissons Ratio (x) = 0.37484 0.53723
# Poissons Ratio (y) = 0.55473 0.01305
# Poissons Ratio (z) = 0.51373 0.00843
#
# Static dielectric constant tensor:
#      x y z
#    x 3.951250 0.000000 0.000000 
#    y 0.000000 3.473480 0.000000 
#    z 0.000000 0.000000 3.398880 
# 
# 
# High freq. dielectric constant tensor:
#      x y z
#    x 1.774420 0.000000 0.000000 
#    y 0.000000 1.760850 0.000000 
#    z 0.000000 0.000000 1.759640 
# 
# From -- ./inp_files/20417.got.cif
#   From: 2010.03.12/outbox.cif.g09.slc.cpg/sg62_11_cif.got.tgz:20417.got - 2010.04.10 19:12:36.
