data_PCOD8253080
_publ_section_title
;
Structure prediction by ZEFSAII (Michael W. Deem and Ramdas Pophale) SiO2 
 PCOD8253080
Probable space group: P N M A
;
_chemical_formula_sum "Si O2"
_cell_formula_units_Z 64
_cell_length_a 35.071994
_cell_length_b 10.445781
_cell_length_c 8.615997
_cell_angle_alpha 90.000000
_cell_angle_beta 90.000000
_cell_angle_gamma 90.000000
_cell_volume 3156.508140
_symmetry_space_group_name_H-M "P N M A"
_symmetry_group_IT_number 62
_symmetry_cell_setting 'orthorhombic'
loop_
_space_group_symop_operation_xyz
x,y,z
1/2-x,-y,1/2+z
1/2+x,1/2-y,1/2-z
-x,1/2+y,-z
-x,-y,-z
1/2+x,y,1/2-z
1/2-x,1/2+y,1/2+z
x,1/2-y,z
loop_
_atom_site_type_symbol
_atom_site_label
_atom_site_fract_x
_atom_site_fract_y
_atom_site_fract_z
Si Si1 0.080506 0.529248 0.311391
Si Si2 0.281475 0.892168 0.653372
Si Si3 0.649855 0.608391 0.989841
Si Si4 0.135205 0.101880 0.088586
Si Si5 0.126737 0.105357 0.745710
Si Si6 0.953915 0.891230 0.403169
Si Si7 0.490538 0.102238 0.636511
Si Si8 0.731240 0.611109 0.140723
O O1 0.114239 0.611501 0.389632
O O2 0.101545 0.420174 0.211300
O O3 0.052530 0.476090 0.444621
O O4 0.054037 0.604365 0.187799
O O5 0.279776 0.750000 0.730278
O O6 0.324408 0.948523 0.651918
O O7 0.264727 0.884752 0.483086
O O8 0.256765 0.995267 0.747492
O O9 0.650184 0.750000 0.910933
O O10 0.647692 0.494260 0.866454
O O11 0.689720 0.583477 0.072321
O O12 0.139295 0.250000 0.059819
O O13 0.127683 0.044034 0.917941
O O14 0.144775 0.250000 0.732229
O O15 0.083143 0.114612 0.701411
O O16 0.965610 0.750000 0.461351
O O17 0.986408 0.945252 0.288727
O O18 0.501337 0.250000 0.588193
O O19 0.500000 0.000000 0.500000
O O20 0.730722 0.750000 0.225976
#
# Coordination Sequence:
#
# PCOD8253080 Si02
#       8
#     8   8   8   8   8   8   8   8
#     4  11  20  37  62  88 116 157 197 249 298 355
#     4  10  22  39  60  87 118 156 205 247 292 357
#     4  10  21  38  57  83 119 157 192 239 297 356
#     4  10  20  36  59  89 119 153 199 252 297 348
#     4   9  19  35  57  84 113 150 196 243 288 340
#     4   9  19  36  58  87 119 153 196 243 294 349
#     4  11  24  41  61  89 123 159 200 245 295 358
#     4  10  22  40  59  85 122 157 194 244 302 354
#
# _framework density 20.275568
#
# number of rings (size 3 to 8) (size 9 to 14) (size 15 to 20)
#    0.000    2.000    1.250    1.875    1.750    3.500 
#    0.000    7.500    0.000    0.000    0.000    0.000 
#    0.000    0.000    0.000    0.000    0.000    0.000 
#
# Total GULP energy -792975.238661 kJ/mol
# GULP energy per Si atom -12390.238104 kJ/mol
# Density = 2.022942 g / cm^3
# Si number density = 20.275568 Si / 1000 Ang^3
#
#
#
# Elastic Constant Matrix: (Units=GPa)
#
#
# Indices 1 2 3 4 5 6 
#
# 1 45.3640 21.6181 18.8357 0.0000 0.0000 0.0000
# 2 21.6181 107.7891 53.9161 0.0000 0.0000 0.0000
# 3 18.8357 53.9161 81.6836 0.0000 0.0000 0.0000
# 4 0.0000 0.0000 0.0000 21.6909 0.0000 0.0000
# 5 0.0000 0.0000 0.0000 0.0000 20.6779 0.0000
# 6 0.0000 0.0000 0.0000 0.0000 0.0000 13.8681
#
#
#
# Elastic Compliance Matrix: (Units=1/GPa)
#
#
# Indices 1 2 3 4 5 6 
#
# 1 0.025093 -0.003192 -0.003679 0.000000 0.000000 0.000000
# 2 -0.003192 0.014256 -0.008674 0.000000 0.000000 0.000000
# 3 -0.003679 -0.008674 0.018816 0.000000 0.000000 0.000000
# 4 0.000000 0.000000 0.000000 0.046102 0.000000 0.000000
# 5 0.000000 0.000000 0.000000 0.000000 0.048361 0.000000
# 6 0.000000 0.000000 0.000000 0.000000 0.000000 0.072108
#
#
# Mechanical properties :
#
#
# Convention : Reuss Voigt Hill
#
# Bulk Modulus (GPa) = 36.93512 47.06407 41.99960
# Shear Modulus (GPa) = 18.87851 20.61184 19.74517
#
# Velocity S-wave (km/s) = 3.05470 3.19185 3.12403
# Velocity P-wave (km/s) = 5.54055 6.07013 5.81138
#
# Compressibility (1/GPa) = 0.02707450
#
# Stress axis : x y z
#
# Youngs Moduli (GPa) = 39.85204 70.14445 53.14612
#
# Poissons Ratio (x) = 0.22392 0.19553
# Poissons Ratio (y) = 0.12722 0.46098
# Poissons Ratio (z) = 0.14662 0.60843
#
# Static dielectric constant tensor:
#      x y z
#    x 3.802170 0.000000 0.000000 
#    y 0.000000 3.822640 0.000000 
#    z 0.000000 0.000000 3.648090 
# 
# 
# High freq. dielectric constant tensor:
#      x y z
#    x 1.801080 0.000000 0.000000 
#    y 0.000000 1.786630 0.000000 
#    z 0.000000 0.000000 1.780180 
# 
# From -- ./inp_files/10477.got.cif
#   From: 2010.03.12/outbox.cif.g09.slc.cpg/sg62_6_cif.got.tgz:10477.got - 2010.04.10 19:12:36.
