data_PCOD8253630
_publ_section_title
;
Structure prediction by ZEFSAII (Michael W. Deem and Ramdas Pophale) SiO2 
 PCOD8253630
Probable space group: P N M A
;
_chemical_formula_sum "Si O2"
_cell_formula_units_Z 64
_cell_length_a 12.743594
_cell_length_b 9.351185
_cell_length_c 29.079407
_cell_angle_alpha 90.000000
_cell_angle_beta 90.000000
_cell_angle_gamma 90.000000
_cell_volume 3465.326197
_symmetry_space_group_name_H-M "P N M A"
_symmetry_group_IT_number 62
_symmetry_cell_setting 'orthorhombic'
loop_
_space_group_symop_operation_xyz
x,y,z
1/2-x,-y,1/2+z
1/2+x,1/2-y,1/2-z
-x,1/2+y,-z
-x,-y,-z
1/2+x,y,1/2-z
1/2-x,1/2+y,1/2+z
x,1/2-y,z
loop_
_atom_site_type_symbol
_atom_site_label
_atom_site_fract_x
_atom_site_fract_y
_atom_site_fract_z
Si Si1 0.777789 0.585798 0.123063
Si Si2 0.712627 0.417170 0.379380
Si Si3 0.503243 0.581674 0.252322
Si Si4 0.896354 0.085445 0.550344
Si Si5 0.323915 0.404855 0.213761
Si Si6 0.900097 0.417629 0.444939
Si Si7 0.987249 0.083782 0.858130
Si Si8 0.323886 0.906010 0.797612
O O1 0.762725 0.750000 0.139638
O O2 0.713205 0.556119 0.076377
O O3 0.735002 0.477792 0.160369
O O4 0.901826 0.555547 0.116163
O O5 0.689638 0.250000 0.385782
O O6 0.754356 0.455725 0.328942
O O7 0.799786 0.470810 0.415838
O O8 0.602578 0.499447 0.386095
O O9 0.512802 0.750000 0.250271
O O10 0.398599 0.534409 0.226638
O O11 0.505737 0.528370 0.305212
O O12 0.591236 0.514430 0.220901
O O13 0.929742 0.250000 0.554431
O O14 0.876842 0.041276 0.497646
O O15 0.992987 0.995302 0.571860
O O16 0.379134 0.250000 0.202002
O O17 0.254576 0.374779 0.257251
O O18 0.917928 0.250000 0.437526
O O19 0.957666 0.250000 0.858860
O O20 0.370126 0.750000 0.812738
#
# Coordination Sequence:
#
# PCOD8253630 Si02
#       8
#     8   8   8   8   8   8   8   8
#     4  10  21  38  56  80 111 144 186 227 272 324
#     4  10  21  37  56  79 110 144 182 225 271 325
#     4  11  22  35  52  74 106 146 184 225 269 318
#     4   9  19  37  61  84 109 141 175 220 276 329
#     4  10  21  35  51  75 106 143 181 222 269 317
#     4   9  19  37  60  85 111 139 174 222 276 327
#     4  10  21  36  54  76 108 147 185 225 267 318
#     4  11  22  35  53  77 108 144 184 225 268 320
#
# _framework density 18.468679999999999
#
# number of rings (size 3 to 8) (size 9 to 14) (size 15 to 20)
#    0.000    2.000    2.500    0.750    1.750    3.000 
#    0.000    0.625    0.000    0.000    0.000    0.000 
#    0.000    0.000    0.000    0.000    0.000    0.000 
#
# Total GULP energy -793357.858516 kJ/mol
# GULP energy per Si atom -12396.216539 kJ/mol
# Density = 1.842664 g / cm^3
# Si number density = 18.468680 Si / 1000 Ang^3
#
#
#
# Elastic Constant Matrix: (Units=GPa)
#
#
# Indices 1 2 3 4 5 6 
#
# 1 134.4553 56.3143 48.8617 0.0000 0.0000 0.0000
# 2 56.3143 72.6413 31.5163 0.0000 0.0000 0.0000
# 3 48.8617 31.5163 74.3452 0.0000 0.0000 0.0000
# 4 0.0000 0.0000 0.0000 21.0530 0.0000 0.0000
# 5 0.0000 0.0000 0.0000 0.0000 31.6734 0.0000
# 6 0.0000 0.0000 0.0000 0.0000 0.0000 36.4622
#
#
#
# Elastic Compliance Matrix: (Units=1/GPa)
#
#
# Indices 1 2 3 4 5 6 
#
# 1 0.012351 -0.007418 -0.004973 0.000000 0.000000 0.000000
# 2 -0.007418 0.021323 -0.004164 0.000000 0.000000 0.000000
# 3 -0.004973 -0.004164 0.018485 0.000000 0.000000 0.000000
# 4 0.000000 0.000000 0.000000 0.047499 0.000000 0.000000
# 5 0.000000 0.000000 0.000000 0.000000 0.031572 0.000000
# 6 0.000000 0.000000 0.000000 0.000000 0.000000 0.027426
#
#
# Mechanical properties :
#
#
# Convention : Reuss Voigt Hill
#
# Bulk Modulus (GPa) = 52.49578 61.64737 57.07158
# Shear Modulus (GPa) = 25.23764 27.48769 26.36266
#
# Velocity S-wave (km/s) = 3.70064 3.86209 3.78223
# Velocity P-wave (km/s) = 6.83708 7.30339 7.07408
#
# Compressibility (1/GPa) = 0.01904915
#
# Stress axis : x y z
#
# Youngs Moduli (GPa) = 80.96204 46.89675 54.09895
#
# Poissons Ratio (x) = 0.34786 0.26905
# Poissons Ratio (y) = 0.60055 0.22529
# Poissons Ratio (z) = 0.40264 0.19529
#
# Static dielectric constant tensor:
#      x y z
#    x 3.413900 0.000000 0.000000 
#    y 0.000000 3.412740 0.000000 
#    z 0.000000 0.000000 3.312210 
# 
# 
# High freq. dielectric constant tensor:
#      x y z
#    x 1.718070 0.000000 0.000000 
#    y 0.000000 1.719440 0.000000 
#    z 0.000000 0.000000 1.701330 
# 
# From -- ./inp_files/32533.got.cif
#   From: 2010.03.12/outbox.cif.g09.slc.cpg/sg62_17_cif.got.tgz:32533.got - 2010.04.10 19:12:36.
