data_PCOD8253166
_publ_section_title
;
Structure prediction by ZEFSAII (Michael W. Deem and Ramdas Pophale) SiO2 
 PCOD8253166
Probable space group: P N M A
;
_chemical_formula_sum "Si O2"
_cell_formula_units_Z 64
_cell_length_a 17.916231
_cell_length_b 8.466288
_cell_length_c 20.632029
_cell_angle_alpha 90.000000
_cell_angle_beta 90.000000
_cell_angle_gamma 90.000000
_cell_volume 3129.548099
_symmetry_space_group_name_H-M "P N M A"
_symmetry_group_IT_number 62
_symmetry_cell_setting 'orthorhombic'
loop_
_space_group_symop_operation_xyz
x,y,z
1/2-x,-y,1/2+z
1/2+x,1/2-y,1/2-z
-x,1/2+y,-z
-x,-y,-z
1/2+x,y,1/2-z
1/2-x,1/2+y,1/2+z
x,1/2-y,z
loop_
_atom_site_type_symbol
_atom_site_label
_atom_site_fract_x
_atom_site_fract_y
_atom_site_fract_z
Si Si1 0.671759 0.065351 0.250627
Si Si2 0.084380 0.066229 0.624229
Si Si3 0.668450 0.063962 0.496730
Si Si4 0.589438 0.934158 0.621136
Si Si5 0.911537 0.063902 0.629115
Si Si6 0.834676 0.435120 0.498613
Si Si7 0.333953 0.566461 0.255072
Si Si8 0.920981 0.937600 0.874024
O O1 0.690843 0.250000 0.257498
O O2 0.621472 0.003091 0.310039
O O3 0.627780 0.035253 0.184843
O O4 0.746657 0.964287 0.251740
O O5 0.095769 0.250000 0.610208
O O6 0.125535 0.012752 0.689460
O O7 0.998271 0.020988 0.630471
O O8 0.118957 0.971535 0.565121
O O9 0.673458 0.250000 0.487669
O O10 0.751716 0.989559 0.494994
O O11 0.620620 0.992187 0.437284
O O12 0.630110 0.026933 0.564362
O O13 0.589777 0.750000 0.604236
O O14 0.505525 0.001814 0.627265
O O15 0.632944 0.961983 0.687528
O O16 0.897929 0.250000 0.639799
O O17 0.877831 0.000365 0.561576
O O18 0.826869 0.250000 0.506217
O O19 0.348351 0.750000 0.270069
O O20 0.922291 0.750000 0.875486
#
# Coordination Sequence:
#
# PCOD8253166 Si02
#       8
#     8   8   8   8   8   8   8   8
#     4  11  22  38  61  87 112 146 189 234 280 335
#     4  10  22  38  58  83 114 150 192 236 278 330
#     4  10  20  37  58  82 115 154 188 230 288 343
#     4  11  22  37  58  85 113 147 191 237 278 331
#     4  10  21  38  57  84 119 153 187 228 280 339
#     4  10  21  36  58  83 112 150 189 231 285 338
#     4  11  23  39  57  81 113 150 187 232 287 338
#     4   9  20  37  57  83 116 148 186 234 285 336
#
# _framework density 20.450237000000001
#
# number of rings (size 3 to 8) (size 9 to 14) (size 15 to 20)
#    0.000    1.750    0.000    4.125    0.000    4.500 
#    0.000    3.750    0.000    0.000    0.000    0.000 
#    0.000    0.000    0.000    0.000    0.000    0.000 
#
# Total GULP energy -793917.208802 kJ/mol
# GULP energy per Si atom -12404.956388 kJ/mol
# Density = 2.040369 g / cm^3
# Si number density = 20.450237 Si / 1000 Ang^3
#
#
#
# Elastic Constant Matrix: (Units=GPa)
#
#
# Indices 1 2 3 4 5 6 
#
# 1 159.5004 7.6020 67.7115 0.0000 0.0000 0.0000
# 2 7.6020 15.5837 3.8963 0.0000 0.0000 0.0000
# 3 67.7115 3.8963 154.5168 0.0000 0.0000 0.0000
# 4 0.0000 0.0000 0.0000 -603.4094 0.0000 0.0000
# 5 0.0000 0.0000 0.0000 0.0000 45.2598 0.0000
# 6 0.0000 0.0000 0.0000 0.0000 0.0000 36.3252
#
#
#
# Elastic Compliance Matrix: (Units=1/GPa)
#
#
# Indices 1 2 3 4 5 6 
#
# 1 0.007838 -0.002984 -0.003359 0.000000 0.000000 0.000000
# 2 -0.002984 0.065712 -0.000350 0.000000 0.000000 0.000000
# 3 -0.003359 -0.000350 0.007953 0.000000 0.000000 0.000000
# 4 0.000000 0.000000 0.000000 -0.001657 0.000000 0.000000
# 5 0.000000 0.000000 0.000000 0.000000 0.022095 0.000000
# 6 0.000000 0.000000 0.000000 0.000000 0.000000 0.027529
#
#
# Mechanical properties :
#
#
# Convention : Reuss Voigt Hill
#
# Bulk Modulus (GPa) = 14.68044 54.22451 34.45248
# Shear Modulus (GPa) = 30.20043 -87.67212 -28.73584
#
# Velocity S-wave (km/s) = 3.84705 -6.55469 -3.75261
# Velocity P-wave (km/s) = 5.18915 5.54188 1.37571
#
# Compressibility (1/GPa) = 0.06811783
#
# Stress axis : x y z
#
# Youngs Moduli (GPa) = 127.58448 15.21786 125.74240
#
# Poissons Ratio (x) = 0.04540 0.42243
# Poissons Ratio (y) = 0.38065 0.04396
# Poissons Ratio (z) = 0.42862 0.00532
#
# Static dielectric constant tensor:
#      x y z
#    x 4.121240 0.000000 0.000000 
#    y 0.000000 3.384450 0.000000 
#    z 0.000000 0.000000 3.829180 
# 
# 
# High freq. dielectric constant tensor:
#      x y z
#    x 1.820130 0.000000 0.000000 
#    y 0.000000 1.775520 0.000000 
#    z 0.000000 0.000000 1.815850 
# 
# From -- ./inp_files/27696.got.cif
#   From: 2010.03.12/outbox.cif.g09.slc.cpg/sg62_14_cif.got.tgz:27696.got - 2010.04.10 19:12:36.
