data_PCOD8253820
_publ_section_title
;
Structure prediction by ZEFSAII (Michael W. Deem and Ramdas Pophale) SiO2 
 PCOD8253820
Probable space group: P N M A
;
_chemical_formula_sum "Si O2"
_cell_formula_units_Z 40
_cell_length_a 21.197526
_cell_length_b 9.624728
_cell_length_c 10.067992
_cell_angle_alpha 90.000000
_cell_angle_beta 90.000000
_cell_angle_gamma 90.000000
_cell_volume 2054.075977
_symmetry_space_group_name_H-M "P N M A"
_symmetry_group_IT_number 62
_symmetry_cell_setting 'orthorhombic'
loop_
_space_group_symop_operation_xyz
x,y,z
1/2-x,-y,1/2+z
1/2+x,1/2-y,1/2-z
-x,1/2+y,-z
-x,-y,-z
1/2+x,y,1/2-z
1/2-x,1/2+y,1/2+z
x,1/2-y,z
loop_
_atom_site_type_symbol
_atom_site_label
_atom_site_fract_x
_atom_site_fract_y
_atom_site_fract_z
Si Si1 0.526550 0.593936 0.675311
Si Si2 0.416550 0.088223 0.601240
Si Si3 0.941333 0.093628 0.463715
Si Si4 0.802379 0.087815 0.521076
Si Si5 0.777685 0.087518 0.819400
O O1 0.500698 0.750000 0.653699
O O2 0.570375 0.549830 0.552083
O O3 0.466322 0.493706 0.692438
O O4 0.569831 0.583865 0.805300
O O5 0.424764 0.250000 0.633667
O O6 0.346678 0.038040 0.635136
O O7 0.958302 0.250000 0.507233
O O8 0.876352 0.046688 0.533611
O O9 0.000000 0.000000 0.500000
O O10 0.796327 0.250000 0.483890
O O11 0.769388 0.056028 0.662421
O O12 0.772490 0.998931 0.403130
O O13 0.767615 0.250000 0.849242
#
# Coordination Sequence:
#
# PCOD8253820 Si02
#       5
#     8   8   8   8   8
#     4   9  18  32  54  84 111 142 184 225 277 338
#     4   9  18  34  56  81 112 146 182 229 280 331
#     4  10  21  37  58  83 113 147 188 236 286 339
#     4  10  23  40  59  86 118 153 194 239 288 342
#     4  10  22  39  59  84 114 152 196 235 284 345
#
# _framework density 19.473476000000002
#
# number of rings (size 3 to 8) (size 9 to 14) (size 15 to 20)
#    0.000    2.400    0.000    1.200    2.800    4.800 
#    0.000    0.000    0.000    0.000    0.000    0.000 
#    0.000    0.000    0.000    0.000    0.000    0.000 
#
# Total GULP energy -496025.898894 kJ/mol
# GULP energy per Si atom -12400.647472 kJ/mol
# Density = 1.942915 g / cm^3
# Si number density = 19.473476 Si / 1000 Ang^3
#
#
#
# Elastic Constant Matrix: (Units=GPa)
#
#
# Indices 1 2 3 4 5 6 
#
# 1 98.8197 54.8490 44.7677 0.0000 0.0000 0.0000
# 2 54.8490 69.3128 41.6472 0.0000 0.0000 0.0000
# 3 44.7677 41.6472 89.4937 0.0000 0.0000 0.0000
# 4 0.0000 0.0000 0.0000 31.1693 0.0000 0.0000
# 5 0.0000 0.0000 0.0000 0.0000 33.2777 0.0000
# 6 0.0000 0.0000 0.0000 0.0000 0.0000 37.2907
#
#
#
# Elastic Compliance Matrix: (Units=1/GPa)
#
#
# Indices 1 2 3 4 5 6 
#
# 1 0.018779 -0.012793 -0.003440 0.000000 0.000000 0.000000
# 2 -0.012793 0.028742 -0.006976 0.000000 0.000000 0.000000
# 3 -0.003440 -0.006976 0.016141 0.000000 0.000000 0.000000
# 4 0.000000 0.000000 0.000000 0.032083 0.000000 0.000000
# 5 0.000000 0.000000 0.000000 0.000000 0.030050 0.000000
# 6 0.000000 0.000000 0.000000 0.000000 0.000000 0.026816
#
#
# Mechanical properties :
#
#
# Convention : Reuss Voigt Hill
#
# Bulk Modulus (GPa) = 57.99280 60.01713 59.00496
# Shear Modulus (GPa) = 24.41663 28.10502 26.26082
#
# Velocity S-wave (km/s) = 3.54480 3.80313 3.67624
# Velocity P-wave (km/s) = 6.82636 7.08321 6.95597
#
# Compressibility (1/GPa) = 0.01724352
#
# Stress axis : x y z
#
# Youngs Moduli (GPa) = 53.25238 34.79177 61.95216
#
# Poissons Ratio (x) = 0.44508 0.21313
# Poissons Ratio (y) = 0.68125 0.43220
# Poissons Ratio (z) = 0.18320 0.24272
#
# Static dielectric constant tensor:
#      x y z
#    x 3.409440 0.000000 0.000000 
#    y 0.000000 3.473970 0.000000 
#    z 0.000000 0.000000 3.757800 
# 
# 
# High freq. dielectric constant tensor:
#      x y z
#    x 1.746790 0.000000 0.000000 
#    y 0.000000 1.749720 0.000000 
#    z 0.000000 0.000000 1.773920 
# 
# From -- ./inp_files/9084.got.cif
#   From: 2010.03.12/outbox.cif.g09.slc.cpg/sg62_5_cif.got.tgz:9084.got - 2010.04.10 19:12:36.
