data_PCOD8253532
_publ_section_title
;
Structure prediction by ZEFSAII (Michael W. Deem and Ramdas Pophale) SiO2 
 PCOD8253532
Probable space group: P N M A
;
_chemical_formula_sum "Si O2"
_cell_formula_units_Z 48
_cell_length_a 9.924674
_cell_length_b 9.160241
_cell_length_c 27.271165
_cell_angle_alpha 90.000000
_cell_angle_beta 90.000000
_cell_angle_gamma 90.000000
_cell_volume 2479.287216
_symmetry_space_group_name_H-M "P N M A"
_symmetry_group_IT_number 62
_symmetry_cell_setting 'orthorhombic'
loop_
_space_group_symop_operation_xyz
x,y,z
1/2-x,-y,1/2+z
1/2+x,1/2-y,1/2-z
-x,1/2+y,-z
-x,-y,-z
1/2+x,y,1/2-z
1/2-x,1/2+y,1/2+z
x,1/2-y,z
loop_
_atom_site_type_symbol
_atom_site_label
_atom_site_fract_x
_atom_site_fract_y
_atom_site_fract_z
Si Si1 0.903523 0.919626 0.962711
Si Si2 0.743863 0.419284 0.679194
Si Si3 0.096027 0.920532 0.537787
Si Si4 0.534596 0.416546 0.864249
Si Si5 0.013021 0.422869 0.144969
Si Si6 0.773028 0.418589 0.790917
O O1 0.936467 0.750000 0.966708
O O2 0.749752 0.953845 0.977181
O O3 0.929750 0.974651 0.907499
O O4 0.000000 0.000000 0.000000
O O5 0.702831 0.250000 0.675252
O O6 0.885946 0.450658 0.654203
O O7 0.636993 0.515972 0.650061
O O8 0.748679 0.469561 0.735498
O O9 0.064911 0.750000 0.536010
O O10 0.000000 0.000000 0.500000
O O11 0.069819 0.974710 0.592380
O O12 0.547469 0.250000 0.882929
O O13 0.634963 0.446763 0.819535
O O14 0.011409 0.250000 0.149821
O O15 0.106419 0.486836 0.187406
O O16 0.818024 0.250000 0.792833
#
# Coordination Sequence:
#
# PCOD8253532 Si02
#       6
#     8   8   8   8   8   8
#     4  10  24  43  63  88 120 156 197 247 299 358
#     4  10  22  39  61  91 124 160 205 249 290 349
#     4  11  24  43  64  89 121 155 197 248 302 360
#     4  10  21  38  62  91 121 158 202 246 299 353
#     4  11  23  40  60  90 126 159 199 245 301 358
#     4  10  20  39  65  89 119 161 205 248 295 350
#
# _framework density 19.360403000000002
#
# number of rings (size 3 to 8) (size 9 to 14) (size 15 to 20)
#    0.000    1.667    1.667    2.000    2.333    6.667 
#    0.000    1.667    0.000    0.000    0.000    0.000 
#    0.000    0.000    0.000    0.000    0.000    0.000 
#
# Total GULP energy -595486.918884 kJ/mol
# GULP energy per Si atom -12405.977477 kJ/mol
# Density = 1.931634 g / cm^3
# Si number density = 19.360403 Si / 1000 Ang^3
#
#
#
# Elastic Constant Matrix: (Units=GPa)
#
#
# Indices 1 2 3 4 5 6 
#
# 1 121.8206 62.1922 38.6989 0.0000 0.0000 0.0000
# 2 62.1922 83.8638 54.5304 0.0000 0.0000 0.0000
# 3 38.6989 54.5304 93.9307 0.0000 0.0000 0.0000
# 4 0.0000 0.0000 0.0000 32.9770 0.0000 0.0000
# 5 0.0000 0.0000 0.0000 0.0000 35.3583 0.0000
# 6 0.0000 0.0000 0.0000 0.0000 0.0000 36.1736
#
#
#
# Elastic Compliance Matrix: (Units=1/GPa)
#
#
# Indices 1 2 3 4 5 6 
#
# 1 0.013219 -0.010059 0.000393 0.000000 0.000000 0.000000
# 2 -0.010059 0.026809 -0.011419 0.000000 0.000000 0.000000
# 3 0.000393 -0.011419 0.017113 0.000000 0.000000 0.000000
# 4 0.000000 0.000000 0.000000 0.030324 0.000000 0.000000
# 5 0.000000 0.000000 0.000000 0.000000 0.028282 0.000000
# 6 0.000000 0.000000 0.000000 0.000000 0.000000 0.027644
#
#
# Mechanical properties :
#
#
# Convention : Reuss Voigt Hill
#
# Bulk Modulus (GPa) = 66.79294 67.82870 67.31082
# Shear Modulus (GPa) = 26.23953 30.51468 28.37711
#
# Velocity S-wave (km/s) = 3.68546 3.97437 3.83264
# Velocity P-wave (km/s) = 7.25843 7.49477 7.37755
#
# Compressibility (1/GPa) = 0.01497164
#
# Stress axis : x y z
#
# Youngs Moduli (GPa) = 75.64798 37.30121 58.43355
#
# Poissons Ratio (x) = 0.37521 -0.02299
# Poissons Ratio (y) = 0.76094 0.66727
# Poissons Ratio (z) = -0.02976 0.42596
#
# Static dielectric constant tensor:
#      x y z
#    x 3.650640 0.000000 0.000000 
#    y 0.000000 3.497750 0.000000 
#    z 0.000000 0.000000 3.615900 
# 
# 
# High freq. dielectric constant tensor:
#      x y z
#    x 1.770470 0.000000 0.000000 
#    y 0.000000 1.749680 0.000000 
#    z 0.000000 0.000000 1.762500 
# 
# From -- ./inp_files/31983.got.cif
#   From: 2010.03.12/outbox.cif.g09.slc.cpg/sg62_16_cif.got.tgz:31983.got - 2010.04.10 19:12:36.
