data_PCOD8253213
_publ_section_title
;
Structure prediction by ZEFSAII (Michael W. Deem and Ramdas Pophale) SiO2 
 PCOD8253213
Probable space group: P N M A
;
_chemical_formula_sum "Si O2"
_cell_formula_units_Z 52
_cell_length_a 13.553002
_cell_length_b 23.129336
_cell_length_c 8.612572
_cell_angle_alpha 90.000000
_cell_angle_beta 90.000000
_cell_angle_gamma 90.000000
_cell_volume 2699.799628
_symmetry_space_group_name_H-M "P N M A"
_symmetry_group_IT_number 62
_symmetry_cell_setting 'orthorhombic'
loop_
_space_group_symop_operation_xyz
x,y,z
1/2-x,-y,1/2+z
1/2+x,1/2-y,1/2-z
-x,1/2+y,-z
-x,-y,-z
1/2+x,y,1/2-z
1/2-x,1/2+y,1/2+z
x,1/2-y,z
loop_
_atom_site_type_symbol
_atom_site_label
_atom_site_fract_x
_atom_site_fract_y
_atom_site_fract_z
Si Si1 0.679140 0.639551 0.655631
Si Si2 0.183968 0.750000 0.338897
Si Si3 0.187483 0.039631 0.788207
Si Si4 0.469243 0.750000 0.092717
Si Si5 0.528675 0.541667 0.639380
Si Si6 0.801588 0.661953 0.356588
Si Si7 0.313247 0.555732 0.655328
Si Si8 0.385910 0.250000 0.164451
O O1 0.596890 0.595676 0.587571
O O2 0.745193 0.664637 0.518644
O O3 0.747957 0.608252 0.781991
O O4 0.623806 0.692963 0.733254
O O5 0.234326 0.807482 0.272542
O O6 0.196236 0.750000 0.526272
O O7 0.066680 0.750000 0.296689
O O8 0.175007 0.097123 0.690380
O O9 0.093263 0.998839 0.746107
O O10 0.283878 0.005765 0.729784
O O11 0.197378 0.053297 0.969942
O O12 0.406335 0.806935 0.127269
O O13 0.504799 0.750000 0.912775
O O14 0.500000 0.500000 0.500000
O O15 0.426733 0.565852 0.710527
#
# Coordination Sequence:
#
# PCOD8253213 Si02
#       8
#     8   4   8   4   8   8   8   4
#     4  11  23  39  64  89 122 163 205 259 308 368
#     4   9  22  39  59  85 121 157 206 259 300 370
#     4  10  20  37  59  88 122 160 203 248 307 368
#     4   9  24  39  63  86 123 154 207 253 307 365
#     4   9  20  38  57  90 125 158 201 249 303 374
#     4  11  21  40  63  90 121 163 200 256 315 363
#     4  10  21  38  58  89 122 163 201 253 306 367
#     4  10  22  44  58  87 122 153 211 252 301 371
#
# _framework density 19.260687999999998
#
# number of rings (size 3 to 8) (size 9 to 14) (size 15 to 20)
#    0.462    1.538    0.000    4.615    2.154    3.692 
#    0.000    2.308    0.000    0.000    0.000    0.000 
#    0.000    0.000    0.000    0.000    0.000    0.000 
#
# Total GULP energy -644602.213686 kJ/mol
# GULP energy per Si atom -12396.196417 kJ/mol
# Density = 1.921685 g / cm^3
# Si number density = 19.260688 Si / 1000 Ang^3
#
#
#
# Elastic Constant Matrix: (Units=GPa)
#
#
# Indices 1 2 3 4 5 6 
#
# 1 118.0009 35.3919 14.7441 0.0000 0.0000 0.0000
# 2 35.3919 105.6230 11.7964 0.0000 0.0000 0.0000
# 3 14.7441 11.7964 68.6902 0.0000 0.0000 0.0000
# 4 0.0000 0.0000 0.0000 34.8220 0.0000 0.0000
# 5 0.0000 0.0000 0.0000 0.0000 27.4794 0.0000
# 6 0.0000 0.0000 0.0000 0.0000 0.0000 13.8312
#
#
#
# Elastic Compliance Matrix: (Units=1/GPa)
#
#
# Indices 1 2 3 4 5 6 
#
# 1 0.009577 -0.003038 -0.001534 0.000000 0.000000 0.000000
# 2 -0.003038 0.010616 -0.001171 0.000000 0.000000 0.000000
# 3 -0.001534 -0.001171 0.015089 0.000000 0.000000 0.000000
# 4 0.000000 0.000000 0.000000 0.028717 0.000000 0.000000
# 5 0.000000 0.000000 0.000000 0.000000 0.036391 0.000000
# 6 0.000000 0.000000 0.000000 0.000000 0.000000 0.072300
#
#
# Mechanical properties :
#
#
# Convention : Reuss Voigt Hill
#
# Bulk Modulus (GPa) = 42.02350 46.24209 44.13280
# Shear Modulus (GPa) = 26.02688 30.58529 28.30609
#
# Velocity S-wave (km/s) = 3.67999 3.98925 3.83773
# Velocity P-wave (km/s) = 6.31839 6.72900 6.52693
#
# Compressibility (1/GPa) = 0.02379621
#
# Stress axis : x y z
#
# Youngs Moduli (GPa) = 104.41337 94.19446 66.27558
#
# Poissons Ratio (x) = 0.28615 0.10167
# Poissons Ratio (y) = 0.31719 0.07762
# Poissons Ratio (z) = 0.16018 0.11031
#
# Static dielectric constant tensor:
#      x y z
#    x 4.023560 0.000000 0.000000 
#    y 0.000000 3.560500 0.000000 
#    z 0.000000 0.000000 3.371890 
# 
# 
# High freq. dielectric constant tensor:
#      x y z
#    x 1.757430 0.000000 0.000000 
#    y 0.000000 1.761280 0.000000 
#    z 0.000000 0.000000 1.734780 
# 
# From -- ./inp_files/6867.got.cif
#   From: 2010.03.12/outbox.cif.g09.slc.cpg/sg62_4_cif.got.tgz:6867.got - 2010.04.10 19:12:36.
