data_PCOD8253701
_publ_section_title
;
Structure prediction by ZEFSAII (Michael W. Deem and Ramdas Pophale) SiO2 
 PCOD8253701
Probable space group: P N M A
;
_chemical_formula_sum "Si O2"
_cell_formula_units_Z 56
_cell_length_a 16.496841
_cell_length_b 9.225605
_cell_length_c 19.617370
_cell_angle_alpha 90.000000
_cell_angle_beta 90.000000
_cell_angle_gamma 90.000000
_cell_volume 2985.633039
_symmetry_space_group_name_H-M "P N M A"
_symmetry_group_IT_number 62
_symmetry_cell_setting 'orthorhombic'
loop_
_space_group_symop_operation_xyz
x,y,z
1/2-x,-y,1/2+z
1/2+x,1/2-y,1/2-z
-x,1/2+y,-z
-x,-y,-z
1/2+x,y,1/2-z
1/2-x,1/2+y,1/2+z
x,1/2-y,z
loop_
_atom_site_type_symbol
_atom_site_label
_atom_site_fract_x
_atom_site_fract_y
_atom_site_fract_z
Si Si1 0.939746 0.082142 0.951135
Si Si2 0.860965 0.080637 0.371591
Si Si3 0.744466 0.918444 0.473580
Si Si4 0.234577 0.415357 0.236805
Si Si5 0.581610 0.582346 0.301411
Si Si6 0.477087 0.078437 0.843774
Si Si7 0.320505 0.583534 0.882574
O O1 0.948354 0.250000 0.968506
O O2 0.847832 0.031122 0.963732
O O3 0.964355 0.048780 0.872371
O O4 0.000000 0.000000 0.000000
O O5 0.876224 0.250000 0.385437
O O6 0.822096 0.053686 0.296692
O O7 0.801715 0.019069 0.428775
O O8 0.944988 0.995968 0.376337
O O9 0.756242 0.750000 0.453037
O O10 0.765925 0.946544 0.552138
O O11 0.209419 0.250000 0.225448
O O12 0.168275 0.506426 0.196311
O O13 0.235530 0.454337 0.316999
O O14 0.602531 0.750000 0.295247
O O15 0.528516 0.533384 0.236261
O O16 0.483203 0.250000 0.854160
O O17 0.398808 0.019691 0.883743
O O18 0.350469 0.750000 0.879853
#
# Coordination Sequence:
#
# PCOD8253701 Si02
#       7
#     8   8   8   8   8   8   8
#     4  10  21  36  56  83 114 149 186 227 278 336
#     4  11  22  35  56  85 114 146 188 234 279 334
#     4  10  21  38  59  81 111 152 188 228 282 337
#     4   9  18  33  55  80 105 139 183 231 279 327
#     4   9  18  35  56  78 106 140 182 226 273 328
#     4  10  21  36  56  82 111 147 187 231 281 330
#     4   9  19  37  58  81 111 145 187 234 281 331
#
# _framework density 18.756489999999999
#
# number of rings (size 3 to 8) (size 9 to 14) (size 15 to 20)
#    0.000    2.286    1.429    0.857    0.000    4.571 
#    0.000    1.429    0.000    0.000    0.000    0.000 
#    0.000    0.000    0.000    0.000    0.000    0.000 
#
# Total GULP energy -694392.737615 kJ/mol
# GULP energy per Si atom -12399.870315 kJ/mol
# Density = 1.871380 g / cm^3
# Si number density = 18.756490 Si / 1000 Ang^3
#
#
#
# Elastic Constant Matrix: (Units=GPa)
#
#
# Indices 1 2 3 4 5 6 
#
# 1 71.3585 32.1095 35.5167 0.0000 0.0000 0.0000
# 2 32.1095 62.0165 30.7558 0.0000 0.0000 0.0000
# 3 35.5167 30.7558 87.5303 0.0000 0.0000 0.0000
# 4 0.0000 0.0000 0.0000 29.1760 0.0000 0.0000
# 5 0.0000 0.0000 0.0000 0.0000 28.8488 0.0000
# 6 0.0000 0.0000 0.0000 0.0000 0.0000 30.2313
#
#
#
# Elastic Compliance Matrix: (Units=1/GPa)
#
#
# Indices 1 2 3 4 5 6 
#
# 1 0.020234 -0.007756 -0.005485 0.000000 0.000000 0.000000
# 2 -0.007756 0.022501 -0.004759 0.000000 0.000000 0.000000
# 3 -0.005485 -0.004759 0.015322 0.000000 0.000000 0.000000
# 4 0.000000 0.000000 0.000000 0.034275 0.000000 0.000000
# 5 0.000000 0.000000 0.000000 0.000000 0.034664 0.000000
# 6 0.000000 0.000000 0.000000 0.000000 0.000000 0.033078
#
#
# Mechanical properties :
#
#
# Convention : Reuss Voigt Hill
#
# Bulk Modulus (GPa) = 45.33728 46.40770 45.87249
# Shear Modulus (GPa) = 24.57904 25.81943 25.19924
#
# Velocity S-wave (km/s) = 3.62391 3.71423 3.66935
# Velocity P-wave (km/s) = 6.46021 6.57190 6.51629
#
# Compressibility (1/GPa) = 0.02205690
#
# Stress axis : x y z
#
# Youngs Moduli (GPa) = 49.42252 44.44322 65.26418
#
# Poissons Ratio (x) = 0.34470 0.35796
# Poissons Ratio (y) = 0.38332 0.31059
# Poissons Ratio (z) = 0.27107 0.21150
#
# Static dielectric constant tensor:
#      x y z
#    x 3.292010 0.000000 0.000000 
#    y 0.000000 3.452850 0.000000 
#    z 0.000000 0.000000 3.685940 
# 
# 
# High freq. dielectric constant tensor:
#      x y z
#    x 1.714580 0.000000 0.000000 
#    y 0.000000 1.729090 0.000000 
#    z 0.000000 0.000000 1.738270 
# 
# From -- ./inp_files/27121.got.cif
#   From: 2010.03.12/outbox.cif.g09.slc.cpg/sg62_14_cif.got.tgz:27121.got - 2010.04.10 19:12:36.
