data_PCOD8253603
_publ_section_title
;
Structure prediction by ZEFSAII (Michael W. Deem and Ramdas Pophale) SiO2 
 PCOD8253603
Probable space group: P N M A
;
_chemical_formula_sum "Si O2"
_cell_formula_units_Z 36
_cell_length_a 14.016531
_cell_length_b 10.545470
_cell_length_c 11.304476
_cell_angle_alpha 90.000000
_cell_angle_beta 90.000000
_cell_angle_gamma 90.000000
_cell_volume 1670.924853
_symmetry_space_group_name_H-M "P N M A"
_symmetry_group_IT_number 62
_symmetry_cell_setting 'orthorhombic'
loop_
_space_group_symop_operation_xyz
x,y,z
1/2-x,-y,1/2+z
1/2+x,1/2-y,1/2-z
-x,1/2+y,-z
-x,-y,-z
1/2+x,y,1/2-z
1/2-x,1/2+y,1/2+z
x,1/2-y,z
loop_
_atom_site_type_symbol
_atom_site_label
_atom_site_fract_x
_atom_site_fract_y
_atom_site_fract_z
Si Si1 0.839961 0.250000 0.604243
Si Si2 0.128856 0.987207 0.558440
Si Si3 0.574006 0.750000 0.362632
Si Si4 0.445016 0.606043 0.841796
Si Si5 0.157400 0.490521 0.117372
Si Si6 0.370133 0.750000 0.454299
O O1 0.872644 0.368960 0.529330
O O2 0.892567 0.250000 0.728156
O O3 0.725502 0.250000 0.624119
O O4 0.228590 0.005665 0.624060
O O5 0.047837 0.964643 0.657783
O O6 0.102306 0.104958 0.473005
O O7 0.613444 0.623787 0.428653
O O8 0.459400 0.750000 0.366351
O O9 0.458506 0.750000 0.800088
O O10 0.376765 0.533796 0.750530
O O11 0.125284 0.376001 0.034125
#
# Coordination Sequence:
#
# PCOD8253603 Si02
#       6
#     4   8   4   8   8   4
#     4  10  20  43  65  88 127 174 206 263 323 370
#     4  10  23  43  64  94 130 165 218 271 313 385
#     4  12  24  42  65 101 128 170 219 257 329 393
#     4  11  22  41  69  95 125 174 220 261 324 390
#     4  11  24  44  66  97 133 171 212 269 330 377
#     4  10  24  45  66  89 139 170 211 272 322 377
#
# _framework density 21.544953
#
# number of rings (size 3 to 8) (size 9 to 14) (size 15 to 20)
#    0.000    1.333    4.444    0.667    1.556    1.778 
#    4.000    0.000    0.000    0.000    0.000    0.000 
#    0.000    0.000    0.000    0.000    0.000    0.000 
#
# Total GULP energy -446440.481448 kJ/mol
# GULP energy per Si atom -12401.124485 kJ/mol
# Density = 2.149592 g / cm^3
# Si number density = 21.544953 Si / 1000 Ang^3
#
#
#
# Elastic Constant Matrix: (Units=GPa)
#
#
# Indices 1 2 3 4 5 6 
#
# 1 196.9200 25.6042 68.5259 0.0000 0.0000 0.0000
# 2 25.6042 102.5572 20.0298 0.0000 0.0000 0.0000
# 3 68.5259 20.0298 70.6576 0.0000 0.0000 0.0000
# 4 0.0000 0.0000 0.0000 3.9533 0.0000 0.0000
# 5 0.0000 0.0000 0.0000 0.0000 48.4030 0.0000
# 6 0.0000 0.0000 0.0000 0.0000 0.0000 11.8345
#
#
#
# Elastic Compliance Matrix: (Units=1/GPa)
#
#
# Indices 1 2 3 4 5 6 
#
# 1 0.007688 -0.000490 -0.007317 0.000000 0.000000 0.000000
# 2 -0.000490 0.010353 -0.002459 0.000000 0.000000 0.000000
# 3 -0.007317 -0.002459 0.021947 0.000000 0.000000 0.000000
# 4 0.000000 0.000000 0.000000 0.252950 0.000000 0.000000
# 5 0.000000 0.000000 0.000000 0.000000 0.020660 0.000000
# 6 0.000000 0.000000 0.000000 0.000000 0.000000 0.084498
#
#
# Mechanical properties :
#
#
# Convention : Reuss Voigt Hill
#
# Bulk Modulus (GPa) = 51.40318 66.49496 58.94907
# Shear Modulus (GPa) = 11.76150 29.90318 20.83234
#
# Velocity S-wave (km/s) = 2.33900 3.72955 3.11291
# Velocity P-wave (km/s) = 5.58614 7.03395 6.35143
#
# Compressibility (1/GPa) = 0.01945405
#
# Stress axis : x y z
#
# Youngs Moduli (GPa) = 130.06741 96.58666 45.56528
#
# Poissons Ratio (x) = 0.04736 0.33342
# Poissons Ratio (y) = 0.06378 0.11206
# Poissons Ratio (z) = 0.95175 0.23754
#
# Static dielectric constant tensor:
#      x y z
#    x 4.040080 0.000000 0.000000 
#    y 0.000000 4.280780 0.000000 
#    z 0.000000 0.000000 3.488020 
# 
# 
# High freq. dielectric constant tensor:
#      x y z
#    x 1.857370 0.000000 0.000000 
#    y 0.000000 1.864510 0.000000 
#    z 0.000000 0.000000 1.820700 
# 
# From -- ./inp_files/11893.got.cif
#   From: 2010.03.12/outbox.cif.g09.slc.cpg/sg62_6_cif.got.tgz:11893.got - 2010.04.10 19:12:36.
