data_PCOD8253477
_publ_section_title
;
Structure prediction by ZEFSAII (Michael W. Deem and Ramdas Pophale) SiO2 
 PCOD8253477
Probable space group: P N M A
;
_chemical_formula_sum "Si O2"
_cell_formula_units_Z 48
_cell_length_a 8.659505
_cell_length_b 27.722548
_cell_length_c 9.749282
_cell_angle_alpha 90.000000
_cell_angle_beta 90.000000
_cell_angle_gamma 90.000000
_cell_volume 2340.447179
_symmetry_space_group_name_H-M "P N M A"
_symmetry_group_IT_number 62
_symmetry_cell_setting 'orthorhombic'
loop_
_space_group_symop_operation_xyz
x,y,z
1/2-x,-y,1/2+z
1/2+x,1/2-y,1/2-z
-x,1/2+y,-z
-x,-y,-z
1/2+x,y,1/2-z
1/2-x,1/2+y,1/2+z
x,1/2-y,z
loop_
_atom_site_type_symbol
_atom_site_label
_atom_site_fract_x
_atom_site_fract_y
_atom_site_fract_z
Si Si1 0.427141 0.912265 0.641557
Si Si2 0.061147 0.396545 0.601101
Si Si3 0.106183 0.471325 0.392342
Si Si4 0.221013 0.063138 0.869547
Si Si5 0.676603 0.653971 0.738715
Si Si6 0.065212 0.195566 0.441494
O O1 0.474515 0.954704 0.749978
O O2 0.403025 0.933391 0.491058
O O3 0.265758 0.889672 0.689433
O O4 0.554966 0.870566 0.634989
O O5 0.151800 0.422381 0.473726
O O6 0.141573 0.412791 0.739525
O O7 0.077177 0.339420 0.574179
O O8 0.880750 0.409685 0.600811
O O9 0.248695 0.505801 0.350135
O O10 0.000000 0.500000 0.500000
O O11 0.785276 0.690082 0.655111
O O12 0.588598 0.684158 0.855504
O O13 0.058047 0.250000 0.497208
#
# Coordination Sequence:
#
# PCOD8253477 Si02
#       6
#     8   8   8   8   8   8
#     4  11  20  39  64  90 128 169 208 260 328 376
#     4  11  23  42  60  91 132 165 219 267 322 383
#     4  10  20  40  62  91 127 166 212 264 317 380
#     4  11  24  38  61  91 129 174 209 261 319 390
#     4  10  20  38  67  92 121 159 213 269 325 387
#     4  11  22  41  67  94 127 165 214 278 335 387
#
# _framework density 20.508901000000002
#
# number of rings (size 3 to 8) (size 9 to 14) (size 15 to 20)
#    0.000    1.333    5.000    2.500    2.333    1.333 
#    0.000    5.833    0.000    0.000    0.000    0.000 
#    0.000    0.000    0.000    0.000    0.000    0.000 
#
# Total GULP energy -595036.388916 kJ/mol
# GULP energy per Si atom -12396.591436 kJ/mol
# Density = 2.046222 g / cm^3
# Si number density = 20.508901 Si / 1000 Ang^3
#
#
#
# Elastic Constant Matrix: (Units=GPa)
#
#
# Indices 1 2 3 4 5 6 
#
# 1 71.5553 22.6657 25.9315 0.0000 0.0000 0.0000
# 2 22.6657 111.8826 34.7305 0.0000 0.0000 0.0000
# 3 25.9315 34.7305 120.5005 0.0000 0.0000 0.0000
# 4 0.0000 0.0000 0.0000 31.7073 0.0000 0.0000
# 5 0.0000 0.0000 0.0000 0.0000 26.7696 0.0000
# 6 0.0000 0.0000 0.0000 0.0000 0.0000 18.1047
#
#
#
# Elastic Compliance Matrix: (Units=1/GPa)
#
#
# Indices 1 2 3 4 5 6 
#
# 1 0.015696 -0.002341 -0.002703 0.000000 0.000000 0.000000
# 2 -0.002341 0.010165 -0.002426 0.000000 0.000000 0.000000
# 3 -0.002703 -0.002426 0.009580 0.000000 0.000000 0.000000
# 4 0.000000 0.000000 0.000000 0.031539 0.000000 0.000000
# 5 0.000000 0.000000 0.000000 0.000000 0.037356 0.000000
# 6 0.000000 0.000000 0.000000 0.000000 0.000000 0.055234
#
#
# Mechanical properties :
#
#
# Convention : Reuss Voigt Hill
#
# Bulk Modulus (GPa) = 48.77757 52.28823 50.53290
# Shear Modulus (GPa) = 27.57200 30.02369 28.79784
#
# Velocity S-wave (km/s) = 3.67057 3.83029 3.75128
# Velocity P-wave (km/s) = 6.46524 6.71656 6.59210
#
# Compressibility (1/GPa) = 0.02050123
#
# Stress axis : x y z
#
# Youngs Moduli (GPa) = 63.70940 98.37448 104.38754
#
# Poissons Ratio (x) = 0.23027 0.28218
# Poissons Ratio (y) = 0.14913 0.25325
# Poissons Ratio (z) = 0.17222 0.23867
#
# Static dielectric constant tensor:
#      x y z
#    x 3.781360 0.000000 0.000000 
#    y 0.000000 3.805670 0.000000 
#    z 0.000000 0.000000 3.669470 
# 
# 
# High freq. dielectric constant tensor:
#      x y z
#    x 1.804720 0.000000 0.000000 
#    y 0.000000 1.793230 0.000000 
#    z 0.000000 0.000000 1.793620 
# 
# From -- ./inp_files/4503.got.cif
#   From: 2010.03.12/outbox.cif.g09.slc.cpg/sg62_3_cif.got.tgz:4503.got - 2010.04.10 19:12:36.
