data_PCOD8253443
_publ_section_title
;
Structure prediction by ZEFSAII (Michael W. Deem and Ramdas Pophale) SiO2 
 PCOD8253443
Probable space group: P N M A
;
_chemical_formula_sum "Si O2"
_cell_formula_units_Z 60
_cell_length_a 5.094726
_cell_length_b 17.122213
_cell_length_c 29.112360
_cell_angle_alpha 90.000000
_cell_angle_beta 90.000000
_cell_angle_gamma 90.000000
_cell_volume 2539.558027
_symmetry_space_group_name_H-M "P N M A"
_symmetry_group_IT_number 62
_symmetry_cell_setting 'orthorhombic'
loop_
_space_group_symop_operation_xyz
x,y,z
1/2-x,-y,1/2+z
1/2+x,1/2-y,1/2-z
-x,1/2+y,-z
-x,-y,-z
1/2+x,y,1/2-z
1/2-x,1/2+y,1/2+z
x,1/2-y,z
loop_
_atom_site_type_symbol
_atom_site_label
_atom_site_fract_x
_atom_site_fract_y
_atom_site_fract_z
Si Si1 0.698600 0.338227 0.909268
Si Si2 0.067222 0.250000 0.221201
Si Si3 0.776426 0.162446 0.011837
Si Si4 0.356375 0.032240 0.929602
Si Si5 0.756758 0.429970 0.472232
Si Si6 0.280991 0.161604 0.780027
Si Si7 0.973859 0.950830 0.151659
Si Si8 0.339592 0.581111 0.718770
O O1 0.655423 0.250000 0.892408
O O2 0.412579 0.376565 0.918479
O O3 0.855912 0.341870 0.957757
O O4 0.834158 0.385552 0.868651
O O5 0.759900 0.250000 0.234271
O O6 0.130180 0.332135 0.195122
O O7 0.794638 0.250000 0.030229
O O8 0.985091 0.111622 0.041243
O O9 0.482409 0.134235 0.020350
O O10 0.172142 0.000738 0.889036
O O11 0.642514 0.988325 0.931883
O O12 0.219637 0.021102 0.979696
O O13 0.571342 0.147775 0.760531
O O14 0.252043 0.250000 0.799638
O O15 0.240693 0.096459 0.818778
O O16 0.132636 0.014426 0.180689
O O17 0.053064 0.571346 0.740832
#
# Coordination Sequence:
#
# PCOD8253443 Si02
#       8
#     8   4   8   8   8   8   8   8
#     4  10  23  38  57  89 124 162 212 264 308 357
#     4   8  16  36  62  90 114 146 192 246 304 354
#     4  10  20  38  64  90 119 161 212 259 308 373
#     4  10  24  37  61  86 124 166 207 263 316 372
#     4  10  21  40  62  88 124 162 211 255 320 376
#     4  10  23  41  58  80 119 168 207 250 308 363
#     4  12  23  37  60  92 122 164 208 258 309 373
#     4  10  22  39  65  93 122 159 203 256 309 375
#
# _framework density 23.626156999999999
#
# number of rings (size 3 to 8) (size 9 to 14) (size 15 to 20)
#    0.000    1.867    1.333    1.600    5.600    3.200 
#    0.000    0.000    2.933    0.000    0.000    0.000 
#    0.000    0.000    0.000    0.000    0.000    0.000 
#
# Total GULP energy -743811.451739 kJ/mol
# GULP energy per Si atom -12396.857529 kJ/mol
# Density = 2.357238 g / cm^3
# Si number density = 23.626157 Si / 1000 Ang^3
#
#
#
# Elastic Constant Matrix: (Units=GPa)
#
#
# Indices 1 2 3 4 5 6 
#
# 1 57.0041 0.5480 2.6653 0.0000 0.0000 0.0000
# 2 0.5480 135.4404 31.0108 0.0000 0.0000 0.0000
# 3 2.6653 31.0108 55.1908 0.0000 0.0000 0.0000
# 4 0.0000 0.0000 0.0000 29.6745 0.0000 0.0000
# 5 0.0000 0.0000 0.0000 0.0000 23.1280 0.0000
# 6 0.0000 0.0000 0.0000 0.0000 0.0000 32.8312
#
#
#
# Elastic Compliance Matrix: (Units=1/GPa)
#
#
# Indices 1 2 3 4 5 6 
#
# 1 0.017585 0.000141 -0.000929 0.000000 0.000000 0.000000
# 2 0.000141 0.008475 -0.004769 0.000000 0.000000 0.000000
# 3 -0.000929 -0.004769 0.020843 0.000000 0.000000 0.000000
# 4 0.000000 0.000000 0.000000 0.033699 0.000000 0.000000
# 5 0.000000 0.000000 0.000000 0.000000 0.043238 0.000000
# 6 0.000000 0.000000 0.000000 0.000000 0.000000 0.030459
#
#
# Mechanical properties :
#
#
# Convention : Reuss Voigt Hill
#
# Bulk Modulus (GPa) = 27.94011 35.12041 31.53026
# Shear Modulus (GPa) = 28.19446 31.35413 29.77429
#
# Velocity S-wave (km/s) = 3.45825 3.64688 3.55382
# Velocity P-wave (km/s) = 5.27234 5.71230 5.49672
#
# Compressibility (1/GPa) = 0.03579084
#
# Stress axis : x y z
#
# Youngs Moduli (GPa) = 56.86777 118.00003 47.97728
#
# Poissons Ratio (x) = -0.01670 0.04456
# Poissons Ratio (y) = -0.00805 0.22878
# Poissons Ratio (z) = 0.05281 0.56269
#
# Static dielectric constant tensor:
#      x y z
#    x 4.153970 0.000000 0.000000 
#    y 0.000000 4.613040 0.000000 
#    z 0.000000 0.000000 3.928890 
# 
# 
# High freq. dielectric constant tensor:
#      x y z
#    x 1.946180 0.000000 0.000000 
#    y 0.000000 1.950080 0.000000 
#    z 0.000000 0.000000 1.890450 
# 
# From -- ./inp_files/30508.got.cif
#   From: 2010.03.12/outbox.cif.g09.slc.cpg/sg62_16_cif.got.tgz:30508.got - 2010.04.10 19:12:36.
