data_PCOD8253191
_publ_section_title
;
Structure prediction by ZEFSAII (Michael W. Deem and Ramdas Pophale) SiO2 
 PCOD8253191
Probable space group: P N M A
;
_chemical_formula_sum "Si O2"
_cell_formula_units_Z 40
_cell_length_a 16.383563
_cell_length_b 14.506462
_cell_length_c 8.434680
_cell_angle_alpha 90.000000
_cell_angle_beta 90.000000
_cell_angle_gamma 90.000000
_cell_volume 2004.649596
_symmetry_space_group_name_H-M "P N M A"
_symmetry_group_IT_number 62
_symmetry_cell_setting 'orthorhombic'
loop_
_space_group_symop_operation_xyz
x,y,z
1/2-x,-y,1/2+z
1/2+x,1/2-y,1/2-z
-x,1/2+y,-z
-x,-y,-z
1/2+x,y,1/2-z
1/2-x,1/2+y,1/2+z
x,1/2-y,z
loop_
_atom_site_type_symbol
_atom_site_label
_atom_site_fract_x
_atom_site_fract_y
_atom_site_fract_z
Si Si1 0.057215 0.453897 0.629756
Si Si2 0.127693 0.148514 0.063867
Si Si3 0.817450 0.644062 0.591019
Si Si4 0.463174 0.353422 0.608641
Si Si5 0.345318 0.468130 0.407338
O O1 0.131944 0.397870 0.553507
O O2 0.098011 0.528219 0.749879
O O3 0.000000 0.500000 0.500000
O O4 0.999058 0.383339 0.722477
O O5 0.162377 0.250000 0.016885
O O6 0.129320 0.134187 0.251340
O O7 0.032708 0.140248 0.023894
O O8 0.177932 0.071809 0.964984
O O9 0.795828 0.750000 0.552231
O O10 0.735447 0.588301 0.627925
O O11 0.428626 0.250000 0.624294
O O12 0.391295 0.420641 0.554490
#
# Coordination Sequence:
#
# PCOD8253191 Si02
#       5
#     8   8   8   8   8
#     4  11  22  37  60  86 115 153 197 244 292 347
#     4   9  19  36  57  78 108 149 192 232 280 339
#     4  11  22  37  57  85 117 150 189 241 295 346
#     4  10  20  37  59  83 112 152 194 234 283 348
#     4  11  21  37  59  84 116 152 190 237 293 350
#
# _framework density 19.953612
#
# number of rings (size 3 to 8) (size 9 to 14) (size 15 to 20)
#    0.000    1.600    0.000    7.200    0.000    0.800 
#    0.000    3.000    0.000    9.600    0.000    0.000 
#    0.000    0.000    0.000    0.000    0.000    0.000 
#
# Total GULP energy -496026.674681 kJ/mol
# GULP energy per Si atom -12400.666867 kJ/mol
# Density = 1.990820 g / cm^3
# Si number density = 19.953612 Si / 1000 Ang^3
#
#
#
# Elastic Constant Matrix: (Units=GPa)
#
#
# Indices 1 2 3 4 5 6 
#
# 1 66.8503 51.7596 41.9091 0.0000 0.0000 0.0000
# 2 51.7596 140.2550 53.3765 0.0000 0.0000 0.0000
# 3 41.9091 53.3765 108.8632 0.0000 0.0000 0.0000
# 4 0.0000 0.0000 0.0000 29.5069 0.0000 0.0000
# 5 0.0000 0.0000 0.0000 0.0000 26.0920 0.0000
# 6 0.0000 0.0000 0.0000 0.0000 0.0000 27.0478
#
#
#
# Elastic Compliance Matrix: (Units=1/GPa)
#
#
# Indices 1 2 3 4 5 6 
#
# 1 0.023709 -0.006486 -0.005947 0.000000 0.000000 0.000000
# 2 -0.006486 0.010540 -0.002671 0.000000 0.000000 0.000000
# 3 -0.005947 -0.002671 0.012785 0.000000 0.000000 0.000000
# 4 0.000000 0.000000 0.000000 0.033890 0.000000 0.000000
# 5 0.000000 0.000000 0.000000 0.000000 0.038326 0.000000
# 6 0.000000 0.000000 0.000000 0.000000 0.000000 0.036972
#
#
# Mechanical properties :
#
#
# Convention : Reuss Voigt Hill
#
# Bulk Modulus (GPa) = 59.43319 67.78433 63.60876
# Shear Modulus (GPa) = 26.03642 27.79091 26.91366
#
# Velocity S-wave (km/s) = 3.61619 3.73604 3.67660
# Velocity P-wave (km/s) = 6.87649 7.25640 7.06900
#
# Compressibility (1/GPa) = 0.01682562
#
# Stress axis : x y z
#
# Youngs Moduli (GPa) = 42.17767 94.87649 78.21802
#
# Poissons Ratio (x) = 0.61541 0.46516
# Poissons Ratio (y) = 0.27358 0.20890
# Poissons Ratio (z) = 0.25083 0.25339
#
# Static dielectric constant tensor:
#      x y z
#    x 3.406170 0.000000 0.000000 
#    y 0.000000 4.073320 0.000000 
#    z 0.000000 0.000000 3.647890 
# 
# 
# High freq. dielectric constant tensor:
#      x y z
#    x 1.760090 0.000000 0.000000 
#    y 0.000000 1.791980 0.000000 
#    z 0.000000 0.000000 1.784990 
# 
# From -- ./inp_files/6091.got.cif
#   From: 2010.03.12/outbox.cif.g09.slc.cpg/sg62_4_cif.got.tgz:6091.got - 2010.04.10 19:12:36.
