data_PCOD8253814
_publ_section_title
;
Structure prediction by ZEFSAII (Michael W. Deem and Ramdas Pophale) SiO2 
 PCOD8253814
Probable space group: P N M A
;
_chemical_formula_sum "Si O2"
_cell_formula_units_Z 48
_cell_length_a 23.164418
_cell_length_b 12.009161
_cell_length_c 8.331584
_cell_angle_alpha 90.000000
_cell_angle_beta 90.000000
_cell_angle_gamma 90.000000
_cell_volume 2317.723572
_symmetry_space_group_name_H-M "P N M A"
_symmetry_group_IT_number 62
_symmetry_cell_setting 'orthorhombic'
loop_
_space_group_symop_operation_xyz
x,y,z
1/2-x,-y,1/2+z
1/2+x,1/2-y,1/2-z
-x,1/2+y,-z
-x,-y,-z
1/2+x,y,1/2-z
1/2-x,1/2+y,1/2+z
x,1/2-y,z
loop_
_atom_site_type_symbol
_atom_site_label
_atom_site_fract_x
_atom_site_fract_y
_atom_site_fract_z
Si Si1 0.795235 0.026752 0.857999
Si Si2 0.881220 0.625414 0.036518
Si Si3 0.095118 0.555349 0.716120
Si Si4 0.287048 0.370626 0.328422
Si Si5 0.523612 0.041649 0.333921
Si Si6 0.603546 0.616486 0.143596
O O1 0.837342 0.087060 0.733523
O O2 0.741523 0.970293 0.770260
O O3 0.771803 0.118857 0.982697
O O4 0.824551 0.934946 0.971789
O O5 0.865422 0.750000 0.085237
O O6 0.904061 0.567034 0.200651
O O7 0.925978 0.626856 0.885411
O O8 0.143322 0.629068 0.805894
O O9 0.108488 0.555985 0.527961
O O10 0.029310 0.601560 0.739459
O O11 0.263776 0.250000 0.271229
O O12 0.500000 0.000000 0.500000
O O13 0.548969 0.936510 0.235003
O O14 0.595843 0.750000 0.128407
#
# Coordination Sequence:
#
# PCOD8253814 Si02
#       6
#     8   8   8   8   8   8
#     4  10  22  39  58  87 114 145 197 240 276 343
#     4   9  19  37  59  81 113 151 184 231 289 336
#     4  10  21  37  57  88 119 147 193 237 278 347
#     4  11  22  39  62  85 118 156 189 236 291 338
#     4   9  20  37  57  84 115 145 190 237 276 339
#     4  11  22  39  62  85 116 154 190 237 292 339
#
# _framework density 20.709976999999999
#
# number of rings (size 3 to 8) (size 9 to 14) (size 15 to 20)
#    0.000    2.000    0.000    4.000    0.000    4.000 
#    0.000   17.500    0.000    0.000    0.000    0.000 
#    0.000    0.000    0.000    0.000    0.000    0.000 
#
# Total GULP energy -594823.862401 kJ/mol
# GULP energy per Si atom -12392.163800 kJ/mol
# Density = 2.066284 g / cm^3
# Si number density = 20.709977 Si / 1000 Ang^3
#
#
#
# Elastic Constant Matrix: (Units=GPa)
#
#
# Indices 1 2 3 4 5 6 
#
# 1 92.6220 26.3150 27.4665 0.0000 0.0000 0.0000
# 2 26.3150 101.3007 46.0594 0.0000 0.0000 0.0000
# 3 27.4665 46.0594 129.6976 0.0000 0.0000 0.0000
# 4 0.0000 0.0000 0.0000 23.0333 0.0000 0.0000
# 5 0.0000 0.0000 0.0000 0.0000 40.6393 0.0000
# 6 0.0000 0.0000 0.0000 0.0000 0.0000 12.3550
#
#
#
# Elastic Compliance Matrix: (Units=1/GPa)
#
#
# Indices 1 2 3 4 5 6 
#
# 1 0.011965 -0.002333 -0.001705 0.000000 0.000000 0.000000
# 2 -0.002333 0.012227 -0.003848 0.000000 0.000000 0.000000
# 3 -0.001705 -0.003848 0.009438 0.000000 0.000000 0.000000
# 4 0.000000 0.000000 0.000000 0.043415 0.000000 0.000000
# 5 0.000000 0.000000 0.000000 0.000000 0.024607 0.000000
# 6 0.000000 0.000000 0.000000 0.000000 0.000000 0.080939
#
#
# Mechanical properties :
#
#
# Convention : Reuss Voigt Hill
#
# Bulk Modulus (GPa) = 55.99887 58.14467 57.07177
# Shear Modulus (GPa) = 24.47176 30.12413 27.29795
#
# Velocity S-wave (km/s) = 3.44123 3.81802 3.63451
# Velocity P-wave (km/s) = 6.54887 6.89732 6.72535
#
# Compressibility (1/GPa) = 0.01785750
#
# Stress axis : x y z
#
# Youngs Moduli (GPa) = 83.57654 81.78417 105.95416
#
# Poissons Ratio (x) = 0.19078 0.18070
# Poissons Ratio (y) = 0.19496 0.40774
# Poissons Ratio (z) = 0.14254 0.31473
#
# Static dielectric constant tensor:
#      x y z
#    x 4.581980 0.000000 0.000000 
#    y 0.000000 3.490810 0.000000 
#    z 0.000000 0.000000 3.987780 
# 
# 
# High freq. dielectric constant tensor:
#      x y z
#    x 1.815400 0.000000 0.000000 
#    y 0.000000 1.787560 0.000000 
#    z 0.000000 0.000000 1.817910 
# 
# From -- ./inp_files/9298.got.cif
#   From: 2010.03.12/outbox.cif.g09.slc.cpg/sg62_5_cif.got.tgz:9298.got - 2010.04.10 19:12:36.
