data_PCOD8253537
_publ_section_title
;
Structure prediction by ZEFSAII (Michael W. Deem and Ramdas Pophale) SiO2 
 PCOD8253537
Probable space group: P N M A
;
_chemical_formula_sum "Si O2"
_cell_formula_units_Z 48
_cell_length_a 9.481145
_cell_length_b 8.382340
_cell_length_c 28.732790
_cell_angle_alpha 90.000000
_cell_angle_beta 90.000000
_cell_angle_gamma 90.000000
_cell_volume 2283.514953
_symmetry_space_group_name_H-M "P N M A"
_symmetry_group_IT_number 62
_symmetry_cell_setting 'orthorhombic'
loop_
_space_group_symop_operation_xyz
x,y,z
1/2-x,-y,1/2+z
1/2+x,1/2-y,1/2-z
-x,1/2+y,-z
-x,-y,-z
1/2+x,y,1/2-z
1/2-x,1/2+y,1/2+z
x,1/2-y,z
loop_
_atom_site_type_symbol
_atom_site_label
_atom_site_fract_x
_atom_site_fract_y
_atom_site_fract_z
Si Si1 0.598297 0.935389 0.539975
Si Si2 0.981217 0.937624 0.300333
Si Si3 0.803782 0.064581 0.380791
Si Si4 0.203759 0.440023 0.784566
Si Si5 0.002971 0.935568 0.135051
Si Si6 0.349223 0.439031 0.013372
O O1 0.567914 0.750000 0.549791
O O2 0.500000 0.000000 0.500000
O O3 0.569015 0.036010 0.585772
O O4 0.756300 0.965778 0.523796
O O5 0.992596 0.750000 0.294953
O O6 0.867337 0.004367 0.263075
O O7 0.137684 0.010280 0.290681
O O8 0.927992 0.979644 0.351923
O O9 0.834228 0.250000 0.377604
O O10 0.809986 0.006844 0.434293
O O11 0.651096 0.025775 0.359729
O O12 0.210359 0.250000 0.784873
O O13 0.104986 0.501518 0.826424
O O14 0.034865 0.750000 0.142462
O O15 0.331419 0.250000 0.007186
O O16 0.500000 0.500000 0.000000
#
# Coordination Sequence:
#
# PCOD8253537 Si02
#       6
#     8   8   8   8   8   8
#     4  12  24  41  64  93 127 167 212 257 310 371
#     4  10  20  39  65  91 122 159 202 254 306 368
#     4  11  24  41  60  89 125 163 206 256 313 373
#     4   9  20  38  64  96 122 155 204 253 305 370
#     4  11  22  39  65  94 124 163 210 258 311 369
#     4  11  25  43  63  89 126 167 214 263 313 372
#
# _framework density 21.020226999999998
#
# number of rings (size 3 to 8) (size 9 to 14) (size 15 to 20)
#    0.000    1.333    1.667    4.000    2.333    4.667 
#    0.000    5.000    0.000    0.000    0.000    0.000 
#    0.000    0.000    0.000    0.000    0.000    0.000 
#
# Total GULP energy -595333.982657 kJ/mol
# GULP energy per Si atom -12402.791305 kJ/mol
# Density = 2.097238 g / cm^3
# Si number density = 21.020227 Si / 1000 Ang^3
#
#
#
# Elastic Constant Matrix: (Units=GPa)
#
#
# Indices 1 2 3 4 5 6 
#
# 1 151.1636 8.5942 32.5218 0.0000 0.0000 0.0000
# 2 8.5942 28.3899 10.7575 0.0000 0.0000 0.0000
# 3 32.5218 10.7575 91.0195 0.0000 0.0000 0.0000
# 4 0.0000 0.0000 0.0000 28.1531 0.0000 0.0000
# 5 0.0000 0.0000 0.0000 0.0000 45.5564 0.0000
# 6 0.0000 0.0000 0.0000 0.0000 0.0000 26.7717
#
#
#
# Elastic Compliance Matrix: (Units=1/GPa)
#
#
# Indices 1 2 3 4 5 6 
#
# 1 0.007209 -0.001263 -0.002427 0.000000 0.000000 0.000000
# 2 -0.001263 0.037096 -0.003933 0.000000 0.000000 0.000000
# 3 -0.002427 -0.003933 0.012319 0.000000 0.000000 0.000000
# 4 0.000000 0.000000 0.000000 0.035520 0.000000 0.000000
# 5 0.000000 0.000000 0.000000 0.000000 0.021951 0.000000
# 6 0.000000 0.000000 0.000000 0.000000 0.000000 0.037353
#
#
# Mechanical properties :
#
#
# Convention : Reuss Voigt Hill
#
# Bulk Modulus (GPa) = 24.16694 41.59113 32.87904
# Shear Modulus (GPa) = 27.70294 34.67621 31.18958
#
# Velocity S-wave (km/s) = 3.63425 4.06601 3.85618
# Velocity P-wave (km/s) = 5.39744 6.47089 5.95839
#
# Compressibility (1/GPa) = 0.04137884
#
# Stress axis : x y z
#
# Youngs Moduli (GPa) = 138.71121 26.95679 81.17828
#
# Poissons Ratio (x) = 0.03404 0.19699
# Poissons Ratio (y) = 0.17517 0.31929
# Poissons Ratio (z) = 0.33660 0.10603
#
# Static dielectric constant tensor:
#      x y z
#    x 3.909220 0.000000 0.000000 
#    y 0.000000 3.489560 0.000000 
#    z 0.000000 0.000000 3.677470 
# 
# 
# High freq. dielectric constant tensor:
#      x y z
#    x 1.841730 0.000000 0.000000 
#    y 0.000000 1.802110 0.000000 
#    z 0.000000 0.000000 1.833690 
# 
# From -- ./inp_files/31980.got.cif
#   From: 2010.03.12/outbox.cif.g09.slc.cpg/sg62_16_cif.got.tgz:31980.got - 2010.04.10 19:12:36.
