data_PCOD8253852
_publ_section_title
;
Structure prediction by ZEFSAII (Michael W. Deem and Ramdas Pophale) SiO2 
 PCOD8253852
Probable space group: P N M A
;
_chemical_formula_sum "Si O2"
_cell_formula_units_Z 56
_cell_length_a 22.421328
_cell_length_b 8.693989
_cell_length_c 14.286470
_cell_angle_alpha 90.000000
_cell_angle_beta 90.000000
_cell_angle_gamma 90.000000
_cell_volume 2784.872726
_symmetry_space_group_name_H-M "P N M A"
_symmetry_group_IT_number 62
_symmetry_cell_setting 'orthorhombic'
loop_
_space_group_symop_operation_xyz
x,y,z
1/2-x,-y,1/2+z
1/2+x,1/2-y,1/2-z
-x,1/2+y,-z
-x,-y,-z
1/2+x,y,1/2-z
1/2-x,1/2+y,1/2+z
x,1/2-y,z
loop_
_atom_site_type_symbol
_atom_site_label
_atom_site_fract_x
_atom_site_fract_y
_atom_site_fract_z
Si Si1 0.786332 0.572734 0.407556
Si Si2 0.716939 0.929128 0.101505
Si Si3 0.149677 0.926302 0.110887
Si Si4 0.106534 0.070272 0.726597
Si Si5 0.003190 0.930875 0.397496
Si Si6 0.887776 0.571686 0.709496
Si Si7 0.155874 0.570768 0.900192
O O1 0.792659 0.750000 0.439689
O O2 0.802634 0.466944 0.495720
O O3 0.719640 0.538846 0.372851
O O4 0.831434 0.532404 0.324788
O O5 0.707575 0.750000 0.122386
O O6 0.677214 0.026882 0.172480
O O7 0.785239 0.972279 0.119702
O O8 0.135410 0.750000 0.134798
O O9 0.110448 0.031427 0.180006
O O10 0.131416 0.965824 0.004191
O O11 0.099260 0.250000 0.747521
O O12 0.052197 0.007516 0.664048
O O13 0.106061 0.978966 0.824956
O O14 0.998865 0.750000 0.408384
O O15 0.000000 0.000000 0.500000
O O16 0.064009 0.974957 0.347126
O O17 0.901140 0.750000 0.694543
O O18 0.171955 0.750000 0.892343
#
# Coordination Sequence:
#
# PCOD8253852 Si02
#       7
#     8   8   8   8   8   8   8
#     4   9  18  34  56  85 119 150 184 231 286 343
#     4  11  21  34  56  85 118 153 189 234 287 342
#     4   9  19  36  57  84 117 149 183 231 287 337
#     4  10  21  37  59  85 115 151 189 233 283 335
#     4  11  24  42  63  88 118 151 189 235 284 335
#     4  12  24  38  58  83 113 152 197 240 284 338
#     4  10  21  37  59  86 117 150 186 232 284 342
#
# _framework density 20.108639
#
# number of rings (size 3 to 8) (size 9 to 14) (size 15 to 20)
#    0.000    1.714    0.000    6.000    0.000    6.857 
#    0.000    0.714    0.000    0.000    0.000    0.000 
#    0.000    0.000    0.000    0.000    0.000    0.000 
#
# Total GULP energy -694640.858867 kJ/mol
# GULP energy per Si atom -12404.301051 kJ/mol
# Density = 2.006287 g / cm^3
# Si number density = 20.108639 Si / 1000 Ang^3
#
#
#
# Elastic Constant Matrix: (Units=GPa)
#
#
# Indices 1 2 3 4 5 6 
#
# 1 56.6769 21.3948 56.1235 0.0000 0.0000 0.0000
# 2 21.3948 59.6030 35.2886 0.0000 0.0000 0.0000
# 3 56.1235 35.2886 143.3781 0.0000 0.0000 0.0000
# 4 0.0000 0.0000 0.0000 39.1661 0.0000 0.0000
# 5 0.0000 0.0000 0.0000 0.0000 30.7271 0.0000
# 6 0.0000 0.0000 0.0000 0.0000 0.0000 26.1543
#
#
#
# Elastic Compliance Matrix: (Units=1/GPa)
#
#
# Indices 1 2 3 4 5 6 
#
# 1 0.029780 -0.004434 -0.010566 0.000000 0.000000 0.000000
# 2 -0.004434 0.020300 -0.003261 0.000000 0.000000 0.000000
# 3 -0.010566 -0.003261 0.011913 0.000000 0.000000 0.000000
# 4 0.000000 0.000000 0.000000 0.025532 0.000000 0.000000
# 5 0.000000 0.000000 0.000000 0.000000 0.032545 0.000000
# 6 0.000000 0.000000 0.000000 0.000000 0.000000 0.038235
#
#
# Mechanical properties :
#
#
# Convention : Reuss Voigt Hill
#
# Bulk Modulus (GPa) = 39.25883 53.91910 46.58896
# Shear Modulus (GPa) = 24.59224 28.99957 26.79590
#
# Velocity S-wave (km/s) = 3.50089 3.80168 3.65438
# Velocity P-wave (km/s) = 5.99228 6.79282 6.40507
#
# Compressibility (1/GPa) = 0.02547198
#
# Stress axis : x y z
#
# Youngs Moduli (GPa) = 33.57918 49.26164 83.94267
#
# Poissons Ratio (x) = 0.21844 0.88692
# Poissons Ratio (y) = 0.14890 0.27370
# Poissons Ratio (z) = 0.35479 0.16062
#
# Static dielectric constant tensor:
#      x y z
#    x 3.527110 0.000000 0.000000 
#    y 0.000000 3.561260 0.000000 
#    z 0.000000 0.000000 3.855550 
# 
# 
# High freq. dielectric constant tensor:
#      x y z
#    x 1.763390 0.000000 0.000000 
#    y 0.000000 1.781990 0.000000 
#    z 0.000000 0.000000 1.800800 
# 
# From -- ./inp_files/20193.got.cif
#   From: 2010.03.12/outbox.cif.g09.slc.cpg/sg62_11_cif.got.tgz:20193.got - 2010.04.10 19:12:36.
