data_PCOD8253741
_publ_section_title
;
Structure prediction by ZEFSAII (Michael W. Deem and Ramdas Pophale) SiO2 
 PCOD8253741
Probable space group: P N M A
;
_chemical_formula_sum "Si O2"
_cell_formula_units_Z 48
_cell_length_a 22.395069
_cell_length_b 9.033042
_cell_length_c 11.733363
_cell_angle_alpha 90.000000
_cell_angle_beta 90.000000
_cell_angle_gamma 90.000000
_cell_volume 2373.607695
_symmetry_space_group_name_H-M "P N M A"
_symmetry_group_IT_number 62
_symmetry_cell_setting 'orthorhombic'
loop_
_space_group_symop_operation_xyz
x,y,z
1/2-x,-y,1/2+z
1/2+x,1/2-y,1/2-z
-x,1/2+y,-z
-x,-y,-z
1/2+x,y,1/2-z
1/2-x,1/2+y,1/2+z
x,1/2-y,z
loop_
_atom_site_type_symbol
_atom_site_label
_atom_site_fract_x
_atom_site_fract_y
_atom_site_fract_z
Si Si1 0.063625 0.077424 0.504580
Si Si2 0.274965 0.924953 0.619821
Si Si3 0.839619 0.084751 0.070467
Si Si4 0.544430 0.587820 0.421766
Si Si5 0.154119 0.426154 0.699571
Si Si6 0.608849 0.421101 0.238619
O O1 0.050349 0.250000 0.509685
O O2 0.101202 0.025660 0.614356
O O3 0.104167 0.037766 0.394452
O O4 0.000000 0.000000 0.500000
O O5 0.267138 0.750000 0.604817
O O6 0.326016 0.963705 0.712991
O O7 0.288075 0.995589 0.495985
O O8 0.215286 0.998471 0.663875
O O9 0.816703 0.250000 0.106467
O O10 0.862634 0.989901 0.177214
O O11 0.893551 0.102679 0.985105
O O12 0.500000 0.500000 0.500000
O O13 0.517367 0.750000 0.396240
O O14 0.555417 0.506892 0.302142
O O15 0.162061 0.250000 0.702932
O O16 0.596223 0.250000 0.261363
#
# Coordination Sequence:
#
# PCOD8253741 Si02
#       6
#     8   8   8   8   8   8
#     4  10  24  43  62  88 124 166 208 255 306 367
#     4  10  21  39  65  94 121 157 201 252 312 372
#     4  10  22  40  60  86 121 158 201 251 302 362
#     4  10  21  36  59  88 117 153 196 247 301 356
#     4  11  24  40  62  92 126 162 201 253 308 367
#     4   9  20  40  62  86 120 158 199 249 304 361
#
# _framework density 20.222380999999999
#
# number of rings (size 3 to 8) (size 9 to 14) (size 15 to 20)
#    0.000    2.000    0.000    2.000    4.667    4.667 
#    0.000    0.000    0.000    0.000    0.000    0.000 
#    0.000    0.000    0.000    0.000    0.000    0.000 
#
# Total GULP energy -595232.019409 kJ/mol
# GULP energy per Si atom -12400.667071 kJ/mol
# Density = 2.017635 g / cm^3
# Si number density = 20.222381 Si / 1000 Ang^3
#
#
#
# Elastic Constant Matrix: (Units=GPa)
#
#
# Indices 1 2 3 4 5 6 
#
# 1 70.8549 38.3511 27.6913 0.0000 0.0000 0.0000
# 2 38.3511 102.8543 37.9939 0.0000 0.0000 0.0000
# 3 27.6913 37.9939 113.5984 0.0000 0.0000 0.0000
# 4 0.0000 0.0000 0.0000 35.4760 0.0000 0.0000
# 5 0.0000 0.0000 0.0000 0.0000 17.2473 0.0000
# 6 0.0000 0.0000 0.0000 0.0000 0.0000 36.5731
#
#
#
# Elastic Compliance Matrix: (Units=1/GPa)
#
#
# Indices 1 2 3 4 5 6 
#
# 1 0.018276 -0.005897 -0.002483 0.000000 0.000000 0.000000
# 2 -0.005897 0.012996 -0.002909 0.000000 0.000000 0.000000
# 3 -0.002483 -0.002909 0.010381 0.000000 0.000000 0.000000
# 4 0.000000 0.000000 0.000000 0.028188 0.000000 0.000000
# 5 0.000000 0.000000 0.000000 0.000000 0.057980 0.000000
# 6 0.000000 0.000000 0.000000 0.000000 0.000000 0.027343
#
#
# Mechanical properties :
#
#
# Convention : Reuss Voigt Hill
#
# Bulk Modulus (GPa) = 52.42525 55.04224 53.73375
# Shear Modulus (GPa) = 27.15926 30.07738 28.61832
#
# Velocity S-wave (km/s) = 3.66871 3.86078 3.76597
# Velocity P-wave (km/s) = 6.62771 6.86671 6.74827
#
# Compressibility (1/GPa) = 0.01907478
#
# Stress axis : x y z
#
# Youngs Moduli (GPa) = 54.71788 76.94671 96.32938
#
# Poissons Ratio (x) = 0.45378 0.23914
# Poissons Ratio (y) = 0.32269 0.28023
# Poissons Ratio (z) = 0.13584 0.22384
#
# Static dielectric constant tensor:
#      x y z
#    x 3.752070 0.000000 0.000000 
#    y 0.000000 4.045010 0.000000 
#    z 0.000000 0.000000 -0.088120 
# 
# 
# High freq. dielectric constant tensor:
#      x y z
#    x 1.784240 0.000000 0.000000 
#    y 0.000000 1.799760 0.000000 
#    z 0.000000 0.000000 1.798430 
# 
# From -- ./inp_files/15112.got.cif
#   From: 2010.03.12/outbox.cif.g09.slc.cpg/sg62_8_cif.got.tgz:15112.got - 2010.04.10 19:12:36.
