data_PCOD8253900
_publ_section_title
;
Structure prediction by ZEFSAII (Michael W. Deem and Ramdas Pophale) SiO2 
 PCOD8253900
Probable space group: P N M A
;
_chemical_formula_sum "Si O2"
_cell_formula_units_Z 40
_cell_length_a 24.423472
_cell_length_b 10.823642
_cell_length_c 7.468720
_cell_angle_alpha 90.000000
_cell_angle_beta 90.000000
_cell_angle_gamma 90.000000
_cell_volume 1974.362983
_symmetry_space_group_name_H-M "P N M A"
_symmetry_group_IT_number 62
_symmetry_cell_setting 'orthorhombic'
loop_
_space_group_symop_operation_xyz
x,y,z
1/2-x,-y,1/2+z
1/2+x,1/2-y,1/2-z
-x,1/2+y,-z
-x,-y,-z
1/2+x,y,1/2-z
1/2-x,1/2+y,1/2+z
x,1/2-y,z
loop_
_atom_site_type_symbol
_atom_site_label
_atom_site_fract_x
_atom_site_fract_y
_atom_site_fract_z
Si Si1 0.787518 0.110808 0.388655
Si Si2 0.546175 0.610921 0.813069
Si Si3 0.177080 0.464336 0.265828
Si Si4 0.639825 0.889956 0.568325
Si Si5 0.429351 0.614272 0.933492
O O1 0.806817 0.250000 0.428349
O O2 0.723904 0.113504 0.332396
O O3 0.823855 0.050497 0.228957
O O4 0.795412 0.033326 0.567838
O O5 0.560317 0.750000 0.888236
O O6 0.575308 0.596325 0.619744
O O7 0.480701 0.595341 0.797389
O O8 0.571842 0.503594 0.936738
O O9 0.127627 0.377003 0.328066
O O10 0.149864 0.556182 0.125252
O O11 0.659173 0.750000 0.553512
O O12 0.436190 0.750000 0.029333
#
# Coordination Sequence:
#
# PCOD8253900 Si02
#       5
#     8   8   8   8   8
#     4  11  23  39  57  84 119 156 201 251 300 358
#     4   9  19  39  63  90 124 161 201 248 302 366
#     4  12  22  39  60  87 118 159 201 249 306 358
#     4  10  21  38  61  87 117 155 204 252 295 359
#     4  10  21  37  62  93 126 159 197 252 310 359
#
# _framework density 20.259699999999999
#
# number of rings (size 3 to 8) (size 9 to 14) (size 15 to 20)
#    0.000    1.600    4.000    1.200    0.000    1.600 
#    0.000    4.000    0.000    0.000    0.000    0.000 
#    0.000    0.000    0.000    0.000    0.000    0.000 
#
# Total GULP energy -495611.721760 kJ/mol
# GULP energy per Si atom -12390.293044 kJ/mol
# Density = 2.021359 g / cm^3
# Si number density = 20.259700 Si / 1000 Ang^3
#
#
#
# Elastic Constant Matrix: (Units=GPa)
#
#
# Indices 1 2 3 4 5 6 
#
# 1 118.3354 25.1021 23.5694 0.0000 0.0000 0.0000
# 2 25.1021 92.5547 37.8017 0.0000 0.0000 0.0000
# 3 23.5694 37.8017 81.2762 0.0000 0.0000 0.0000
# 4 0.0000 0.0000 0.0000 23.6467 0.0000 0.0000
# 5 0.0000 0.0000 0.0000 0.0000 34.7618 0.0000
# 6 0.0000 0.0000 0.0000 0.0000 0.0000 23.9421
#
#
#
# Elastic Compliance Matrix: (Units=1/GPa)
#
#
# Indices 1 2 3 4 5 6 
#
# 1 0.009188 -0.001733 -0.001859 0.000000 0.000000 0.000000
# 2 -0.001733 0.013665 -0.005853 0.000000 0.000000 0.000000
# 3 -0.001859 -0.005853 0.015565 0.000000 0.000000 0.000000
# 4 0.000000 0.000000 0.000000 0.042289 0.000000 0.000000
# 5 0.000000 0.000000 0.000000 0.000000 0.028767 0.000000
# 6 0.000000 0.000000 0.000000 0.000000 0.000000 0.041767
#
#
# Mechanical properties :
#
#
# Convention : Reuss Voigt Hill
#
# Bulk Modulus (GPa) = 51.20543 51.67918 51.44231
# Shear Modulus (GPa) = 28.30601 30.18299 29.24450
#
# Velocity S-wave (km/s) = 3.74191 3.86399 3.80344
# Velocity P-wave (km/s) = 6.63315 6.74321 6.68841
#
# Compressibility (1/GPa) = 0.01952918
#
# Stress axis : x y z
#
# Youngs Moduli (GPa) = 108.83364 73.17990 64.24695
#
# Poissons Ratio (x) = 0.12682 0.11941
# Poissons Ratio (y) = 0.18860 0.37604
# Poissons Ratio (z) = 0.20227 0.42833
#
# Static dielectric constant tensor:
#      x y z
#    x 4.016380 0.000000 0.000000 
#    y 0.000000 3.621780 0.000000 
#    z 0.000000 0.000000 3.418660 
# 
# 
# High freq. dielectric constant tensor:
#      x y z
#    x 1.814480 0.000000 0.000000 
#    y 0.000000 1.788310 0.000000 
#    z 0.000000 0.000000 1.760070 
# 
# From -- ./inp_files/3022.got.cif
#   From: 2010.03.12/outbox.cif.g09.slc.cpg/sg62_2_cif.got.tgz:3022.got - 2010.04.10 19:12:36.
