data_PCOD8253310
_publ_section_title
;
Structure prediction by ZEFSAII (Michael W. Deem and Ramdas Pophale) SiO2 
 PCOD8253310
Probable space group: P N M A
;
_chemical_formula_sum "Si O2"
_cell_formula_units_Z 40
_cell_length_a 15.490793
_cell_length_b 13.724819
_cell_length_c 9.437840
_cell_angle_alpha 90.000000
_cell_angle_beta 90.000000
_cell_angle_gamma 90.000000
_cell_volume 2006.563402
_symmetry_space_group_name_H-M "P N M A"
_symmetry_group_IT_number 62
_symmetry_cell_setting 'orthorhombic'
loop_
_space_group_symop_operation_xyz
x,y,z
1/2-x,-y,1/2+z
1/2+x,1/2-y,1/2-z
-x,1/2+y,-z
-x,-y,-z
1/2+x,y,1/2-z
1/2-x,1/2+y,1/2+z
x,1/2-y,z
loop_
_atom_site_type_symbol
_atom_site_label
_atom_site_fract_x
_atom_site_fract_y
_atom_site_fract_z
Si Si1 0.485343 0.638242 0.076212
Si Si2 0.759279 0.636131 0.034756
Si Si3 0.388313 0.452517 0.136733
Si Si4 0.363329 0.360713 0.709846
Si Si5 0.902109 0.010523 0.043850
O O1 0.452663 0.750000 0.071997
O O2 0.404170 0.565494 0.090663
O O3 0.546158 0.618167 0.211601
O O4 0.538698 0.616309 0.933340
O O5 0.762312 0.750000 0.999140
O O6 0.715039 0.614474 0.185300
O O7 0.856320 0.595203 0.043315
O O8 0.706097 0.581023 0.912340
O O9 0.394443 0.438027 0.304526
O O10 0.359274 0.250000 0.660791
O O11 0.352338 0.424116 0.570144
O O12 0.000000 0.000000 0.000000
#
# Coordination Sequence:
#
# PCOD8253310 Si02
#       5
#     8   8   8   8   8
#     4   9  18  36  62  89 120 162 201 240 297 363
#     4  10  23  43  63  83 119 169 206 245 307 372
#     4  10  20  37  63  89 124 159 206 248 299 359
#     4   9  19  38  61  86 120 159 200 246 302 362
#     4  12  23  37  62  94 124 153 199 264 310 353
#
# _framework density 19.934581000000001
#
# number of rings (size 3 to 8) (size 9 to 14) (size 15 to 20)
#    0.000    2.000    2.000    3.000    0.000    3.200 
#    0.000    1.000    0.000    0.000    0.000    0.000 
#    0.000    0.000    0.000    0.000    0.000    0.000 
#
# Total GULP energy -496088.588032 kJ/mol
# GULP energy per Si atom -12402.214701 kJ/mol
# Density = 1.988921 g / cm^3
# Si number density = 19.934581 Si / 1000 Ang^3
#
#
#
# Elastic Constant Matrix: (Units=GPa)
#
#
# Indices 1 2 3 4 5 6 
#
# 1 103.9298 45.6110 37.7741 0.0000 0.0000 0.0000
# 2 45.6110 120.7751 60.6717 0.0000 0.0000 0.0000
# 3 37.7741 60.6717 141.6531 0.0000 0.0000 0.0000
# 4 0.0000 0.0000 0.0000 24.7542 0.0000 0.0000
# 5 0.0000 0.0000 0.0000 0.0000 10.5737 0.0000
# 6 0.0000 0.0000 0.0000 0.0000 0.0000 33.9680
#
#
#
# Elastic Compliance Matrix: (Units=1/GPa)
#
#
# Indices 1 2 3 4 5 6 
#
# 1 0.011804 -0.003665 -0.001578 0.000000 0.000000 0.000000
# 2 -0.003665 0.011688 -0.004029 0.000000 0.000000 0.000000
# 3 -0.001578 -0.004029 0.009206 0.000000 0.000000 0.000000
# 4 0.000000 0.000000 0.000000 0.040397 0.000000 0.000000
# 5 0.000000 0.000000 0.000000 0.000000 0.094574 0.000000
# 6 0.000000 0.000000 0.000000 0.000000 0.000000 0.029439
#
#
# Mechanical properties :
#
#
# Convention : Reuss Voigt Hill
#
# Bulk Modulus (GPa) = 70.65065 72.71905 71.68485
# Shear Modulus (GPa) = 22.68914 28.67927 25.68420
#
# Velocity S-wave (km/s) = 3.37735 3.79709 3.59336
# Velocity P-wave (km/s) = 7.12228 7.46873 7.29756
#
# Compressibility (1/GPa) = 0.01415415
#
# Stress axis : x y z
#
# Youngs Moduli (GPa) = 84.71815 85.55931 108.62729
#
# Poissons Ratio (x) = 0.31358 0.17140
# Poissons Ratio (y) = 0.31050 0.43762
# Poissons Ratio (z) = 0.13367 0.34469
#
# Static dielectric constant tensor:
#      x y z
#    x 3.491440 0.000000 0.000000 
#    y 0.000000 3.627420 0.000000 
#    z 0.000000 0.000000 3.714010 
# 
# 
# High freq. dielectric constant tensor:
#      x y z
#    x 1.766780 0.000000 0.000000 
#    y 0.000000 1.777430 0.000000 
#    z 0.000000 0.000000 1.780090 
# 
# From -- ./inp_files/6098.got.cif
#   From: 2010.03.12/outbox.cif.g09.slc.cpg/sg62_4_cif.got.tgz:6098.got - 2010.04.10 19:12:36.
