data_PCOD8253903
_publ_section_title
;
Structure prediction by ZEFSAII (Michael W. Deem and Ramdas Pophale) SiO2 
 PCOD8253903
Probable space group: P N M A
;
_chemical_formula_sum "Si O2"
_cell_formula_units_Z 48
_cell_length_a 5.022678
_cell_length_b 25.674949
_cell_length_c 16.978685
_cell_angle_alpha 90.000000
_cell_angle_beta 90.000000
_cell_angle_gamma 90.000000
_cell_volume 2189.520307
_symmetry_space_group_name_H-M "P N M A"
_symmetry_group_IT_number 62
_symmetry_cell_setting 'orthorhombic'
loop_
_space_group_symop_operation_xyz
x,y,z
1/2-x,-y,1/2+z
1/2+x,1/2-y,1/2-z
-x,1/2+y,-z
-x,-y,-z
1/2+x,y,1/2-z
1/2-x,1/2+y,1/2+z
x,1/2-y,z
loop_
_atom_site_type_symbol
_atom_site_label
_atom_site_fract_x
_atom_site_fract_y
_atom_site_fract_z
Si Si1 0.367828 0.512247 0.299127
Si Si2 0.605365 0.141747 0.461300
Si Si3 0.390350 0.109883 0.298227
Si Si4 0.745996 0.467725 0.527834
Si Si5 0.939857 0.312017 0.703903
Si Si6 0.408913 0.689695 0.031305
O O1 0.660234 0.528246 0.269384
O O2 0.383500 0.451025 0.318083
O O3 0.273489 0.541080 0.378279
O O4 0.487159 0.141928 0.373627
O O5 0.741061 0.087503 0.485002
O O6 0.851822 0.182120 0.468326
O O7 0.357792 0.156965 0.516195
O O8 0.591549 0.124884 0.227238
O O9 0.500000 0.500000 0.500000
O O10 0.000000 0.500000 0.500000
O O11 0.164504 0.334362 0.762641
O O12 0.942977 0.250000 0.705506
O O13 0.982341 0.331147 0.615003
O O14 0.325972 0.750000 0.033205
#
# Coordination Sequence:
#
# PCOD8253903 Si02
#       6
#     8   8   8   8   8   8
#     4  10  21  38  60  89 129 171 204 247 312 372
#     4  12  24  41  66  95 125 166 213 258 323 378
#     4  10  21  37  63  92 121 158 212 257 299 382
#     4  12  24  40  63  94 131 164 203 263 311 382
#     4   9  17  33  58  85 113 153 206 254 300 359
#     4  11  24  42  64  92 126 167 216 268 316 369
#
# _framework density 21.922611
#
# number of rings (size 3 to 8) (size 9 to 14) (size 15 to 20)
#    0.000    1.333    1.667    4.500    4.667    2.667 
#    0.000    5.000    0.000   10.000    0.000    0.000 
#    0.000    0.000    0.000    0.000    0.000    0.000 
#
# Total GULP energy -595216.708034 kJ/mol
# GULP energy per Si atom -12400.348084 kJ/mol
# Density = 2.187271 g / cm^3
# Si number density = 21.922611 Si / 1000 Ang^3
#
#
#
# Elastic Constant Matrix: (Units=GPa)
#
#
# Indices 1 2 3 4 5 6 
#
# 1 120.6295 13.1435 9.0493 0.0000 0.0000 0.0000
# 2 13.1435 38.9830 19.6087 0.0000 0.0000 0.0000
# 3 9.0493 19.6087 93.3506 0.0000 0.0000 0.0000
# 4 0.0000 0.0000 0.0000 23.3094 0.0000 0.0000
# 5 0.0000 0.0000 0.0000 0.0000 42.1851 0.0000
# 6 0.0000 0.0000 0.0000 0.0000 0.0000 33.3493
#
#
#
# Elastic Compliance Matrix: (Units=1/GPa)
#
#
# Indices 1 2 3 4 5 6 
#
# 1 0.008611 -0.002777 -0.000251 0.000000 0.000000 0.000000
# 2 -0.002777 0.029578 -0.005944 0.000000 0.000000 0.000000
# 3 -0.000251 -0.005944 0.011985 0.000000 0.000000 0.000000
# 4 0.000000 0.000000 0.000000 0.042901 0.000000 0.000000
# 5 0.000000 0.000000 0.000000 0.000000 0.023705 0.000000
# 6 0.000000 0.000000 0.000000 0.000000 0.000000 0.029986
#
#
# Mechanical properties :
#
#
# Convention : Reuss Voigt Hill
#
# Bulk Modulus (GPa) = 31.02667 37.39624 34.21145
# Shear Modulus (GPa) = 28.49743 33.84621 31.17182
#
# Velocity S-wave (km/s) = 3.60934 3.93351 3.77490
# Velocity P-wave (km/s) = 5.61723 6.14209 5.88552
#
# Compressibility (1/GPa) = 0.03223034
#
# Stress axis : x y z
#
# Youngs Moduli (GPa) = 116.12687 33.80863 83.43622
#
# Poissons Ratio (x) = 0.09388 0.02098
# Poissons Ratio (y) = 0.32247 0.49593
# Poissons Ratio (z) = 0.02920 0.20095
#
# Static dielectric constant tensor:
#      x y z
#    x 4.173800 0.000000 0.000000 
#    y 0.000000 3.442690 0.000000 
#    z 0.000000 0.000000 3.880460 
# 
# 
# High freq. dielectric constant tensor:
#      x y z
#    x 1.885390 0.000000 0.000000 
#    y 0.000000 1.826700 0.000000 
#    z 0.000000 0.000000 1.866220 
# 
# From -- ./inp_files/16218.got.cif
#   From: 2010.03.12/outbox.cif.g09.slc.cpg/sg62_9_cif.got.tgz:16218.got - 2010.04.10 19:12:36.
