data_PCOD8253410
_publ_section_title
;
Structure prediction by ZEFSAII (Michael W. Deem and Ramdas Pophale) SiO2 
 PCOD8253410
Probable space group: P N M A
;
_chemical_formula_sum "Si O2"
_cell_formula_units_Z 40
_cell_length_a 8.725700
_cell_length_b 21.081455
_cell_length_c 9.837508
_cell_angle_alpha 90.000000
_cell_angle_beta 90.000000
_cell_angle_gamma 90.000000
_cell_volume 1809.614042
_symmetry_space_group_name_H-M "P N M A"
_symmetry_group_IT_number 62
_symmetry_cell_setting 'orthorhombic'
loop_
_space_group_symop_operation_xyz
x,y,z
1/2-x,-y,1/2+z
1/2+x,1/2-y,1/2-z
-x,1/2+y,-z
-x,-y,-z
1/2+x,y,1/2-z
1/2-x,1/2+y,1/2+z
x,1/2-y,z
loop_
_atom_site_type_symbol
_atom_site_label
_atom_site_fract_x
_atom_site_fract_y
_atom_site_fract_z
Si Si1 0.118274 0.750000 0.297503
Si Si2 0.931249 0.419042 0.132802
Si Si3 0.315620 0.750000 0.047973
Si Si4 0.564290 0.436966 0.648521
Si Si5 0.898696 0.627787 0.623185
Si Si6 0.884338 0.114833 0.612413
O O1 0.155764 0.750000 0.134012
O O2 0.181524 0.686718 0.373142
O O3 0.935497 0.750000 0.326696
O O4 0.984186 0.490177 0.172026
O O5 0.747757 0.416798 0.142629
O O6 0.017600 0.367700 0.229663
O O7 0.980764 0.405048 0.979452
O O8 0.335751 0.808019 0.944354
O O9 0.514785 0.394966 0.775209
O O10 0.746796 0.434241 0.629812
O O11 0.033298 0.599275 0.529588
#
# Coordination Sequence:
#
# PCOD8253410 Si02
#       6
#     4   8   4   8   8   8
#     4  10  20  38  62  90 122 152 200 252 306 370
#     4  11  24  41  59  88 127 166 205 257 315 377
#     4  10  22  40  66  94 124 166 208 260 316 374
#     4  11  23  39  63  89 121 165 210 255 315 375
#     4  11  24  41  62  90 126 163 209 261 316 372
#     4  11  22  39  64  93 119 159 210 260 311 375
#
# _framework density 22.104161999999999
#
# number of rings (size 3 to 8) (size 9 to 14) (size 15 to 20)
#    0.000    1.200    0.000    7.200    0.000    7.200 
#    0.000    4.000    0.000    0.000    0.000    0.000 
#    0.000    0.000    0.000    0.000    0.000    0.000 
#
# Total GULP energy -495885.576924 kJ/mol
# GULP energy per Si atom -12397.139423 kJ/mol
# Density = 2.205385 g / cm^3
# Si number density = 22.104162 Si / 1000 Ang^3
#
#
#
# Elastic Constant Matrix: (Units=GPa)
#
#
# Indices 1 2 3 4 5 6 
#
# 1 94.0064 12.5342 22.2858 0.0000 0.0000 0.0000
# 2 12.5342 65.3171 29.1287 0.0000 0.0000 0.0000
# 3 22.2858 29.1287 90.7731 0.0000 0.0000 0.0000
# 4 0.0000 0.0000 0.0000 24.1605 0.0000 0.0000
# 5 0.0000 0.0000 0.0000 0.0000 53.2572 0.0000
# 6 0.0000 0.0000 0.0000 0.0000 0.0000 27.5178
#
#
#
# Elastic Compliance Matrix: (Units=1/GPa)
#
#
# Indices 1 2 3 4 5 6 
#
# 1 0.011361 -0.001093 -0.002439 0.000000 0.000000 0.000000
# 2 -0.001093 0.017972 -0.005499 0.000000 0.000000 0.000000
# 3 -0.002439 -0.005499 0.013380 0.000000 0.000000 0.000000
# 4 0.000000 0.000000 0.000000 0.041390 0.000000 0.000000
# 5 0.000000 0.000000 0.000000 0.000000 0.018777 0.000000
# 6 0.000000 0.000000 0.000000 0.000000 0.000000 0.036340
#
#
# Mechanical properties :
#
#
# Convention : Reuss Voigt Hill
#
# Bulk Modulus (GPa) = 40.56366 41.99933 41.28149
# Shear Modulus (GPa) = 30.21188 33.39695 31.80442
#
# Velocity S-wave (km/s) = 3.70103 3.89123 3.79732
# Velocity P-wave (km/s) = 6.05430 6.26345 6.15976
#
# Compressibility (1/GPa) = 0.02465261
#
# Stress axis : x y z
#
# Youngs Moduli (GPa) = 88.01731 55.64258 74.73973
#
# Poissons Ratio (x) = 0.06080 0.18227
# Poissons Ratio (y) = 0.09617 0.41098
# Poissons Ratio (z) = 0.21465 0.30597
#
# Static dielectric constant tensor:
#      x y z
#    x 3.896050 0.000000 0.000000 
#    y 0.000000 3.837700 0.000000 
#    z 0.000000 0.000000 3.988410 
# 
# 
# High freq. dielectric constant tensor:
#      x y z
#    x 1.874730 0.000000 0.000000 
#    y 0.000000 1.862390 0.000000 
#    z 0.000000 0.000000 1.871360 
# 
# From -- ./inp_files/4315.got.cif
#   From: 2010.03.12/outbox.cif.g09.slc.cpg/sg62_3_cif.got.tgz:4315.got - 2010.04.10 19:12:36.
