data_PCOD8253654
_publ_section_title
;
Structure prediction by ZEFSAII (Michael W. Deem and Ramdas Pophale) SiO2 
 PCOD8253654
Probable space group: P N M A
;
_chemical_formula_sum "Si O2"
_cell_formula_units_Z 64
_cell_length_a 28.789913
_cell_length_b 9.180480
_cell_length_c 12.725547
_cell_angle_alpha 90.000000
_cell_angle_beta 90.000000
_cell_angle_gamma 90.000000
_cell_volume 3363.428506
_symmetry_space_group_name_H-M "P N M A"
_symmetry_group_IT_number 62
_symmetry_cell_setting 'orthorhombic'
loop_
_space_group_symop_operation_xyz
x,y,z
1/2-x,-y,1/2+z
1/2+x,1/2-y,1/2-z
-x,1/2+y,-z
-x,-y,-z
1/2+x,y,1/2-z
1/2-x,1/2+y,1/2+z
x,1/2-y,z
loop_
_atom_site_type_symbol
_atom_site_label
_atom_site_fract_x
_atom_site_fract_y
_atom_site_fract_z
Si Si1 0.390210 0.923343 0.533593
Si Si2 0.677072 0.587976 0.155638
Si Si3 0.699144 0.079333 0.955252
Si Si4 0.038634 0.081347 0.211558
Si Si5 0.572775 0.911709 0.100110
Si Si6 0.110870 0.578318 0.617883
Si Si7 0.198073 0.920123 0.110889
Si Si8 0.065606 0.918644 0.838958
O O1 0.388107 0.750000 0.529067
O O2 0.422303 0.977405 0.630774
O O3 0.338631 0.987213 0.544059
O O4 0.411004 0.980021 0.424854
O O5 0.695844 0.750000 0.126970
O O6 0.621814 0.590458 0.158528
O O7 0.694529 0.536995 0.268082
O O8 0.695666 0.468584 0.075568
O O9 0.690196 0.250000 0.945005
O O10 0.750311 0.034141 0.920106
O O11 0.661065 0.998328 0.883538
O O12 0.046312 0.250000 0.233415
O O13 0.989128 0.050196 0.158781
O O14 0.039525 0.008012 0.326705
O O15 0.551204 0.750000 0.094302
O O16 0.579373 0.975110 0.981546
O O17 0.119619 0.750000 0.604265
O O18 0.085261 0.537742 0.724906
O O19 0.188035 0.750000 0.090851
O O20 0.076449 0.750000 0.863712
#
# Coordination Sequence:
#
# PCOD8253654 Si02
#       8
#     8   8   8   8   8   8   8   8
#     4  11  23  37  56  85 116 145 189 242 284 330
#     4   9  18  35  56  77 108 148 185 226 278 335
#     4  10  21  35  56  85 113 142 183 233 284 336
#     4  10  21  36  56  85 115 147 188 237 286 332
#     4   9  17  32  57  82 106 143 187 230 276 333
#     4   9  20  39  58  79 111 152 192 229 282 343
#     4  10  21  38  58  81 109 148 190 226 279 344
#     4  10  22  40  59  79 115 159 191 228 284 347
#
# _framework density 19.028203000000001
#
# number of rings (size 3 to 8) (size 9 to 14) (size 15 to 20)
#    0.000    2.250    1.250    1.875    0.000    6.500 
#    0.000    2.500    0.000    0.000    0.000    0.000 
#    0.000    0.000    0.000    0.000    0.000    0.000 
#
# Total GULP energy -793619.536831 kJ/mol
# GULP energy per Si atom -12400.305263 kJ/mol
# Density = 1.898489 g / cm^3
# Si number density = 19.028203 Si / 1000 Ang^3
#
#
#
# Elastic Constant Matrix: (Units=GPa)
#
#
# Indices 1 2 3 4 5 6 
#
# 1 46.6135 28.4410 33.4208 0.0000 0.0000 0.0000
# 2 28.4410 54.8896 36.1665 0.0000 0.0000 0.0000
# 3 33.4208 36.1665 94.7237 0.0000 0.0000 0.0000
# 4 0.0000 0.0000 0.0000 31.2032 0.0000 0.0000
# 5 0.0000 0.0000 0.0000 0.0000 21.0544 0.0000
# 6 0.0000 0.0000 0.0000 0.0000 0.0000 25.3943
#
#
#
# Elastic Compliance Matrix: (Units=1/GPa)
#
#
# Indices 1 2 3 4 5 6 
#
# 1 0.034678 -0.013237 -0.007181 0.000000 0.000000 0.000000
# 2 -0.013237 0.029395 -0.006553 0.000000 0.000000 0.000000
# 3 -0.007181 -0.006553 0.015593 0.000000 0.000000 0.000000
# 4 0.000000 0.000000 0.000000 0.032048 0.000000 0.000000
# 5 0.000000 0.000000 0.000000 0.000000 0.047496 0.000000
# 6 0.000000 0.000000 0.000000 0.000000 0.000000 0.039379
#
#
# Mechanical properties :
#
#
# Convention : Reuss Voigt Hill
#
# Bulk Modulus (GPa) = 38.87487 43.58705 41.23096
# Shear Modulus (GPa) = 19.14938 22.07696 20.61317
#
# Velocity S-wave (km/s) = 3.17577 3.40990 3.29492
# Velocity P-wave (km/s) = 5.82425 6.20157 6.01587
#
# Compressibility (1/GPa) = 0.02572356
#
# Stress axis : x y z
#
# Youngs Moduli (GPa) = 28.83657 34.01978 64.13219
#
# Poissons Ratio (x) = 0.45031 0.46056
# Poissons Ratio (y) = 0.38170 0.42026
# Poissons Ratio (z) = 0.20709 0.22293
#
# Static dielectric constant tensor:
#      x y z
#    x 3.454180 0.000000 0.000000 
#    y 0.000000 3.415960 0.000000 
#    z 0.000000 0.000000 3.517160 
# 
# 
# High freq. dielectric constant tensor:
#      x y z
#    x 1.735290 0.000000 0.000000 
#    y 0.000000 1.733600 0.000000 
#    z 0.000000 0.000000 1.746000 
# 
# From -- ./inp_files/15927.got.cif
#   From: 2010.03.12/outbox.cif.g09.slc.cpg/sg62_8_cif.got.tgz:15927.got - 2010.04.10 19:12:36.
