data_PCOD8253140
_publ_section_title
;
Structure prediction by ZEFSAII (Michael W. Deem and Ramdas Pophale) SiO2 
 PCOD8253140
Probable space group: P N M A
;
_chemical_formula_sum "Si O2"
_cell_formula_units_Z 56
_cell_length_a 18.266688
_cell_length_b 15.483461
_cell_length_c 8.931333
_cell_angle_alpha 90.000000
_cell_angle_beta 90.000000
_cell_angle_gamma 90.000000
_cell_volume 2526.062767
_symmetry_space_group_name_H-M "P N M A"
_symmetry_group_IT_number 62
_symmetry_cell_setting 'orthorhombic'
loop_
_space_group_symop_operation_xyz
x,y,z
1/2-x,-y,1/2+z
1/2+x,1/2-y,1/2-z
-x,1/2+y,-z
-x,-y,-z
1/2+x,y,1/2-z
1/2-x,1/2+y,1/2+z
x,1/2-y,z
loop_
_atom_site_type_symbol
_atom_site_label
_atom_site_fract_x
_atom_site_fract_y
_atom_site_fract_z
Si Si1 0.195977 0.464408 0.058366
Si Si2 0.851387 0.653570 0.192956
Si Si3 0.557695 0.469333 0.236522
Si Si4 0.521027 0.653521 0.310829
Si Si5 0.061927 0.655348 0.857448
Si Si6 0.859712 0.654102 0.528145
Si Si7 0.779881 0.393689 0.174067
O O1 0.116339 0.459704 0.132156
O O2 0.260209 0.448974 0.178535
O O3 0.199638 0.396530 0.922660
O O4 0.210045 0.554512 0.979690
O O5 0.822901 0.750000 0.178686
O O6 0.838952 0.621405 0.362630
O O7 0.936110 0.644354 0.148643
O O8 0.544287 0.572295 0.204151
O O9 0.482710 0.423500 0.286582
O O10 0.585495 0.419606 0.089127
O O11 0.536007 0.750000 0.239121
O O12 0.565813 0.644022 0.464027
O O13 0.027664 0.750000 0.818175
O O14 0.144644 0.655523 0.793290
O O15 0.897260 0.750000 0.519311
O O16 0.789444 0.666861 0.636299
#
# Coordination Sequence:
#
# PCOD8253140 Si02
#       7
#     8   8   8   8   8   8   8
#     4  11  22  39  63  91 123 169 220 261 318 396
#     4  10  21  39  63  91 126 168 216 265 315 388
#     4  11  21  38  66  94 127 168 219 267 322 397
#     4  10  20  36  63  95 126 168 214 269 329 386
#     4  11  21  36  63  97 133 169 215 276 337 393
#     4  10  23  41  62  92 130 171 215 265 326 387
#     4  11  23  38  62  91 129 169 220 269 332 385
#
# _framework density 22.168885
#
# number of rings (size 3 to 8) (size 9 to 14) (size 15 to 20)
#    0.000    1.429    2.857    3.000    0.000    3.429 
#    0.000    1.429    0.000    0.000    0.000    1.000 
#    0.000    0.000    0.000    0.000    0.000    0.000 
#
# Total GULP energy -693995.848891 kJ/mol
# GULP energy per Si atom -12392.783016 kJ/mol
# Density = 2.211843 g / cm^3
# Si number density = 22.168885 Si / 1000 Ang^3
#
#
#
# Elastic Constant Matrix: (Units=GPa)
#
#
# Indices 1 2 3 4 5 6 
#
# 1 83.4147 25.7672 15.4322 0.0000 0.0000 0.0000
# 2 25.7672 134.7490 28.1563 0.0000 0.0000 0.0000
# 3 15.4322 28.1563 80.8440 0.0000 0.0000 0.0000
# 4 0.0000 0.0000 0.0000 24.1290 0.0000 0.0000
# 5 0.0000 0.0000 0.0000 0.0000 29.8761 0.0000
# 6 0.0000 0.0000 0.0000 0.0000 0.0000 24.2949
#
#
#
# Elastic Compliance Matrix: (Units=1/GPa)
#
#
# Indices 1 2 3 4 5 6 
#
# 1 0.012963 -0.002116 -0.001738 0.000000 0.000000 0.000000
# 2 -0.002116 0.008349 -0.002504 0.000000 0.000000 0.000000
# 3 -0.001738 -0.002504 0.013573 0.000000 0.000000 0.000000
# 4 0.000000 0.000000 0.000000 0.041444 0.000000 0.000000
# 5 0.000000 0.000000 0.000000 0.000000 0.033472 0.000000
# 6 0.000000 0.000000 0.000000 0.000000 0.000000 0.041161
#
#
# Mechanical properties :
#
#
# Convention : Reuss Voigt Hill
#
# Bulk Modulus (GPa) = 45.10424 48.63546 46.86985
# Shear Modulus (GPa) = 29.22831 30.97014 30.09923
#
# Velocity S-wave (km/s) = 3.63497 3.74171 3.68873
# Velocity P-wave (km/s) = 6.16500 6.37601 6.27139
#
# Compressibility (1/GPa) = 0.02217087
#
# Stress axis : x y z
#
# Youngs Moduli (GPa) = 77.14051 119.77490 73.67432
#
# Poissons Ratio (x) = 0.25342 0.12802
# Poissons Ratio (y) = 0.16321 0.18447
# Poissons Ratio (z) = 0.13404 0.29990
#
# Static dielectric constant tensor:
#      x y z
#    x 3.852680 0.000000 0.000000 
#    y 0.000000 4.143640 0.000000 
#    z 0.000000 0.000000 3.783200 
# 
# 
# High freq. dielectric constant tensor:
#      x y z
#    x 1.858820 0.000000 0.000000 
#    y 0.000000 1.883500 0.000000 
#    z 0.000000 0.000000 1.856400 
# 
# From -- ./inp_files/8755.got.cif
#   From: 2010.03.12/outbox.cif.g09.slc.cpg/sg62_5_cif.got.tgz:8755.got - 2010.04.10 19:12:36.
