data_PCOD8253453
_publ_section_title
;
Structure prediction by ZEFSAII (Michael W. Deem and Ramdas Pophale) SiO2 
 PCOD8253453
Probable space group: P N M A
;
_chemical_formula_sum "Si O2"
_cell_formula_units_Z 64
_cell_length_a 14.300834
_cell_length_b 8.824153
_cell_length_c 24.761754
_cell_angle_alpha 90.000000
_cell_angle_beta 90.000000
_cell_angle_gamma 90.000000
_cell_volume 3124.753764
_symmetry_space_group_name_H-M "P N M A"
_symmetry_group_IT_number 62
_symmetry_cell_setting 'orthorhombic'
loop_
_space_group_symop_operation_xyz
x,y,z
1/2-x,-y,1/2+z
1/2+x,1/2-y,1/2-z
-x,1/2+y,-z
-x,-y,-z
1/2+x,y,1/2-z
1/2-x,1/2+y,1/2+z
x,1/2-y,z
loop_
_atom_site_type_symbol
_atom_site_label
_atom_site_fract_x
_atom_site_fract_y
_atom_site_fract_z
Si Si1 0.204107 0.574667 0.394915
Si Si2 0.840473 0.425175 0.726484
Si Si3 0.052350 0.423359 0.748341
Si Si4 0.550707 0.428267 0.449375
Si Si5 0.600663 0.427402 0.006856
Si Si6 0.756095 0.071709 0.922261
Si Si7 0.913770 0.575457 0.129272
Si Si8 0.291282 0.426251 0.189620
O O1 0.185865 0.750000 0.408080
O O2 0.164072 0.532505 0.336316
O O3 0.149027 0.474778 0.437574
O O4 0.314429 0.537241 0.397998
O O5 0.810613 0.250000 0.735144
O O6 0.771869 0.533243 0.759135
O O7 0.943178 0.458652 0.748642
O O8 0.071354 0.250000 0.731521
O O9 0.094237 0.457897 0.807250
O O10 0.102367 0.530298 0.704517
O O11 0.500000 0.500000 0.500000
O O12 0.553294 0.250000 0.456328
O O13 0.655697 0.487963 0.447750
O O14 0.494560 0.471061 0.395286
O O15 0.585965 0.250000 0.007862
O O16 0.500000 0.500000 0.000000
O O17 0.665419 0.476649 0.956632
O O18 0.774474 0.250000 0.924761
O O19 0.742819 0.022577 0.860934
O O20 0.941616 0.750000 0.119328
O O21 0.284009 0.250000 0.175592
#
# Coordination Sequence:
#
# PCOD8253453 Si02
#       8
#     8   8   8   8   8   8   8   8
#     4  10  21  39  64  94 128 167 215 263 313 375
#     4  10  21  40  66  94 127 173 220 260 311 383
#     4  10  21  39  64  91 124 168 214 257 310 381
#     4  12  25  41  65  97 131 166 209 262 322 385
#     4  11  26  45  67  93 124 166 215 268 323 380
#     4  11  25  46  68  91 125 172 220 265 320 386
#     4  10  20  38  64  94 129 171 213 260 317 380
#     4  12  25  40  63  97 134 168 208 266 324 377
#
# _framework density 20.481614
#
# number of rings (size 3 to 8) (size 9 to 14) (size 15 to 20)
#    0.000    1.250    1.250    4.500    1.750    7.000 
#    0.000    0.000    0.000    0.000    0.000    0.000 
#    0.000    0.000    0.000    0.000    0.000    0.000 
#
# Total GULP energy -794022.844186 kJ/mol
# GULP energy per Si atom -12406.606940 kJ/mol
# Density = 2.043500 g / cm^3
# Si number density = 20.481614 Si / 1000 Ang^3
#
#
#
# Elastic Constant Matrix: (Units=GPa)
#
#
# Indices 1 2 3 4 5 6 
#
# 1 120.3443 60.3438 37.5296 0.0000 0.0000 0.0000
# 2 60.3438 96.7080 45.6596 0.0000 0.0000 0.0000
# 3 37.5296 45.6596 80.2121 0.0000 0.0000 0.0000
# 4 0.0000 0.0000 0.0000 31.8504 0.0000 0.0000
# 5 0.0000 0.0000 0.0000 0.0000 37.3589 0.0000
# 6 0.0000 0.0000 0.0000 0.0000 0.0000 36.2780
#
#
#
# Elastic Compliance Matrix: (Units=1/GPa)
#
#
# Indices 1 2 3 4 5 6 
#
# 1 0.012300 -0.006780 -0.001896 0.000000 0.000000 0.000000
# 2 -0.006780 0.017878 -0.007005 0.000000 0.000000 0.000000
# 3 -0.001896 -0.007005 0.017341 0.000000 0.000000 0.000000
# 4 0.000000 0.000000 0.000000 0.031397 0.000000 0.000000
# 5 0.000000 0.000000 0.000000 0.000000 0.026767 0.000000
# 6 0.000000 0.000000 0.000000 0.000000 0.000000 0.027565
#
#
# Mechanical properties :
#
#
# Convention : Reuss Voigt Hill
#
# Bulk Modulus (GPa) = 61.88509 64.92561 63.40535
# Shear Modulus (GPa) = 29.41243 31.34621 30.37932
#
# Velocity S-wave (km/s) = 3.79362 3.91635 3.85547
# Velocity P-wave (km/s) = 7.03344 7.22625 7.13050
#
# Compressibility (1/GPa) = 0.01615898
#
# Stress axis : x y z
#
# Youngs Moduli (GPa) = 81.29808 55.93375 57.66636
#
# Poissons Ratio (x) = 0.37924 0.10931
# Poissons Ratio (y) = 0.55122 0.40393
# Poissons Ratio (z) = 0.15410 0.39180
#
# Static dielectric constant tensor:
#      x y z
#    x 3.897100 0.000000 0.000000 
#    y 0.000000 3.688620 0.000000 
#    z 0.000000 0.000000 3.731790 
# 
# 
# High freq. dielectric constant tensor:
#      x y z
#    x 1.816500 0.000000 0.000000 
#    y 0.000000 1.793080 0.000000 
#    z 0.000000 0.000000 1.810480 
# 
# From -- ./inp_files/29797.got.cif
#   From: 2010.03.12/outbox.cif.g09.slc.cpg/sg62_15_cif.got.tgz:29797.got - 2010.04.10 19:12:36.
