data_PCOD8253184
_publ_section_title
;
Structure prediction by ZEFSAII (Michael W. Deem and Ramdas Pophale) SiO2 
 PCOD8253184
Probable space group: P N M A
;
_chemical_formula_sum "Si O2"
_cell_formula_units_Z 40
_cell_length_a 8.548506
_cell_length_b 25.076778
_cell_length_c 9.402127
_cell_angle_alpha 90.000000
_cell_angle_beta 90.000000
_cell_angle_gamma 90.000000
_cell_volume 2015.524442
_symmetry_space_group_name_H-M "P N M A"
_symmetry_group_IT_number 62
_symmetry_cell_setting 'orthorhombic'
loop_
_space_group_symop_operation_xyz
x,y,z
1/2-x,-y,1/2+z
1/2+x,1/2-y,1/2-z
-x,1/2+y,-z
-x,-y,-z
1/2+x,y,1/2-z
1/2-x,1/2+y,1/2+z
x,1/2-y,z
loop_
_atom_site_type_symbol
_atom_site_label
_atom_site_fract_x
_atom_site_fract_y
_atom_site_fract_z
Si Si1 0.706538 0.750000 0.439349
Si Si2 0.135946 0.041137 0.345954
Si Si3 0.705570 0.663608 0.935827
Si Si4 0.844016 0.750000 0.133769
Si Si5 0.211536 0.957400 0.560020
Si Si6 0.848602 0.662712 0.634169
O O1 0.818120 0.750000 0.302302
O O2 0.527945 0.750000 0.392270
O O3 0.738885 0.697129 0.531537
O O4 0.158188 0.032387 0.178677
O O5 0.187725 0.100407 0.394790
O O6 0.954676 0.030650 0.368996
O O7 0.240315 0.998109 0.431047
O O8 0.720134 0.603345 0.992766
O O9 0.812662 0.675665 0.798700
O O10 0.528068 0.677688 0.894306
O O11 0.763113 0.698319 0.066996
#
# Coordination Sequence:
#
# PCOD8253184 Si02
#       6
#     4   8   8   4   8   8
#     4  12  25  40  57  80 110 142 180 226 277 326
#     4   9  19  35  55  81 111 143 180 221 265 316
#     4  10  20  37  59  82 110 145 185 224 267 322
#     4  12  25  40  57  80 110 142 180 226 277 326
#     4   9  19  35  55  81 111 143 180 221 265 316
#     4  10  20  37  59  82 110 145 185 224 267 322
#
# _framework density 19.845952
#
# number of rings (size 3 to 8) (size 9 to 14) (size 15 to 20)
#    0.000    2.000    0.000    3.600    0.000    4.000 
#    0.000    4.000    0.000    0.000    0.000    0.000 
#    0.000    0.000    0.000    0.000    0.000    0.000 
#
# Total GULP energy -496116.170443 kJ/mol
# GULP energy per Si atom -12402.904261 kJ/mol
# Density = 1.980078 g / cm^3
# Si number density = 19.845952 Si / 1000 Ang^3
#
#
#
# Elastic Constant Matrix: (Units=GPa)
#
#
# Indices 1 2 3 4 5 6 
#
# 1 51.3226 18.2218 -1.5598 0.0000 0.0000 0.0000
# 2 18.2218 90.6212 30.3730 0.0000 0.0000 0.0000
# 3 -1.5598 30.3730 53.1823 0.0000 0.0000 0.0000
# 4 0.0000 0.0000 0.0000 36.5753 0.0000 0.0000
# 5 0.0000 0.0000 0.0000 0.0000 33.2540 0.0000
# 6 0.0000 0.0000 0.0000 0.0000 0.0000 24.8033
#
#
#
# Elastic Compliance Matrix: (Units=1/GPa)
#
#
# Indices 1 2 3 4 5 6 
#
# 1 0.021602 -0.005635 0.003852 0.000000 0.000000 0.000000
# 2 -0.005635 0.015117 -0.008799 0.000000 0.000000 0.000000
# 3 0.003852 -0.008799 0.023941 0.000000 0.000000 0.000000
# 4 0.000000 0.000000 0.000000 0.027341 0.000000 0.000000
# 5 0.000000 0.000000 0.000000 0.000000 0.030072 0.000000
# 6 0.000000 0.000000 0.000000 0.000000 0.000000 0.040317
#
#
# Mechanical properties :
#
#
# Convention : Reuss Voigt Hill
#
# Bulk Modulus (GPa) = 25.31843 32.13288 28.72566
# Shear Modulus (GPa) = 25.94448 28.79925 27.37187
#
# Velocity S-wave (km/s) = 3.61957 3.81352 3.71781
# Velocity P-wave (km/s) = 5.50033 5.96798 5.73892
#
# Compressibility (1/GPa) = 0.03949691
#
# Stress axis : x y z
#
# Youngs Moduli (GPa) = 46.29161 66.15099 41.76890
#
# Poissons Ratio (x) = 0.37273 -0.16088
# Poissons Ratio (y) = 0.26083 0.36751
# Poissons Ratio (z) = -0.17830 0.58204
#
# Static dielectric constant tensor:
#      x y z
#    x 3.591580 0.000000 0.000000 
#    y 0.000000 3.788770 0.000000 
#    z 0.000000 0.000000 3.576630 
# 
# 
# High freq. dielectric constant tensor:
#      x y z
#    x 1.776870 0.000000 0.000000 
#    y 0.000000 1.784920 0.000000 
#    z 0.000000 0.000000 1.764820 
# 
# From -- ./inp_files/4363.got.cif
#   From: 2010.03.12/outbox.cif.g09.slc.cpg/sg62_3_cif.got.tgz:4363.got - 2010.04.10 19:12:36.
