data_PCOD8253617
_publ_section_title
;
Structure prediction by ZEFSAII (Michael W. Deem and Ramdas Pophale) SiO2 
 PCOD8253617
Probable space group: P N M A
;
_chemical_formula_sum "Si O2"
_cell_formula_units_Z 64
_cell_length_a 10.613303
_cell_length_b 12.711092
_cell_length_c 25.196198
_cell_angle_alpha 90.000000
_cell_angle_beta 90.000000
_cell_angle_gamma 90.000000
_cell_volume 3399.135190
_symmetry_space_group_name_H-M "P N M A"
_symmetry_group_IT_number 62
_symmetry_cell_setting 'orthorhombic'
loop_
_space_group_symop_operation_xyz
x,y,z
1/2-x,-y,1/2+z
1/2+x,1/2-y,1/2-z
-x,1/2+y,-z
-x,-y,-z
1/2+x,y,1/2-z
1/2-x,1/2+y,1/2+z
x,1/2-y,z
loop_
_atom_site_type_symbol
_atom_site_label
_atom_site_fract_x
_atom_site_fract_y
_atom_site_fract_z
Si Si1 0.365461 0.481429 0.254305
Si Si2 0.084729 0.628622 0.082424
Si Si3 0.855060 0.629370 0.150822
Si Si4 0.390409 0.874789 0.793649
Si Si5 0.657707 0.493723 0.103087
Si Si6 0.961682 0.864586 0.439732
Si Si7 0.272681 0.129732 0.484975
Si Si8 0.208753 0.367971 0.659726
O O1 0.408213 0.556173 0.302604
O O2 0.488523 0.412958 0.240098
O O3 0.244042 0.410869 0.269408
O O4 0.325370 0.555881 0.206912
O O5 0.128900 0.750000 0.078669
O O6 0.117358 0.582412 0.023814
O O7 0.170300 0.581295 0.129696
O O8 0.939803 0.615295 0.097840
O O9 0.852865 0.750000 0.169992
O O10 0.715883 0.592323 0.135021
O O11 0.392638 0.750000 0.794150
O O12 0.405679 0.915721 0.854198
O O13 0.560918 0.540093 0.059769
O O14 0.766658 0.433271 0.070227
O O15 0.025277 0.750000 0.450319
O O16 0.858848 0.884182 0.484618
O O17 0.906048 0.863696 0.380789
O O18 0.300349 0.250000 0.469540
O O19 0.237605 0.250000 0.681810
#
# Coordination Sequence:
#
# PCOD8253617 Si02
#       8
#     8   8   8   8   8   8   8   8
#     4  11  21  37  57  80 105 145 184 217 277 329
#     4   8  16  32  50  73 106 140 174 213 263 318
#     4  10  21  34  51  80 112 139 172 222 272 329
#     4  11  24  39  55  76 107 143 186 230 265 317
#     4  11  20  33  52  78 107 138 178 218 275 323
#     4   9  17  31  51  78 106 131 165 216 271 322
#     4   9  18  32  53  75 100 139 184 223 263 316
#     4   9  16  30  54  81 106 132 168 216 264 325
#
# _framework density 18.828317999999999
#
# number of rings (size 3 to 8) (size 9 to 14) (size 15 to 20)
#    0.000    2.250    1.250    4.125    0.000    0.500 
#    0.000    1.250    0.000    0.000    0.000    1.750 
#    0.000    0.000    0.000    0.000    0.000    0.000 
#
# Total GULP energy -793173.664992 kJ/mol
# GULP energy per Si atom -12393.338515 kJ/mol
# Density = 1.878546 g / cm^3
# Si number density = 18.828318 Si / 1000 Ang^3
#
#
#
# Elastic Constant Matrix: (Units=GPa)
#
#
# Indices 1 2 3 4 5 6 
#
# 1 60.3382 32.6116 10.1129 0.0000 0.0000 0.0000
# 2 32.6116 102.8072 29.0619 0.0000 0.0000 0.0000
# 3 10.1129 29.0619 57.9439 0.0000 0.0000 0.0000
# 4 0.0000 0.0000 0.0000 25.9831 0.0000 0.0000
# 5 0.0000 0.0000 0.0000 0.0000 22.1712 0.0000
# 6 0.0000 0.0000 0.0000 0.0000 0.0000 24.9262
#
#
#
# Elastic Compliance Matrix: (Units=1/GPa)
#
#
# Indices 1 2 3 4 5 6 
#
# 1 0.020009 -0.006245 -0.000360 0.000000 0.000000 0.000000
# 2 -0.006245 0.013283 -0.005572 0.000000 0.000000 0.000000
# 3 -0.000360 -0.005572 0.020116 0.000000 0.000000 0.000000
# 4 0.000000 0.000000 0.000000 0.038487 0.000000 0.000000
# 5 0.000000 0.000000 0.000000 0.000000 0.045104 0.000000
# 6 0.000000 0.000000 0.000000 0.000000 0.000000 0.040118
#
#
# Mechanical properties :
#
#
# Convention : Reuss Voigt Hill
#
# Bulk Modulus (GPa) = 34.41968 40.51800 37.46884
# Shear Modulus (GPa) = 23.67920 24.56962 24.12441
#
# Velocity S-wave (km/s) = 3.55017 3.61630 3.58339
# Velocity P-wave (km/s) = 5.92667 6.24526 6.08805
#
# Compressibility (1/GPa) = 0.02905314
#
# Stress axis : x y z
#
# Youngs Moduli (GPa) = 49.97733 75.28279 49.71256
#
# Poissons Ratio (x) = 0.47017 0.01788
# Poissons Ratio (y) = 0.31213 0.27701
# Poissons Ratio (z) = 0.01798 0.41949
#
# Static dielectric constant tensor:
#      x y z
#    x 3.331820 0.000000 0.000000 
#    y 0.000000 3.355820 0.000000 
#    z 0.000000 0.000000 3.468200 
# 
# 
# High freq. dielectric constant tensor:
#      x y z
#    x 1.722600 0.000000 0.000000 
#    y 0.000000 1.719600 0.000000 
#    z 0.000000 0.000000 1.732200 
# 
# From -- ./inp_files/29442.got.cif
#   From: 2010.03.12/outbox.cif.g09.slc.cpg/sg62_15_cif.got.tgz:29442.got - 2010.04.10 19:12:36.
