data_PCOD8253599
_publ_section_title
;
Structure prediction by ZEFSAII (Michael W. Deem and Ramdas Pophale) SiO2 
 PCOD8253599
Probable space group: P N M A
;
_chemical_formula_sum "Si O2"
_cell_formula_units_Z 56
_cell_length_a 5.495801
_cell_length_b 13.172990
_cell_length_c 32.930429
_cell_angle_alpha 90.000000
_cell_angle_beta 90.000000
_cell_angle_gamma 90.000000
_cell_volume 2384.035672
_symmetry_space_group_name_H-M "P N M A"
_symmetry_group_IT_number 62
_symmetry_cell_setting 'orthorhombic'
loop_
_space_group_symop_operation_xyz
x,y,z
1/2-x,-y,1/2+z
1/2+x,1/2-y,1/2-z
-x,1/2+y,-z
-x,-y,-z
1/2+x,y,1/2-z
1/2-x,1/2+y,1/2+z
x,1/2-y,z
loop_
_atom_site_type_symbol
_atom_site_label
_atom_site_fract_x
_atom_site_fract_y
_atom_site_fract_z
Si Si1 0.566672 0.870831 0.727850
Si Si2 0.748157 0.061464 0.500589
Si Si3 0.300046 0.055423 0.912393
Si Si4 0.615258 0.863420 0.917998
Si Si5 0.693139 0.865694 0.234001
Si Si6 0.923945 0.638635 0.343322
Si Si7 0.427858 0.528385 0.647523
O O1 0.816432 0.907892 0.749845
O O2 0.562984 0.750000 0.725347
O O3 0.583049 0.913503 0.681714
O O4 0.740766 0.134393 0.461324
O O5 0.500000 0.000000 0.500000
O O6 0.742031 0.113901 0.545353
O O7 0.000000 0.000000 0.500000
O O8 0.390352 0.940327 0.920295
O O9 0.071141 0.044655 0.883225
O O10 0.504180 0.122157 0.890116
O O11 0.514102 0.750000 0.911452
O O12 0.784575 0.889420 0.879585
O O13 0.450735 0.918943 0.254458
O O14 0.709663 0.750000 0.250803
O O15 0.662709 0.869384 0.185414
O O16 0.803396 0.750000 0.338689
O O17 0.745461 0.550187 0.328545
#
# Coordination Sequence:
#
# PCOD8253599 Si02
#       7
#     8   8   8   8   8   8   8
#     4  10  24  44  67  98 137 179 225 279 343 411
#     4  10  20  42  66  92 133 171 210 266 329 393
#     4  10  23  41  65  94 136 175 215 276 340 400
#     4  10  22  40  67 101 130 172 224 274 332 402
#     4   9  19  36  57  82 114 155 209 273 325 378
#     4  10  24  41  60  90 127 175 228 277 340 410
#     4  11  23  41  66  95 132 179 222 288 336 402
#
# _framework density 23.48958
#
# number of rings (size 3 to 8) (size 9 to 14) (size 15 to 20)
#    0.000    2.000    1.429    0.429    6.000    3.429 
#    0.000    0.000    0.000    0.000    0.000    0.000 
#    0.000    0.000    0.000    0.000    0.000    0.000 
#
# Total GULP energy -693925.842492 kJ/mol
# GULP energy per Si atom -12391.532902 kJ/mol
# Density = 2.343612 g / cm^3
# Si number density = 23.489580 Si / 1000 Ang^3
#
#
#
# Elastic Constant Matrix: (Units=GPa)
#
#
# Indices 1 2 3 4 5 6 
#
# 1 123.6463 30.8598 35.0878 0.0000 0.0000 0.0000
# 2 30.8598 75.9657 34.5909 0.0000 0.0000 0.0000
# 3 35.0878 34.5909 146.7059 0.0000 0.0000 0.0000
# 4 0.0000 0.0000 0.0000 21.9825 0.0000 0.0000
# 5 0.0000 0.0000 0.0000 0.0000 39.6362 0.0000
# 6 0.0000 0.0000 0.0000 0.0000 0.0000 16.0665
#
#
#
# Elastic Compliance Matrix: (Units=1/GPa)
#
#
# Indices 1 2 3 4 5 6 
#
# 1 0.009282 -0.003092 -0.001491 0.000000 0.000000 0.000000
# 2 -0.003092 0.015777 -0.002980 0.000000 0.000000 0.000000
# 3 -0.001491 -0.002980 0.007876 0.000000 0.000000 0.000000
# 4 0.000000 0.000000 0.000000 0.045491 0.000000 0.000000
# 5 0.000000 0.000000 0.000000 0.000000 0.025229 0.000000
# 6 0.000000 0.000000 0.000000 0.000000 0.000000 0.062241
#
#
# Mechanical properties :
#
#
# Convention : Reuss Voigt Hill
#
# Bulk Modulus (GPa) = 56.15358 60.82165 58.48762
# Shear Modulus (GPa) = 26.74373 31.92232 29.33302
#
# Velocity S-wave (km/s) = 3.37788 3.69046 3.53762
# Velocity P-wave (km/s) = 6.25868 6.64143 6.45289
#
# Compressibility (1/GPa) = 0.01780830
#
# Stress axis : x y z
#
# Youngs Moduli (GPa) = 107.73091 63.38337 126.97237
#
# Poissons Ratio (x) = 0.19597 0.18932
# Poissons Ratio (y) = 0.33309 0.37844
# Poissons Ratio (z) = 0.16063 0.18891
#
# Static dielectric constant tensor:
#      x y z
#    x 4.256440 0.000000 0.000000 
#    y 0.000000 3.973180 0.000000 
#    z 0.000000 0.000000 4.771760 
# 
# 
# High freq. dielectric constant tensor:
#      x y z
#    x 1.927350 0.000000 0.000000 
#    y 0.000000 1.909870 0.000000 
#    z 0.000000 0.000000 1.953220 
# 
# From -- ./inp_files/31599.got.cif
#   From: 2010.03.12/outbox.cif.g09.slc.cpg/sg62_16_cif.got.tgz:31599.got - 2010.04.10 19:12:36.
