data_PCOD8253396
_publ_section_title
;
Structure prediction by ZEFSAII (Michael W. Deem and Ramdas Pophale) SiO2 
 PCOD8253396
Probable space group: P N M A
;
_chemical_formula_sum "Si O2"
_cell_formula_units_Z 64
_cell_length_a 9.720736
_cell_length_b 17.402959
_cell_length_c 19.961934
_cell_angle_alpha 90.000000
_cell_angle_beta 90.000000
_cell_angle_gamma 90.000000
_cell_volume 3376.951792
_symmetry_space_group_name_H-M "P N M A"
_symmetry_group_IT_number 62
_symmetry_cell_setting 'orthorhombic'
loop_
_space_group_symop_operation_xyz
x,y,z
1/2-x,-y,1/2+z
1/2+x,1/2-y,1/2-z
-x,1/2+y,-z
-x,-y,-z
1/2+x,y,1/2-z
1/2-x,1/2+y,1/2+z
x,1/2-y,z
loop_
_atom_site_type_symbol
_atom_site_label
_atom_site_fract_x
_atom_site_fract_y
_atom_site_fract_z
Si Si1 0.972077 0.838438 0.872070
Si Si2 0.093002 0.057668 0.739702
Si Si3 0.818043 0.659899 0.501395
Si Si4 0.154869 0.046959 0.226372
Si Si5 0.491419 0.337984 0.523566
Si Si6 0.197434 0.408970 0.876170
Si Si7 0.486995 0.339716 0.881138
Si Si8 0.261816 0.585148 0.867766
O O1 0.955079 0.750000 0.850719
O O2 0.864118 0.889067 0.830528
O O3 0.126918 0.863860 0.856260
O O4 0.940478 0.849209 0.950690
O O5 0.163158 0.108343 0.798283
O O6 0.042102 0.113083 0.681712
O O7 0.200873 0.995294 0.711500
O O8 0.966826 0.014820 0.775351
O O9 0.820970 0.750000 0.515069
O O10 0.666627 0.634137 0.477173
O O11 0.853788 0.618845 0.571781
O O12 0.928422 0.634467 0.446413
O O13 0.151978 0.087583 0.299169
O O14 0.500163 0.250000 0.546813
O O15 0.569877 0.389178 0.577004
O O16 0.328419 0.357759 0.896023
O O17 0.225603 0.498318 0.886607
O O18 0.507830 0.250000 0.866087
#
# Coordination Sequence:
#
# PCOD8253396 Si02
#       8
#     8   8   8   8   8   8   8   8
#     4  10  21  39  63  91 122 157 200 247 293 352
#     4  11  23  42  60  86 120 156 196 252 296 354
#     4   9  21  39  59  85 117 154 200 245 293 356
#     4  11  21  42  62  85 123 155 200 246 295 352
#     4   9  20  38  59  86 118 154 200 247 292 354
#     4  11  22  38  61  88 121 157 196 246 302 348
#     4  11  24  41  60  87 121 157 199 251 301 352
#     4  10  20  38  62  87 120 158 195 241 299 349
#
# _framework density 18.952003000000001
#
# number of rings (size 3 to 8) (size 9 to 14) (size 15 to 20)
#    0.000    1.750    5.000    1.500    1.750    5.500 
#    2.250    0.000    0.000    0.000    0.000    0.000 
#    0.000    0.000    0.000    0.000    0.000    0.000 
#
# Total GULP energy -793753.002913 kJ/mol
# GULP energy per Si atom -12402.390671 kJ/mol
# Density = 1.890887 g / cm^3
# Si number density = 18.952003 Si / 1000 Ang^3
#
#
#
# Elastic Constant Matrix: (Units=GPa)
#
#
# Indices 1 2 3 4 5 6 
#
# 1 65.9185 11.5498 22.8809 0.0000 0.0000 0.0000
# 2 11.5498 60.3723 26.1669 0.0000 0.0000 0.0000
# 3 22.8809 26.1669 77.0112 0.0000 0.0000 0.0000
# 4 0.0000 0.0000 0.0000 30.5152 0.0000 0.0000
# 5 0.0000 0.0000 0.0000 0.0000 36.4326 0.0000
# 6 0.0000 0.0000 0.0000 0.0000 0.0000 29.6753
#
#
#
# Elastic Compliance Matrix: (Units=1/GPa)
#
#
# Indices 1 2 3 4 5 6 
#
# 1 0.016994 -0.001246 -0.004626 0.000000 0.000000 0.000000
# 2 -0.001246 0.019516 -0.006261 0.000000 0.000000 0.000000
# 3 -0.004626 -0.006261 0.016487 0.000000 0.000000 0.000000
# 4 0.000000 0.000000 0.000000 0.032771 0.000000 0.000000
# 5 0.000000 0.000000 0.000000 0.000000 0.027448 0.000000
# 6 0.000000 0.000000 0.000000 0.000000 0.000000 0.033698
#
#
# Mechanical properties :
#
#
# Convention : Reuss Voigt Hill
#
# Bulk Modulus (GPa) = 34.80528 36.05526 35.43027
# Shear Modulus (GPa) = 27.66155 28.83824 28.24990
#
# Velocity S-wave (km/s) = 3.82456 3.90506 3.86502
# Velocity P-wave (km/s) = 6.15694 6.27682 6.21717
#
# Compressibility (1/GPa) = 0.02873127
#
# Stress axis : x y z
#
# Youngs Moduli (GPa) = 58.84348 51.24021 60.65457
#
# Poissons Ratio (x) = 0.06386 0.28057
# Poissons Ratio (y) = 0.07333 0.37975
# Poissons Ratio (z) = 0.27219 0.32081
#
# Static dielectric constant tensor:
#      x y z
#    x 3.497400 0.000000 0.000000 
#    y 0.000000 3.496040 0.000000 
#    z 0.000000 0.000000 3.595720 
# 
# 
# High freq. dielectric constant tensor:
#      x y z
#    x 1.732150 0.000000 0.000000 
#    y 0.000000 1.736320 0.000000 
#    z 0.000000 0.000000 1.741800 
# 
# From -- ./inp_files/26186.got.cif
#   From: 2010.03.12/outbox.cif.g09.slc.cpg/sg62_14_cif.got.tgz:26186.got - 2010.04.10 19:12:36.
