data_PCOD8253888
_publ_section_title
;
Structure prediction by ZEFSAII (Michael W. Deem and Ramdas Pophale) SiO2 
 PCOD8253888
Probable space group: P N M A
;
_chemical_formula_sum "Si O2"
_cell_formula_units_Z 56
_cell_length_a 14.461236
_cell_length_b 9.138873
_cell_length_c 21.556668
_cell_angle_alpha 90.000000
_cell_angle_beta 90.000000
_cell_angle_gamma 90.000000
_cell_volume 2848.916292
_symmetry_space_group_name_H-M "P N M A"
_symmetry_group_IT_number 62
_symmetry_cell_setting 'orthorhombic'
loop_
_space_group_symop_operation_xyz
x,y,z
1/2-x,-y,1/2+z
1/2+x,1/2-y,1/2-z
-x,1/2+y,-z
-x,-y,-z
1/2+x,y,1/2-z
1/2-x,1/2+y,1/2+z
x,1/2-y,z
loop_
_atom_site_type_symbol
_atom_site_label
_atom_site_fract_x
_atom_site_fract_y
_atom_site_fract_z
Si Si1 0.595270 0.079444 0.405727
Si Si2 0.086302 0.420016 0.882236
Si Si3 0.697266 0.080634 0.280291
Si Si4 0.731084 0.079857 0.514726
Si Si5 0.581672 0.421560 0.035839
Si Si6 0.049288 0.418879 0.321465
Si Si7 0.616003 0.076473 0.757133
O O1 0.574967 0.250000 0.411571
O O2 0.635085 0.036891 0.338809
O O3 0.666313 0.028535 0.458364
O O4 0.498399 0.999139 0.415933
O O5 0.062096 0.250000 0.881240
O O6 0.179458 0.450806 0.920510
O O7 0.100706 0.481344 0.812871
O O8 0.726727 0.250000 0.283109
O O9 0.639805 0.043930 0.218593
O O10 0.787882 0.982825 0.282841
O O11 0.758243 0.250000 0.508061
O O12 0.822196 0.983031 0.510562
O O13 0.577012 0.250000 0.022302
O O14 0.573438 0.457141 0.108284
O O15 0.500000 0.500000 0.000000
O O16 0.020440 0.250000 0.312570
O O17 0.964714 0.519227 0.301081
O O18 0.618066 0.250000 0.759622
#
# Coordination Sequence:
#
# PCOD8253888 Si02
#       7
#     8   8   8   8   8   8   8
#     4  10  21  37  61  89 118 157 201 243 293 350
#     4  10  21  38  59  89 126 159 194 242 300 355
#     4  10  21  38  60  87 118 156 201 247 292 347
#     4  10  22  40  61  88 123 160 197 243 296 352
#     4  11  25  43  64  89 117 156 203 248 298 353
#     4  10  22  42  64  86 116 156 200 244 290 349
#     4  11  23  36  58  90 121 156 194 241 302 354
#
# _framework density 19.656596
#
# number of rings (size 3 to 8) (size 9 to 14) (size 15 to 20)
#    0.000    1.714    1.429    2.143    2.000    4.000 
#    0.000    0.000    0.000    0.000    0.000    0.000 
#    0.000    0.000    0.000    0.000    0.000    0.000 
#
# Total GULP energy -694762.304927 kJ/mol
# GULP energy per Si atom -12406.469731 kJ/mol
# Density = 1.961186 g / cm^3
# Si number density = 19.656596 Si / 1000 Ang^3
#
#
#
# Elastic Constant Matrix: (Units=GPa)
#
#
# Indices 1 2 3 4 5 6 
#
# 1 111.4216 49.1232 12.1881 0.0000 0.0000 0.0000
# 2 49.1232 63.1536 20.0188 0.0000 0.0000 0.0000
# 3 12.1881 20.0188 62.7353 0.0000 0.0000 0.0000
# 4 0.0000 0.0000 0.0000 26.5583 0.0000 0.0000
# 5 0.0000 0.0000 0.0000 0.0000 22.4786 0.0000
# 6 0.0000 0.0000 0.0000 0.0000 0.0000 29.4722
#
#
#
# Elastic Compliance Matrix: (Units=1/GPa)
#
#
# Indices 1 2 3 4 5 6 
#
# 1 0.013697 -0.010915 0.000822 0.000000 0.000000 0.000000
# 2 -0.010915 0.026314 -0.006276 0.000000 0.000000 0.000000
# 3 0.000822 -0.006276 0.017783 0.000000 0.000000 0.000000
# 4 0.000000 0.000000 0.000000 0.037653 0.000000 0.000000
# 5 0.000000 0.000000 0.000000 0.000000 0.044487 0.000000
# 6 0.000000 0.000000 0.000000 0.000000 0.000000 0.033930
#
#
# Mechanical properties :
#
#
# Convention : Reuss Voigt Hill
#
# Bulk Modulus (GPa) = 39.91093 44.44118 42.17606
# Shear Modulus (GPa) = 23.26085 26.10052 24.68069
#
# Velocity S-wave (km/s) = 3.44373 3.64789 3.54728
# Velocity P-wave (km/s) = 6.01337 6.35615 6.18713
#
# Compressibility (1/GPa) = 0.02505579
#
# Stress axis : x y z
#
# Youngs Moduli (GPa) = 73.00880 38.00320 56.23331
#
# Poissons Ratio (x) = 0.41479 -0.04621
# Poissons Ratio (y) = 0.79686 0.35293
# Poissons Ratio (z) = -0.06000 0.23852
#
# Static dielectric constant tensor:
#      x y z
#    x 3.505960 0.000000 0.000000 
#    y 0.000000 3.481340 0.000000 
#    z 0.000000 0.000000 3.822440 
# 
# 
# High freq. dielectric constant tensor:
#      x y z
#    x 1.774360 0.000000 0.000000 
#    y 0.000000 1.760450 0.000000 
#    z 0.000000 0.000000 1.779450 
# 
# From -- ./inp_files/27232.got.cif
#   From: 2010.03.12/outbox.cif.g09.slc.cpg/sg62_14_cif.got.tgz:27232.got - 2010.04.10 19:12:36.
