data_PCOD8253622
_publ_section_title
;
Structure prediction by ZEFSAII (Michael W. Deem and Ramdas Pophale) SiO2 
 PCOD8253622
Probable space group: P N M A
;
_chemical_formula_sum "Si O2"
_cell_formula_units_Z 48
_cell_length_a 8.770700
_cell_length_b 20.161284
_cell_length_c 14.155077
_cell_angle_alpha 90.000000
_cell_angle_beta 90.000000
_cell_angle_gamma 90.000000
_cell_volume 2503.022075
_symmetry_space_group_name_H-M "P N M A"
_symmetry_group_IT_number 62
_symmetry_cell_setting 'orthorhombic'
loop_
_space_group_symop_operation_xyz
x,y,z
1/2-x,-y,1/2+z
1/2+x,1/2-y,1/2-z
-x,1/2+y,-z
-x,-y,-z
1/2+x,y,1/2-z
1/2-x,1/2+y,1/2+z
x,1/2-y,z
loop_
_atom_site_type_symbol
_atom_site_label
_atom_site_fract_x
_atom_site_fract_y
_atom_site_fract_z
Si Si1 0.728032 0.954234 0.147517
Si Si2 0.227117 0.887807 0.685769
Si Si3 0.756070 0.918942 0.526361
Si Si4 0.066058 0.425078 0.012104
Si Si5 0.618064 0.470629 0.834548
Si Si6 0.923077 0.826371 0.646671
O O1 0.548787 0.939828 0.152892
O O2 0.794743 0.934154 0.249579
O O3 0.750047 0.030731 0.115888
O O4 0.816416 0.907603 0.072119
O O5 0.352186 0.907199 0.608819
O O6 0.322075 0.863722 0.775145
O O7 0.105703 0.830714 0.659553
O O8 0.118992 0.952510 0.697914
O O9 0.591499 0.883076 0.510488
O O10 0.797648 0.962170 0.434292
O O11 0.878770 0.861377 0.547122
O O12 0.000000 0.500000 0.000000
O O13 0.876015 0.750000 0.644308
#
# Coordination Sequence:
#
# PCOD8253622 Si02
#       6
#     8   8   8   8   8   8
#     4  11  21  32  52  86 120 146 189 237 309 376
#     4  12  21  37  58  81 121 159 207 251 301 366
#     4  11  21  36  58  82 119 155 197 251 301 368
#     4  10  21  34  55  85 116 151 191 247 316 370
#     4  12  20  33  56  87 117 159 188 249 319 356
#     4  12  26  40  58  86 123 174 214 247 292 363
#
# _framework density 19.176818000000001
#
# number of rings (size 3 to 8) (size 9 to 14) (size 15 to 20)
#    0.000    0.667    6.667    4.000    4.667    0.000 
#    0.000    0.833    0.000    0.000    0.000   11.667 
#    0.000    0.000    0.000    0.000    0.000    0.000 
#
# Total GULP energy -594721.571682 kJ/mol
# GULP energy per Si atom -12390.032743 kJ/mol
# Density = 1.913317 g / cm^3
# Si number density = 19.176818 Si / 1000 Ang^3
#
#
#
# Elastic Constant Matrix: (Units=GPa)
#
#
# Indices 1 2 3 4 5 6 
#
# 1 126.3914 10.0694 16.9343 0.0000 0.0000 0.0000
# 2 10.0694 55.0159 27.1037 0.0000 0.0000 0.0000
# 3 16.9343 27.1037 76.4077 0.0000 0.0000 0.0000
# 4 0.0000 0.0000 0.0000 12.6429 0.0000 0.0000
# 5 0.0000 0.0000 0.0000 0.0000 43.0730 0.0000
# 6 0.0000 0.0000 0.0000 0.0000 0.0000 16.8523
#
#
#
# Elastic Compliance Matrix: (Units=1/GPa)
#
#
# Indices 1 2 3 4 5 6 
#
# 1 0.008178 -0.000732 -0.001553 0.000000 0.000000 0.000000
# 2 -0.000732 0.022091 -0.007674 0.000000 0.000000 0.000000
# 3 -0.001553 -0.007674 0.016154 0.000000 0.000000 0.000000
# 4 0.000000 0.000000 0.000000 0.079096 0.000000 0.000000
# 5 0.000000 0.000000 0.000000 0.000000 0.023216 0.000000
# 6 0.000000 0.000000 0.000000 0.000000 0.000000 0.059339
#
#
# Mechanical properties :
#
#
# Convention : Reuss Voigt Hill
#
# Bulk Modulus (GPa) = 37.72755 40.66998 39.19877
# Shear Modulus (GPa) = 21.11240 28.09415 24.60328
#
# Velocity S-wave (km/s) = 3.32163 3.83169 3.58574
# Velocity P-wave (km/s) = 5.86747 6.38982 6.13421
#
# Compressibility (1/GPa) = 0.02650583
#
# Stress axis : x y z
#
# Youngs Moduli (GPa) = 122.27474 45.26698 61.90396
#
# Poissons Ratio (x) = 0.03312 0.09614
# Poissons Ratio (y) = 0.08948 0.47506
# Poissons Ratio (z) = 0.18989 0.34738
#
# Static dielectric constant tensor:
#      x y z
#    x 4.059320 0.000000 0.000000 
#    y 0.000000 2.993450 0.000000 
#    z 0.000000 0.000000 3.684200 
# 
# 
# High freq. dielectric constant tensor:
#      x y z
#    x 1.780080 0.000000 0.000000 
#    y 0.000000 1.668410 0.000000 
#    z 0.000000 0.000000 1.752690 
# 
# From -- ./inp_files/17075.got.cif
#   From: 2010.03.12/outbox.cif.g09.slc.cpg/sg62_9_cif.got.tgz:17075.got - 2010.04.10 19:12:36.
