data_PCOD8253813
_publ_section_title
;
Structure prediction by ZEFSAII (Michael W. Deem and Ramdas Pophale) SiO2 
 PCOD8253813
Probable space group: P N M A
;
_chemical_formula_sum "Si O2"
_cell_formula_units_Z 56
_cell_length_a 14.802725
_cell_length_b 8.858394
_cell_length_c 20.928521
_cell_angle_alpha 90.000000
_cell_angle_beta 90.000000
_cell_angle_gamma 90.000000
_cell_volume 2744.322852
_symmetry_space_group_name_H-M "P N M A"
_symmetry_group_IT_number 62
_symmetry_cell_setting 'orthorhombic'
loop_
_space_group_symop_operation_xyz
x,y,z
1/2-x,-y,1/2+z
1/2+x,1/2-y,1/2-z
-x,1/2+y,-z
-x,-y,-z
1/2+x,y,1/2-z
1/2-x,1/2+y,1/2+z
x,1/2-y,z
loop_
_atom_site_type_symbol
_atom_site_label
_atom_site_fract_x
_atom_site_fract_y
_atom_site_fract_z
Si Si1 0.431359 0.578901 0.694216
Si Si2 0.860780 0.577550 0.527093
Si Si3 0.267174 0.424743 0.760620
Si Si4 0.523554 0.927007 0.567474
Si Si5 0.092168 0.921264 0.713391
Si Si6 0.209808 0.423998 0.902147
Si Si7 0.976356 0.922606 0.408079
O O1 0.395246 0.750000 0.701792
O O2 0.363842 0.467029 0.730691
O O3 0.444209 0.536754 0.619222
O O4 0.531150 0.564067 0.723878
O O5 0.836155 0.750000 0.542044
O O6 0.772952 0.476665 0.539562
O O7 0.890028 0.553302 0.453895
O O8 0.942677 0.531417 0.572775
O O9 0.246897 0.250000 0.745600
O O10 0.193541 0.530285 0.728073
O O11 0.265004 0.454095 0.836647
O O12 0.532755 0.750000 0.556983
O O13 0.500000 0.000000 0.500000
O O14 0.617102 0.985881 0.596154
O O15 0.093018 0.750000 0.687046
O O16 0.052699 0.036636 0.662446
O O17 0.185668 0.250000 0.911254
O O18 0.010593 0.750000 0.411080
#
# Coordination Sequence:
#
# PCOD8253813 Si02
#       7
#     8   8   8   8   8   8   8
#     4  10  23  42  64  91 124 163 208 258 314 376
#     4  10  21  37  59  86 120 163 205 249 304 369
#     4  11  24  39  62  93 124 160 204 257 314 372
#     4  11  24  44  67  92 124 165 211 263 318 380
#     4  11  22  39  63  89 120 160 202 251 307 369
#     4  11  23  40  63  92 123 163 210 259 314 376
#     4  10  21  37  57  87 124 159 201 254 309 364
#
# _framework density 20.405763
#
# number of rings (size 3 to 8) (size 9 to 14) (size 15 to 20)
#    0.000    1.429    1.429    3.429    0.000    9.143 
#    0.000    0.000    0.000    0.000    0.000    0.000 
#    0.000    0.000    0.000    0.000    0.000    0.000 
#
# Total GULP energy -694607.396667 kJ/mol
# GULP energy per Si atom -12403.703512 kJ/mol
# Density = 2.035932 g / cm^3
# Si number density = 20.405763 Si / 1000 Ang^3
#
#
#
# Elastic Constant Matrix: (Units=GPa)
#
#
# Indices 1 2 3 4 5 6 
#
# 1 80.2240 39.3613 28.2006 0.0000 0.0000 0.0000
# 2 39.3613 94.5027 51.7896 0.0000 0.0000 0.0000
# 3 28.2006 51.7896 101.2468 0.0000 0.0000 0.0000
# 4 0.0000 0.0000 0.0000 30.4503 0.0000 0.0000
# 5 0.0000 0.0000 0.0000 0.0000 28.5790 0.0000
# 6 0.0000 0.0000 0.0000 0.0000 0.0000 37.9108
#
#
#
# Elastic Compliance Matrix: (Units=1/GPa)
#
#
# Indices 1 2 3 4 5 6 
#
# 1 0.015816 -0.005799 -0.001439 0.000000 0.000000 0.000000
# 2 -0.005799 0.016830 -0.006993 0.000000 0.000000 0.000000
# 3 -0.001439 -0.006993 0.013855 0.000000 0.000000 0.000000
# 4 0.000000 0.000000 0.000000 0.032840 0.000000 0.000000
# 5 0.000000 0.000000 0.000000 0.000000 0.034991 0.000000
# 6 0.000000 0.000000 0.000000 0.000000 0.000000 0.026378
#
#
# Mechanical properties :
#
#
# Convention : Reuss Voigt Hill
#
# Bulk Modulus (GPa) = 55.43909 57.18627 56.31268
# Shear Modulus (GPa) = 28.54125 29.82949 29.18537
#
# Velocity S-wave (km/s) = 3.74396 3.82752 3.78597
# Velocity P-wave (km/s) = 6.77621 6.90062 6.83870
#
# Compressibility (1/GPa) = 0.01803781
#
# Stress axis : x y z
#
# Youngs Moduli (GPa) = 63.22639 59.41917 72.17633
#
# Poissons Ratio (x) = 0.34457 0.10387
# Poissons Ratio (y) = 0.36665 0.50476
# Poissons Ratio (z) = 0.09099 0.41554
#
# Static dielectric constant tensor:
#      x y z
#    x 3.557120 0.000000 0.000000 
#    y 0.000000 3.769500 0.000000 
#    z 0.000000 0.000000 3.753090 
# 
# 
# High freq. dielectric constant tensor:
#      x y z
#    x 1.793160 0.000000 0.000000 
#    y 0.000000 1.808920 0.000000 
#    z 0.000000 0.000000 1.800570 
# 
# From -- ./inp_files/27300.got.cif
#   From: 2010.03.12/outbox.cif.g09.slc.cpg/sg62_14_cif.got.tgz:27300.got - 2010.04.10 19:12:36.
