data_PCOD8253744
_publ_section_title
;
Structure prediction by ZEFSAII (Michael W. Deem and Ramdas Pophale) SiO2 
 PCOD8253744
Probable space group: P N M A
;
_chemical_formula_sum "Si O2"
_cell_formula_units_Z 56
_cell_length_a 8.930703
_cell_length_b 21.033714
_cell_length_c 13.496133
_cell_angle_alpha 90.000000
_cell_angle_beta 90.000000
_cell_angle_gamma 90.000000
_cell_volume 2535.192612
_symmetry_space_group_name_H-M "P N M A"
_symmetry_group_IT_number 62
_symmetry_cell_setting 'orthorhombic'
loop_
_space_group_symop_operation_xyz
x,y,z
1/2-x,-y,1/2+z
1/2+x,1/2-y,1/2-z
-x,1/2+y,-z
-x,-y,-z
1/2+x,y,1/2-z
1/2-x,1/2+y,1/2+z
x,1/2-y,z
loop_
_atom_site_type_symbol
_atom_site_label
_atom_site_fract_x
_atom_site_fract_y
_atom_site_fract_z
Si Si1 0.944612 0.071539 0.339737
Si Si2 0.403704 0.100660 0.499163
Si Si3 0.539764 0.320973 0.856759
Si Si4 0.799127 0.963213 0.991740
Si Si5 0.635636 0.324650 0.078111
Si Si6 0.761663 0.000964 0.701803
Si Si7 0.831581 0.376930 0.794738
O O1 0.850126 0.063271 0.440862
O O2 0.840322 0.058214 0.242653
O O3 0.023440 0.141659 0.342360
O O4 0.079012 0.021717 0.338397
O O5 0.562306 0.080293 0.450125
O O6 0.302119 0.143101 0.423888
O O7 0.427216 0.136435 0.604756
O O8 0.312416 0.037766 0.530249
O O9 0.480785 0.250000 0.842680
O O10 0.693820 0.328718 0.797564
O O11 0.419809 0.367249 0.807287
O O12 0.560924 0.337286 0.971603
O O13 0.810577 0.959323 0.111462
O O14 0.650431 0.250000 0.104049
O O15 0.777705 0.049429 0.793078
#
# Coordination Sequence:
#
# PCOD8253744 Si02
#       7
#     8   8   8   8   8   8   8
#     4  12  25  41  65  96 132 169 217 276 333 396
#     4  10  21  38  61  93 130 170 212 261 330 396
#     4  10  21  36  59  88 125 170 212 253 309 387
#     4  11  22  39  64  97 136 166 208 275 339 396
#     4  10  23  44  65  88 125 176 224 269 324 385
#     4  12  24  37  63  99 128 172 219 271 335 401
#     4  11  20  35  56  91 130 163 205 258 317 389
#
# _framework density 22.089051999999999
#
# number of rings (size 3 to 8) (size 9 to 14) (size 15 to 20)
#    0.000    1.143    2.857    4.286    4.000    0.571 
#    0.000    1.429    0.000    0.000    0.000    0.000 
#    0.000    0.000    0.000    0.000    0.000    0.000 
#
# Total GULP energy -693886.191167 kJ/mol
# GULP energy per Si atom -12390.824842 kJ/mol
# Density = 2.203878 g / cm^3
# Si number density = 22.089052 Si / 1000 Ang^3
#
#
#
# Elastic Constant Matrix: (Units=GPa)
#
#
# Indices 1 2 3 4 5 6 
#
# 1 111.2391 51.6775 27.6971 0.0000 0.0000 0.0000
# 2 51.6775 102.7012 15.4579 0.0000 0.0000 0.0000
# 3 27.6971 15.4579 42.0728 0.0000 0.0000 0.0000
# 4 0.0000 0.0000 0.0000 27.1550 0.0000 0.0000
# 5 0.0000 0.0000 0.0000 0.0000 19.7674 0.0000
# 6 0.0000 0.0000 0.0000 0.0000 0.0000 31.5402
#
#
#
# Elastic Compliance Matrix: (Units=1/GPa)
#
#
# Indices 1 2 3 4 5 6 
#
# 1 0.013288 -0.005684 -0.006660 0.000000 0.000000 0.000000
# 2 -0.005684 0.012738 -0.000938 0.000000 0.000000 0.000000
# 3 -0.006660 -0.000938 0.028497 0.000000 0.000000 0.000000
# 4 0.000000 0.000000 0.000000 0.036826 0.000000 0.000000
# 5 0.000000 0.000000 0.000000 0.000000 0.050588 0.000000
# 6 0.000000 0.000000 0.000000 0.000000 0.000000 0.031706
#
#
# Mechanical properties :
#
#
# Convention : Reuss Voigt Hill
#
# Bulk Modulus (GPa) = 35.76531 49.51979 42.64255
# Shear Modulus (GPa) = 23.86325 26.43791 25.15058
#
# Velocity S-wave (km/s) = 3.29039 3.46335 3.37797
# Velocity P-wave (km/s) = 5.53734 6.20161 5.87886
#
# Compressibility (1/GPa) = 0.02796006
#
# Stress axis : x y z
#
# Youngs Moduli (GPa) = 75.25348 78.50299 35.09124
#
# Poissons Ratio (x) = 0.44622 0.23369
# Poissons Ratio (y) = 0.42775 0.03292
# Poissons Ratio (z) = 0.50115 0.07365
#
# Static dielectric constant tensor:
#      x y z
#    x 3.968700 0.000000 0.000000 
#    y 0.000000 3.806860 0.000000 
#    z 0.000000 0.000000 3.928060 
# 
# 
# High freq. dielectric constant tensor:
#      x y z
#    x 1.869230 0.000000 0.000000 
#    y 0.000000 1.844710 0.000000 
#    z 0.000000 0.000000 1.865580 
# 
# From -- ./inp_files/17194.got.cif
#   From: 2010.03.12/outbox.cif.g09.slc.cpg/sg62_9_cif.got.tgz:17194.got - 2010.04.10 19:12:36.
