data_PCOD8253023
_publ_section_title
;
Structure prediction by ZEFSAII (Michael W. Deem and Ramdas Pophale) SiO2 
 PCOD8253023
Probable space group: P N M A
;
_chemical_formula_sum "Si O2"
_cell_formula_units_Z 64
_cell_length_a 19.365648
_cell_length_b 8.994200
_cell_length_c 19.723677
_cell_angle_alpha 90.000000
_cell_angle_beta 90.000000
_cell_angle_gamma 90.000000
_cell_volume 3435.440696
_symmetry_space_group_name_H-M "P N M A"
_symmetry_group_IT_number 62
_symmetry_cell_setting 'orthorhombic'
loop_
_space_group_symop_operation_xyz
x,y,z
1/2-x,-y,1/2+z
1/2+x,1/2-y,1/2-z
-x,1/2+y,-z
-x,-y,-z
1/2+x,y,1/2-z
1/2-x,1/2+y,1/2+z
x,1/2-y,z
loop_
_atom_site_type_symbol
_atom_site_label
_atom_site_fract_x
_atom_site_fract_y
_atom_site_fract_z
Si Si1 0.778772 0.424096 0.640174
Si Si2 0.407559 0.080150 0.688654
Si Si3 0.248006 0.083000 0.708209
Si Si4 0.314309 0.075661 0.090642
Si Si5 0.530475 0.922890 0.935108
Si Si6 0.437251 0.074754 0.538426
Si Si7 0.919398 0.924024 0.674623
Si Si8 0.788096 0.426447 0.013709
O O1 0.785662 0.250000 0.623660
O O2 0.742742 0.452621 0.712293
O O3 0.855450 0.491197 0.640329
O O4 0.730605 0.502800 0.585614
O O5 0.427634 0.250000 0.705628
O O6 0.325638 0.065438 0.681651
O O7 0.440239 0.027300 0.617523
O O8 0.435286 0.976806 0.748954
O O9 0.221822 0.250000 0.693486
O O10 0.200809 0.965287 0.668750
O O11 0.303437 0.250000 0.078796
O O12 0.391605 0.023290 0.075254
O O13 0.263998 0.983635 0.042913
O O14 0.527585 0.750000 0.949535
O O15 0.486934 0.963717 0.868470
O O16 0.500000 0.000000 0.000000
O O17 0.444627 0.250000 0.531903
O O18 0.365366 0.022268 0.505103
O O19 0.500000 0.000000 0.500000
O O20 0.902313 0.750000 0.675030
O O21 0.781752 0.250000 0.017906
#
# Coordination Sequence:
#
# PCOD8253023 Si02
#       8
#     8   8   8   8   8   8   8   8
#     4  10  21  37  58  86 118 149 189 237 281 335
#     4   9  18  37  60  82 112 148 188 234 281 336
#     4   9  18  36  58  80 111 145 183 229 280 331
#     4  11  22  36  58  85 114 148 190 236 281 336
#     4  10  23  39  54  80 116 150 188 234 281 334
#     4  10  22  40  60  83 114 148 188 237 289 344
#     4  10  20  36  58  85 116 153 195 235 283 340
#     4  11  22  39  60  85 116 149 187 234 288 339
#
# _framework density 18.629342000000001
#
# number of rings (size 3 to 8) (size 9 to 14) (size 15 to 20)
#    0.000    2.000    1.250    3.000    0.000    8.000 
#    2.250    0.000    0.000    0.000    0.000    0.000 
#    0.000    0.000    0.000    0.000    0.000    0.000 
#
# Total GULP energy -793757.930497 kJ/mol
# GULP energy per Si atom -12402.467664 kJ/mol
# Density = 1.858694 g / cm^3
# Si number density = 18.629342 Si / 1000 Ang^3
#
#
#
# Elastic Constant Matrix: (Units=GPa)
#
#
# Indices 1 2 3 4 5 6 
#
# 1 133.0102 57.5545 83.7435 0.0000 0.0000 0.0000
# 2 57.5545 77.1785 59.5406 0.0000 0.0000 0.0000
# 3 83.7435 59.5406 136.2898 0.0000 0.0000 0.0000
# 4 0.0000 0.0000 0.0000 39.8143 0.0000 0.0000
# 5 0.0000 0.0000 0.0000 0.0000 30.6594 0.0000
# 6 0.0000 0.0000 0.0000 0.0000 0.0000 29.0612
#
#
#
# Elastic Compliance Matrix: (Units=1/GPa)
#
#
# Indices 1 2 3 4 5 6 
#
# 1 0.013706 -0.005617 -0.005968 0.000000 0.000000 0.000000
# 2 -0.005617 0.021846 -0.006092 0.000000 0.000000 0.000000
# 3 -0.005968 -0.006092 0.013666 0.000000 0.000000 0.000000
# 4 0.000000 0.000000 0.000000 0.025117 0.000000 0.000000
# 5 0.000000 0.000000 0.000000 0.000000 0.032616 0.000000
# 6 0.000000 0.000000 0.000000 0.000000 0.000000 0.034410
#
#
# Mechanical properties :
#
#
# Convention : Reuss Voigt Hill
#
# Bulk Modulus (GPa) = 72.13304 83.12842 77.63073
# Shear Modulus (GPa) = 27.57304 29.61630 28.59467
#
# Velocity S-wave (km/s) = 3.85136 3.99151 3.92206
# Velocity P-wave (km/s) = 7.65386 8.12170 7.89125
#
# Compressibility (1/GPa) = 0.01386327
#
# Stress axis : x y z
#
# Youngs Moduli (GPa) = 72.95982 45.77525 73.17558
#
# Poissons Ratio (x) = 0.25713 0.43670
# Poissons Ratio (y) = 0.40983 0.44581
# Poissons Ratio (z) = 0.43541 0.27888
#
# Static dielectric constant tensor:
#      x y z
#    x 3.403090 0.000000 0.000000 
#    y 0.000000 3.447780 0.000000 
#    z 0.000000 0.000000 3.610150 
# 
# 
# High freq. dielectric constant tensor:
#      x y z
#    x 1.711680 0.000000 0.000000 
#    y 0.000000 1.726920 0.000000 
#    z 0.000000 0.000000 1.738260 
# 
# From -- ./inp_files/27636.got.cif
#   From: 2010.03.12/outbox.cif.g09.slc.cpg/sg62_14_cif.got.tgz:27636.got - 2010.04.10 19:12:36.
