data_PCOD8253300
_publ_section_title
;
Structure prediction by ZEFSAII (Michael W. Deem and Ramdas Pophale) SiO2 
 PCOD8253300
Probable space group: P N M A
;
_chemical_formula_sum "Si O2"
_cell_formula_units_Z 48
_cell_length_a 11.737026
_cell_length_b 8.615791
_cell_length_c 23.450633
_cell_angle_alpha 90.000000
_cell_angle_beta 90.000000
_cell_angle_gamma 90.000000
_cell_volume 2371.416253
_symmetry_space_group_name_H-M "P N M A"
_symmetry_group_IT_number 62
_symmetry_cell_setting 'orthorhombic'
loop_
_space_group_symop_operation_xyz
x,y,z
1/2-x,-y,1/2+z
1/2+x,1/2-y,1/2-z
-x,1/2+y,-z
-x,-y,-z
1/2+x,y,1/2-z
1/2-x,1/2+y,1/2+z
x,1/2-y,z
loop_
_atom_site_type_symbol
_atom_site_label
_atom_site_fract_x
_atom_site_fract_y
_atom_site_fract_z
Si Si1 0.789418 0.431461 0.080566
Si Si2 0.987797 0.070063 0.869304
Si Si3 0.365807 0.070375 0.142490
Si Si4 0.607449 0.570166 0.157500
Si Si5 0.341981 0.570379 0.724586
Si Si6 0.283422 0.430966 0.549603
O O1 0.816370 0.250000 0.084554
O O2 0.668035 0.470067 0.108312
O O3 0.884857 0.524882 0.114690
O O4 0.787959 0.487785 0.015320
O O5 0.981817 0.250000 0.853218
O O6 0.905282 0.030406 0.922289
O O7 0.950830 0.973545 0.813801
O O8 0.400088 0.250000 0.142630
O O9 0.272745 0.031730 0.190484
O O10 0.474443 0.968012 0.157240
O O11 0.316405 0.025754 0.080729
O O12 0.626552 0.750000 0.144542
O O13 0.661429 0.530301 0.218483
O O14 0.351385 0.750000 0.741298
O O15 0.253564 0.250000 0.554291
#
# Coordination Sequence:
#
# PCOD8253300 Si02
#       6
#     8   8   8   8   8   8
#     4  11  23  39  60  89 125 162 203 249 298 356
#     4  10  20  37  62  93 124 157 200 249 302 355
#     4  10  22  41  65  89 117 156 200 247 303 363
#     4  12  26  41  60  87 121 160 203 251 301 358
#     4  10  22  41  64  88 118 156 199 246 301 362
#     4   9  20  39  63  90 122 160 201 248 300 356
#
# _framework density 20.241069
#
# number of rings (size 3 to 8) (size 9 to 14) (size 15 to 20)
#    0.000    1.667    0.000    4.000    2.333    4.667 
#    0.000    0.000    0.000    0.000    0.000    0.000 
#    0.000    0.000    0.000    0.000    0.000    0.000 
#
# Total GULP energy -595567.107381 kJ/mol
# GULP energy per Si atom -12407.648070 kJ/mol
# Density = 2.019500 g / cm^3
# Si number density = 20.241069 Si / 1000 Ang^3
#
#
#
# Elastic Constant Matrix: (Units=GPa)
#
#
# Indices 1 2 3 4 5 6 
#
# 1 87.3942 22.3036 25.4764 0.0000 0.0000 0.0000
# 2 22.3036 52.4777 23.9500 0.0000 0.0000 0.0000
# 3 25.4764 23.9500 74.3414 0.0000 0.0000 0.0000
# 4 0.0000 0.0000 0.0000 33.9128 0.0000 0.0000
# 5 0.0000 0.0000 0.0000 0.0000 21.0513 0.0000
# 6 0.0000 0.0000 0.0000 0.0000 0.0000 35.5521
#
#
#
# Elastic Compliance Matrix: (Units=1/GPa)
#
#
# Indices 1 2 3 4 5 6 
#
# 1 0.013473 -0.004243 -0.003250 0.000000 0.000000 0.000000
# 2 -0.004243 0.023676 -0.006174 0.000000 0.000000 0.000000
# 3 -0.003250 -0.006174 0.016554 0.000000 0.000000 0.000000
# 4 0.000000 0.000000 0.000000 0.029487 0.000000 0.000000
# 5 0.000000 0.000000 0.000000 0.000000 0.047503 0.000000
# 6 0.000000 0.000000 0.000000 0.000000 0.000000 0.028128
#
#
# Mechanical properties :
#
#
# Convention : Reuss Voigt Hill
#
# Bulk Modulus (GPa) = 37.92164 39.74149 38.83156
# Shear Modulus (GPa) = 25.64829 27.60212 26.62521
#
# Velocity S-wave (km/s) = 3.56355 3.69680 3.63079
# Velocity P-wave (km/s) = 5.97558 6.15617 6.06655
#
# Compressibility (1/GPa) = 0.02637017
#
# Stress axis : x y z
#
# Youngs Moduli (GPa) = 74.22461 42.23598 60.40764
#
# Poissons Ratio (x) = 0.17919 0.19633
# Poissons Ratio (y) = 0.31491 0.37294
# Poissons Ratio (z) = 0.24124 0.26075
#
# Static dielectric constant tensor:
#      x y z
#    x 3.585940 0.000000 0.000000 
#    y 0.000000 3.634450 0.000000 
#    z 0.000000 0.000000 3.739120 
# 
# 
# High freq. dielectric constant tensor:
#      x y z
#    x 1.791430 0.000000 0.000000 
#    y 0.000000 1.797130 0.000000 
#    z 0.000000 0.000000 1.795780 
# 
# From -- ./inp_files/29277.got.cif
#   From: 2010.03.12/outbox.cif.g09.slc.cpg/sg62_15_cif.got.tgz:29277.got - 2010.04.10 19:12:36.
