data_PCOD8253686
_publ_section_title
;
Structure prediction by ZEFSAII (Michael W. Deem and Ramdas Pophale) SiO2 
 PCOD8253686
Probable space group: P N M A
;
_chemical_formula_sum "Si O2"
_cell_formula_units_Z 56
_cell_length_a 23.606617
_cell_length_b 9.075017
_cell_length_c 13.599797
_cell_angle_alpha 90.000000
_cell_angle_beta 90.000000
_cell_angle_gamma 90.000000
_cell_volume 2913.490639
_symmetry_space_group_name_H-M "P N M A"
_symmetry_group_IT_number 62
_symmetry_cell_setting 'orthorhombic'
loop_
_space_group_symop_operation_xyz
x,y,z
1/2-x,-y,1/2+z
1/2+x,1/2-y,1/2-z
-x,1/2+y,-z
-x,-y,-z
1/2+x,y,1/2-z
1/2-x,1/2+y,1/2+z
x,1/2-y,z
loop_
_atom_site_type_symbol
_atom_site_label
_atom_site_fract_x
_atom_site_fract_y
_atom_site_fract_z
Si Si1 0.117754 0.582959 0.720732
Si Si2 0.660959 0.419539 0.291363
Si Si3 0.273942 0.422396 0.098507
Si Si4 0.933366 0.077344 0.902504
Si Si5 0.063209 0.422230 0.897358
Si Si6 0.058079 0.919554 0.519578
Si Si7 0.335866 0.921020 0.933723
O O1 0.118407 0.750000 0.760931
O O2 0.179244 0.536585 0.680256
O O3 0.102044 0.473479 0.807866
O O4 0.071820 0.566529 0.634562
O O5 0.644579 0.250000 0.308792
O O6 0.712756 0.467129 0.361009
O O7 0.606284 0.517273 0.315746
O O8 0.680249 0.445519 0.179611
O O9 0.278830 0.250000 0.073267
O O10 0.284856 0.513188 0.998888
O O11 0.924617 0.250000 0.913903
O O12 0.997937 0.037115 0.874981
O O13 0.915508 0.002094 0.004499
O O14 0.071599 0.250000 0.913451
O O15 0.053616 0.750000 0.486986
O O16 0.105960 0.995199 0.454246
O O17 0.000000 0.000000 0.500000
O O18 0.343846 0.750000 0.959600
#
# Coordination Sequence:
#
# PCOD8253686 Si02
#       7
#     8   8   8   8   8   8   8
#     4   9  19  35  56  80 110 149 187 230 285 340
#     4  10  22  39  60  84 115 153 193 238 291 345
#     4   9  20  40  59  81 114 151 192 239 285 336
#     4  10  22  38  56  82 113 147 189 236 286 341
#     4  10  21  37  57  83 114 148 187 235 285 342
#     4  10  21  36  55  82 115 151 189 234 287 344
#     4  10  21  37  57  85 117 151 191 237 286 342
#
# _framework density 19.220929000000002
#
# number of rings (size 3 to 8) (size 9 to 14) (size 15 to 20)
#    0.000    2.286    0.000    2.571    2.000    7.429 
#    0.000    1.429    0.000    0.000    0.000    0.000 
#    0.000    0.000    0.000    0.000    0.000    0.000 
#
# Total GULP energy -694635.370477 kJ/mol
# GULP energy per Si atom -12404.203044 kJ/mol
# Density = 1.917718 g / cm^3
# Si number density = 19.220929 Si / 1000 Ang^3
#
#
#
# Elastic Constant Matrix: (Units=GPa)
#
#
# Indices 1 2 3 4 5 6 
#
# 1 62.1668 34.5413 32.1530 0.0000 0.0000 0.0000
# 2 34.5413 97.4822 49.2087 0.0000 0.0000 0.0000
# 3 32.1530 49.2087 90.5102 0.0000 0.0000 0.0000
# 4 0.0000 0.0000 0.0000 38.2322 0.0000 0.0000
# 5 0.0000 0.0000 0.0000 0.0000 24.9353 0.0000
# 6 0.0000 0.0000 0.0000 0.0000 0.0000 29.6187
#
#
#
# Elastic Compliance Matrix: (Units=1/GPa)
#
#
# Indices 1 2 3 4 5 6 
#
# 1 0.021446 -0.005173 -0.004806 0.000000 0.000000 0.000000
# 2 -0.005173 0.015386 -0.006528 0.000000 0.000000 0.000000
# 3 -0.004806 -0.006528 0.016305 0.000000 0.000000 0.000000
# 4 0.000000 0.000000 0.000000 0.026156 0.000000 0.000000
# 5 0.000000 0.000000 0.000000 0.000000 0.040104 0.000000
# 6 0.000000 0.000000 0.000000 0.000000 0.000000 0.033762
#
#
# Mechanical properties :
#
#
# Convention : Reuss Voigt Hill
#
# Bulk Modulus (GPa) = 49.69270 53.55167 51.62219
# Shear Modulus (GPa) = 25.92289 27.50765 26.71527
#
# Velocity S-wave (km/s) = 3.67642 3.78713 3.73219
# Velocity P-wave (km/s) = 6.62805 6.85892 6.74447
#
# Compressibility (1/GPa) = 0.02012368
#
# Stress axis : x y z
#
# Youngs Moduli (GPa) = 46.62958 64.99273 61.33190
#
# Poissons Ratio (x) = 0.33620 0.29476
# Poissons Ratio (y) = 0.24121 0.40035
# Poissons Ratio (z) = 0.22410 0.42425
#
# Static dielectric constant tensor:
#      x y z
#    x 3.583320 0.000000 0.000000 
#    y 0.000000 3.549490 0.000000 
#    z 0.000000 0.000000 3.452930 
# 
# 
# High freq. dielectric constant tensor:
#      x y z
#    x 1.745340 0.000000 0.000000 
#    y 0.000000 1.753920 0.000000 
#    z 0.000000 0.000000 1.747140 
# 
# From -- ./inp_files/20322.got.cif
#   From: 2010.03.12/outbox.cif.g09.slc.cpg/sg62_11_cif.got.tgz:20322.got - 2010.04.10 19:12:36.
