data_PCOD8253693
_publ_section_title
;
Structure prediction by ZEFSAII (Michael W. Deem and Ramdas Pophale) SiO2 
 PCOD8253693
Probable space group: P N M A
;
_chemical_formula_sum "Si O2"
_cell_formula_units_Z 48
_cell_length_a 11.882902
_cell_length_b 9.152460
_cell_length_c 23.393178
_cell_angle_alpha 90.000000
_cell_angle_beta 90.000000
_cell_angle_gamma 90.000000
_cell_volume 2544.190229
_symmetry_space_group_name_H-M "P N M A"
_symmetry_group_IT_number 62
_symmetry_cell_setting 'orthorhombic'
loop_
_space_group_symop_operation_xyz
x,y,z
1/2-x,-y,1/2+z
1/2+x,1/2-y,1/2-z
-x,1/2+y,-z
-x,-y,-z
1/2+x,y,1/2-z
1/2-x,1/2+y,1/2+z
x,1/2-y,z
loop_
_atom_site_type_symbol
_atom_site_label
_atom_site_fract_x
_atom_site_fract_y
_atom_site_fract_z
Si Si1 0.338085 0.581518 0.848939
Si Si2 0.511765 0.081543 0.617115
Si Si3 0.265263 0.420644 0.581798
Si Si4 0.661508 0.422111 0.722536
Si Si5 0.685842 0.919386 0.545659
Si Si6 0.401989 0.078687 0.161497
O O1 0.316434 0.750000 0.832472
O O2 0.279921 0.480157 0.801516
O O3 0.287961 0.545678 0.911311
O O4 0.468616 0.542874 0.850665
O O5 0.536250 0.250000 0.605076
O O6 0.379421 0.047735 0.617085
O O7 0.561722 0.035304 0.678600
O O8 0.571785 0.996523 0.565835
O O9 0.232916 0.250000 0.584739
O O10 0.279399 0.475158 0.516817
O O11 0.166547 0.516797 0.608083
O O12 0.671224 0.250000 0.732702
O O13 0.637040 0.499021 0.781678
O O14 0.656491 0.750000 0.542924
O O15 0.379664 0.250000 0.167950
#
# Coordination Sequence:
#
# PCOD8253693 Si02
#       6
#     8   8   8   8   8   8
#     4   9  20  39  58  80 111 147 187 229 279 334
#     4   9  19  35  56  84 113 143 182 231 281 332
#     4  10  21  36  55  84 117 148 186 229 278 332
#     4  10  21  37  58  81 108 143 185 233 283 334
#     4   9  18  35  59  83 112 149 186 229 277 330
#     4  11  24  38  54  80 112 148 189 232 277 332
#
# _framework density 18.866513999999999
#
# number of rings (size 3 to 8) (size 9 to 14) (size 15 to 20)
#    0.000    2.333    0.000    1.500    2.333    4.000 
#    0.000    0.000    0.000    0.000    0.000    0.000 
#    0.000    0.000    0.000    0.000    0.000    0.000 
#
# Total GULP energy -595380.732329 kJ/mol
# GULP energy per Si atom -12403.765257 kJ/mol
# Density = 1.882357 g / cm^3
# Si number density = 18.866514 Si / 1000 Ang^3
#
#
#
# Elastic Constant Matrix: (Units=GPa)
#
#
# Indices 1 2 3 4 5 6 
#
# 1 88.9620 34.5141 16.0166 0.0000 0.0000 0.0000
# 2 34.5141 60.7087 24.0516 0.0000 0.0000 0.0000
# 3 16.0166 24.0516 70.7424 0.0000 0.0000 0.0000
# 4 0.0000 0.0000 0.0000 31.7256 0.0000 0.0000
# 5 0.0000 0.0000 0.0000 0.0000 19.5408 0.0000
# 6 0.0000 0.0000 0.0000 0.0000 0.0000 30.1801
#
#
#
# Elastic Compliance Matrix: (Units=1/GPa)
#
#
# Indices 1 2 3 4 5 6 
#
# 1 0.014440 -0.007991 -0.000553 0.000000 0.000000 0.000000
# 2 -0.007991 0.023458 -0.006166 0.000000 0.000000 0.000000
# 3 -0.000553 -0.006166 0.016357 0.000000 0.000000 0.000000
# 4 0.000000 0.000000 0.000000 0.031520 0.000000 0.000000
# 5 0.000000 0.000000 0.000000 0.000000 0.051175 0.000000
# 6 0.000000 0.000000 0.000000 0.000000 0.000000 0.033134
#
#
# Mechanical properties :
#
#
# Convention : Reuss Voigt Hill
#
# Bulk Modulus (GPa) = 40.26344 41.06419 40.66381
# Shear Modulus (GPa) = 24.06351 26.01135 25.03743
#
# Velocity S-wave (km/s) = 3.57523 3.71712 3.64687
# Velocity P-wave (km/s) = 6.19924 6.34315 6.27161
#
# Compressibility (1/GPa) = 0.02483643
#
# Stress axis : x y z
#
# Youngs Moduli (GPa) = 69.25039 42.62950 61.13447
#
# Poissons Ratio (x) = 0.34064 0.03379
# Poissons Ratio (y) = 0.55336 0.37697
# Poissons Ratio (z) = 0.03827 0.26287
#
# Static dielectric constant tensor:
#      x y z
#    x 3.518510 0.000000 0.000000 
#    y 0.000000 3.458210 0.000000 
#    z 0.000000 0.000000 3.584900 
# 
# 
# High freq. dielectric constant tensor:
#      x y z
#    x 1.734030 0.000000 0.000000 
#    y 0.000000 1.732710 0.000000 
#    z 0.000000 0.000000 1.740030 
# 
# From -- ./inp_files/29252.got.cif
#   From: 2010.03.12/outbox.cif.g09.slc.cpg/sg62_15_cif.got.tgz:29252.got - 2010.04.10 19:12:36.
