data_PCOD8253606
_publ_section_title
;
Structure prediction by ZEFSAII (Michael W. Deem and Ramdas Pophale) SiO2 
 PCOD8253606
Probable space group: P N M A
;
_chemical_formula_sum "Si O2"
_cell_formula_units_Z 48
_cell_length_a 5.387557
_cell_length_b 25.000651
_cell_length_c 18.217636
_cell_angle_alpha 90.000000
_cell_angle_beta 90.000000
_cell_angle_gamma 90.000000
_cell_volume 2453.777704
_symmetry_space_group_name_H-M "P N M A"
_symmetry_group_IT_number 62
_symmetry_cell_setting 'orthorhombic'
loop_
_space_group_symop_operation_xyz
x,y,z
1/2-x,-y,1/2+z
1/2+x,1/2-y,1/2-z
-x,1/2+y,-z
-x,-y,-z
1/2+x,y,1/2-z
1/2-x,1/2+y,1/2+z
x,1/2-y,z
loop_
_atom_site_type_symbol
_atom_site_label
_atom_site_fract_x
_atom_site_fract_y
_atom_site_fract_z
Si Si1 0.800218 0.312213 0.706481
Si Si2 0.976572 0.539207 0.211979
Si Si3 0.783217 0.401858 0.594926
Si Si4 0.571818 0.424668 0.447221
Si Si5 0.500170 0.087928 0.288207
Si Si6 0.310901 0.967812 0.047709
O O1 0.545725 0.327891 0.747871
O O2 0.803568 0.250000 0.686479
O O3 0.803666 0.343306 0.629260
O O4 0.724604 0.562628 0.250012
O O5 0.953745 0.564441 0.128874
O O6 0.978989 0.475774 0.215833
O O7 0.762954 0.397799 0.505709
O O8 0.036106 0.436071 0.611146
O O9 0.536501 0.391322 0.372185
O O10 0.637830 0.485126 0.418945
O O11 0.317986 0.426369 0.492492
O O12 0.738350 0.110215 0.243115
O O13 0.500000 0.000000 0.000000
#
# Coordination Sequence:
#
# PCOD8253606 Si02
#       6
#     8   8   8   8   8   8
#     4  10  23  43  62  84 117 151 188 239 293 335
#     4  10  21  31  45  70 100 134 183 222 254 310
#     4  11  22  32  56  76 104 143 188 232 279 335
#     4  10  21  34  48  73 105 143 186 230 276 326
#     4  10  22  34  48  65 100 144 177 216 264 309
#     4   9  19  31  48  70 106 138 181 229 277 316
#
# _framework density 19.561672000000002
#
# number of rings (size 3 to 8) (size 9 to 14) (size 15 to 20)
#    0.000    2.000    0.000    4.000   16.333    0.000 
#    0.000    0.000    0.000    0.000    0.000    0.000 
#    0.000    1.333    0.000    0.000    0.000    0.000 
#
# Total GULP energy -594782.384524 kJ/mol
# GULP energy per Si atom -12391.299678 kJ/mol
# Density = 1.951715 g / cm^3
# Si number density = 19.561672 Si / 1000 Ang^3
#
#
#
# Elastic Constant Matrix: (Units=GPa)
#
#
# Indices 1 2 3 4 5 6 
#
# 1 128.2348 22.3762 51.7167 0.0000 0.0000 0.0000
# 2 22.3762 48.2594 29.0940 0.0000 0.0000 0.0000
# 3 51.7167 29.0940 120.9451 0.0000 0.0000 0.0000
# 4 0.0000 0.0000 0.0000 27.6396 0.0000 0.0000
# 5 0.0000 0.0000 0.0000 0.0000 33.6097 0.0000
# 6 0.0000 0.0000 0.0000 0.0000 0.0000 15.0161
#
#
#
# Elastic Compliance Matrix: (Units=1/GPa)
#
#
# Indices 1 2 3 4 5 6 
#
# 1 0.009641 -0.002321 -0.003564 0.000000 0.000000 0.000000
# 2 -0.002321 0.024795 -0.004972 0.000000 0.000000 0.000000
# 3 -0.003564 -0.004972 0.010988 0.000000 0.000000 0.000000
# 4 0.000000 0.000000 0.000000 0.036180 0.000000 0.000000
# 5 0.000000 0.000000 0.000000 0.000000 0.029753 0.000000
# 6 0.000000 0.000000 0.000000 0.000000 0.000000 0.066595
#
#
# Mechanical properties :
#
#
# Convention : Reuss Voigt Hill
#
# Bulk Modulus (GPa) = 42.17751 55.97924 49.07838
# Shear Modulus (GPa) = 24.08825 28.20325 26.14575
#
# Velocity S-wave (km/s) = 3.51294 3.80117 3.65989
# Velocity P-wave (km/s) = 6.16947 6.92417 6.55769
#
# Compressibility (1/GPa) = 0.02370932
#
# Stress axis : x y z
#
# Youngs Moduli (GPa) = 103.72800 40.33046 91.00679
#
# Poissons Ratio (x) = 0.09362 0.32434
# Poissons Ratio (y) = 0.24080 0.45248
# Poissons Ratio (z) = 0.36968 0.20052
#
# Static dielectric constant tensor:
#      x y z
#    x 3.931890 0.000000 0.000000 
#    y 0.000000 3.033160 0.000000 
#    z 0.000000 0.000000 3.639580 
# 
# 
# High freq. dielectric constant tensor:
#      x y z
#    x 1.795000 0.000000 0.000000 
#    y 0.000000 1.671230 0.000000 
#    z 0.000000 0.000000 1.772220 
# 
# From -- ./inp_files/21590.got.cif
#   From: 2010.03.12/outbox.cif.g09.slc.cpg/sg62_11_cif.got.tgz:21590.got - 2010.04.10 19:12:36.
