data_PCOD8253611
_publ_section_title
;
Structure prediction by ZEFSAII (Michael W. Deem and Ramdas Pophale) SiO2 
 PCOD8253611
Probable space group: P N M A
;
_chemical_formula_sum "Si O2"
_cell_formula_units_Z 64
_cell_length_a 13.089606
_cell_length_b 19.320286
_cell_length_c 13.159302
_cell_angle_alpha 90.000000
_cell_angle_beta 90.000000
_cell_angle_gamma 90.000000
_cell_volume 3327.920779
_symmetry_space_group_name_H-M "P N M A"
_symmetry_group_IT_number 62
_symmetry_cell_setting 'orthorhombic'
loop_
_space_group_symop_operation_xyz
x,y,z
1/2-x,-y,1/2+z
1/2+x,1/2-y,1/2-z
-x,1/2+y,-z
-x,-y,-z
1/2+x,y,1/2-z
1/2-x,1/2+y,1/2+z
x,1/2-y,z
loop_
_atom_site_type_symbol
_atom_site_label
_atom_site_fract_x
_atom_site_fract_y
_atom_site_fract_z
Si Si1 0.555170 0.824285 0.285994
Si Si2 0.618434 0.958939 0.205769
Si Si3 0.291603 0.536656 0.436552
Si Si4 0.902871 0.827534 0.039126
Si Si5 0.237053 0.674473 0.053290
Si Si6 0.925640 0.464686 0.233885
Si Si7 0.580899 0.671239 0.619057
Si Si8 0.719913 0.463693 0.875704
O O1 0.557613 0.750000 0.228879
O O2 0.558228 0.885726 0.203388
O O3 0.451323 0.831104 0.349139
O O4 0.646824 0.827848 0.365535
O O5 0.673141 0.974990 0.098553
O O6 0.716182 0.949462 0.275859
O O7 0.545036 0.018849 0.248151
O O8 0.311045 0.617592 0.459365
O O9 0.378939 0.505784 0.362516
O O10 0.296702 0.498128 0.543845
O O11 0.859909 0.750000 0.019071
O O12 0.985112 0.847340 0.952765
O O13 0.292178 0.750000 0.057372
O O14 0.315621 0.611645 0.078822
O O15 0.186817 0.663418 0.942458
O O16 0.915940 0.382460 0.213424
O O17 0.873269 0.487052 0.340964
O O18 0.570834 0.750000 0.660605
#
# Coordination Sequence:
#
# PCOD8253611 Si02
#       8
#     8   8   8   8   8   8   8   8
#     4   8  14  27  47  74 104 130 165 212 266 321
#     4  10  21  33  51  78 106 144 182 218 277 337
#     4  11  21  34  53  77 110 144 182 229 279 337
#     4   9  17  30  53  82 106 135 178 228 281 322
#     4   8  14  28  51  78 105 134 175 227 273 320
#     4  11  21  35  54  78 111 144 181 233 281 333
#     4   9  17  31  57  84 104 139 187 235 285 324
#     4  10  21  34  52  81 108 142 188 225 282 340
#
# _framework density 19.231228000000002
#
# number of rings (size 3 to 8) (size 9 to 14) (size 15 to 20)
#    0.000    2.500    2.500    2.250    0.000    2.000 
#    0.000    3.125    0.000    3.750    0.000    0.000 
#    0.000    0.000    0.000    0.000    0.000    0.000 
#
# Total GULP energy -792953.042197 kJ/mol
# GULP energy per Si atom -12389.891284 kJ/mol
# Density = 1.918746 g / cm^3
# Si number density = 19.231228 Si / 1000 Ang^3
#
#
#
# Elastic Constant Matrix: (Units=GPa)
#
#
# Indices 1 2 3 4 5 6 
#
# 1 42.0984 29.5107 12.0812 0.0000 0.0000 0.0000
# 2 29.5107 145.9674 29.3609 0.0000 0.0000 0.0000
# 3 12.0812 29.3609 34.5164 0.0000 0.0000 0.0000
# 4 0.0000 0.0000 0.0000 24.6287 0.0000 0.0000
# 5 0.0000 0.0000 0.0000 0.0000 18.7594 0.0000
# 6 0.0000 0.0000 0.0000 0.0000 0.0000 20.4755
#
#
#
# Elastic Compliance Matrix: (Units=1/GPa)
#
#
# Indices 1 2 3 4 5 6 
#
# 1 0.028726 -0.004566 -0.006170 0.000000 0.000000 0.000000
# 2 -0.004566 0.008991 -0.006050 0.000000 0.000000 0.000000
# 3 -0.006170 -0.006050 0.036277 0.000000 0.000000 0.000000
# 4 0.000000 0.000000 0.000000 0.040603 0.000000 0.000000
# 5 0.000000 0.000000 0.000000 0.000000 0.053307 0.000000
# 6 0.000000 0.000000 0.000000 0.000000 0.000000 0.048839
#
#
# Mechanical properties :
#
#
# Convention : Reuss Voigt Hill
#
# Bulk Modulus (GPa) = 24.73918 40.49864 32.61891
# Shear Modulus (GPa) = 18.95460 22.88136 20.91798
#
# Velocity S-wave (km/s) = 3.14286 3.45309 3.30162
# Velocity P-wave (km/s) = 5.10510 6.08301 5.61538
#
# Compressibility (1/GPa) = 0.04042171
#
# Stress axis : x y z
#
# Youngs Moduli (GPa) = 34.81227 111.22307 27.56542
#
# Poissons Ratio (x) = 0.50790 0.17007
# Poissons Ratio (y) = 0.15897 0.16676
# Poissons Ratio (z) = 0.21479 0.67287
#
# Static dielectric constant tensor:
#      x y z
#    x 3.227160 0.000000 0.000000 
#    y 0.000000 3.929470 0.000000 
#    z 0.000000 0.000000 3.271920 
# 
# 
# High freq. dielectric constant tensor:
#      x y z
#    x 1.708890 0.000000 0.000000 
#    y 0.000000 1.762980 0.000000 
#    z 0.000000 0.000000 1.710380 
# 
# From -- ./inp_files/19235.got.cif
#   From: 2010.03.12/outbox.cif.g09.slc.cpg/sg62_10_cif.got.tgz:19235.got - 2010.04.10 19:12:36.
