data_PCOD8253810
_publ_section_title
;
Structure prediction by ZEFSAII (Michael W. Deem and Ramdas Pophale) SiO2 
 PCOD8253810
Probable space group: P N M A
;
_chemical_formula_sum "Si O2"
_cell_formula_units_Z 64
_cell_length_a 14.301620
_cell_length_b 9.013776
_cell_length_c 24.656530
_cell_angle_alpha 90.000000
_cell_angle_beta 90.000000
_cell_angle_gamma 90.000000
_cell_volume 3178.512711
_symmetry_space_group_name_H-M "P N M A"
_symmetry_group_IT_number 62
_symmetry_cell_setting 'orthorhombic'
loop_
_space_group_symop_operation_xyz
x,y,z
1/2-x,-y,1/2+z
1/2+x,1/2-y,1/2-z
-x,1/2+y,-z
-x,-y,-z
1/2+x,y,1/2-z
1/2-x,1/2+y,1/2+z
x,1/2-y,z
loop_
_atom_site_type_symbol
_atom_site_label
_atom_site_fract_x
_atom_site_fract_y
_atom_site_fract_z
Si Si1 0.161664 0.919961 0.596339
Si Si2 0.281679 0.080116 0.521195
Si Si3 0.468200 0.919464 0.945872
Si Si4 0.958716 0.924723 0.947195
Si Si5 0.982189 0.078190 0.839137
Si Si6 0.226913 0.079994 0.403320
Si Si7 0.226401 0.574532 0.191874
Si Si8 0.318244 0.922031 0.302276
O O1 0.195351 0.750000 0.590615
O O2 0.049112 0.927690 0.600163
O O3 0.183122 0.015357 0.541667
O O4 0.211691 0.993300 0.647337
O O5 0.295457 0.250000 0.539680
O O6 0.292952 0.065675 0.456546
O O7 0.351624 0.975695 0.554959
O O8 0.445482 0.750000 0.962308
O O9 0.374735 0.987826 0.918636
O O10 0.500000 0.000000 0.000000
O O11 0.971127 0.750000 0.951886
O O12 0.006226 0.981516 0.892217
O O13 0.000000 0.000000 0.000000
O O14 0.978435 0.250000 0.856405
O O15 0.883664 0.030934 0.811801
O O16 0.069589 0.047811 0.798672
O O17 0.217317 0.250000 0.385234
O O18 0.273829 0.992466 0.355267
O O19 0.240459 0.750000 0.185189
O O20 0.266478 0.515546 0.249104
O O21 0.297362 0.750000 0.307319
#
# Coordination Sequence:
#
# PCOD8253810 Si02
#       8
#     8   8   8   8   8   8   8   8
#     4  11  22  36  59  90 120 154 202 253 300 357
#     4  11  21  36  59  86 120 159 199 245 304 365
#     4  10  21  37  57  86 123 161 202 247 303 364
#     4  12  24  37  57  88 123 159 204 248 305 366
#     4  10  21  40  63  87 121 159 200 250 306 361
#     4  10  22  39  59  86 122 162 200 247 308 367
#     4  10  22  41  64  87 119 161 204 250 302 361
#     4  10  23  41  62  90 119 157 207 254 300 356
#
# _framework density 20.135203000000001
#
# number of rings (size 3 to 8) (size 9 to 14) (size 15 to 20)
#    0.000    1.500    2.500    2.625    0.000    6.000 
#    0.000    1.250    0.000    0.000    0.000    0.000 
#    0.000    0.000    0.000    0.000    0.000    0.000 
#
# Total GULP energy -793476.500336 kJ/mol
# GULP energy per Si atom -12398.070318 kJ/mol
# Density = 2.008937 g / cm^3
# Si number density = 20.135203 Si / 1000 Ang^3
#
#
#
# Elastic Constant Matrix: (Units=GPa)
#
#
# Indices 1 2 3 4 5 6 
#
# 1 105.0096 34.6302 49.0798 0.0000 0.0000 0.0000
# 2 34.6302 82.0252 45.3794 0.0000 0.0000 0.0000
# 3 49.0798 45.3794 116.6387 0.0000 0.0000 0.0000
# 4 0.0000 0.0000 0.0000 33.2360 0.0000 0.0000
# 5 0.0000 0.0000 0.0000 0.0000 33.8208 0.0000
# 6 0.0000 0.0000 0.0000 0.0000 0.0000 25.5374
#
#
#
# Elastic Compliance Matrix: (Units=1/GPa)
#
#
# Indices 1 2 3 4 5 6 
#
# 1 0.012406 -0.002994 -0.004055 0.000000 0.000000 0.000000
# 2 -0.002994 0.016258 -0.005065 0.000000 0.000000 0.000000
# 3 -0.004055 -0.005065 0.012251 0.000000 0.000000 0.000000
# 4 0.000000 0.000000 0.000000 0.030088 0.000000 0.000000
# 5 0.000000 0.000000 0.000000 0.000000 0.029568 0.000000
# 6 0.000000 0.000000 0.000000 0.000000 0.000000 0.039158
#
#
# Mechanical properties :
#
#
# Convention : Reuss Voigt Hill
#
# Bulk Modulus (GPa) = 59.93518 62.42803 61.18160
# Shear Modulus (GPa) = 29.49524 30.15777 29.82651
#
# Velocity S-wave (km/s) = 3.83150 3.87429 3.85296
# Velocity P-wave (km/s) = 7.02886 7.14740 7.08837
#
# Compressibility (1/GPa) = 0.01668469
#
# Stress axis : x y z
#
# Youngs Moduli (GPa) = 80.60820 61.50898 81.62849
#
# Poissons Ratio (x) = 0.18416 0.33103
# Poissons Ratio (y) = 0.24134 0.41348
# Poissons Ratio (z) = 0.32689 0.31157
#
# Static dielectric constant tensor:
#      x y z
#    x 4.193580 0.000000 0.000000 
#    y 0.000000 3.607420 0.000000 
#    z 0.000000 0.000000 3.581950 
# 
# 
# High freq. dielectric constant tensor:
#      x y z
#    x 1.805920 0.000000 0.000000 
#    y 0.000000 1.779340 0.000000 
#    z 0.000000 0.000000 1.773360 
# 
# From -- ./inp_files/29928.got.cif
#   From: 2010.03.12/outbox.cif.g09.slc.cpg/sg62_15_cif.got.tgz:29928.got - 2010.04.10 19:12:36.
