data_PCOD8253580
_publ_section_title
;
Structure prediction by ZEFSAII (Michael W. Deem and Ramdas Pophale) SiO2 
 PCOD8253580
Probable space group: P N M A
;
_chemical_formula_sum "Si O2"
_cell_formula_units_Z 64
_cell_length_a 12.734508
_cell_length_b 16.770971
_cell_length_c 15.168595
_cell_angle_alpha 90.000000
_cell_angle_beta 90.000000
_cell_angle_gamma 90.000000
_cell_volume 3239.557811
_symmetry_space_group_name_H-M "P N M A"
_symmetry_group_IT_number 62
_symmetry_cell_setting 'orthorhombic'
loop_
_space_group_symop_operation_xyz
x,y,z
1/2-x,-y,1/2+z
1/2+x,1/2-y,1/2-z
-x,1/2+y,-z
-x,-y,-z
1/2+x,y,1/2-z
1/2-x,1/2+y,1/2+z
x,1/2-y,z
loop_
_atom_site_type_symbol
_atom_site_label
_atom_site_fract_x
_atom_site_fract_y
_atom_site_fract_z
Si Si1 0.590539 0.051029 0.890076
Si Si2 0.627807 0.157570 0.301698
Si Si3 0.548510 0.966981 0.712417
Si Si4 0.737240 0.658721 0.455683
Si Si5 0.517763 0.927396 0.434163
Si Si6 0.743461 0.405571 0.141697
Si Si7 0.863635 0.450700 0.560140
Si Si8 0.679107 0.342655 0.498854
O O1 0.672724 0.123974 0.891130
O O2 0.473139 0.086294 0.905021
O O3 0.600211 0.000825 0.800779
O O4 0.620898 0.989278 0.965399
O O5 0.594519 0.250000 0.305815
O O6 0.528117 0.107061 0.269458
O O7 0.718309 0.144083 0.229676
O O8 0.669758 0.128664 0.397057
O O9 0.637127 0.934751 0.646130
O O10 0.488915 0.039961 0.665273
O O11 0.719186 0.750000 0.429799
O O12 0.631642 0.609585 0.443675
O O13 0.772863 0.651489 0.557411
O O14 0.429793 0.860628 0.451671
O O15 0.500000 0.000000 0.500000
O O16 0.669538 0.483085 0.131954
O O17 0.774283 0.384440 0.550288
O O18 0.703404 0.250000 0.503234
#
# Coordination Sequence:
#
# PCOD8253580 Si02
#       8
#     8   8   8   8   8   8   8   8
#     4  10  23  39  64  88 122 165 217 252 298 371
#     4  11  24  38  59  98 133 158 197 256 320 371
#     4  12  23  38  66  92 123 163 208 260 307 371
#     4  11  24  42  64  91 125 164 208 261 316 371
#     4  12  21  40  65  93 118 163 214 248 309 376
#     4  11  21  39  66  90 127 162 204 251 310 380
#     4  10  20  41  62  92 119 169 215 245 299 383
#     4  11  22  39  63  95 130 158 201 263 317 363
#
# _framework density 19.755782
#
# number of rings (size 3 to 8) (size 9 to 14) (size 15 to 20)
#    0.000    1.000    5.000    2.250    1.750    2.500 
#    0.000    1.875    0.000    0.000    0.000    0.000 
#    0.000    0.000    0.000    0.000    0.000    0.000 
#
# Total GULP energy -793841.500219 kJ/mol
# GULP energy per Si atom -12403.773441 kJ/mol
# Density = 1.971082 g / cm^3
# Si number density = 19.755782 Si / 1000 Ang^3
#
#
#
# Elastic Constant Matrix: (Units=GPa)
#
#
# Indices 1 2 3 4 5 6 
#
# 1 120.7983 44.7121 11.8797 0.0000 0.0000 0.0000
# 2 44.7121 97.2046 31.5215 0.0000 0.0000 0.0000
# 3 11.8797 31.5215 61.6332 0.0000 0.0000 0.0000
# 4 0.0000 0.0000 0.0000 26.2088 0.0000 0.0000
# 5 0.0000 0.0000 0.0000 0.0000 32.3894 0.0000
# 6 0.0000 0.0000 0.0000 0.0000 0.0000 33.0983
#
#
#
# Elastic Compliance Matrix: (Units=1/GPa)
#
#
# Indices 1 2 3 4 5 6 
#
# 1 0.009990 -0.004760 0.000509 0.000000 0.000000 0.000000
# 2 -0.004760 0.014601 -0.006550 0.000000 0.000000 0.000000
# 3 0.000509 -0.006550 0.019477 0.000000 0.000000 0.000000
# 4 0.000000 0.000000 0.000000 0.038155 0.000000 0.000000
# 5 0.000000 0.000000 0.000000 0.000000 0.030874 0.000000
# 6 0.000000 0.000000 0.000000 0.000000 0.000000 0.030213
#
#
# Mechanical properties :
#
#
# Convention : Reuss Voigt Hill
#
# Bulk Modulus (GPa) = 44.51266 50.65140 47.58203
# Shear Modulus (GPa) = 29.00197 31.10750 30.05474
#
# Velocity S-wave (km/s) = 3.83564 3.97243 3.90463
# Velocity P-wave (km/s) = 6.49589 6.83628 6.66825
#
# Compressibility (1/GPa) = 0.02246552
#
# Stress axis : x y z
#
# Youngs Moduli (GPa) = 100.09824 68.48710 51.34300
#
# Poissons Ratio (x) = 0.32602 -0.02613
# Poissons Ratio (y) = 0.47650 0.33630
# Poissons Ratio (z) = -0.05095 0.44860
#
# Static dielectric constant tensor:
#      x y z
#    x 3.761590 0.000000 0.000000 
#    y 0.000000 3.531770 0.000000 
#    z 0.000000 0.000000 3.731690 
# 
# 
# High freq. dielectric constant tensor:
#      x y z
#    x 1.781690 0.000000 0.000000 
#    y 0.000000 1.756010 0.000000 
#    z 0.000000 0.000000 1.768690 
# 
# From -- ./inp_files/18298.got.cif
#   From: 2010.03.12/outbox.cif.g09.slc.cpg/sg62_10_cif.got.tgz:18298.got - 2010.04.10 19:12:36.
