data_PCOD8253871
_publ_section_title
;
Structure prediction by ZEFSAII (Michael W. Deem and Ramdas Pophale) SiO2 
 PCOD8253871
Probable space group: P N M A
;
_chemical_formula_sum "Si O2"
_cell_formula_units_Z 40
_cell_length_a 8.791762
_cell_length_b 8.960713
_cell_length_c 25.128095
_cell_angle_alpha 90.000000
_cell_angle_beta 90.000000
_cell_angle_gamma 90.000000
_cell_volume 1979.602784
_symmetry_space_group_name_H-M "P N M A"
_symmetry_group_IT_number 62
_symmetry_cell_setting 'orthorhombic'
loop_
_space_group_symop_operation_xyz
x,y,z
1/2-x,-y,1/2+z
1/2+x,1/2-y,1/2-z
-x,1/2+y,-z
-x,-y,-z
1/2+x,y,1/2-z
1/2-x,1/2+y,1/2+z
x,1/2-y,z
loop_
_atom_site_type_symbol
_atom_site_label
_atom_site_fract_x
_atom_site_fract_y
_atom_site_fract_z
Si Si1 0.331430 0.424054 0.709421
Si Si2 0.837983 0.925979 0.991638
Si Si3 0.172743 0.074838 0.816757
Si Si4 0.670774 0.426909 0.086234
Si Si5 0.166448 0.923982 0.614590
O O1 0.308937 0.250000 0.701052
O O2 0.503796 0.474059 0.700013
O O3 0.286573 0.469406 0.769275
O O4 0.217292 0.500171 0.668695
O O5 0.849900 0.750000 0.001498
O O6 0.783804 0.964025 0.932190
O O7 0.715211 0.994910 0.031377
O O8 0.000000 0.000000 0.000000
O O9 0.181676 0.250000 0.830410
O O10 0.214289 0.979024 0.868073
O O11 0.682796 0.250000 0.079186
O O12 0.501239 0.481721 0.099667
O O13 0.160782 0.750000 0.625341
#
# Coordination Sequence:
#
# PCOD8253871 Si02
#       5
#     8   8   8   8   8
#     4  10  21  37  60  86 114 149 191 235 283 338
#     4  11  23  40  61  86 116 151 190 236 286 341
#     4  10  21  38  59  86 116 150 191 236 285 339
#     4  11  23  39  59  85 115 151 192 235 283 338
#     4  10  23  40  58  83 116 151 190 234 285 340
#
# _framework density 20.206074000000001
#
# number of rings (size 3 to 8) (size 9 to 14) (size 15 to 20)
#    0.000    1.600    0.000    4.200    0.000    9.600 
#    0.000    0.000    0.000    0.000    0.000    0.000 
#    0.000    0.000    0.000    0.000    0.000    0.000 
#
# Total GULP energy -496251.545430 kJ/mol
# GULP energy per Si atom -12406.288636 kJ/mol
# Density = 2.016008 g / cm^3
# Si number density = 20.206074 Si / 1000 Ang^3
#
#
#
# Elastic Constant Matrix: (Units=GPa)
#
#
# Indices 1 2 3 4 5 6 
#
# 1 84.0567 19.3807 -6.3100 0.0000 0.0000 0.0000
# 2 19.3807 50.2103 23.6593 0.0000 0.0000 0.0000
# 3 -6.3100 23.6593 52.7940 0.0000 0.0000 0.0000
# 4 0.0000 0.0000 0.0000 36.5705 0.0000 0.0000
# 5 0.0000 0.0000 0.0000 0.0000 40.4844 0.0000
# 6 0.0000 0.0000 0.0000 0.0000 0.0000 34.8577
#
#
#
# Elastic Compliance Matrix: (Units=1/GPa)
#
#
# Indices 1 2 3 4 5 6 
#
# 1 0.014114 -0.007914 0.005234 0.000000 0.000000 0.000000
# 2 -0.007914 0.029685 -0.014249 0.000000 0.000000 0.000000
# 3 0.005234 -0.014249 0.025953 0.000000 0.000000 0.000000
# 4 0.000000 0.000000 0.000000 0.027344 0.000000 0.000000
# 5 0.000000 0.000000 0.000000 0.000000 0.024701 0.000000
# 6 0.000000 0.000000 0.000000 0.000000 0.000000 0.028688
#
#
# Mechanical properties :
#
#
# Convention : Reuss Voigt Hill
#
# Bulk Modulus (GPa) = 27.86054 28.94677 28.40366
# Shear Modulus (GPa) = 25.47000 32.40460 28.93730
#
# Velocity S-wave (km/s) = 3.55422 4.00897 3.78843
# Velocity P-wave (km/s) = 5.53728 5.98214 5.76400
#
# Compressibility (1/GPa) = 0.03589306
#
# Stress axis : x y z
#
# Youngs Moduli (GPa) = 70.84996 33.68674 38.53152
#
# Poissons Ratio (x) = 0.26660 -0.20166
# Poissons Ratio (y) = 0.56071 0.54904
# Poissons Ratio (z) = -0.37080 0.48001
#
# Static dielectric constant tensor:
#      x y z
#    x 3.879770 0.000000 0.000000 
#    y 0.000000 3.582120 0.000000 
#    z 0.000000 0.000000 3.817530 
# 
# 
# High freq. dielectric constant tensor:
#      x y z
#    x 1.807040 0.000000 0.000000 
#    y 0.000000 1.784240 0.000000 
#    z 0.000000 0.000000 1.802130 
# 
# From -- ./inp_files/28557.got.cif
#   From: 2010.03.12/outbox.cif.g09.slc.cpg/sg62_15_cif.got.tgz:28557.got - 2010.04.10 19:12:36.
