data_PCOD8253364
_publ_section_title
;
Structure prediction by ZEFSAII (Michael W. Deem and Ramdas Pophale) SiO2 
 PCOD8253364
Probable space group: P N M A
;
_chemical_formula_sum "Si O2"
_cell_formula_units_Z 48
_cell_length_a 15.246511
_cell_length_b 16.632084
_cell_length_c 9.297950
_cell_angle_alpha 90.000000
_cell_angle_beta 90.000000
_cell_angle_gamma 90.000000
_cell_volume 2357.785799
_symmetry_space_group_name_H-M "P N M A"
_symmetry_group_IT_number 62
_symmetry_cell_setting 'orthorhombic'
loop_
_space_group_symop_operation_xyz
x,y,z
1/2-x,-y,1/2+z
1/2+x,1/2-y,1/2-z
-x,1/2+y,-z
-x,-y,-z
1/2+x,y,1/2-z
1/2-x,1/2+y,1/2+z
x,1/2-y,z
loop_
_atom_site_type_symbol
_atom_site_label
_atom_site_fract_x
_atom_site_fract_y
_atom_site_fract_z
Si Si1 0.492316 0.656640 0.367111
Si Si2 0.663802 0.110218 0.106756
Si Si3 0.334604 0.841267 0.570331
Si Si4 0.188517 0.921342 0.398774
Si Si5 0.997765 0.588733 0.434268
Si Si6 0.690653 0.841224 0.391495
O O1 0.483401 0.750000 0.318137
O O2 0.425901 0.635309 0.495052
O O3 0.471062 0.596700 0.234115
O O4 0.589507 0.638796 0.428567
O O5 0.654705 0.150135 0.260739
O O6 0.670123 0.014948 0.114251
O O7 0.575607 0.138006 0.022486
O O8 0.751126 0.142286 0.030897
O O9 0.307934 0.750000 0.531786
O O10 0.259706 0.902357 0.519386
O O11 0.224051 0.892754 0.244148
O O12 0.097237 0.876281 0.443384
O O13 0.000000 0.500000 0.500000
O O14 0.701548 0.750000 0.343120
#
# Coordination Sequence:
#
# PCOD8253364 Si02
#       6
#     8   8   8   8   8   8
#     4   9  20  38  60  83 113 152 191 228 281 345
#     4  11  22  37  57  86 117 147 186 238 287 332
#     4  11  23  38  57  86 118 150 187 234 288 342
#     4  10  21  39  58  81 112 152 191 228 279 341
#     4   9  20  38  59  83 111 146 191 233 278 336
#     4  10  20  38  61  83 109 149 193 231 273 332
#
# _framework density 20.358084000000002
#
# number of rings (size 3 to 8) (size 9 to 14) (size 15 to 20)
#    0.000    2.000    0.000    3.000    0.000    6.000 
#    0.000   15.000    0.000    0.000    0.000    0.000 
#    0.000    0.000    0.000    0.000    0.000    0.000 
#
# Total GULP energy -595096.688846 kJ/mol
# GULP energy per Si atom -12397.847684 kJ/mol
# Density = 2.031175 g / cm^3
# Si number density = 20.358084 Si / 1000 Ang^3
#
#
#
# Elastic Constant Matrix: (Units=GPa)
#
#
# Indices 1 2 3 4 5 6 
#
# 1 122.4865 21.4648 75.4083 0.0000 0.0000 0.0000
# 2 21.4648 50.2047 19.6120 0.0000 0.0000 0.0000
# 3 75.4083 19.6120 140.8920 0.0000 0.0000 0.0000
# 4 0.0000 0.0000 0.0000 71.4274 0.0000 0.0000
# 5 0.0000 0.0000 0.0000 0.0000 39.8741 0.0000
# 6 0.0000 0.0000 0.0000 0.0000 0.0000 26.5041
#
#
#
# Elastic Compliance Matrix: (Units=1/GPa)
#
#
# Indices 1 2 3 4 5 6 
#
# 1 0.012564 -0.002903 -0.006320 0.000000 0.000000 0.000000
# 2 -0.002903 0.021734 -0.001472 0.000000 0.000000 0.000000
# 3 -0.006320 -0.001472 0.010685 0.000000 0.000000 0.000000
# 4 0.000000 0.000000 0.000000 0.014000 0.000000 0.000000
# 5 0.000000 0.000000 0.000000 0.000000 0.025079 0.000000
# 6 0.000000 0.000000 0.000000 0.000000 0.000000 0.037730
#
#
# Mechanical properties :
#
#
# Convention : Reuss Voigt Hill
#
# Bulk Modulus (GPa) = 42.38392 60.72814 51.55603
# Shear Modulus (GPa) = 33.10217 40.70099 36.90158
#
# Velocity S-wave (km/s) = 4.03674 4.47615 4.26211
# Velocity P-wave (km/s) = 6.52621 7.52392 7.04275
#
# Compressibility (1/GPa) = 0.02359385
#
# Stress axis : x y z
#
# Youngs Moduli (GPa) = 79.59246 46.00998 93.58598
#
# Poissons Ratio (x) = 0.13355 0.59151
# Poissons Ratio (y) = 0.23103 0.13774
# Poissons Ratio (z) = 0.50306 0.06772
#
# Static dielectric constant tensor:
#      x y z
#    x 4.177660 0.000000 0.000000 
#    y 0.000000 3.570320 0.000000 
#    z 0.000000 0.000000 3.604450 
# 
# 
# High freq. dielectric constant tensor:
#      x y z
#    x 1.813010 0.000000 0.000000 
#    y 0.000000 1.784350 0.000000 
#    z 0.000000 0.000000 1.790810 
# 
# From -- ./inp_files/6492.got.cif
#   From: 2010.03.12/outbox.cif.g09.slc.cpg/sg62_4_cif.got.tgz:6492.got - 2010.04.10 19:12:36.
