data_PCOD8253133
_publ_section_title
;
Structure prediction by ZEFSAII (Michael W. Deem and Ramdas Pophale) SiO2 
 PCOD8253133
Probable space group: P N M A
;
_chemical_formula_sum "Si O2"
_cell_formula_units_Z 64
_cell_length_a 14.257902
_cell_length_b 9.051997
_cell_length_c 24.936276
_cell_angle_alpha 90.000000
_cell_angle_beta 90.000000
_cell_angle_gamma 90.000000
_cell_volume 3218.337775
_symmetry_space_group_name_H-M "P N M A"
_symmetry_group_IT_number 62
_symmetry_cell_setting 'orthorhombic'
loop_
_space_group_symop_operation_xyz
x,y,z
1/2-x,-y,1/2+z
1/2+x,1/2-y,1/2-z
-x,1/2+y,-z
-x,-y,-z
1/2+x,y,1/2-z
1/2-x,1/2+y,1/2+z
x,1/2-y,z
loop_
_atom_site_type_symbol
_atom_site_label
_atom_site_fract_x
_atom_site_fract_y
_atom_site_fract_z
Si Si1 0.815100 0.922449 0.312007
Si Si2 0.902810 0.925313 0.515303
Si Si3 0.395481 0.579880 0.360921
Si Si4 0.642839 0.579889 0.235482
Si Si5 0.454440 0.077527 0.549986
Si Si6 0.747494 0.074843 0.927571
Si Si7 0.188687 0.579966 0.386758
Si Si8 0.956511 0.076015 0.242653
O O1 0.839280 0.750000 0.315376
O O2 0.736440 0.956152 0.268003
O O3 0.783996 0.985342 0.369685
O O4 0.909135 0.008268 0.295755
O O5 0.915238 0.750000 0.514722
O O6 0.825338 0.979017 0.472486
O O7 0.870080 0.975899 0.573978
O O8 0.000000 0.000000 0.500000
O O9 0.395233 0.750000 0.341296
O O10 0.484006 0.543742 0.397813
O O11 0.299583 0.546961 0.393215
O O12 0.399638 0.476771 0.309299
O O13 0.613865 0.750000 0.243667
O O14 0.658232 0.541690 0.173499
O O15 0.562950 0.478259 0.260619
O O16 0.450821 0.250000 0.537516
O O17 0.350638 0.011523 0.559240
O O18 0.500000 0.000000 0.500000
O O19 0.753402 0.250000 0.925319
O O20 0.166355 0.750000 0.400718
O O21 0.953280 0.250000 0.245991
#
# Coordination Sequence:
#
# PCOD8253133 Si02
#       8
#     8   8   8   8   8   8   8   8
#     4  10  20  41  67  88 114 158 209 251 296 356
#     4  11  24  41  60  86 121 161 207 255 305 362
#     4  10  20  39  64  90 120 160 206 244 293 369
#     4  10  21  39  64  88 117 159 206 250 296 366
#     4  10  20  36  62  92 121 152 194 242 295 359
#     4   9  20  38  61  87 116 155 200 244 295 358
#     4  10  21  39  63  90 117 154 205 253 299 358
#     4  12  25  37  56  90 127 157 194 249 312 368
#
# _framework density 19.886043000000001
#
# number of rings (size 3 to 8) (size 9 to 14) (size 15 to 20)
#    0.000    1.750    1.250    3.000    1.750    4.000 
#    0.000    1.875    0.000    0.000    0.000    0.000 
#    0.000    0.000    0.000    0.000    0.000    0.000 
#
# Total GULP energy -793901.858113 kJ/mol
# GULP energy per Si atom -12404.716533 kJ/mol
# Density = 1.984078 g / cm^3
# Si number density = 19.886043 Si / 1000 Ang^3
#
#
#
# Elastic Constant Matrix: (Units=GPa)
#
#
# Indices 1 2 3 4 5 6 
#
# 1 99.6767 32.7253 26.6080 0.0000 0.0000 0.0000
# 2 32.7253 65.5099 33.1403 0.0000 0.0000 0.0000
# 3 26.6080 33.1403 102.5875 0.0000 0.0000 0.0000
# 4 0.0000 0.0000 0.0000 31.7657 0.0000 0.0000
# 5 0.0000 0.0000 0.0000 0.0000 32.3713 0.0000
# 6 0.0000 0.0000 0.0000 0.0000 0.0000 25.2684
#
#
#
# Elastic Compliance Matrix: (Units=1/GPa)
#
#
# Indices 1 2 3 4 5 6 
#
# 1 0.012173 -0.005359 -0.001426 0.000000 0.000000 0.000000
# 2 -0.005359 0.020607 -0.005267 0.000000 0.000000 0.000000
# 3 -0.001426 -0.005267 0.011819 0.000000 0.000000 0.000000
# 4 0.000000 0.000000 0.000000 0.031481 0.000000 0.000000
# 5 0.000000 0.000000 0.000000 0.000000 0.030892 0.000000
# 6 0.000000 0.000000 0.000000 0.000000 0.000000 0.039575
#
#
# Mechanical properties :
#
#
# Convention : Reuss Voigt Hill
#
# Bulk Modulus (GPa) = 48.79477 50.30237 49.54857
# Shear Modulus (GPa) = 28.17206 29.56779 28.86992
#
# Velocity S-wave (km/s) = 3.76796 3.86017 3.81434
# Velocity P-wave (km/s) = 6.59700 6.72444 6.66103
#
# Compressibility (1/GPa) = 0.02049400
#
# Stress axis : x y z
#
# Youngs Moduli (GPa) = 82.15130 48.52832 84.60967
#
# Poissons Ratio (x) = 0.26009 0.12064
# Poissons Ratio (y) = 0.44029 0.44562
# Poissons Ratio (z) = 0.11714 0.25559
#
# Static dielectric constant tensor:
#      x y z
#    x 3.831880 0.000000 0.000000 
#    y 0.000000 3.393570 0.000000 
#    z 0.000000 0.000000 3.574090 
# 
# 
# High freq. dielectric constant tensor:
#      x y z
#    x 1.791970 0.000000 0.000000 
#    y 0.000000 1.748920 0.000000 
#    z 0.000000 0.000000 1.784460 
# 
# From -- ./inp_files/29884.got.cif
#   From: 2010.03.12/outbox.cif.g09.slc.cpg/sg62_15_cif.got.tgz:29884.got - 2010.04.10 19:12:36.
