data_PCOD8253141
_publ_section_title
;
Structure prediction by ZEFSAII (Michael W. Deem and Ramdas Pophale) SiO2 
 PCOD8253141
Probable space group: P N M A
;
_chemical_formula_sum "Si O2"
_cell_formula_units_Z 48
_cell_length_a 16.270181
_cell_length_b 10.829325
_cell_length_c 15.468339
_cell_angle_alpha 90.000000
_cell_angle_beta 90.000000
_cell_angle_gamma 90.000000
_cell_volume 2725.445194
_symmetry_space_group_name_H-M "P N M A"
_symmetry_group_IT_number 62
_symmetry_cell_setting 'orthorhombic'
loop_
_space_group_symop_operation_xyz
x,y,z
1/2-x,-y,1/2+z
1/2+x,1/2-y,1/2-z
-x,1/2+y,-z
-x,-y,-z
1/2+x,y,1/2-z
1/2-x,1/2+y,1/2+z
x,1/2-y,z
loop_
_atom_site_type_symbol
_atom_site_label
_atom_site_fract_x
_atom_site_fract_y
_atom_site_fract_z
Si Si1 0.997674 0.750000 0.830622
Si Si2 0.113414 0.511885 0.556347
Si Si3 0.216633 0.613300 0.095503
Si Si4 0.614871 0.750000 0.832100
Si Si5 0.147470 0.750000 0.947858
Si Si6 0.115543 0.043004 0.229966
Si Si7 0.453454 0.393727 0.884977
Si Si8 0.734090 0.250000 0.215411
O O1 0.054085 0.750000 0.747387
O O2 0.053567 0.750000 0.916280
O O3 0.941892 0.627726 0.830561
O O4 0.204020 0.466498 0.575390
O O5 0.093681 0.632473 0.611158
O O6 0.106936 0.544836 0.455336
O O7 0.047498 0.408079 0.583518
O O8 0.242941 0.750000 0.128831
O O9 0.164053 0.549329 0.168918
O O10 0.163345 0.628215 0.007004
O O11 0.709170 0.750000 0.800867
O O12 0.211865 0.750000 0.870073
O O13 0.177977 0.128066 0.284472
O O14 0.060319 0.962572 0.294455
O O15 0.433063 0.250000 0.873480
#
# Coordination Sequence:
#
# PCOD8253141 Si02
#       8
#     4   8   8   4   4   8   8   4
#     4  10  22  38  60  86 110 151 201 243 284 346
#     4  11  21  38  57  85 118 150 193 238 295 359
#     4  10  22  39  59  83 117 154 193 241 296 342
#     4  11  18  38  59  84 110 148 196 240 287 337
#     4   9  22  40  57  84 114 154 194 236 292 344
#     4  11  21  36  60  88 116 150 198 243 290 351
#     4  11  23  35  57  87 121 152 186 240 303 356
#     4  10  20  36  64  84 112 155 199 241 283 343
#
# _framework density 17.611801
#
# number of rings (size 3 to 8) (size 9 to 14) (size 15 to 20)
#    0.500    1.000    4.167    2.000    0.000    0.667 
#    1.500    0.000    0.000    0.000    0.000    0.000 
#    0.000    0.000    0.000    0.000    0.000    0.000 
#
# Total GULP energy -595224.019126 kJ/mol
# GULP energy per Si atom -12400.500398 kJ/mol
# Density = 1.757172 g / cm^3
# Si number density = 17.611801 Si / 1000 Ang^3
#
#
#
# Elastic Constant Matrix: (Units=GPa)
#
#
# Indices 1 2 3 4 5 6 
#
# 1 56.2194 25.6087 15.6917 0.0000 0.0000 0.0000
# 2 25.6087 90.8773 33.0464 0.0000 0.0000 0.0000
# 3 15.6917 33.0464 75.8071 0.0000 0.0000 0.0000
# 4 0.0000 0.0000 0.0000 18.7294 0.0000 0.0000
# 5 0.0000 0.0000 0.0000 0.0000 25.3447 0.0000
# 6 0.0000 0.0000 0.0000 0.0000 0.0000 25.1560
#
#
#
# Elastic Compliance Matrix: (Units=1/GPa)
#
#
# Indices 1 2 3 4 5 6 
#
# 1 0.020676 -0.005074 -0.002068 0.000000 0.000000 0.000000
# 2 -0.005074 0.014322 -0.005193 0.000000 0.000000 0.000000
# 3 -0.002068 -0.005193 0.015883 0.000000 0.000000 0.000000
# 4 0.000000 0.000000 0.000000 0.053392 0.000000 0.000000
# 5 0.000000 0.000000 0.000000 0.000000 0.039456 0.000000
# 6 0.000000 0.000000 0.000000 0.000000 0.000000 0.039752
#
#
# Mechanical properties :
#
#
# Convention : Reuss Voigt Hill
#
# Bulk Modulus (GPa) = 38.15202 41.28858 39.72030
# Shear Modulus (GPa) = 23.05327 23.74981 23.40154
#
# Velocity S-wave (km/s) = 3.62189 3.67620 3.64915
# Velocity P-wave (km/s) = 6.26104 6.44312 6.35273
#
# Compressibility (1/GPa) = 0.02621093
#
# Stress axis : x y z
#
# Youngs Moduli (GPa) = 48.36502 69.82166 62.95964
#
# Poissons Ratio (x) = 0.35431 0.13018
# Poissons Ratio (y) = 0.24543 0.32695
# Poissons Ratio (z) = 0.10001 0.36259
#
# Static dielectric constant tensor:
#      x y z
#    x 3.287200 0.000000 0.000000 
#    y 0.000000 3.239480 0.000000 
#    z 0.000000 0.000000 3.232470 
# 
# 
# High freq. dielectric constant tensor:
#      x y z
#    x 1.683040 0.000000 0.000000 
#    y 0.000000 1.686110 0.000000 
#    z 0.000000 0.000000 1.678390 
# 
# From -- ./inp_files/19769.got.cif
#   From: 2010.03.12/outbox.cif.g09.slc.cpg/sg62_10_cif.got.tgz:19769.got - 2010.04.10 19:12:36.
