data_PCOD8253575
_publ_section_title
;
Structure prediction by ZEFSAII (Michael W. Deem and Ramdas Pophale) SiO2 
 PCOD8253575
Probable space group: P N M A
;
_chemical_formula_sum "Si O2"
_cell_formula_units_Z 64
_cell_length_a 15.086879
_cell_length_b 9.003104
_cell_length_c 23.704393
_cell_angle_alpha 90.000000
_cell_angle_beta 90.000000
_cell_angle_gamma 90.000000
_cell_volume 3219.737850
_symmetry_space_group_name_H-M "P N M A"
_symmetry_group_IT_number 62
_symmetry_cell_setting 'orthorhombic'
loop_
_space_group_symop_operation_xyz
x,y,z
1/2-x,-y,1/2+z
1/2+x,1/2-y,1/2-z
-x,1/2+y,-z
-x,-y,-z
1/2+x,y,1/2-z
1/2-x,1/2+y,1/2+z
x,1/2-y,z
loop_
_atom_site_type_symbol
_atom_site_label
_atom_site_fract_x
_atom_site_fract_y
_atom_site_fract_z
Si Si1 0.143416 0.414029 0.118589
Si Si2 0.093073 0.576501 0.010319
Si Si3 0.247041 0.074606 0.430445
Si Si4 0.846434 0.084226 0.376882
Si Si5 0.407605 0.921180 0.741743
Si Si6 0.918556 0.576426 0.273491
Si Si7 0.227042 0.924180 0.800822
Si Si8 0.595489 0.575086 0.000885
O O1 0.121869 0.250000 0.093184
O O2 0.123629 0.540380 0.073469
O O3 0.243998 0.419738 0.138821
O O4 0.086473 0.442119 0.174461
O O5 0.079220 0.750000 0.003482
O O6 0.167921 0.520116 0.966551
O O7 0.000000 0.500000 0.000000
O O8 0.232001 0.250000 0.437231
O O9 0.264441 0.028658 0.366005
O O10 0.157611 0.993477 0.450653
O O11 0.884970 0.250000 0.366101
O O12 0.858295 0.038378 0.441606
O O13 0.893957 0.966822 0.337123
O O14 0.425184 0.750000 0.758669
O O15 0.314197 0.974867 0.767146
O O16 0.480558 0.027654 0.767504
O O17 0.909132 0.750000 0.265721
O O18 0.858282 0.500675 0.226115
O O19 0.211311 0.750000 0.794823
O O20 0.585359 0.750000 0.011666
O O21 0.500000 0.500000 0.000000
#
# Coordination Sequence:
#
# PCOD8253575 Si02
#       8
#     8   8   8   8   8   8   8   8
#     4  10  20  40  67  91 115 155 211 260 305 361
#     4  11  24  40  61  92 128 164 204 255 309 366
#     4  10  23  42  64  91 124 164 210 255 305 363
#     4  10  21  42  67  89 118 164 212 250 301 369
#     4  10  22  41  66  89 117 160 209 255 300 365
#     4  12  26  40  61  95 130 160 198 256 313 364
#     4  10  22  44  67  88 120 167 214 251 299 370
#     4  11  24  41  65  93 126 164 206 256 308 369
#
# _framework density 19.877393999999999
#
# number of rings (size 3 to 8) (size 9 to 14) (size 15 to 20)
#    0.000    1.500    2.500    1.875    3.500    3.500 
#    0.000    0.000    0.000    0.000    0.000    0.000 
#    0.000    0.000    0.000    0.000    0.000    0.000 
#
# Total GULP energy -793845.063394 kJ/mol
# GULP energy per Si atom -12403.829116 kJ/mol
# Density = 1.983215 g / cm^3
# Si number density = 19.877394 Si / 1000 Ang^3
#
#
#
# Elastic Constant Matrix: (Units=GPa)
#
#
# Indices 1 2 3 4 5 6 
#
# 1 85.7957 32.3000 17.8529 0.0000 0.0000 0.0000
# 2 32.3000 65.2948 27.1530 0.0000 0.0000 0.0000
# 3 17.8529 27.1530 86.9763 0.0000 0.0000 0.0000
# 4 0.0000 0.0000 0.0000 34.2709 0.0000 0.0000
# 5 0.0000 0.0000 0.0000 0.0000 26.2641 0.0000
# 6 0.0000 0.0000 0.0000 0.0000 0.0000 31.5611
#
#
#
# Elastic Compliance Matrix: (Units=1/GPa)
#
#
# Indices 1 2 3 4 5 6 
#
# 1 0.014376 -0.006762 -0.000840 0.000000 0.000000 0.000000
# 2 -0.006762 0.020781 -0.005100 0.000000 0.000000 0.000000
# 3 -0.000840 -0.005100 0.013262 0.000000 0.000000 0.000000
# 4 0.000000 0.000000 0.000000 0.029179 0.000000 0.000000
# 5 0.000000 0.000000 0.000000 0.000000 0.038075 0.000000
# 6 0.000000 0.000000 0.000000 0.000000 0.000000 0.031685
#
#
# Mechanical properties :
#
#
# Convention : Reuss Voigt Hill
#
# Bulk Modulus (GPa) = 43.44873 43.63098 43.53986
# Shear Modulus (GPa) = 27.71113 29.13662 28.42388
#
# Velocity S-wave (km/s) = 3.73782 3.83275 3.78558
# Velocity P-wave (km/s) = 6.36665 6.44859 6.40775
#
# Compressibility (1/GPa) = 0.02301563
#
# Stress axis : x y z
#
# Youngs Moduli (GPa) = 69.55935 48.12081 75.40472
#
# Poissons Ratio (x) = 0.32541 0.06332
# Poissons Ratio (y) = 0.47039 0.38453
# Poissons Ratio (z) = 0.05841 0.24539
#
# Static dielectric constant tensor:
#      x y z
#    x 3.689530 0.000000 0.000000 
#    y 0.000000 4.032550 0.000000 
#    z 0.000000 0.000000 3.825020 
# 
# 
# High freq. dielectric constant tensor:
#      x y z
#    x 1.783920 0.000000 0.000000 
#    y 0.000000 1.765300 0.000000 
#    z 0.000000 0.000000 1.786120 
# 
# From -- ./inp_files/29832.got.cif
#   From: 2010.03.12/outbox.cif.g09.slc.cpg/sg62_15_cif.got.tgz:29832.got - 2010.04.10 19:12:36.
