data_PCOD8253408
_publ_section_title
;
Structure prediction by ZEFSAII (Michael W. Deem and Ramdas Pophale) SiO2 
 PCOD8253408
Probable space group: P N M A
;
_chemical_formula_sum "Si O2"
_cell_formula_units_Z 56
_cell_length_a 14.830981
_cell_length_b 8.807121
_cell_length_c 21.169217
_cell_angle_alpha 90.000000
_cell_angle_beta 90.000000
_cell_angle_gamma 90.000000
_cell_volume 2765.085956
_symmetry_space_group_name_H-M "P N M A"
_symmetry_group_IT_number 62
_symmetry_cell_setting 'orthorhombic'
loop_
_space_group_symop_operation_xyz
x,y,z
1/2-x,-y,1/2+z
1/2+x,1/2-y,1/2-z
-x,1/2+y,-z
-x,-y,-z
1/2+x,y,1/2-z
1/2-x,1/2+y,1/2+z
x,1/2-y,z
loop_
_atom_site_type_symbol
_atom_site_label
_atom_site_fract_x
_atom_site_fract_y
_atom_site_fract_z
Si Si1 0.798768 0.576589 0.100618
Si Si2 0.516706 0.928833 0.568389
Si Si3 0.595952 0.571105 0.772990
Si Si4 0.529603 0.571226 0.905602
Si Si5 0.127843 0.925625 0.471995
Si Si6 0.548939 0.928666 0.311751
Si Si7 0.773002 0.426264 0.737403
O O1 0.834335 0.750000 0.101278
O O2 0.883003 0.465601 0.093576
O O3 0.733489 0.547326 0.040621
O O4 0.737808 0.543364 0.162580
O O5 0.503840 0.750000 0.563333
O O6 0.500000 0.000000 0.500000
O O7 0.443810 0.994032 0.618895
O O8 0.581167 0.750000 0.764348
O O9 0.557965 0.505009 0.838395
O O10 0.545955 0.482732 0.717043
O O11 0.700986 0.530698 0.772895
O O12 0.530637 0.750000 0.902006
O O13 0.429525 0.515499 0.920163
O O14 0.601323 0.514318 0.958404
O O15 0.102153 0.750000 0.464252
O O16 0.546730 0.750000 0.321615
O O17 0.629739 0.978162 0.264617
O O18 0.756421 0.250000 0.753324
#
# Coordination Sequence:
#
# PCOD8253408 Si02
#       7
#     8   8   8   8   8   8   8
#     4  10  20  38  62  89 121 160 206 256 309 373
#     4  12  26  44  66  92 123 165 209 261 320 377
#     4  11  22  36  57  87 122 160 199 250 309 366
#     4   9  19  34  52  82 121 155 195 246 299 359
#     4   9  18  34  57  83 114 156 200 243 300 361
#     4  11  23  42  65  92 125 163 210 262 317 379
#     4  10  22  38  61  89 120 160 205 257 314 374
#
# _framework density 20.252535999999999
#
# number of rings (size 3 to 8) (size 9 to 14) (size 15 to 20)
#    0.000    1.714    1.429    3.000    0.000    5.143 
#    0.000    1.429    0.000    0.000    0.000    0.000 
#    0.000    0.000    0.000    0.000    0.000    0.000 
#
# Total GULP energy -694435.759040 kJ/mol
# GULP energy per Si atom -12400.638554 kJ/mol
# Density = 2.020644 g / cm^3
# Si number density = 20.252536 Si / 1000 Ang^3
#
#
#
# Elastic Constant Matrix: (Units=GPa)
#
#
# Indices 1 2 3 4 5 6 
#
# 1 86.4626 29.3240 38.4818 0.0000 0.0000 0.0000
# 2 29.3240 74.0707 44.1616 0.0000 0.0000 0.0000
# 3 38.4818 44.1616 118.4747 0.0000 0.0000 0.0000
# 4 0.0000 0.0000 0.0000 28.9065 0.0000 0.0000
# 5 0.0000 0.0000 0.0000 0.0000 34.1682 0.0000
# 6 0.0000 0.0000 0.0000 0.0000 0.0000 32.8997
#
#
#
# Elastic Compliance Matrix: (Units=1/GPa)
#
#
# Indices 1 2 3 4 5 6 
#
# 1 0.014272 -0.003711 -0.003252 0.000000 0.000000 0.000000
# 2 -0.003711 0.018323 -0.005625 0.000000 0.000000 0.000000
# 3 -0.003252 -0.005625 0.011594 0.000000 0.000000 0.000000
# 4 0.000000 0.000000 0.000000 0.034594 0.000000 0.000000
# 5 0.000000 0.000000 0.000000 0.000000 0.029267 0.000000
# 6 0.000000 0.000000 0.000000 0.000000 0.000000 0.030395
#
#
# Mechanical properties :
#
#
# Convention : Reuss Voigt Hill
#
# Bulk Modulus (GPa) = 52.59655 55.88255 54.23955
# Shear Modulus (GPa) = 29.41889 30.33094 29.87492
#
# Velocity S-wave (km/s) = 3.81544 3.87413 3.84490
# Velocity P-wave (km/s) = 6.74068 6.90396 6.82281
#
# Compressibility (1/GPa) = 0.01901265
#
# Stress axis : x y z
#
# Youngs Moduli (GPa) = 70.06820 54.57552 86.25445
#
# Poissons Ratio (x) = 0.20253 0.28053
# Poissons Ratio (y) = 0.26002 0.48515
# Poissons Ratio (z) = 0.22789 0.30697
#
# Static dielectric constant tensor:
#      x y z
#    x 3.602470 0.000000 0.000000 
#    y 0.000000 3.532780 0.000000 
#    z 0.000000 0.000000 4.030390 
# 
# 
# High freq. dielectric constant tensor:
#      x y z
#    x 1.785330 0.000000 0.000000 
#    y 0.000000 1.783170 0.000000 
#    z 0.000000 0.000000 1.802860 
# 
# From -- ./inp_files/27214.got.cif
#   From: 2010.03.12/outbox.cif.g09.slc.cpg/sg62_14_cif.got.tgz:27214.got - 2010.04.10 19:12:36.
