data_PCOD8253665
_publ_section_title
;
Structure prediction by ZEFSAII (Michael W. Deem and Ramdas Pophale) SiO2 
 PCOD8253665
Probable space group: P N M A
;
_chemical_formula_sum "Si O2"
_cell_formula_units_Z 40
_cell_length_a 11.560143
_cell_length_b 13.163974
_cell_length_c 12.400541
_cell_angle_alpha 90.000000
_cell_angle_beta 90.000000
_cell_angle_gamma 90.000000
_cell_volume 1887.082359
_symmetry_space_group_name_H-M "P N M A"
_symmetry_group_IT_number 62
_symmetry_cell_setting 'orthorhombic'
loop_
_space_group_symop_operation_xyz
x,y,z
1/2-x,-y,1/2+z
1/2+x,1/2-y,1/2-z
-x,1/2+y,-z
-x,-y,-z
1/2+x,y,1/2-z
1/2-x,1/2+y,1/2+z
x,1/2-y,z
loop_
_atom_site_type_symbol
_atom_site_label
_atom_site_fract_x
_atom_site_fract_y
_atom_site_fract_z
Si Si1 0.226558 0.364653 0.145411
Si Si2 0.201562 0.865024 0.060882
Si Si3 0.564075 0.131226 0.553396
Si Si4 0.871430 0.466588 0.514078
Si Si5 0.748189 0.444934 0.714068
O O1 0.221226 0.250000 0.188871
O O2 0.231370 0.438873 0.247531
O O3 0.121114 0.390602 0.063720
O O4 0.344124 0.383115 0.077227
O O5 0.214674 0.750000 0.019259
O O6 0.241938 0.869470 0.185316
O O7 0.069340 0.903434 0.047469
O O8 0.283868 0.937511 0.991763
O O9 0.574444 0.250000 0.581461
O O10 0.626898 0.069855 0.650440
O O11 0.852438 0.417706 0.631781
O O12 0.000000 0.500000 0.500000
#
# Coordination Sequence:
#
# PCOD8253665 Si02
#       5
#     8   8   8   8   8
#     4   9  20  39  60  85 118 161 200 244 302 351
#     4  10  22  39  63  91 117 156 204 247 297 353
#     4   9  19  39  62  87 118 153 203 257 295 348
#     4  10  23  40  58  87 124 158 191 244 296 355
#     4  10  21  35  61  87 119 155 201 245 297 354
#
# _framework density 21.196743000000001
#
# number of rings (size 3 to 8) (size 9 to 14) (size 15 to 20)
#    0.000    2.400    0.000    0.600    5.600    9.600 
#    0.000    0.000    0.000    0.000    0.000    0.000 
#    0.000    0.000    0.000    0.000    0.000    0.000 
#
# Total GULP energy -495815.235200 kJ/mol
# GULP energy per Si atom -12395.380880 kJ/mol
# Density = 2.114850 g / cm^3
# Si number density = 21.196743 Si / 1000 Ang^3
#
#
#
# Elastic Constant Matrix: (Units=GPa)
#
#
# Indices 1 2 3 4 5 6 
#
# 1 149.2417 29.2545 20.3321 0.0000 0.0000 0.0000
# 2 29.2545 90.7911 -2.5797 0.0000 0.0000 0.0000
# 3 20.3321 -2.5797 64.5474 0.0000 0.0000 0.0000
# 4 0.0000 0.0000 0.0000 27.5938 0.0000 0.0000
# 5 0.0000 0.0000 0.0000 0.0000 19.4205 0.0000
# 6 0.0000 0.0000 0.0000 0.0000 0.0000 33.7510
#
#
#
# Elastic Compliance Matrix: (Units=1/GPa)
#
#
# Indices 1 2 3 4 5 6 
#
# 1 0.007526 -0.002495 -0.002470 0.000000 0.000000 0.000000
# 2 -0.002495 0.011854 0.001260 0.000000 0.000000 0.000000
# 3 -0.002470 0.001260 0.016321 0.000000 0.000000 0.000000
# 4 0.000000 0.000000 0.000000 0.036240 0.000000 0.000000
# 5 0.000000 0.000000 0.000000 0.000000 0.051492 0.000000
# 6 0.000000 0.000000 0.000000 0.000000 0.000000 0.029629
#
#
# Mechanical properties :
#
#
# Convention : Reuss Voigt Hill
#
# Bulk Modulus (GPa) = 35.34890 44.28821 39.81856
# Shear Modulus (GPa) = 29.42844 33.32464 31.37654
#
# Velocity S-wave (km/s) = 3.73010 3.96935 3.85158
# Velocity P-wave (km/s) = 5.93837 6.47664 6.21334
#
# Compressibility (1/GPa) = 0.02828943
#
# Stress axis : x y z
#
# Youngs Moduli (GPa) = 132.86861 84.35890 61.27072
#
# Poissons Ratio (x) = 0.21050 0.15137
# Poissons Ratio (y) = 0.33154 -0.07719
# Poissons Ratio (z) = 0.32825 -0.10627
#
# Static dielectric constant tensor:
#      x y z
#    x 3.811980 0.000000 0.000000 
#    y 0.000000 3.869260 0.000000 
#    z 0.000000 0.000000 3.013270 
# 
# 
# High freq. dielectric constant tensor:
#      x y z
#    x 1.820450 0.000000 0.000000 
#    y 0.000000 1.835800 0.000000 
#    z 0.000000 0.000000 1.830470 
# 
# From -- ./inp_files/17882.got.cif
#   From: 2010.03.12/outbox.cif.g09.slc.cpg/sg62_9_cif.got.tgz:17882.got - 2010.04.10 19:12:36.
