data_PCOD8253129
_publ_section_title
;
Structure prediction by ZEFSAII (Michael W. Deem and Ramdas Pophale) SiO2 
 PCOD8253129
Probable space group: P N M A
;
_chemical_formula_sum "Si O2"
_cell_formula_units_Z 48
_cell_length_a 8.988252
_cell_length_b 16.463056
_cell_length_c 14.368578
_cell_angle_alpha 90.000000
_cell_angle_beta 90.000000
_cell_angle_gamma 90.000000
_cell_volume 2126.177341
_symmetry_space_group_name_H-M "P N M A"
_symmetry_group_IT_number 62
_symmetry_cell_setting 'orthorhombic'
loop_
_space_group_symop_operation_xyz
x,y,z
1/2-x,-y,1/2+z
1/2+x,1/2-y,1/2-z
-x,1/2+y,-z
-x,-y,-z
1/2+x,y,1/2-z
1/2-x,1/2+y,1/2+z
x,1/2-y,z
loop_
_atom_site_type_symbol
_atom_site_label
_atom_site_fract_x
_atom_site_fract_y
_atom_site_fract_z
Si Si1 0.485674 0.095090 0.073724
Si Si2 0.249353 0.987092 0.995703
Si Si3 0.473891 0.153461 0.865918
Si Si4 0.831271 0.660296 0.206097
Si Si5 0.437865 0.750000 0.622025
Si Si6 0.509128 0.119226 0.534182
Si Si7 0.600478 0.750000 0.811210
O O1 0.472382 0.168611 0.145857
O O2 0.342215 0.035495 0.075973
O O3 0.637283 0.042497 0.087212
O O4 0.506691 0.129026 0.970104
O O5 0.163141 0.908436 0.036862
O O6 0.120171 0.043079 0.954743
O O7 0.466783 0.250000 0.859825
O O8 0.314681 0.115633 0.834519
O O9 0.599013 0.116114 0.796808
O O10 0.784174 0.750000 0.237820
O O11 0.959078 0.670237 0.126886
O O12 0.455559 0.670135 0.559008
O O13 0.565081 0.750000 0.701425
O O14 0.276386 0.750000 0.670580
#
# Coordination Sequence:
#
# PCOD8253129 Si02
#       7
#     8   8   8   8   4   8   4
#     4  11  22  46  67  93 134 176 221 274 335 397
#     4  10  24  40  70  94 130 180 220 268 340 404
#     4  10  20  36  61  93 122 156 201 257 317 377
#     4  10  20  36  61  93 122 156 201 257 317 377
#     4  12  26  46  73 100 134 183 236 291 331 395
#     4  11  22  46  67  93 134 176 221 274 335 397
#     4  12  26  46  73 100 134 183 236 291 331 395
#
# _framework density 22.57573
#
# number of rings (size 3 to 8) (size 9 to 14) (size 15 to 20)
#    0.000    1.333    5.000    0.000    4.667    0.000 
#    0.000   10.000    0.000    0.000    0.000    0.000 
#    0.000    0.000    0.000    0.000    0.000    0.000 
#
# Total GULP energy -594812.629279 kJ/mol
# GULP energy per Si atom -12391.929777 kJ/mol
# Density = 2.252435 g / cm^3
# Si number density = 22.575730 Si / 1000 Ang^3
#
#
#
# Elastic Constant Matrix: (Units=GPa)
#
#
# Indices 1 2 3 4 5 6 
#
# 1 109.4173 34.2934 20.5239 0.0000 0.0000 0.0000
# 2 34.2934 78.6095 13.6557 0.0000 0.0000 0.0000
# 3 20.5239 13.6557 116.2094 0.0000 0.0000 0.0000
# 4 0.0000 0.0000 0.0000 7.4379 0.0000 0.0000
# 5 0.0000 0.0000 0.0000 0.0000 27.2852 0.0000
# 6 0.0000 0.0000 0.0000 0.0000 0.0000 40.7274
#
#
#
# Elastic Compliance Matrix: (Units=1/GPa)
#
#
# Indices 1 2 3 4 5 6 
#
# 1 0.010800 -0.004471 -0.001382 0.000000 0.000000 0.000000
# 2 -0.004471 0.014837 -0.000954 0.000000 0.000000 0.000000
# 3 -0.001382 -0.000954 0.008961 0.000000 0.000000 0.000000
# 4 0.000000 0.000000 0.000000 0.134446 0.000000 0.000000
# 5 0.000000 0.000000 0.000000 0.000000 0.036650 0.000000
# 6 0.000000 0.000000 0.000000 0.000000 0.000000 0.024553
#
#
# Mechanical properties :
#
#
# Convention : Reuss Voigt Hill
#
# Bulk Modulus (GPa) = 47.65466 49.02024 48.33745
# Shear Modulus (GPa) = 19.93161 30.80765 25.36963
#
# Velocity S-wave (km/s) = 2.97455 3.69811 3.35588
# Velocity P-wave (km/s) = 5.74037 6.32420 6.03934
#
# Compressibility (1/GPa) = 0.02098431
#
# Stress axis : x y z
#
# Youngs Moduli (GPa) = 92.59292 67.39700 111.59077
#
# Poissons Ratio (x) = 0.30136 0.15421
# Poissons Ratio (y) = 0.41402 0.10644
# Poissons Ratio (z) = 0.12796 0.06429
#
# Static dielectric constant tensor:
#      x y z
#    x 4.527370 0.000000 0.000000 
#    y 0.000000 4.203920 0.000000 
#    z 0.000000 0.000000 3.786250 
# 
# 
# High freq. dielectric constant tensor:
#      x y z
#    x 1.907280 0.000000 0.000000 
#    y 0.000000 1.888940 0.000000 
#    z 0.000000 0.000000 1.860770 
# 
# From -- ./inp_files/17014.got.cif
#   From: 2010.03.12/outbox.cif.g09.slc.cpg/sg62_9_cif.got.tgz:17014.got - 2010.04.10 19:12:36.
