data_PCOD8253252
_publ_section_title
;
Structure prediction by ZEFSAII (Michael W. Deem and Ramdas Pophale) SiO2 
 PCOD8253252
Probable space group: P N M A
;
_chemical_formula_sum "Si O2"
_cell_formula_units_Z 48
_cell_length_a 20.278841
_cell_length_b 8.448556
_cell_length_c 14.363299
_cell_angle_alpha 90.000000
_cell_angle_beta 90.000000
_cell_angle_gamma 90.000000
_cell_volume 2460.819833
_symmetry_space_group_name_H-M "P N M A"
_symmetry_group_IT_number 62
_symmetry_cell_setting 'orthorhombic'
loop_
_space_group_symop_operation_xyz
x,y,z
1/2-x,-y,1/2+z
1/2+x,1/2-y,1/2-z
-x,1/2+y,-z
-x,-y,-z
1/2+x,y,1/2-z
1/2-x,1/2+y,1/2+z
x,1/2-y,z
loop_
_atom_site_type_symbol
_atom_site_label
_atom_site_fract_x
_atom_site_fract_y
_atom_site_fract_z
Si Si1 0.303871 0.062324 0.785447
Si Si2 0.675769 0.435621 0.822487
Si Si3 0.068365 0.934838 0.177860
Si Si4 0.428875 0.432642 0.308517
Si Si5 0.623503 0.433513 0.503570
Si Si6 0.224753 0.563186 0.491996
O O1 0.302160 0.250000 0.779442
O O2 0.240364 0.996567 0.730298
O O3 0.370024 0.997522 0.737053
O O4 0.301522 0.004834 0.891927
O O5 0.666756 0.250000 0.805656
O O6 0.612110 0.525884 0.783706
O O7 0.681606 0.472437 0.931688
O O8 0.057117 0.750000 0.195255
O O9 0.081050 0.964028 0.068596
O O10 0.004782 0.029196 0.212729
O O11 0.420370 0.250000 0.334589
O O12 0.403251 0.539081 0.393233
O O13 0.615359 0.250000 0.478624
O O14 0.699254 0.487326 0.497963
O O15 0.216062 0.750000 0.503879
#
# Coordination Sequence:
#
# PCOD8253252 Si02
#       6
#     8   8   8   8   8   8
#     4   9  19  37  61  86 117 153 195 242 292 346
#     4  11  21  39  62  89 119 154 197 244 293 350
#     4  11  22  39  61  87 120 160 200 245 299 357
#     4  12  25  40  58  86 121 160 201 245 298 356
#     4  11  21  36  60  90 124 157 192 244 299 356
#     4  10  20  37  60  90 121 152 191 242 293 346
#
# _framework density 19.505694999999999
#
# number of rings (size 3 to 8) (size 9 to 14) (size 15 to 20)
#    0.000    1.333    3.333    3.500    0.000    0.667 
#    0.000    2.500    0.000    0.000    0.000    0.000 
#    0.000    0.000    0.000    0.000    0.000    0.000 
#
# Total GULP energy -595512.915707 kJ/mol
# GULP energy per Si atom -12406.519077 kJ/mol
# Density = 1.946130 g / cm^3
# Si number density = 19.505695 Si / 1000 Ang^3
#
#
#
# Elastic Constant Matrix: (Units=GPa)
#
#
# Indices 1 2 3 4 5 6 
#
# 1 94.2686 26.2092 30.1974 0.0000 0.0000 0.0000
# 2 26.2092 50.4033 14.8679 0.0000 0.0000 0.0000
# 3 30.1974 14.8679 105.1870 0.0000 0.0000 0.0000
# 4 0.0000 0.0000 0.0000 27.9366 0.0000 0.0000
# 5 0.0000 0.0000 0.0000 0.0000 35.0465 0.0000
# 6 0.0000 0.0000 0.0000 0.0000 0.0000 25.4496
#
#
#
# Elastic Compliance Matrix: (Units=1/GPa)
#
#
# Indices 1 2 3 4 5 6 
#
# 1 0.013222 -0.006006 -0.002947 0.000000 0.000000 0.000000
# 2 -0.006006 0.023431 -0.001588 0.000000 0.000000 0.000000
# 3 -0.002947 -0.001588 0.010577 0.000000 0.000000 0.000000
# 4 0.000000 0.000000 0.000000 0.035795 0.000000 0.000000
# 5 0.000000 0.000000 0.000000 0.000000 0.028533 0.000000
# 6 0.000000 0.000000 0.000000 0.000000 0.000000 0.039293
#
#
# Mechanical properties :
#
#
# Convention : Reuss Voigt Hill
#
# Bulk Modulus (GPa) = 38.24183 43.60086 40.92135
# Shear Modulus (GPa) = 27.67783 29.59218 28.63500
#
# Velocity S-wave (km/s) = 3.77100 3.89923 3.83565
# Velocity P-wave (km/s) = 6.21358 6.53249 6.37503
#
# Compressibility (1/GPa) = 0.02614938
#
# Stress axis : x y z
#
# Youngs Moduli (GPa) = 75.63296 42.67794 94.54224
#
# Poissons Ratio (x) = 0.25632 0.27860
# Poissons Ratio (y) = 0.45425 0.15011
# Poissons Ratio (z) = 0.22288 0.06776
#
# Static dielectric constant tensor:
#      x y z
#    x 3.669850 0.000000 0.000000 
#    y 0.000000 3.315740 0.000000 
#    z 0.000000 0.000000 3.548430 
# 
# 
# High freq. dielectric constant tensor:
#      x y z
#    x 1.759110 0.000000 0.000000 
#    y 0.000000 1.749450 0.000000 
#    z 0.000000 0.000000 1.758490 
# 
# From -- ./inp_files/19581.got.cif
#   From: 2010.03.12/outbox.cif.g09.slc.cpg/sg62_10_cif.got.tgz:19581.got - 2010.04.10 19:12:36.
