data_PCOD8253322
_publ_section_title
;
Structure prediction by ZEFSAII (Michael W. Deem and Ramdas Pophale) SiO2 
 PCOD8253322
Probable space group: P N M A
;
_chemical_formula_sum "Si O2"
_cell_formula_units_Z 48
_cell_length_a 9.734457
_cell_length_b 8.624323
_cell_length_c 28.030055
_cell_angle_alpha 90.000000
_cell_angle_beta 90.000000
_cell_angle_gamma 90.000000
_cell_volume 2353.210050
_symmetry_space_group_name_H-M "P N M A"
_symmetry_group_IT_number 62
_symmetry_cell_setting 'orthorhombic'
loop_
_space_group_symop_operation_xyz
x,y,z
1/2-x,-y,1/2+z
1/2+x,1/2-y,1/2-z
-x,1/2+y,-z
-x,-y,-z
1/2+x,y,1/2-z
1/2-x,1/2+y,1/2+z
x,1/2-y,z
loop_
_atom_site_type_symbol
_atom_site_label
_atom_site_fract_x
_atom_site_fract_y
_atom_site_fract_z
Si Si1 0.527177 0.566185 0.551988
Si Si2 0.775363 0.573989 0.890089
Si Si3 0.853208 0.065556 0.294168
Si Si4 0.776329 0.431429 0.606893
Si Si5 0.333283 0.565938 0.793961
Si Si6 0.988211 0.073269 0.448682
O O1 0.500000 0.500000 0.500000
O O2 0.514689 0.750000 0.548775
O O3 0.415397 0.497707 0.589881
O O4 0.675281 0.517265 0.570571
O O5 0.807675 0.750000 0.875633
O O6 0.714460 0.493318 0.842357
O O7 0.669489 0.565507 0.933643
O O8 0.859775 0.250000 0.297614
O O9 0.757450 0.010683 0.250797
O O10 0.009885 0.004896 0.287902
O O11 0.749116 0.250000 0.604273
O O12 0.758978 0.490465 0.660661
O O13 0.928695 0.473529 0.589778
O O14 0.330081 0.750000 0.800087
O O15 0.042181 0.250000 0.449005
O O16 0.000000 0.000000 0.500000
#
# Coordination Sequence:
#
# PCOD8253322 Si02
#       6
#     8   8   8   8   8   8
#     4  11  23  40  64  91 124 162 206 257 316 373
#     4   9  19  36  60  89 119 152 194 251 310 373
#     4   9  18  34  61  94 118 145 196 254 312 376
#     4  12  25  41  59  86 127 170 212 251 297 364
#     4  10  20  37  64  92 119 153 200 257 312 368
#     4  11  21  38  64  92 121 155 200 254 314 372
#
# _framework density 20.397670000000002
#
# number of rings (size 3 to 8) (size 9 to 14) (size 15 to 20)
#    0.000    1.667    1.667    3.500    2.333    1.333 
#    0.000    3.333    0.000    0.000    0.000    0.000 
#    0.000    0.000    0.000    0.000    0.000    0.000 
#
# Total GULP energy -595219.027640 kJ/mol
# GULP energy per Si atom -12400.396409 kJ/mol
# Density = 2.035124 g / cm^3
# Si number density = 20.397670 Si / 1000 Ang^3
#
#
#
# Elastic Constant Matrix: (Units=GPa)
#
#
# Indices 1 2 3 4 5 6 
#
# 1 92.8063 23.5794 35.0976 0.0000 0.0000 0.0000
# 2 23.5794 57.0774 35.8314 0.0000 0.0000 0.0000
# 3 35.0976 35.8314 138.7535 0.0000 0.0000 0.0000
# 4 0.0000 0.0000 0.0000 31.4481 0.0000 0.0000
# 5 0.0000 0.0000 0.0000 0.0000 43.4351 0.0000
# 6 0.0000 0.0000 0.0000 0.0000 0.0000 17.9663
#
#
#
# Elastic Compliance Matrix: (Units=1/GPa)
#
#
# Indices 1 2 3 4 5 6 
#
# 1 0.012575 -0.003817 -0.002195 0.000000 0.000000 0.000000
# 2 -0.003817 0.022068 -0.004733 0.000000 0.000000 0.000000
# 3 -0.002195 -0.004733 0.008985 0.000000 0.000000 0.000000
# 4 0.000000 0.000000 0.000000 0.031798 0.000000 0.000000
# 5 0.000000 0.000000 0.000000 0.000000 0.023023 0.000000
# 6 0.000000 0.000000 0.000000 0.000000 0.000000 0.055660
#
#
# Mechanical properties :
#
#
# Convention : Reuss Voigt Hill
#
# Bulk Modulus (GPa) = 45.17295 53.07267 49.12281
# Shear Modulus (GPa) = 27.32554 31.51183 29.41868
#
# Velocity S-wave (km/s) = 3.66408 3.93475 3.80183
# Velocity P-wave (km/s) = 6.33205 6.83509 6.58837
#
# Compressibility (1/GPa) = 0.02213714
#
# Stress axis : x y z
#
# Youngs Moduli (GPa) = 79.52252 45.31383 111.30101
#
# Poissons Ratio (x) = 0.17295 0.24433
# Poissons Ratio (y) = 0.30352 0.52683
# Poissons Ratio (z) = 0.17457 0.21449
#
# Static dielectric constant tensor:
#      x y z
#    x 3.957560 0.000000 0.000000 
#    y 0.000000 3.380590 0.000000 
#    z 0.000000 0.000000 3.874760 
# 
# 
# High freq. dielectric constant tensor:
#      x y z
#    x 1.808720 0.000000 0.000000 
#    y 0.000000 1.758050 0.000000 
#    z 0.000000 0.000000 1.813050 
# 
# From -- ./inp_files/31931.got.cif
#   From: 2010.03.12/outbox.cif.g09.slc.cpg/sg62_16_cif.got.tgz:31931.got - 2010.04.10 19:12:36.
