data_PCOD8253264
_publ_section_title
;
Structure prediction by ZEFSAII (Michael W. Deem and Ramdas Pophale) SiO2 
 PCOD8253264
Probable space group: P N M A
;
_chemical_formula_sum "Si O2"
_cell_formula_units_Z 48
_cell_length_a 14.961371
_cell_length_b 8.766334
_cell_length_c 18.385623
_cell_angle_alpha 90.000000
_cell_angle_beta 90.000000
_cell_angle_gamma 90.000000
_cell_volume 2411.391670
_symmetry_space_group_name_H-M "P N M A"
_symmetry_group_IT_number 62
_symmetry_cell_setting 'orthorhombic'
loop_
_space_group_symop_operation_xyz
x,y,z
1/2-x,-y,1/2+z
1/2+x,1/2-y,1/2-z
-x,1/2+y,-z
-x,-y,-z
1/2+x,y,1/2-z
1/2-x,1/2+y,1/2+z
x,1/2-y,z
loop_
_atom_site_type_symbol
_atom_site_label
_atom_site_fract_x
_atom_site_fract_y
_atom_site_fract_z
Si Si1 0.889829 0.573468 0.562403
Si Si2 0.578747 0.070955 0.593926
Si Si3 0.760584 0.070227 0.176733
Si Si4 0.256787 0.929504 0.169798
Si Si5 0.393511 0.929277 0.572612
Si Si6 0.408676 0.425899 0.088636
O O1 0.880915 0.750000 0.539386
O O2 0.815495 0.523637 0.619706
O O3 0.875858 0.470797 0.491691
O O4 0.986267 0.541847 0.598180
O O5 0.575026 0.250000 0.607650
O O6 0.610840 0.030473 0.512687
O O7 0.645039 0.996086 0.651552
O O8 0.481273 0.001915 0.608738
O O9 0.768958 0.250000 0.185630
O O10 0.731046 0.998137 0.252650
O O11 0.245663 0.750000 0.172438
O O12 0.193268 0.998026 0.108170
O O13 0.358167 0.974399 0.149171
O O14 0.395403 0.750000 0.586607
O O15 0.384729 0.250000 0.101467
#
# Coordination Sequence:
#
# PCOD8253264 Si02
#       6
#     8   8   8   8   8   8
#     4   9  20  38  61  87 113 146 189 236 283 335
#     4  10  21  38  61  89 117 148 190 238 288 342
#     4  11  23  39  58  82 116 155 194 236 287 345
#     4  12  25  39  56  82 118 155 194 240 289 342
#     4  10  21  39  63  88 115 150 192 237 286 342
#     4  10  20  37  61  87 115 148 189 235 285 342
#
# _framework density 19.905518000000001
#
# number of rings (size 3 to 8) (size 9 to 14) (size 15 to 20)
#    0.000    1.667    0.000    4.500    0.000    8.000 
#    0.000    5.000    0.000    0.000    0.000    0.000 
#    0.000    0.000    0.000    0.000    0.000    0.000 
#
# Total GULP energy -595533.047204 kJ/mol
# GULP energy per Si atom -12406.938483 kJ/mol
# Density = 1.986021 g / cm^3
# Si number density = 19.905518 Si / 1000 Ang^3
#
#
#
# Elastic Constant Matrix: (Units=GPa)
#
#
# Indices 1 2 3 4 5 6 
#
# 1 75.2271 24.6233 17.5859 0.0000 0.0000 0.0000
# 2 24.6233 92.0644 24.3672 0.0000 0.0000 0.0000
# 3 17.5859 24.3672 48.5254 0.0000 0.0000 0.0000
# 4 0.0000 0.0000 0.0000 36.4841 0.0000 0.0000
# 5 0.0000 0.0000 0.0000 0.0000 16.7198 0.0000
# 6 0.0000 0.0000 0.0000 0.0000 0.0000 34.7676
#
#
#
# Elastic Compliance Matrix: (Units=1/GPa)
#
#
# Indices 1 2 3 4 5 6 
#
# 1 0.015214 -0.003010 -0.004002 0.000000 0.000000 0.000000
# 2 -0.003010 0.013122 -0.005499 0.000000 0.000000 0.000000
# 3 -0.004002 -0.005499 0.024819 0.000000 0.000000 0.000000
# 4 0.000000 0.000000 0.000000 0.027409 0.000000 0.000000
# 5 0.000000 0.000000 0.000000 0.000000 0.059809 0.000000
# 6 0.000000 0.000000 0.000000 0.000000 0.000000 0.028762
#
#
# Mechanical properties :
#
#
# Convention : Reuss Voigt Hill
#
# Bulk Modulus (GPa) = 35.54390 38.77442 37.15916
# Shear Modulus (GPa) = 24.56571 27.54368 26.05470
#
# Velocity S-wave (km/s) = 3.51681 3.72388 3.62182
# Velocity P-wave (km/s) = 5.86393 6.16532 6.01651
#
# Compressibility (1/GPa) = 0.02813422
#
# Stress axis : x y z
#
# Youngs Moduli (GPa) = 65.72965 76.20608 40.29115
#
# Poissons Ratio (x) = 0.22936 0.16125
# Poissons Ratio (y) = 0.19783 0.22155
# Poissons Ratio (z) = 0.26306 0.41903
#
# Static dielectric constant tensor:
#      x y z
#    x 3.723450 0.000000 0.000000 
#    y 0.000000 3.696430 0.000000 
#    z 0.000000 0.000000 3.540410 
# 
# 
# High freq. dielectric constant tensor:
#      x y z
#    x 1.787980 0.000000 0.000000 
#    y 0.000000 1.788220 0.000000 
#    z 0.000000 0.000000 1.768850 
# 
# From -- ./inp_files/23705.got.cif
#   From: 2010.03.12/outbox.cif.g09.slc.cpg/sg62_12_cif.got.tgz:23705.got - 2010.04.10 19:12:36.
