data_PCOD8253993
_publ_section_title
;
Structure prediction by ZEFSAII (Michael W. Deem and Ramdas Pophale) SiO2 
 PCOD8253993
Probable space group: P N M A
;
_chemical_formula_sum "Si O2"
_cell_formula_units_Z 64
_cell_length_a 9.401617
_cell_length_b 17.370318
_cell_length_c 18.561145
_cell_angle_alpha 90.000000
_cell_angle_beta 90.000000
_cell_angle_gamma 90.000000
_cell_volume 3031.203458
_symmetry_space_group_name_H-M "P N M A"
_symmetry_group_IT_number 62
_symmetry_cell_setting 'orthorhombic'
loop_
_space_group_symop_operation_xyz
x,y,z
1/2-x,-y,1/2+z
1/2+x,1/2-y,1/2-z
-x,1/2+y,-z
-x,-y,-z
1/2+x,y,1/2-z
1/2-x,1/2+y,1/2+z
x,1/2-y,z
loop_
_atom_site_type_symbol
_atom_site_label
_atom_site_fract_x
_atom_site_fract_y
_atom_site_fract_z
Si Si1 0.083236 0.921310 0.542493
Si Si2 0.703093 0.336801 0.370182
Si Si3 0.949069 0.005746 0.676116
Si Si4 0.688878 0.927721 0.736639
Si Si5 0.194001 0.664181 0.156403
Si Si6 0.984238 0.836187 0.276548
Si Si7 0.796606 0.578000 0.482237
Si Si8 0.613579 0.661764 0.600939
O O1 0.170892 0.849139 0.571911
O O2 0.990589 0.965413 0.602514
O O3 0.960878 0.890770 0.487783
O O4 0.194884 0.984652 0.511901
O O5 0.711507 0.250000 0.341185
O O6 0.724582 0.394050 0.304029
O O7 0.554317 0.352077 0.410288
O O8 0.050509 0.974473 0.739630
O O9 0.787367 0.987591 0.694995
O O10 0.958943 0.098339 0.668890
O O11 0.648732 0.857961 0.683679
O O12 0.191055 0.750000 0.121822
O O13 0.312674 0.659895 0.219851
O O14 0.043490 0.645954 0.195607
O O15 0.227783 0.602859 0.093913
O O16 0.035916 0.750000 0.299782
O O17 0.698237 0.608101 0.546214
O O18 0.656629 0.750000 0.586687
#
# Coordination Sequence:
#
# PCOD8253993 Si02
#       8
#     8   8   8   8   8   8   8   8
#     4  10  23  40  62  89 122 162 209 250 299 364
#     4  10  23  42  60  88 128 162 205 258 307 358
#     4  11  20  37  62  89 121 163 203 253 305 357
#     4  11  21  37  60  92 124 159 204 254 307 358
#     4  10  21  38  61  88 119 152 190 246 305 358
#     4  10  21  38  60  90 120 151 198 255 308 358
#     4  11  22  41  61  89 122 160 206 249 296 370
#     4  11  23  39  60  90 125 166 208 251 307 370
#
# _framework density 21.113727000000001
#
# number of rings (size 3 to 8) (size 9 to 14) (size 15 to 20)
#    0.000    1.500    3.750    1.500    1.750    1.500 
#    0.000    1.250    0.000    3.000    0.000    0.000 
#    0.000    0.000    0.000    0.000    0.000    0.000 
#
# Total GULP energy -793295.182864 kJ/mol
# GULP energy per Si atom -12395.237232 kJ/mol
# Density = 2.106567 g / cm^3
# Si number density = 21.113727 Si / 1000 Ang^3
#
#
#
# Elastic Constant Matrix: (Units=GPa)
#
#
# Indices 1 2 3 4 5 6 
#
# 1 67.9579 23.8989 32.0786 0.0000 0.0000 0.0000
# 2 23.8989 67.7963 17.8304 0.0000 0.0000 0.0000
# 3 32.0786 17.8304 69.9236 0.0000 0.0000 0.0000
# 4 0.0000 0.0000 0.0000 31.0662 0.0000 0.0000
# 5 0.0000 0.0000 0.0000 0.0000 37.7585 0.0000
# 6 0.0000 0.0000 0.0000 0.0000 0.0000 32.1384
#
#
#
# Elastic Compliance Matrix: (Units=1/GPa)
#
#
# Indices 1 2 3 4 5 6 
#
# 1 0.020270 -0.005037 -0.008015 0.000000 0.000000 0.000000
# 2 -0.005037 0.017062 -0.002040 0.000000 0.000000 0.000000
# 3 -0.008015 -0.002040 0.018498 0.000000 0.000000 0.000000
# 4 0.000000 0.000000 0.000000 0.032189 0.000000 0.000000
# 5 0.000000 0.000000 0.000000 0.000000 0.026484 0.000000
# 6 0.000000 0.000000 0.000000 0.000000 0.000000 0.031115
#
#
# Mechanical properties :
#
#
# Convention : Reuss Voigt Hill
#
# Bulk Modulus (GPa) = 38.99148 39.25486 39.12317
# Shear Modulus (GPa) = 27.12209 28.98395 28.05302
#
# Velocity S-wave (km/s) = 3.58798 3.70909 3.64904
# Velocity P-wave (km/s) = 5.97263 6.08076 6.02693
#
# Compressibility (1/GPa) = 0.02564663
#
# Stress axis : x y z
#
# Youngs Moduli (GPa) = 49.33482 58.60877 54.05906
#
# Poissons Ratio (x) = 0.29524 0.43326
# Poissons Ratio (y) = 0.24852 0.11027
# Poissons Ratio (z) = 0.39539 0.11955
#
# Static dielectric constant tensor:
#      x y z
#    x 3.899140 0.000000 0.000000 
#    y 0.000000 3.853950 0.000000 
#    z 0.000000 0.000000 3.702520 
# 
# 
# High freq. dielectric constant tensor:
#      x y z
#    x 1.829930 0.000000 0.000000 
#    y 0.000000 1.827660 0.000000 
#    z 0.000000 0.000000 1.811810 
# 
# From -- ./inp_files/26173.got.cif
#   From: 2010.03.12/outbox.cif.g09.slc.cpg/sg62_14_cif.got.tgz:26173.got - 2010.04.10 19:12:36.
