data_PCOD8253326
_publ_section_title
;
Structure prediction by ZEFSAII (Michael W. Deem and Ramdas Pophale) SiO2 
 PCOD8253326
Probable space group: P N M A
;
_chemical_formula_sum "Si O2"
_cell_formula_units_Z 56
_cell_length_a 13.606726
_cell_length_b 16.875505
_cell_length_c 12.610934
_cell_angle_alpha 90.000000
_cell_angle_beta 90.000000
_cell_angle_gamma 90.000000
_cell_volume 2895.727365
_symmetry_space_group_name_H-M "P N M A"
_symmetry_group_IT_number 62
_symmetry_cell_setting 'orthorhombic'
loop_
_space_group_symop_operation_xyz
x,y,z
1/2-x,-y,1/2+z
1/2+x,1/2-y,1/2-z
-x,1/2+y,-z
-x,-y,-z
1/2+x,y,1/2-z
1/2-x,1/2+y,1/2+z
x,1/2-y,z
loop_
_atom_site_type_symbol
_atom_site_label
_atom_site_fract_x
_atom_site_fract_y
_atom_site_fract_z
Si Si1 0.086666 0.342262 0.437427
Si Si2 0.992974 0.658679 0.976581
Si Si3 0.711584 0.658493 0.463028
Si Si4 0.029295 0.658900 0.351346
Si Si5 0.083844 0.073270 0.820304
Si Si6 0.442703 0.569234 0.725718
Si Si7 0.700093 0.936421 0.246661
O O1 0.086767 0.250000 0.408723
O O2 0.197549 0.370904 0.464898
O O3 0.043667 0.390124 0.339115
O O4 0.014788 0.361280 0.534551
O O5 0.968369 0.750000 0.002209
O O6 0.110417 0.644505 0.973691
O O7 0.944312 0.601616 0.062839
O O8 0.945957 0.636615 0.863898
O O9 0.727263 0.750000 0.433546
O O10 0.710044 0.612811 0.353272
O O11 0.060491 0.750000 0.341589
O O12 0.124359 0.605013 0.333736
O O13 0.946934 0.641119 0.262815
O O14 0.199037 0.057087 0.816350
O O15 0.030967 0.991562 0.792586
O O16 0.338489 0.523688 0.722199
#
# Coordination Sequence:
#
# PCOD8253326 Si02
#       7
#     8   8   8   8   8   8   8
#     4  10  22  41  63  89 125 168 207 249 303 370
#     4  11  23  42  65  90 121 160 210 261 303 360
#     4  10  20  37  65  91 117 159 206 251 302 364
#     4  10  20  38  63  91 122 157 206 254 301 360
#     4  11  23  39  62  93 123 158 197 262 315 353
#     4  11  25  41  60  87 125 167 207 247 306 376
#     4  11  23  37  61  95 125 159 198 258 312 365
#
# _framework density 19.338837999999999
#
# number of rings (size 3 to 8) (size 9 to 14) (size 15 to 20)
#    0.000    1.429    4.286    1.714    2.000    4.000 
#    2.571    0.000    0.000    0.000    0.000    0.000 
#    0.000    0.000    0.000    0.000    0.000    0.000 
#
# Total GULP energy -694615.410811 kJ/mol
# GULP energy per Si atom -12403.846622 kJ/mol
# Density = 1.929482 g / cm^3
# Si number density = 19.338838 Si / 1000 Ang^3
#
#
#
# Elastic Constant Matrix: (Units=GPa)
#
#
# Indices 1 2 3 4 5 6 
#
# 1 138.2723 45.4711 44.8007 0.0000 0.0000 0.0000
# 2 45.4711 66.3246 50.0720 0.0000 0.0000 0.0000
# 3 44.8007 50.0720 131.2013 0.0000 0.0000 0.0000
# 4 0.0000 0.0000 0.0000 36.4278 0.0000 0.0000
# 5 0.0000 0.0000 0.0000 0.0000 20.0420 0.0000
# 6 0.0000 0.0000 0.0000 0.0000 0.0000 14.5689
#
#
#
# Elastic Compliance Matrix: (Units=1/GPa)
#
#
# Indices 1 2 3 4 5 6 
#
# 1 0.009441 -0.005673 -0.001059 0.000000 0.000000 0.000000
# 2 -0.005673 0.024589 -0.007447 0.000000 0.000000 0.000000
# 3 -0.001059 -0.007447 0.010825 0.000000 0.000000 0.000000
# 4 0.000000 0.000000 0.000000 0.027452 0.000000 0.000000
# 5 0.000000 0.000000 0.000000 0.000000 0.049895 0.000000
# 6 0.000000 0.000000 0.000000 0.000000 0.000000 0.068639
#
#
# Mechanical properties :
#
#
# Convention : Reuss Voigt Hill
#
# Bulk Modulus (GPa) = 60.61497 68.49843 64.55670
# Shear Modulus (GPa) = 22.25207 27.23803 24.74505
#
# Velocity S-wave (km/s) = 3.39579 3.75702 3.58096
# Velocity P-wave (km/s) = 6.84009 7.37003 7.11000
#
# Compressibility (1/GPa) = 0.01649758
#
# Stress axis : x y z
#
# Youngs Moduli (GPa) = 105.92382 40.66860 92.37535
#
# Poissons Ratio (x) = 0.23073 0.09778
# Poissons Ratio (y) = 0.60094 0.68792
# Poissons Ratio (z) = 0.11212 0.30286
#
# Static dielectric constant tensor:
#      x y z
#    x 3.738030 0.000000 0.000000 
#    y 0.000000 3.572440 0.000000 
#    z 0.000000 0.000000 3.443930 
# 
# 
# High freq. dielectric constant tensor:
#      x y z
#    x 1.752630 0.000000 0.000000 
#    y 0.000000 1.757970 0.000000 
#    z 0.000000 0.000000 1.752230 
# 
# From -- ./inp_files/13388.got.cif
#   From: 2010.03.12/outbox.cif.g09.slc.cpg/sg62_7_cif.got.tgz:13388.got - 2010.04.10 19:12:36.
