data_PCOD8253383
_publ_section_title
;
Structure prediction by ZEFSAII (Michael W. Deem and Ramdas Pophale) SiO2 
 PCOD8253383
Probable space group: P N M A
;
_chemical_formula_sum "Si O2"
_cell_formula_units_Z 44
_cell_length_a 14.813294
_cell_length_b 22.542820
_cell_length_c 6.488196
_cell_angle_alpha 90.000000
_cell_angle_beta 90.000000
_cell_angle_gamma 90.000000
_cell_volume 2166.625482
_symmetry_space_group_name_H-M "P N M A"
_symmetry_group_IT_number 62
_symmetry_cell_setting 'orthorhombic'
loop_
_space_group_symop_operation_xyz
x,y,z
1/2-x,-y,1/2+z
1/2+x,1/2-y,1/2-z
-x,1/2+y,-z
-x,-y,-z
1/2+x,y,1/2-z
1/2-x,1/2+y,1/2+z
x,1/2-y,z
loop_
_atom_site_type_symbol
_atom_site_label
_atom_site_fract_x
_atom_site_fract_y
_atom_site_fract_z
Si Si1 0.473248 0.958493 0.813555
Si Si2 0.296795 0.750000 0.845050
Si Si3 0.934657 0.874094 0.340965
Si Si4 0.982825 0.750000 0.485689
Si Si5 0.681536 0.750000 0.041599
Si Si6 0.417074 0.061537 0.569330
Si Si7 0.761745 0.151519 0.845597
O O1 0.560079 0.941493 0.673745
O O2 0.403441 0.995280 0.666530
O O3 0.433881 0.899483 0.922378
O O4 0.500000 0.000000 0.000000
O O5 0.406291 0.750000 0.836911
O O6 0.264373 0.750000 0.613022
O O7 0.260309 0.691265 0.955938
O O8 0.969801 0.806812 0.340064
O O9 0.831718 0.875464 0.257735
O O10 0.996943 0.910001 0.184563
O O11 0.084765 0.750000 0.576226
O O12 0.687795 0.809345 0.175785
O O13 0.325593 0.097471 0.592906
#
# Coordination Sequence:
#
# PCOD8253383 Si02
#       7
#     8   4   8   4   4   8   8
#     4   9  21  40  59  86 124 156 204 250 299 371
#     4   9  23  37  55  96 122 156 210 255 304 381
#     4  10  21  40  59  90 125 155 207 262 301 372
#     4  10  20  38  62  84 127 165 199 257 318 363
#     4  11  21  41  61  90 129 161 201 264 308 368
#     4  10  20  40  63  86 119 169 199 249 317 359
#     4  10  22  39  61  93 120 156 214 252 306 377
#
# _framework density 20.30808
#
# number of rings (size 3 to 8) (size 9 to 14) (size 15 to 20)
#    0.000    2.182    1.818    0.545    2.545    2.909 
#    9.818    0.909    0.000    0.000    0.000    0.000 
#    0.000    0.000    0.000    0.000    0.000    0.000 
#
# Total GULP energy -545377.423333 kJ/mol
# GULP energy per Si atom -12394.941439 kJ/mol
# Density = 2.026186 g / cm^3
# Si number density = 20.308080 Si / 1000 Ang^3
#
#
#
# Elastic Constant Matrix: (Units=GPa)
#
#
# Indices 1 2 3 4 5 6 
#
# 1 130.1191 26.6685 30.4807 0.0000 0.0000 0.0000
# 2 26.6685 89.6544 24.3075 0.0000 0.0000 0.0000
# 3 30.4807 24.3075 87.7009 0.0000 0.0000 0.0000
# 4 0.0000 0.0000 0.0000 6.1716 0.0000 0.0000
# 5 0.0000 0.0000 0.0000 0.0000 27.6032 0.0000
# 6 0.0000 0.0000 0.0000 0.0000 0.0000 21.8544
#
#
#
# Elastic Compliance Matrix: (Units=1/GPa)
#
#
# Indices 1 2 3 4 5 6 
#
# 1 0.008656 -0.001902 -0.002481 0.000000 0.000000 0.000000
# 2 -0.001902 0.012478 -0.002797 0.000000 0.000000 0.000000
# 3 -0.002481 -0.002797 0.013040 0.000000 0.000000 0.000000
# 4 0.000000 0.000000 0.000000 0.162033 0.000000 0.000000
# 5 0.000000 0.000000 0.000000 0.000000 0.036228 0.000000
# 6 0.000000 0.000000 0.000000 0.000000 0.000000 0.045757
#
#
# Mechanical properties :
#
#
# Convention : Reuss Voigt Hill
#
# Bulk Modulus (GPa) = 50.47216 52.26530 51.36873
# Shear Modulus (GPa) = 16.71355 26.19369 21.45362
#
# Velocity S-wave (km/s) = 2.87191 3.59530 3.25377
# Velocity P-wave (km/s) = 5.99202 6.55949 6.28217
#
# Compressibility (1/GPa) = 0.01981290
#
# Stress axis : x y z
#
# Youngs Moduli (GPa) = 115.52165 80.13973 76.68644
#
# Poissons Ratio (x) = 0.15244 0.19028
# Poissons Ratio (y) = 0.21974 0.21452
# Poissons Ratio (z) = 0.28665 0.22418
#
# Static dielectric constant tensor:
#      x y z
#    x 3.618130 0.000000 0.000000 
#    y 0.000000 4.152180 0.000000 
#    z 0.000000 0.000000 3.647570 
# 
# 
# High freq. dielectric constant tensor:
#      x y z
#    x 1.783370 0.000000 0.000000 
#    y 0.000000 1.810660 0.000000 
#    z 0.000000 0.000000 1.776340 
# 
# From -- ./inp_files/1686.got.cif
#   From: 2010.03.12/outbox.cif.g09.slc.cpg/sg62_1_cif.got.tgz:1686.got - 2010.04.10 19:12:36.
