data_PCOD8253891
_publ_section_title
;
Structure prediction by ZEFSAII (Michael W. Deem and Ramdas Pophale) SiO2 
 PCOD8253891
Probable space group: P N M A
;
_chemical_formula_sum "Si O2"
_cell_formula_units_Z 40
_cell_length_a 16.381904
_cell_length_b 9.092698
_cell_length_c 12.623273
_cell_angle_alpha 90.000000
_cell_angle_beta 90.000000
_cell_angle_gamma 90.000000
_cell_volume 1880.308538
_symmetry_space_group_name_H-M "P N M A"
_symmetry_group_IT_number 62
_symmetry_cell_setting 'orthorhombic'
loop_
_space_group_symop_operation_xyz
x,y,z
1/2-x,-y,1/2+z
1/2+x,1/2-y,1/2-z
-x,1/2+y,-z
-x,-y,-z
1/2+x,y,1/2-z
1/2-x,1/2+y,1/2+z
x,1/2-y,z
loop_
_atom_site_type_symbol
_atom_site_label
_atom_site_fract_x
_atom_site_fract_y
_atom_site_fract_z
Si Si1 0.910678 0.411452 0.102842
Si Si2 0.588081 0.576287 0.994368
Si Si3 0.901332 0.589434 0.910045
Si Si4 0.336700 0.082109 0.780035
Si Si5 0.153795 0.078461 0.708365
O O1 0.870863 0.250000 0.122547
O O2 0.909012 0.511967 0.207121
O O3 0.003504 0.389588 0.069461
O O4 0.863589 0.489877 0.004600
O O5 0.576046 0.750000 0.975385
O O6 0.639360 0.543398 0.100204
O O7 0.500000 0.500000 0.000000
O O8 0.642525 0.506793 0.901420
O O9 0.858544 0.750000 0.914163
O O10 0.889956 0.518917 0.795708
O O11 0.358254 0.250000 0.753864
O O12 0.242310 0.049281 0.757839
O O13 0.134838 0.250000 0.691066
#
# Coordination Sequence:
#
# PCOD8253891 Si02
#       5
#     8   8   8   8   8
#     4  10  21  38  61  90 122 160 203 251 309 372
#     4  11  24  44  68  95 129 172 219 268 320 384
#     4  10  21  37  61  90 121 158 203 252 306 368
#     4  10  24  42  61  89 127 165 206 258 316 375
#     4  11  24  41  62  92 127 165 209 261 319 376
#
# _framework density 21.273104
#
# number of rings (size 3 to 8) (size 9 to 14) (size 15 to 20)
#    0.000    1.600    0.000    3.600    2.800    8.800 
#    0.000    0.000    0.000    0.000    0.000    0.000 
#    0.000    0.000    0.000    0.000    0.000    0.000 
#
# Total GULP energy -496048.661155 kJ/mol
# GULP energy per Si atom -12401.216529 kJ/mol
# Density = 2.122469 g / cm^3
# Si number density = 21.273104 Si / 1000 Ang^3
#
#
#
# Elastic Constant Matrix: (Units=GPa)
#
#
# Indices 1 2 3 4 5 6 
#
# 1 58.8775 43.3988 32.3262 0.0000 0.0000 0.0000
# 2 43.3988 169.5841 98.8987 0.0000 0.0000 0.0000
# 3 32.3262 98.8987 172.3948 0.0000 0.0000 0.0000
# 4 0.0000 0.0000 0.0000 41.9638 0.0000 0.0000
# 5 0.0000 0.0000 0.0000 0.0000 34.1553 0.0000
# 6 0.0000 0.0000 0.0000 0.0000 0.0000 20.1214
#
#
#
# Elastic Compliance Matrix: (Units=1/GPa)
#
#
# Indices 1 2 3 4 5 6 
#
# 1 0.021123 -0.004652 -0.001292 0.000000 0.000000 0.000000
# 2 -0.004652 0.009886 -0.004799 0.000000 0.000000 0.000000
# 3 -0.001292 -0.004799 0.008796 0.000000 0.000000 0.000000
# 4 0.000000 0.000000 0.000000 0.023830 0.000000 0.000000
# 5 0.000000 0.000000 0.000000 0.000000 0.029278 0.000000
# 6 0.000000 0.000000 0.000000 0.000000 0.000000 0.049698
#
#
# Mechanical properties :
#
#
# Convention : Reuss Voigt Hill
#
# Bulk Modulus (GPa) = 54.58940 83.34486 68.96713
# Shear Modulus (GPa) = 29.37651 34.33026 31.85339
#
# Velocity S-wave (km/s) = 3.72011 4.02156 3.87377
# Velocity P-wave (km/s) = 6.64599 7.79920 7.24557
#
# Compressibility (1/GPa) = 0.01831858
#
# Stress axis : x y z
#
# Youngs Moduli (GPa) = 47.34196 101.15257 113.68805
#
# Poissons Ratio (x) = 0.47058 0.14688
# Poissons Ratio (y) = 0.22024 0.54559
# Poissons Ratio (z) = 0.06116 0.48544
#
# Static dielectric constant tensor:
#      x y z
#    x 3.606600 0.000000 0.000000 
#    y 0.000000 4.304870 0.000000 
#    z 0.000000 0.000000 3.907970 
# 
# 
# High freq. dielectric constant tensor:
#      x y z
#    x 1.814700 0.000000 0.000000 
#    y 0.000000 1.853100 0.000000 
#    z 0.000000 0.000000 1.846890 
# 
# From -- ./inp_files/13831.got.cif
#   From: 2010.03.12/outbox.cif.g09.slc.cpg/sg62_7_cif.got.tgz:13831.got - 2010.04.10 19:12:36.
