data_PCOD8253829
_publ_section_title
;
Structure prediction by ZEFSAII (Michael W. Deem and Ramdas Pophale) SiO2 
 PCOD8253829
Probable space group: P N M A
;
_chemical_formula_sum "Si O2"
_cell_formula_units_Z 40
_cell_length_a 24.939520
_cell_length_b 8.559845
_cell_length_c 9.532196
_cell_angle_alpha 90.000000
_cell_angle_beta 90.000000
_cell_angle_gamma 90.000000
_cell_volume 2034.918194
_symmetry_space_group_name_H-M "P N M A"
_symmetry_group_IT_number 62
_symmetry_cell_setting 'orthorhombic'
loop_
_space_group_symop_operation_xyz
x,y,z
1/2-x,-y,1/2+z
1/2+x,1/2-y,1/2-z
-x,1/2+y,-z
-x,-y,-z
1/2+x,y,1/2-z
1/2-x,1/2+y,1/2+z
x,1/2-y,z
loop_
_atom_site_type_symbol
_atom_site_label
_atom_site_fract_x
_atom_site_fract_y
_atom_site_fract_z
Si Si1 0.912148 0.931303 0.360325
Si Si2 0.698495 0.927757 0.834928
Si Si3 0.712712 0.927967 0.152709
Si Si4 0.910048 0.431687 0.662489
Si Si5 0.000583 0.566792 0.844501
O O1 0.919341 0.750000 0.394017
O O2 0.852325 0.962968 0.302866
O O3 0.924164 0.026556 0.502127
O O4 0.953002 0.981278 0.240763
O O5 0.678562 0.750000 0.820894
O O6 0.746734 0.957630 0.729333
O O7 0.721160 0.959556 0.989094
O O8 0.726177 0.750000 0.193113
O O9 0.651905 0.968688 0.195395
O O10 0.923453 0.250000 0.684194
O O11 0.943815 0.534354 0.770640
O O12 0.011987 0.750000 0.848851
O O13 0.000000 0.500000 0.000000
#
# Coordination Sequence:
#
# PCOD8253829 Si02
#       5
#     8   8   8   8   8
#     4  11  22  39  62  86 114 152 196 238 285 342
#     4  10  21  37  58  85 116 150 191 237 285 339
#     4   9  20  37  57  83 115 150 189 233 282 339
#     4  10  21  40  62  86 117 153 194 237 284 341
#     4  12  25  41  60  86 118 151 190 237 291 343
#
# _framework density 19.65681
#
# number of rings (size 3 to 8) (size 9 to 14) (size 15 to 20)
#    0.000    1.600    0.000    6.600    0.000    6.400 
#    0.000    4.000    0.000    0.000    0.000    0.000 
#    0.000    0.000    0.000    0.000    0.000    0.000 
#
# Total GULP energy -496213.032982 kJ/mol
# GULP energy per Si atom -12405.325825 kJ/mol
# Density = 1.961207 g / cm^3
# Si number density = 19.656810 Si / 1000 Ang^3
#
#
#
# Elastic Constant Matrix: (Units=GPa)
#
#
# Indices 1 2 3 4 5 6 
#
# 1 413.5230 158.0754 371.3071 0.0000 0.0000 0.0000
# 2 158.0754 131.3692 144.9898 0.0000 0.0000 0.0000
# 3 371.3071 144.9898 397.4208 0.0000 0.0000 0.0000
# 4 0.0000 0.0000 0.0000 35.3030 0.0000 0.0000
# 5 0.0000 0.0000 0.0000 0.0000 35.4471 0.0000
# 6 0.0000 0.0000 0.0000 0.0000 0.0000 36.7700
#
#
#
# Elastic Compliance Matrix: (Units=1/GPa)
#
#
# Indices 1 2 3 4 5 6 
#
# 1 0.016640 -0.004795 -0.013797 0.000000 0.000000 0.000000
# 2 -0.004795 0.014125 -0.000673 0.000000 0.000000 0.000000
# 3 -0.013797 -0.000673 0.015652 0.000000 0.000000 0.000000
# 4 0.000000 0.000000 0.000000 0.028326 0.000000 0.000000
# 5 0.000000 0.000000 0.000000 0.000000 0.028211 0.000000
# 6 0.000000 0.000000 0.000000 0.000000 0.000000 0.027196
#
#
# Mechanical properties :
#
#
# Convention : Reuss Voigt Hill
#
# Bulk Modulus (GPa) = 126.79972 254.56196 190.68084
# Shear Modulus (GPa) = 29.18698 39.36671 34.27685
#
# Velocity S-wave (km/s) = 3.85753 4.48001 4.18037
# Velocity P-wave (km/s) = 9.19171 12.51179 10.97799
#
# Compressibility (1/GPa) = 0.00788645
#
# Stress axis : x y z
#
# Youngs Moduli (GPa) = 60.09770 70.79696 63.88850
#
# Poissons Ratio (x) = 0.33946 0.88147
# Poissons Ratio (y) = 0.28816 0.04302
# Poissons Ratio (z) = 0.82916 0.04767
#
# Static dielectric constant tensor:
#      x y z
#    x 3.646300 0.000000 0.000000 
#    y 0.000000 3.674900 0.000000 
#    z 0.000000 0.000000 3.521970 
# 
# 
# High freq. dielectric constant tensor:
#      x y z
#    x 1.774780 0.000000 0.000000 
#    y 0.000000 1.777460 0.000000 
#    z 0.000000 0.000000 1.762340 
# 
# From -- ./inp_files/9064.got.cif
#   From: 2010.03.12/outbox.cif.g09.slc.cpg/sg62_5_cif.got.tgz:9064.got - 2010.04.10 19:12:36.
