data_PCOD8253125
_publ_section_title
;
Structure prediction by ZEFSAII (Michael W. Deem and Ramdas Pophale) SiO2 
 PCOD8253125
Probable space group: P N M A
;
_chemical_formula_sum "Si O2"
_cell_formula_units_Z 48
_cell_length_a 28.888581
_cell_length_b 8.479393
_cell_length_c 10.126642
_cell_angle_alpha 90.000000
_cell_angle_beta 90.000000
_cell_angle_gamma 90.000000
_cell_volume 2480.598239
_symmetry_space_group_name_H-M "P N M A"
_symmetry_group_IT_number 62
_symmetry_cell_setting 'orthorhombic'
loop_
_space_group_symop_operation_xyz
x,y,z
1/2-x,-y,1/2+z
1/2+x,1/2-y,1/2-z
-x,1/2+y,-z
-x,-y,-z
1/2+x,y,1/2-z
1/2-x,1/2+y,1/2+z
x,1/2-y,z
loop_
_atom_site_type_symbol
_atom_site_label
_atom_site_fract_x
_atom_site_fract_y
_atom_site_fract_z
Si Si1 0.284435 0.432502 0.715389
Si Si2 0.974548 0.433828 0.373053
Si Si3 0.381960 0.567724 0.723781
Si Si4 0.615063 0.431358 0.971681
Si Si5 0.787463 0.433102 0.484435
Si Si6 0.974671 0.065522 0.873727
O O1 0.272914 0.250000 0.692764
O O2 0.337915 0.464520 0.681151
O O3 0.253946 0.534735 0.615754
O O4 0.273782 0.485630 0.866436
O O5 0.985660 0.250000 0.354296
O O6 0.919527 0.461582 0.385776
O O7 0.000000 0.500000 0.500000
O O8 0.992889 0.530320 0.249622
O O9 0.369420 0.750000 0.702690
O O10 0.425222 0.520054 0.634714
O O11 0.394913 0.532209 0.875179
O O12 0.605599 0.250000 0.937465
O O13 0.667684 0.472404 0.934525
O O14 0.800267 0.250000 0.485859
O O15 0.965785 0.250000 0.886387
O O16 0.000000 0.000000 0.000000
#
# Coordination Sequence:
#
# PCOD8253125 Si02
#       6
#     8   8   8   8   8   8
#     4  10  21  38  61  88 118 153 196 243 297 354
#     4  12  23  38  62  91 121 156 200 245 294 349
#     4  10  20  37  62  88 118 156 199 241 295 358
#     4  10  20  36  61  90 119 153 197 246 297 350
#     4  10  21  38  60  87 119 153 195 244 297 354
#     4  12  25  42  62  87 123 160 199 247 300 358
#
# _framework density 19.350172000000001
#
# number of rings (size 3 to 8) (size 9 to 14) (size 15 to 20)
#    0.000    1.333    1.667    5.000    0.000    3.333 
#    3.000    0.000    0.000    0.000    0.000    0.000 
#    0.000    0.000    0.000    0.000    0.000    0.000 
#
# Total GULP energy -595489.657014 kJ/mol
# GULP energy per Si atom -12406.034521 kJ/mol
# Density = 1.930613 g / cm^3
# Si number density = 19.350172 Si / 1000 Ang^3
#
#
#
# Elastic Constant Matrix: (Units=GPa)
#
#
# Indices 1 2 3 4 5 6 
#
# 1 105.0802 12.3257 51.2671 0.0000 0.0000 0.0000
# 2 12.3257 61.2620 11.8611 0.0000 0.0000 0.0000
# 3 51.2671 11.8611 93.4176 0.0000 0.0000 0.0000
# 4 0.0000 0.0000 0.0000 28.9484 0.0000 0.0000
# 5 0.0000 0.0000 0.0000 0.0000 33.3451 0.0000
# 6 0.0000 0.0000 0.0000 0.0000 0.0000 39.4001
#
#
#
# Elastic Compliance Matrix: (Units=1/GPa)
#
#
# Indices 1 2 3 4 5 6 
#
# 1 0.013093 -0.001274 -0.007023 0.000000 0.000000 0.000000
# 2 -0.001274 0.016859 -0.001441 0.000000 0.000000 0.000000
# 3 -0.007023 -0.001441 0.014742 0.000000 0.000000 0.000000
# 4 0.000000 0.000000 0.000000 0.034544 0.000000 0.000000
# 5 0.000000 0.000000 0.000000 0.000000 0.029989 0.000000
# 6 0.000000 0.000000 0.000000 0.000000 0.000000 0.025381
#
#
# Mechanical properties :
#
#
# Convention : Reuss Voigt Hill
#
# Bulk Modulus (GPa) = 39.65802 45.62973 42.64388
# Shear Modulus (GPa) = 30.77100 32.62578 31.69839
#
# Velocity S-wave (km/s) = 3.99208 4.11063 4.05179
# Velocity P-wave (km/s) = 6.46439 6.79426 6.63138
#
# Compressibility (1/GPa) = 0.02521558
#
# Stress axis : x y z
#
# Youngs Moduli (GPa) = 76.37889 59.31631 67.83348
#
# Poissons Ratio (x) = 0.07559 0.47642
# Poissons Ratio (y) = 0.09734 0.09776
# Poissons Ratio (z) = 0.53644 0.08548
#
# Static dielectric constant tensor:
#      x y z
#    x 3.669700 0.000000 0.000000 
#    y 0.000000 3.622590 0.000000 
#    z 0.000000 0.000000 3.215100 
# 
# 
# High freq. dielectric constant tensor:
#      x y z
#    x 1.762770 0.000000 0.000000 
#    y 0.000000 1.767950 0.000000 
#    z 0.000000 0.000000 1.735940 
# 
# From -- ./inp_files/10233.got.cif
#   From: 2010.03.12/outbox.cif.g09.slc.cpg/sg62_6_cif.got.tgz:10233.got - 2010.04.10 19:12:36.
