data_PCOD8253311
_publ_section_title
;
Structure prediction by ZEFSAII (Michael W. Deem and Ramdas Pophale) SiO2 
 PCOD8253311
Probable space group: P N M A
;
_chemical_formula_sum "Si O2"
_cell_formula_units_Z 48
_cell_length_a 9.516941
_cell_length_b 9.037801
_cell_length_c 27.533108
_cell_angle_alpha 90.000000
_cell_angle_beta 90.000000
_cell_angle_gamma 90.000000
_cell_volume 2368.183712
_symmetry_space_group_name_H-M "P N M A"
_symmetry_group_IT_number 62
_symmetry_cell_setting 'orthorhombic'
loop_
_space_group_symop_operation_xyz
x,y,z
1/2-x,-y,1/2+z
1/2+x,1/2-y,1/2-z
-x,1/2+y,-z
-x,-y,-z
1/2+x,y,1/2-z
1/2-x,1/2+y,1/2+z
x,1/2-y,z
loop_
_atom_site_type_symbol
_atom_site_label
_atom_site_fract_x
_atom_site_fract_y
_atom_site_fract_z
Si Si1 0.717079 0.580789 0.602895
Si Si2 0.148744 0.573820 0.703580
Si Si3 0.441297 0.082737 0.954147
Si Si4 0.442025 0.579073 0.547624
Si Si5 0.827535 0.574608 0.705243
Si Si6 0.789450 0.580664 0.393619
O O1 0.768602 0.750000 0.599207
O O2 0.795389 0.489257 0.561451
O O3 0.552015 0.566644 0.592201
O O4 0.753101 0.516239 0.656107
O O5 0.155084 0.750000 0.698115
O O6 0.236029 0.514977 0.749799
O O7 0.224864 0.503206 0.657227
O O8 0.987997 0.517694 0.708660
O O9 0.411524 0.250000 0.969602
O O10 0.548773 0.072134 0.909451
O O11 0.500000 0.000000 0.000000
O O12 0.500000 0.500000 0.500000
O O13 0.410481 0.750000 0.535365
O O14 0.300976 0.499048 0.564821
O O15 0.825298 0.750000 0.706321
O O16 0.738942 0.750000 0.388244
#
# Coordination Sequence:
#
# PCOD8253311 Si02
#       6
#     8   8   8   8   8   8
#     4  10  21  39  61  88 119 154 196 248 299 355
#     4  10  20  37  63  90 118 154 197 246 298 355
#     4  11  23  38  60  87 117 154 198 246 298 358
#     4  11  24  40  62  89 123 161 205 251 303 361
#     4   9  19  35  61  92 118 147 194 246 297 355
#     4  11  24  41  59  86 124 160 201 247 296 359
#
# _framework density 20.268698000000001
#
# number of rings (size 3 to 8) (size 9 to 14) (size 15 to 20)
#    0.000    1.667    1.667    2.500    2.333    7.333 
#    0.000    1.667    0.000    0.000    0.000    0.000 
#    0.000    0.000    0.000    0.000    0.000    0.000 
#
# Total GULP energy -595393.099734 kJ/mol
# GULP energy per Si atom -12404.022911 kJ/mol
# Density = 2.022257 g / cm^3
# Si number density = 20.268698 Si / 1000 Ang^3
#
#
#
# Elastic Constant Matrix: (Units=GPa)
#
#
# Indices 1 2 3 4 5 6 
#
# 1 74.5748 22.4865 15.8615 0.0000 0.0000 0.0000
# 2 22.4865 93.5881 28.4184 0.0000 0.0000 0.0000
# 3 15.8615 28.4184 103.3004 0.0000 0.0000 0.0000
# 4 0.0000 0.0000 0.0000 31.7651 0.0000 0.0000
# 5 0.0000 0.0000 0.0000 0.0000 43.0137 0.0000
# 6 0.0000 0.0000 0.0000 0.0000 0.0000 26.1159
#
#
#
# Elastic Compliance Matrix: (Units=1/GPa)
#
#
# Indices 1 2 3 4 5 6 
#
# 1 0.014639 -0.003093 -0.001397 0.000000 0.000000 0.000000
# 2 -0.003093 0.012313 -0.002912 0.000000 0.000000 0.000000
# 3 -0.001397 -0.002912 0.010696 0.000000 0.000000 0.000000
# 4 0.000000 0.000000 0.000000 0.031481 0.000000 0.000000
# 5 0.000000 0.000000 0.000000 0.000000 0.023248 0.000000
# 6 0.000000 0.000000 0.000000 0.000000 0.000000 0.038291
#
#
# Mechanical properties :
#
#
# Convention : Reuss Voigt Hill
#
# Bulk Modulus (GPa) = 43.77661 44.99958 44.38809
# Shear Modulus (GPa) = 32.66104 33.82538 33.24321
#
# Velocity S-wave (km/s) = 4.01858 4.08959 4.05424
# Velocity P-wave (km/s) = 6.57092 6.67453 6.62293
#
# Compressibility (1/GPa) = 0.02284325
#
# Stress axis : x y z
#
# Youngs Moduli (GPa) = 68.30996 81.21722 93.49134
#
# Poissons Ratio (x) = 0.25122 0.13059
# Poissons Ratio (y) = 0.21130 0.27228
# Poissons Ratio (z) = 0.09542 0.23653
#
# Static dielectric constant tensor:
#      x y z
#    x 3.844600 0.000000 0.000000 
#    y 0.000000 3.490820 0.000000 
#    z 0.000000 0.000000 3.825520 
# 
# 
# High freq. dielectric constant tensor:
#      x y z
#    x 1.797560 0.000000 0.000000 
#    y 0.000000 1.773370 0.000000 
#    z 0.000000 0.000000 1.801430 
# 
# From -- ./inp_files/31997.got.cif
#   From: 2010.03.12/outbox.cif.g09.slc.cpg/sg62_16_cif.got.tgz:31997.got - 2010.04.10 19:12:36.
