data_PCOD8253494
_publ_section_title
;
Structure prediction by ZEFSAII (Michael W. Deem and Ramdas Pophale) SiO2 
 PCOD8253494
Probable space group: P N M A
;
_chemical_formula_sum "Si O2"
_cell_formula_units_Z 48
_cell_length_a 27.102069
_cell_length_b 9.010179
_cell_length_c 10.014510
_cell_angle_alpha 90.000000
_cell_angle_beta 90.000000
_cell_angle_gamma 90.000000
_cell_volume 2445.488192
_symmetry_space_group_name_H-M "P N M A"
_symmetry_group_IT_number 62
_symmetry_cell_setting 'orthorhombic'
loop_
_space_group_symop_operation_xyz
x,y,z
1/2-x,-y,1/2+z
1/2+x,1/2-y,1/2-z
-x,1/2+y,-z
-x,-y,-z
1/2+x,y,1/2-z
1/2-x,1/2+y,1/2+z
x,1/2-y,z
loop_
_atom_site_type_symbol
_atom_site_label
_atom_site_fract_x
_atom_site_fract_y
_atom_site_fract_z
Si Si1 0.598328 0.079911 0.506241
Si Si2 0.289013 0.580750 0.422738
Si Si3 0.781021 0.574319 0.375541
Si Si4 0.885931 0.573318 0.484211
Si Si5 0.460357 0.925867 0.239355
Si Si6 0.927818 0.425771 0.738612
O O1 0.586478 0.250000 0.465664
O O2 0.652494 0.067369 0.567045
O O3 0.560796 0.019157 0.618803
O O4 0.593476 0.973340 0.380525
O O5 0.271764 0.750000 0.441234
O O6 0.263859 0.484363 0.536911
O O7 0.273712 0.519431 0.276759
O O8 0.780748 0.750000 0.378248
O O9 0.833011 0.516733 0.432849
O O10 0.887842 0.750000 0.497651
O O11 0.927592 0.512235 0.382628
O O12 0.894139 0.501190 0.627598
O O13 0.457233 0.750000 0.237706
O O14 0.516046 0.983493 0.222645
O O15 0.924585 0.250000 0.724858
#
# Coordination Sequence:
#
# PCOD8253494 Si02
#       6
#     8   8   8   8   8   8
#     4  10  20  39  62  82 111 154 195 229 276 342
#     4  10  22  40  62  86 112 147 189 233 282 337
#     4  10  22  40  62  86 112 147 189 233 282 337
#     4  10  20  39  62  82 111 154 195 229 276 342
#     4   9  18  37  62  83 110 150 195 237 278 331
#     4  11  23  35  54  89 122 148 185 237 286 327
#
# _framework density 19.627980999999998
#
# number of rings (size 3 to 8) (size 9 to 14) (size 15 to 20)
#    0.000    2.000    1.667    1.500    2.333    2.000 
#    0.000    2.500    0.000    0.000    0.000    0.000 
#    0.000    0.000    0.000    0.000    0.000    0.000 
#
# Total GULP energy -595362.445802 kJ/mol
# GULP energy per Si atom -12403.384288 kJ/mol
# Density = 1.958331 g / cm^3
# Si number density = 19.627981 Si / 1000 Ang^3
#
#
#
# Elastic Constant Matrix: (Units=GPa)
#
#
# Indices 1 2 3 4 5 6 
#
# 1 48.2970 11.7630 4.8787 0.0000 0.0000 0.0000
# 2 11.7630 23.9694 15.1872 0.0000 0.0000 0.0000
# 3 4.8787 15.1872 95.9794 0.0000 0.0000 0.0000
# 4 0.0000 0.0000 0.0000 18.7828 0.0000 0.0000
# 5 0.0000 0.0000 0.0000 0.0000 39.8277 0.0000
# 6 0.0000 0.0000 0.0000 0.0000 0.0000 27.1770
#
#
#
# Elastic Compliance Matrix: (Units=1/GPa)
#
#
# Indices 1 2 3 4 5 6 
#
# 1 0.023559 -0.012006 0.000702 0.000000 0.000000 0.000000
# 2 -0.012006 0.052488 -0.007695 0.000000 0.000000 0.000000
# 3 0.000702 -0.007695 0.011601 0.000000 0.000000 0.000000
# 4 0.000000 0.000000 0.000000 0.053240 0.000000 0.000000
# 5 0.000000 0.000000 0.000000 0.000000 0.025108 0.000000
# 6 0.000000 0.000000 0.000000 0.000000 0.000000 0.036796
#
#
# Mechanical properties :
#
#
# Convention : Reuss Voigt Hill
#
# Bulk Modulus (GPa) = 20.14150 25.76710 22.95430
# Shear Modulus (GPa) = 19.42961 26.25193 22.84077
#
# Velocity S-wave (km/s) = 3.14967 3.66112 3.41498
# Velocity P-wave (km/s) = 4.84883 5.57027 5.22202
#
# Compressibility (1/GPa) = 0.04964874
#
# Stress axis : x y z
#
# Youngs Moduli (GPa) = 42.44747 19.05211 86.20081
#
# Poissons Ratio (x) = 0.22875 -0.06054
# Poissons Ratio (y) = 0.50964 0.66332
# Poissons Ratio (z) = -0.02981 0.14661
#
# Static dielectric constant tensor:
#      x y z
#    x 3.694840 0.000000 0.000000 
#    y 0.000000 3.269330 0.000000 
#    z 0.000000 0.000000 3.674800 
# 
# 
# High freq. dielectric constant tensor:
#      x y z
#    x 1.773750 0.000000 0.000000 
#    y 0.000000 1.735960 0.000000 
#    z 0.000000 0.000000 1.781380 
# 
# From -- ./inp_files/10145.got.cif
#   From: 2010.03.12/outbox.cif.g09.slc.cpg/sg62_6_cif.got.tgz:10145.got - 2010.04.10 19:12:36.
