data_PCOD8253822
_publ_section_title
;
Structure prediction by ZEFSAII (Michael W. Deem and Ramdas Pophale) SiO2 
 PCOD8253822
Probable space group: P N M A
;
_chemical_formula_sum "Si O2"
_cell_formula_units_Z 64
_cell_length_a 23.928533
_cell_length_b 8.836393
_cell_length_c 15.397401
_cell_angle_alpha 90.000000
_cell_angle_beta 90.000000
_cell_angle_gamma 90.000000
_cell_volume 3255.656054
_symmetry_space_group_name_H-M "P N M A"
_symmetry_group_IT_number 62
_symmetry_cell_setting 'orthorhombic'
loop_
_space_group_symop_operation_xyz
x,y,z
1/2-x,-y,1/2+z
1/2+x,1/2-y,1/2-z
-x,1/2+y,-z
-x,-y,-z
1/2+x,y,1/2-z
1/2-x,1/2+y,1/2+z
x,1/2-y,z
loop_
_atom_site_type_symbol
_atom_site_label
_atom_site_fract_x
_atom_site_fract_y
_atom_site_fract_z
Si Si1 0.557593 0.570288 0.746095
Si Si2 0.639994 0.576050 0.895787
Si Si3 0.862092 0.076665 0.591757
Si Si4 0.748554 0.071419 0.148545
Si Si5 0.247713 0.077396 0.669297
Si Si6 0.567602 0.428670 0.240761
Si Si7 0.631317 0.929675 0.589229
Si Si8 0.131236 0.922801 0.103780
O O1 0.555485 0.750000 0.742331
O O2 0.592650 0.516291 0.829845
O O3 0.495061 0.504601 0.752270
O O4 0.586647 0.505843 0.658548
O O5 0.655577 0.750000 0.874458
O O6 0.694947 0.474720 0.886686
O O7 0.616098 0.560476 0.993158
O O8 0.859205 0.250000 0.622176
O O9 0.800324 0.008312 0.595283
O O10 0.904738 0.991647 0.653991
O O11 0.742466 0.250000 0.136667
O O12 0.807343 0.008039 0.113018
O O13 0.743381 0.031559 0.249375
O O14 0.239225 0.250000 0.700551
O O15 0.301893 0.063750 0.608528
O O16 0.567094 0.250000 0.232943
O O17 0.601805 0.472548 0.325999
O O18 0.633801 0.750000 0.595028
O O19 0.613605 0.980074 0.492318
O O20 0.112281 0.750000 0.119643
#
# Coordination Sequence:
#
# PCOD8253822 Si02
#       8
#     8   8   8   8   8   8   8   8
#     4   9  19  38  60  83 110 147 199 243 282 338
#     4  10  21  39  62  85 114 154 193 235 289 348
#     4  11  23  38  58  86 119 151 188 241 294 341
#     4  11  20  35  62  88 114 153 193 228 283 349
#     4  11  21  34  56  88 124 153 183 231 286 341
#     4  11  23  38  59  82 110 152 198 244 287 340
#     4   9  18  35  61  86 112 150 189 228 281 343
#     4  10  21  37  58  84 117 152 185 230 286 342
#
# _framework density 19.658097000000001
#
# number of rings (size 3 to 8) (size 9 to 14) (size 15 to 20)
#    0.000    1.750    2.500    2.250    0.000    3.500 
#    0.000    2.500    0.000    0.000    0.000    0.000 
#    0.000    0.000    0.000    0.000    0.000    0.000 
#
# Total GULP energy -793749.037778 kJ/mol
# GULP energy per Si atom -12402.328715 kJ/mol
# Density = 1.961335 g / cm^3
# Si number density = 19.658097 Si / 1000 Ang^3
#
#
#
# Elastic Constant Matrix: (Units=GPa)
#
#
# Indices 1 2 3 4 5 6 
#
# 1 139.1765 38.4994 54.1160 0.0000 0.0000 0.0000
# 2 38.4994 60.9671 32.0597 0.0000 0.0000 0.0000
# 3 54.1160 32.0597 133.0381 0.0000 0.0000 0.0000
# 4 0.0000 0.0000 0.0000 16.3735 0.0000 0.0000
# 5 0.0000 0.0000 0.0000 0.0000 13.1154 0.0000
# 6 0.0000 0.0000 0.0000 0.0000 0.0000 9.3822
#
#
#
# Elastic Compliance Matrix: (Units=1/GPa)
#
#
# Indices 1 2 3 4 5 6 
#
# 1 0.009525 -0.004554 -0.002777 0.000000 0.000000 0.000000
# 2 -0.004554 0.020960 -0.003198 0.000000 0.000000 0.000000
# 3 -0.002777 -0.003198 0.009417 0.000000 0.000000 0.000000
# 4 0.000000 0.000000 0.000000 0.061074 0.000000 0.000000
# 5 0.000000 0.000000 0.000000 0.000000 0.076246 0.000000
# 6 0.000000 0.000000 0.000000 0.000000 0.000000 0.106585
#
#
# Mechanical properties :
#
#
# Convention : Reuss Voigt Hill
#
# Bulk Modulus (GPa) = 53.07158 64.72578 58.89868
# Shear Modulus (GPa) = 16.06956 21.67467 18.87212
#
# Velocity S-wave (km/s) = 2.86221 3.32412 3.10178
# Velocity P-wave (km/s) = 6.16271 6.90871 6.54634
#
# Compressibility (1/GPa) = 0.01884248
#
# Stress axis : x y z
#
# Youngs Moduli (GPa) = 104.99019 47.70947 106.19166
#
# Poissons Ratio (x) = 0.21729 0.29488
# Poissons Ratio (y) = 0.47817 0.33964
# Poissons Ratio (z) = 0.29154 0.15259
#
# Static dielectric constant tensor:
#      x y z
#    x 3.744270 0.000000 0.000000 
#    y 0.000000 3.399550 0.000000 
#    z 0.000000 0.000000 3.693690 
# 
# 
# High freq. dielectric constant tensor:
#      x y z
#    x 1.763460 0.000000 0.000000 
#    y 0.000000 1.744100 0.000000 
#    z 0.000000 0.000000 1.779820 
# 
# From -- ./inp_files/20759.got.cif
#   From: 2010.03.12/outbox.cif.g09.slc.cpg/sg62_11_cif.got.tgz:20759.got - 2010.04.10 19:12:36.
