data_PCOD8253299
_publ_section_title
;
Structure prediction by ZEFSAII (Michael W. Deem and Ramdas Pophale) SiO2 
 PCOD8253299
Probable space group: P N M A
;
_chemical_formula_sum "Si O2"
_cell_formula_units_Z 32
_cell_length_a 8.781155
_cell_length_b 18.341716
_cell_length_c 10.184637
_cell_angle_alpha 90.000000
_cell_angle_beta 90.000000
_cell_angle_gamma 90.000000
_cell_volume 1640.352415
_symmetry_space_group_name_H-M "P N M A"
_symmetry_group_IT_number 62
_symmetry_cell_setting 'orthorhombic'
loop_
_space_group_symop_operation_xyz
x,y,z
1/2-x,-y,1/2+z
1/2+x,1/2-y,1/2-z
-x,1/2+y,-z
-x,-y,-z
1/2+x,y,1/2-z
1/2-x,1/2+y,1/2+z
x,1/2-y,z
loop_
_atom_site_type_symbol
_atom_site_label
_atom_site_fract_x
_atom_site_fract_y
_atom_site_fract_z
Si Si1 0.076646 0.040708 0.881864
Si Si2 0.040643 0.331633 0.059624
Si Si3 0.222022 0.333497 0.307183
Si Si4 0.591207 0.482121 0.127893
O O1 0.253076 0.025508 0.872482
O O2 0.051370 0.125030 0.922412
O O3 0.999963 0.014806 0.749337
O O4 0.000000 0.000000 0.000000
O O5 0.021804 0.250000 0.010267
O O6 0.192625 0.341844 0.149750
O O7 0.895849 0.352229 0.153481
O O8 0.177341 0.250000 0.349412
O O9 0.114779 0.394553 0.373352
O O10 0.500000 0.500000 0.000000
#
# Coordination Sequence:
#
# PCOD8253299 Si02
#       4
#     8   8   8   8
#     4  12  23  41  64  91 128 162 210 260 312 376
#     4  10  22  40  64  94 128 166 209 261 316 374
#     4  10  20  37  62  92 124 160 207 256 308 368
#     4  12  25  40  64  96 126 166 211 259 317 376
#
# _framework density 19.508004
#
# number of rings (size 3 to 8) (size 9 to 14) (size 15 to 20)
#    0.000    1.000    5.000    1.500    3.500    0.000 
#    0.000    2.500    0.000    0.000    0.000    0.000 
#    0.000    0.000    0.000    0.000    0.000    0.000 
#
# Total GULP energy -396518.512486 kJ/mol
# GULP energy per Si atom -12391.203515 kJ/mol
# Density = 1.946360 g / cm^3
# Si number density = 19.508004 Si / 1000 Ang^3
#
#
#
# Elastic Constant Matrix: (Units=GPa)
#
#
# Indices 1 2 3 4 5 6 
#
# 1 137.7563 59.0734 75.3407 0.0000 0.0000 0.0000
# 2 59.0734 142.4309 67.1483 0.0000 0.0000 0.0000
# 3 75.3407 67.1483 143.2143 0.0000 0.0000 0.0000
# 4 0.0000 0.0000 0.0000 38.6632 0.0000 0.0000
# 5 0.0000 0.0000 0.0000 0.0000 35.2513 0.0000
# 6 0.0000 0.0000 0.0000 0.0000 0.0000 25.9010
#
#
#
# Elastic Compliance Matrix: (Units=1/GPa)
#
#
# Indices 1 2 3 4 5 6 
#
# 1 0.010748 -0.002301 -0.004576 0.000000 0.000000 0.000000
# 2 -0.002301 0.009506 -0.003247 0.000000 0.000000 0.000000
# 3 -0.004576 -0.003247 0.010912 0.000000 0.000000 0.000000
# 4 0.000000 0.000000 0.000000 0.025864 0.000000 0.000000
# 5 0.000000 0.000000 0.000000 0.000000 0.028368 0.000000
# 6 0.000000 0.000000 0.000000 0.000000 0.000000 0.038609
#
#
# Mechanical properties :
#
#
# Convention : Reuss Voigt Hill
#
# Bulk Modulus (GPa) = 91.57472 91.83627 91.70550
# Shear Modulus (GPa) = 33.80835 34.75237 34.28036
#
# Velocity S-wave (km/s) = 4.16751 4.22529 4.19650
# Velocity P-wave (km/s) = 8.37864 8.42511 8.40191
#
# Compressibility (1/GPa) = 0.01092004
#
# Stress axis : x y z
#
# Youngs Moduli (GPa) = 93.03835 105.19940 91.64340
#
# Poissons Ratio (x) = 0.24203 0.41932
# Poissons Ratio (y) = 0.21405 0.29753
# Poissons Ratio (z) = 0.42571 0.34154
#
# Static dielectric constant tensor:
#      x y z
#    x 3.591170 0.000000 0.000000 
#    y 0.000000 3.519830 0.000000 
#    z 0.000000 0.000000 3.006940 
# 
# 
# High freq. dielectric constant tensor:
#      x y z
#    x 1.769000 0.000000 0.000000 
#    y 0.000000 1.779420 0.000000 
#    z 0.000000 0.000000 1.737420 
# 
# From -- ./inp_files/4108.got.cif
#   From: 2010.03.12/outbox.cif.g09.slc.cpg/sg62_3_cif.got.tgz:4108.got - 2010.04.10 19:12:36.
