data_PCOD8253056
_publ_section_title
;
Structure prediction by ZEFSAII (Michael W. Deem and Ramdas Pophale) SiO2 
 PCOD8253056
Probable space group: P N M A
;
_chemical_formula_sum "Si O2"
_cell_formula_units_Z 48
_cell_length_a 27.532383
_cell_length_b 13.425052
_cell_length_c 6.840359
_cell_angle_alpha 90.000000
_cell_angle_beta 90.000000
_cell_angle_gamma 90.000000
_cell_volume 2528.358621
_symmetry_space_group_name_H-M "P N M A"
_symmetry_group_IT_number 62
_symmetry_cell_setting 'orthorhombic'
loop_
_space_group_symop_operation_xyz
x,y,z
1/2-x,-y,1/2+z
1/2+x,1/2-y,1/2-z
-x,1/2+y,-z
-x,-y,-z
1/2+x,y,1/2-z
1/2-x,1/2+y,1/2+z
x,1/2-y,z
loop_
_atom_site_type_symbol
_atom_site_label
_atom_site_fract_x
_atom_site_fract_y
_atom_site_fract_z
Si Si1 0.138370 0.363412 0.026938
Si Si2 0.971106 0.021958 0.305492
Si Si3 0.472358 0.860469 0.515484
Si Si4 0.789555 0.131999 0.024062
Si Si5 0.141832 0.976279 0.712033
Si Si6 0.699298 0.488522 0.179087
O O1 0.154749 0.250000 0.995948
O O2 0.082549 0.373771 0.088930
O O3 0.167152 0.409862 0.205412
O O4 0.148870 0.418525 0.822488
O O5 0.914288 0.040677 0.343500
O O6 0.992629 0.118842 0.198807
O O7 0.000000 0.000000 0.500000
O O8 0.983054 0.928892 0.168557
O O9 0.482437 0.750000 0.439894
O O10 0.778427 0.250000 0.016846
O O11 0.792404 0.089453 0.803622
O O12 0.839653 0.111786 0.143044
O O13 0.749222 0.068251 0.137860
O O14 0.173144 0.976912 0.516875
#
# Coordination Sequence:
#
# PCOD8253056 Si02
#       6
#     8   8   8   8   8   8
#     4   9  19  35  60  88 114 147 191 246 298 345
#     4  10  20  36  59  85 115 158 194 243 296 350
#     4   9  19  36  56  84 117 147 189 243 294 347
#     4  11  24  41  61  85 118 159 198 248 304 356
#     4  10  22  39  57  84 122 152 198 246 296 360
#     4  11  21  41  59  87 116 152 198 249 290 359
#
# _framework density 18.984648
#
# number of rings (size 3 to 8) (size 9 to 14) (size 15 to 20)
#    0.000    2.000    1.667    1.500    0.000    4.667 
#    0.000    3.333    0.000    0.000    0.000    0.000 
#    0.000    0.000    0.000    0.000    0.000    0.000 
#
# Total GULP energy -595214.208987 kJ/mol
# GULP energy per Si atom -12400.296021 kJ/mol
# Density = 1.894144 g / cm^3
# Si number density = 18.984648 Si / 1000 Ang^3
#
#
#
# Elastic Constant Matrix: (Units=GPa)
#
#
# Indices 1 2 3 4 5 6 
#
# 1 90.6450 45.2837 51.1776 0.0000 0.0000 0.0000
# 2 45.2837 99.5249 48.1943 0.0000 0.0000 0.0000
# 3 51.1776 48.1943 112.6429 0.0000 0.0000 0.0000
# 4 0.0000 0.0000 0.0000 15.7737 0.0000 0.0000
# 5 0.0000 0.0000 0.0000 0.0000 40.5575 0.0000
# 6 0.0000 0.0000 0.0000 0.0000 0.0000 26.4396
#
#
#
# Elastic Compliance Matrix: (Units=1/GPa)
#
#
# Indices 1 2 3 4 5 6 
#
# 1 0.016540 -0.004902 -0.005417 0.000000 0.000000 0.000000
# 2 -0.004902 0.014127 -0.003817 0.000000 0.000000 0.000000
# 3 -0.005417 -0.003817 0.012972 0.000000 0.000000 0.000000
# 4 0.000000 0.000000 0.000000 0.063396 0.000000 0.000000
# 5 0.000000 0.000000 0.000000 0.000000 0.024656 0.000000
# 6 0.000000 0.000000 0.000000 0.000000 0.000000 0.037822
#
#
# Mechanical properties :
#
#
# Convention : Reuss Voigt Hill
#
# Bulk Modulus (GPa) = 65.08028 65.79154 65.43591
# Shear Modulus (GPa) = 24.64186 27.09798 25.86992
#
# Velocity S-wave (km/s) = 3.60667 3.78214 3.69545
# Velocity P-wave (km/s) = 7.19020 7.33507 7.26299
#
# Compressibility (1/GPa) = 0.01536564
#
# Stress axis : x y z
#
# Youngs Moduli (GPa) = 60.46121 70.78887 77.09057
#
# Poissons Ratio (x) = 0.34703 0.41760
# Poissons Ratio (y) = 0.29640 0.29424
# Poissons Ratio (z) = 0.32752 0.27018
#
# Static dielectric constant tensor:
#      x y z
#    x 3.705760 0.000000 0.000000 
#    y 0.000000 3.547820 0.000000 
#    z 0.000000 0.000000 3.471840 
# 
# 
# High freq. dielectric constant tensor:
#      x y z
#    x 1.750170 0.000000 0.000000 
#    y 0.000000 1.730860 0.000000 
#    z 0.000000 0.000000 1.742500 
# 
# From -- ./inp_files/3204.got.cif
#   From: 2010.03.12/outbox.cif.g09.slc.cpg/sg62_2_cif.got.tgz:3204.got - 2010.04.10 19:12:36.
