data_PCOD8253350
_publ_section_title
;
Structure prediction by ZEFSAII (Michael W. Deem and Ramdas Pophale) SiO2 
 PCOD8253350
Probable space group: P N M A
;
_chemical_formula_sum "Si O2"
_cell_formula_units_Z 64
_cell_length_a 29.594367
_cell_length_b 12.508601
_cell_length_c 9.104179
_cell_angle_alpha 90.000000
_cell_angle_beta 90.000000
_cell_angle_gamma 90.000000
_cell_volume 3370.222570
_symmetry_space_group_name_H-M "P N M A"
_symmetry_group_IT_number 62
_symmetry_cell_setting 'orthorhombic'
loop_
_space_group_symop_operation_xyz
x,y,z
1/2-x,-y,1/2+z
1/2+x,1/2-y,1/2-z
-x,1/2+y,-z
-x,-y,-z
1/2+x,y,1/2-z
1/2-x,1/2+y,1/2+z
x,1/2-y,z
loop_
_atom_site_type_symbol
_atom_site_label
_atom_site_fract_x
_atom_site_fract_y
_atom_site_fract_z
Si Si1 0.435149 0.125440 0.656774
Si Si2 0.071443 0.872156 0.821314
Si Si3 0.689373 0.126666 0.572060
Si Si4 0.487137 0.964499 0.840566
Si Si5 0.395689 0.870140 0.925127
Si Si6 0.352385 0.499621 0.171826
Si Si7 0.704715 0.872880 0.066072
Si Si8 0.154669 0.497444 0.204953
O O1 0.436163 0.250000 0.697161
O O2 0.443399 0.103100 0.486454
O O3 0.387259 0.078297 0.704302
O O4 0.475870 0.068612 0.743262
O O5 0.083787 0.750000 0.797676
O O6 0.029195 0.900794 0.721811
O O7 0.117668 0.932392 0.784538
O O8 0.672587 0.250000 0.557759
O O9 0.677384 0.083712 0.734718
O O10 0.742195 0.120493 0.541096
O O11 0.666380 0.047842 0.454408
O O12 0.444082 0.886845 0.848906
O O13 0.500000 0.000000 0.000000
O O14 0.390169 0.750000 0.977437
O O15 0.356894 0.895914 0.806582
O O16 0.388856 0.941904 0.068913
O O17 0.319817 0.425373 0.074321
O O18 0.688741 0.750000 0.079578
O O19 0.694709 0.935450 0.218122
#
# Coordination Sequence:
#
# PCOD8253350 Si02
#       8
#     8   8   8   8   8   8   8   8
#     4  10  22  39  61  85 117 155 196 240 287 348
#     4  11  22  39  60  85 119 155 194 238 288 348
#     4  11  22  38  60  87 119 155 197 245 301 357
#     4  11  22  39  58  87 118 150 191 240 289 342
#     4  10  21  37  57  82 114 154 196 238 289 345
#     4  11  21  39  60  86 120 155 198 245 292 349
#     4  10  22  38  59  88 119 155 196 244 301 355
#     4  10  20  38  60  83 118 152 197 241 293 348
#
# _framework density 18.989844000000002
#
# number of rings (size 3 to 8) (size 9 to 14) (size 15 to 20)
#    0.000    1.500    2.500    3.000    0.000    1.000 
#    0.000    0.000    0.000    6.000    0.000    0.000 
#    0.000    0.000    0.000    0.000    0.000    0.000 
#
# Total GULP energy -793699.338280 kJ/mol
# GULP energy per Si atom -12401.552161 kJ/mol
# Density = 1.894662 g / cm^3
# Si number density = 18.989844 Si / 1000 Ang^3
#
#
#
# Elastic Constant Matrix: (Units=GPa)
#
#
# Indices 1 2 3 4 5 6 
#
# 1 65.7221 25.8223 24.1450 0.0000 0.0000 0.0000
# 2 25.8223 98.6204 51.0645 0.0000 0.0000 0.0000
# 3 24.1450 51.0645 94.5398 0.0000 0.0000 0.0000
# 4 0.0000 0.0000 0.0000 25.9154 0.0000 0.0000
# 5 0.0000 0.0000 0.0000 0.0000 33.5531 0.0000
# 6 0.0000 0.0000 0.0000 0.0000 0.0000 24.7828
#
#
#
# Elastic Compliance Matrix: (Units=1/GPa)
#
#
# Indices 1 2 3 4 5 6 
#
# 1 0.017465 -0.003142 -0.002763 0.000000 0.000000 0.000000
# 2 -0.003142 0.014642 -0.007106 0.000000 0.000000 0.000000
# 3 -0.002763 -0.007106 0.015122 0.000000 0.000000 0.000000
# 4 0.000000 0.000000 0.000000 0.038587 0.000000 0.000000
# 5 0.000000 0.000000 0.000000 0.000000 0.029803 0.000000
# 6 0.000000 0.000000 0.000000 0.000000 0.000000 0.040351
#
#
# Mechanical properties :
#
#
# Convention : Reuss Voigt Hill
#
# Bulk Modulus (GPa) = 47.15752 51.21621 49.18687
# Shear Modulus (GPa) = 26.44626 27.37362 26.90994
#
# Velocity S-wave (km/s) = 3.73587 3.80081 3.76848
# Velocity P-wave (km/s) = 6.59515 6.80371 6.70024
#
# Compressibility (1/GPa) = 0.02120552
#
# Stress axis : x y z
#
# Youngs Moduli (GPa) = 57.25618 68.29579 66.13027
#
# Poissons Ratio (x) = 0.21460 0.18274
# Poissons Ratio (y) = 0.17991 0.46994
# Poissons Ratio (z) = 0.15822 0.48533
#
# Static dielectric constant tensor:
#      x y z
#    x 3.167700 0.000000 0.000000 
#    y 0.000000 3.336530 0.000000 
#    z 0.000000 0.000000 3.124610 
# 
# 
# High freq. dielectric constant tensor:
#      x y z
#    x 1.739330 0.000000 0.000000 
#    y 0.000000 1.744840 0.000000 
#    z 0.000000 0.000000 1.748560 
# 
# From -- ./inp_files/10453.got.cif
#   From: 2010.03.12/outbox.cif.g09.slc.cpg/sg62_6_cif.got.tgz:10453.got - 2010.04.10 19:12:36.
