data_PCOD8253490
_publ_section_title
;
Structure prediction by ZEFSAII (Michael W. Deem and Ramdas Pophale) SiO2 
 PCOD8253490
Probable space group: P N M A
;
_chemical_formula_sum "Si O2"
_cell_formula_units_Z 48
_cell_length_a 18.675134
_cell_length_b 9.073184
_cell_length_c 14.856495
_cell_angle_alpha 90.000000
_cell_angle_beta 90.000000
_cell_angle_gamma 90.000000
_cell_volume 2517.327998
_symmetry_space_group_name_H-M "P N M A"
_symmetry_group_IT_number 62
_symmetry_cell_setting 'orthorhombic'
loop_
_space_group_symop_operation_xyz
x,y,z
1/2-x,-y,1/2+z
1/2+x,1/2-y,1/2-z
-x,1/2+y,-z
-x,-y,-z
1/2+x,y,1/2-z
1/2-x,1/2+y,1/2+z
x,1/2-y,z
loop_
_atom_site_type_symbol
_atom_site_label
_atom_site_fract_x
_atom_site_fract_y
_atom_site_fract_z
Si Si1 0.482821 0.077155 0.092846
Si Si2 0.281603 0.924703 0.495069
Si Si3 0.324777 0.075642 0.149194
Si Si4 0.259867 0.074931 0.797794
Si Si5 0.436488 0.921889 0.551743
Si Si6 0.593588 0.078344 0.245764
O O1 0.486033 0.250000 0.076104
O O2 0.404847 0.028162 0.125238
O O3 0.539160 0.027177 0.168462
O O4 0.500000 0.000000 0.000000
O O5 0.283131 0.750000 0.498584
O O6 0.227026 0.983088 0.570400
O O7 0.253130 0.980807 0.399272
O O8 0.360984 0.985919 0.515299
O O9 0.317435 0.250000 0.164218
O O10 0.304743 0.991887 0.240225
O O11 0.259180 0.250000 0.790873
O O12 0.334901 0.015727 0.761853
O O13 0.442239 0.750000 0.530829
O O14 0.443085 0.953379 0.658178
O O15 0.500000 0.000000 0.500000
O O16 0.614098 0.250000 0.237523
#
# Coordination Sequence:
#
# PCOD8253490 Si02
#       6
#     8   8   8   8   8   8
#     4  10  22  38  61  89 117 154 196 238 291 349
#     4   9  19  37  58  79 112 152 186 228 290 344
#     4  10  20  39  61  82 115 156 189 231 293 353
#     4  11  22  36  59  89 113 146 195 243 288 337
#     4  10  21  38  58  82 114 154 193 235 285 341
#     4  10  21  40  61  84 118 157 192 230 287 353
#
# _framework density 19.067836
#
# number of rings (size 3 to 8) (size 9 to 14) (size 15 to 20)
#    0.000    2.000    1.667    1.500    2.333    3.333 
#    0.000    2.500    0.000    0.000    0.000    0.000 
#    0.000    0.000    0.000    0.000    0.000    0.000 
#
# Total GULP energy -595356.974053 kJ/mol
# GULP energy per Si atom -12403.270293 kJ/mol
# Density = 1.902444 g / cm^3
# Si number density = 19.067836 Si / 1000 Ang^3
#
#
#
# Elastic Constant Matrix: (Units=GPa)
#
#
# Indices 1 2 3 4 5 6 
#
# 1 116.6487 32.3534 35.8735 0.0000 0.0000 0.0000
# 2 32.3534 41.0256 34.2475 0.0000 0.0000 0.0000
# 3 35.8735 34.2475 115.0050 0.0000 0.0000 0.0000
# 4 0.0000 0.0000 0.0000 30.9695 0.0000 0.0000
# 5 0.0000 0.0000 0.0000 0.0000 41.9263 0.0000
# 6 0.0000 0.0000 0.0000 0.0000 0.0000 28.2235
#
#
#
# Elastic Compliance Matrix: (Units=1/GPa)
#
#
# Indices 1 2 3 4 5 6 
#
# 1 0.011083 -0.007791 -0.001137 0.000000 0.000000 0.000000
# 2 -0.007791 0.037916 -0.008861 0.000000 0.000000 0.000000
# 3 -0.001137 -0.008861 0.011689 0.000000 0.000000 0.000000
# 4 0.000000 0.000000 0.000000 0.032290 0.000000 0.000000
# 5 0.000000 0.000000 0.000000 0.000000 0.023851 0.000000
# 6 0.000000 0.000000 0.000000 0.000000 0.000000 0.035431
#
#
# Mechanical properties :
#
#
# Convention : Reuss Voigt Hill
#
# Bulk Modulus (GPa) = 39.82492 53.06980 46.44736
# Shear Modulus (GPa) = 25.48298 31.57086 28.52692
#
# Velocity S-wave (km/s) = 3.65970 4.07346 3.87211
# Velocity P-wave (km/s) = 6.22809 7.07224 6.66355
#
# Compressibility (1/GPa) = 0.02510991
#
# Stress axis : x y z
#
# Youngs Moduli (GPa) = 90.22481 26.37389 85.55323
#
# Poissons Ratio (x) = 0.20549 0.09728
# Poissons Ratio (y) = 0.70298 0.75807
# Poissons Ratio (z) = 0.10259 0.23369
#
# Static dielectric constant tensor:
#      x y z
#    x 3.652930 0.000000 0.000000 
#    y 0.000000 3.243350 0.000000 
#    z 0.000000 0.000000 3.732300 
# 
# 
# High freq. dielectric constant tensor:
#      x y z
#    x 1.754090 0.000000 0.000000 
#    y 0.000000 1.716610 0.000000 
#    z 0.000000 0.000000 1.758600 
# 
# From -- ./inp_files/19523.got.cif
#   From: 2010.03.12/outbox.cif.g09.slc.cpg/sg62_10_cif.got.tgz:19523.got - 2010.04.10 19:12:36.
