data_PCOD8253294
_publ_section_title
;
Structure prediction by ZEFSAII (Michael W. Deem and Ramdas Pophale) SiO2 
 PCOD8253294
Probable space group: P N M A
;
_chemical_formula_sum "Si O2"
_cell_formula_units_Z 56
_cell_length_a 14.772920
_cell_length_b 12.555716
_cell_length_c 14.383617
_cell_angle_alpha 90.000000
_cell_angle_beta 90.000000
_cell_angle_gamma 90.000000
_cell_volume 2667.939273
_symmetry_space_group_name_H-M "P N M A"
_symmetry_group_IT_number 62
_symmetry_cell_setting 'orthorhombic'
loop_
_space_group_symop_operation_xyz
x,y,z
1/2-x,-y,1/2+z
1/2+x,1/2-y,1/2-z
-x,1/2+y,-z
-x,-y,-z
1/2+x,y,1/2-z
1/2-x,1/2+y,1/2+z
x,1/2-y,z
loop_
_atom_site_type_symbol
_atom_site_label
_atom_site_fract_x
_atom_site_fract_y
_atom_site_fract_z
Si Si1 0.097569 0.047276 0.500042
Si Si2 0.683781 0.474854 0.331234
Si Si3 0.257025 0.134303 0.998522
Si Si4 0.049637 0.370515 0.313754
Si Si5 0.905542 0.933282 0.101640
Si Si6 0.906484 0.127500 0.972146
Si Si7 0.883864 0.518723 0.301903
O O1 0.101457 0.129848 0.414293
O O2 0.115588 0.093686 0.604580
O O3 0.168006 0.953478 0.481540
O O4 0.000000 0.000000 0.500000
O O5 0.698895 0.383478 0.407767
O O6 0.606794 0.440500 0.259001
O O7 0.651370 0.581663 0.385337
O O8 0.779705 0.489690 0.278932
O O9 0.304068 0.250000 0.001891
O O10 0.185871 0.132419 0.914372
O O11 0.043875 0.250000 0.277935
O O12 0.947203 0.415569 0.323004
O O13 0.925543 0.926082 0.211542
O O14 0.987411 0.875845 0.049925
O O15 0.891222 0.055232 0.064453
O O16 0.877211 0.250000 0.991708
#
# Coordination Sequence:
#
# PCOD8253294 Si02
#       7
#     8   8   8   8   8   8   8
#     4   9  21  38  58  82 121 155 201 261 297 352
#     4  10  21  39  62  90 127 158 201 260 301 370
#     4  10  20  37  62  90 120 161 203 250 311 375
#     4  11  22  39  63  89 120 162 208 257 316 366
#     4  10  20  38  63  92 122 156 206 260 296 376
#     4  10  21  39  62  92 129 165 196 248 323 372
#     4  10  21  40  61  84 120 159 203 257 302 355
#
# _framework density 20.989985000000001
#
# number of rings (size 3 to 8) (size 9 to 14) (size 15 to 20)
#    0.000    2.000    1.429    1.714    0.000    6.286 
#    0.000   15.714    0.000    0.000    0.000    0.000 
#    0.000    0.000    0.000    0.000    0.000    0.000 
#
# Total GULP energy -693862.739670 kJ/mol
# GULP energy per Si atom -12390.406066 kJ/mol
# Density = 2.094221 g / cm^3
# Si number density = 20.989985 Si / 1000 Ang^3
#
#
#
# Elastic Constant Matrix: (Units=GPa)
#
#
# Indices 1 2 3 4 5 6 
#
# 1 111.9363 7.4526 10.0617 0.0000 0.0000 0.0000
# 2 7.4526 69.2862 8.6888 0.0000 0.0000 0.0000
# 3 10.0617 8.6888 93.3350 0.0000 0.0000 0.0000
# 4 0.0000 0.0000 0.0000 15.0492 0.0000 0.0000
# 5 0.0000 0.0000 0.0000 0.0000 33.9222 0.0000
# 6 0.0000 0.0000 0.0000 0.0000 0.0000 18.4468
#
#
#
# Elastic Compliance Matrix: (Units=1/GPa)
#
#
# Indices 1 2 3 4 5 6 
#
# 1 0.009072 -0.000863 -0.000898 0.000000 0.000000 0.000000
# 2 -0.000863 0.014686 -0.001274 0.000000 0.000000 0.000000
# 3 -0.000898 -0.001274 0.010929 0.000000 0.000000 0.000000
# 4 0.000000 0.000000 0.000000 0.066449 0.000000 0.000000
# 5 0.000000 0.000000 0.000000 0.000000 0.029479 0.000000
# 6 0.000000 0.000000 0.000000 0.000000 0.000000 0.054210
#
#
# Mechanical properties :
#
#
# Convention : Reuss Voigt Hill
#
# Bulk Modulus (GPa) = 34.94422 36.32930 35.63676
# Shear Modulus (GPa) = 24.94594 30.04060 27.49327
#
# Velocity S-wave (km/s) = 3.45116 3.78721 3.62308
# Velocity P-wave (km/s) = 5.70656 6.03899 5.87513
#
# Compressibility (1/GPa) = 0.02861703
#
# Stress axis : x y z
#
# Youngs Moduli (GPa) = 110.23160 68.09431 91.49579
#
# Poissons Ratio (x) = 0.05878 0.08213
# Poissons Ratio (y) = 0.09515 0.11657
# Poissons Ratio (z) = 0.09894 0.08676
#
# Static dielectric constant tensor:
#      x y z
#    x 3.965670 0.000000 0.000000 
#    y 0.000000 3.440550 0.000000 
#    z 0.000000 0.000000 4.229550 
# 
# 
# High freq. dielectric constant tensor:
#      x y z
#    x 1.838190 0.000000 0.000000 
#    y 0.000000 1.779860 0.000000 
#    z 0.000000 0.000000 1.829880 
# 
# From -- ./inp_files/19033.got.cif
#   From: 2010.03.12/outbox.cif.g09.slc.cpg/sg62_10_cif.got.tgz:19033.got - 2010.04.10 19:12:36.
