data_PCOD8253432
_publ_section_title
;
Structure prediction by ZEFSAII (Michael W. Deem and Ramdas Pophale) SiO2 
 PCOD8253432
Probable space group: P N M A
;
_chemical_formula_sum "Si O2"
_cell_formula_units_Z 64
_cell_length_a 14.598765
_cell_length_b 17.228891
_cell_length_c 12.168240
_cell_angle_alpha 90.000000
_cell_angle_beta 90.000000
_cell_angle_gamma 90.000000
_cell_volume 3060.562185
_symmetry_space_group_name_H-M "P N M A"
_symmetry_group_IT_number 62
_symmetry_cell_setting 'orthorhombic'
loop_
_space_group_symop_operation_xyz
x,y,z
1/2-x,-y,1/2+z
1/2+x,1/2-y,1/2-z
-x,1/2+y,-z
-x,-y,-z
1/2+x,y,1/2-z
1/2-x,1/2+y,1/2+z
x,1/2-y,z
loop_
_atom_site_type_symbol
_atom_site_label
_atom_site_fract_x
_atom_site_fract_y
_atom_site_fract_z
Si Si1 0.526676 0.340740 0.153919
Si Si2 0.669151 0.659393 0.921555
Si Si3 0.513613 0.087376 0.539328
Si Si4 0.840703 0.836751 0.460389
Si Si5 0.349002 0.160560 0.833774
Si Si6 0.677560 0.580814 0.385146
Si Si7 0.358833 0.599372 0.647103
Si Si8 0.048071 0.336222 0.749416
O O1 0.529796 0.250000 0.186450
O O2 0.421638 0.372220 0.142970
O O3 0.585364 0.389839 0.241001
O O4 0.574817 0.357829 0.038049
O O5 0.651320 0.750000 0.934374
O O6 0.761374 0.643621 0.852115
O O7 0.678268 0.625735 0.045957
O O8 0.412323 0.122366 0.561753
O O9 0.573703 0.132322 0.448237
O O10 0.564752 0.098712 0.656434
O O11 0.500000 0.000000 0.500000
O O12 0.805052 0.750000 0.488100
O O13 0.758285 0.898579 0.471066
O O14 0.869135 0.842278 0.334066
O O15 0.318546 0.250000 0.824430
O O16 0.299378 0.114076 0.735832
O O17 0.457135 0.148996 0.821139
O O18 0.663859 0.489608 0.375606
O O19 0.044881 0.250000 0.803526
#
# Coordination Sequence:
#
# PCOD8253432 Si02
#       8
#     8   8   8   8   8   8   8   8
#     4  10  22  43  64  86 124 164 204 254 308 371
#     4  10  21  40  64  89 117 156 208 262 303 357
#     4   9  21  41  58  79 129 166 196 244 305 359
#     4  10  20  38  63  92 121 157 202 255 311 359
#     4   9  17  35  61  88 117 149 198 256 304 346
#     4  10  22  39  58  91 125 164 200 251 303 364
#     4  11  24  41  58  91 124 168 207 243 306 372
#     4   9  17  33  61  91 114 149 201 255 304 349
#
# _framework density 20.911190999999999
#
# number of rings (size 3 to 8) (size 9 to 14) (size 15 to 20)
#    0.000    2.250    1.250    0.750    1.750    3.500 
#    9.000    2.500    0.000    0.000    0.000    0.000 
#    0.000    0.000    0.000    0.000    0.000    0.000 
#
# Total GULP energy -793109.992655 kJ/mol
# GULP energy per Si atom -12392.343635 kJ/mol
# Density = 2.086360 g / cm^3
# Si number density = 20.911191 Si / 1000 Ang^3
#
#
#
# Elastic Constant Matrix: (Units=GPa)
#
#
# Indices 1 2 3 4 5 6 
#
# 1 126.2662 21.8850 48.7386 0.0000 0.0000 0.0000
# 2 21.8850 45.1693 27.7618 0.0000 0.0000 0.0000
# 3 48.7386 27.7618 103.0989 0.0000 0.0000 0.0000
# 4 0.0000 0.0000 0.0000 18.0098 0.0000 0.0000
# 5 0.0000 0.0000 0.0000 0.0000 29.3426 0.0000
# 6 0.0000 0.0000 0.0000 0.0000 0.0000 26.5723
#
#
#
# Elastic Compliance Matrix: (Units=1/GPa)
#
#
# Indices 1 2 3 4 5 6 
#
# 1 0.009882 -0.002297 -0.004053 0.000000 0.000000 0.000000
# 2 -0.002297 0.027063 -0.006202 0.000000 0.000000 0.000000
# 3 -0.004053 -0.006202 0.013286 0.000000 0.000000 0.000000
# 4 0.000000 0.000000 0.000000 0.055525 0.000000 0.000000
# 5 0.000000 0.000000 0.000000 0.000000 0.034080 0.000000
# 6 0.000000 0.000000 0.000000 0.000000 0.000000 0.037633
#
#
# Mechanical properties :
#
#
# Convention : Reuss Voigt Hill
#
# Bulk Modulus (GPa) = 39.79676 52.36728 46.08202
# Shear Modulus (GPa) = 23.70232 26.52819 25.11525
#
# Velocity S-wave (km/s) = 3.37037 3.56562 3.46937
# Velocity P-wave (km/s) = 5.84965 6.48449 6.17524
#
# Compressibility (1/GPa) = 0.02512767
#
# Stress axis : x y z
#
# Youngs Moduli (GPa) = 101.18941 36.95023 75.27002
#
# Poissons Ratio (x) = 0.08487 0.30509
# Poissons Ratio (y) = 0.23243 0.46680
# Poissons Ratio (z) = 0.41015 0.22915
#
# Static dielectric constant tensor:
#      x y z
#    x 4.068180 0.000000 0.000000 
#    y 0.000000 3.487880 0.000000 
#    z 0.000000 0.000000 3.846960 
# 
# 
# High freq. dielectric constant tensor:
#      x y z
#    x 1.830670 0.000000 0.000000 
#    y 0.000000 1.787780 0.000000 
#    z 0.000000 0.000000 1.814110 
# 
# From -- ./inp_files/13619.got.cif
#   From: 2010.03.12/outbox.cif.g09.slc.cpg/sg62_7_cif.got.tgz:13619.got - 2010.04.10 19:12:36.
