data_PCOD8253988
_publ_section_title
;
Structure prediction by ZEFSAII (Michael W. Deem and Ramdas Pophale) SiO2 
 PCOD8253988
Probable space group: P N M A
;
_chemical_formula_sum "Si O2"
_cell_formula_units_Z 48
_cell_length_a 27.166749
_cell_length_b 9.104592
_cell_length_c 9.869999
_cell_angle_alpha 90.000000
_cell_angle_beta 90.000000
_cell_angle_gamma 90.000000
_cell_volume 2441.266927
_symmetry_space_group_name_H-M "P N M A"
_symmetry_group_IT_number 62
_symmetry_cell_setting 'orthorhombic'
loop_
_space_group_symop_operation_xyz
x,y,z
1/2-x,-y,1/2+z
1/2+x,1/2-y,1/2-z
-x,1/2+y,-z
-x,-y,-z
1/2+x,y,1/2-z
1/2-x,1/2+y,1/2+z
x,1/2-y,z
loop_
_atom_site_type_symbol
_atom_site_label
_atom_site_fract_x
_atom_site_fract_y
_atom_site_fract_z
Si Si1 0.460526 0.577283 0.752538
Si Si2 0.214592 0.580277 0.397423
Si Si3 0.384255 0.576320 0.980011
Si Si4 0.100382 0.919548 0.033943
Si Si5 0.788898 0.081147 0.911761
Si Si6 0.072050 0.920936 0.729886
O O1 0.459327 0.750000 0.731266
O O2 0.440640 0.508429 0.614604
O O3 0.515937 0.522495 0.777830
O O4 0.427925 0.526846 0.879889
O O5 0.203882 0.750000 0.431151
O O6 0.166232 0.487058 0.424487
O O7 0.258711 0.523510 0.489780
O O8 0.230457 0.561020 0.241138
O O9 0.379233 0.750000 0.989519
O O10 0.394868 0.513145 0.127607
O O11 0.091436 0.750000 0.067095
O O12 0.154431 0.969008 0.081159
O O13 0.094468 0.953215 0.876256
O O14 0.783301 0.250000 0.959737
O O15 0.075451 0.750000 0.691541
#
# Coordination Sequence:
#
# PCOD8253988 Si02
#       6
#     8   8   8   8   8   8
#     4  10  21  38  60  88 122 159 203 248 296 354
#     4  11  24  42  65  89 117 156 195 243 300 356
#     4  11  23  39  60  88 122 159 199 249 297 350
#     4  10  21  39  62  87 120 157 197 247 299 355
#     4  10  23  42  62  90 121 153 198 246 296 358
#     4  10  22  38  59  90 123 161 204 245 295 354
#
# _framework density 19.661921
#
# number of rings (size 3 to 8) (size 9 to 14) (size 15 to 20)
#    0.000    1.667    1.667    2.000    2.333    4.000 
#    0.000    0.000    0.000    0.000    0.000    0.000 
#    0.000    0.000    0.000    0.000    0.000    0.000 
#
# Total GULP energy -595501.022887 kJ/mol
# GULP energy per Si atom -12406.271310 kJ/mol
# Density = 1.961717 g / cm^3
# Si number density = 19.661921 Si / 1000 Ang^3
#
#
#
# Elastic Constant Matrix: (Units=GPa)
#
#
# Indices 1 2 3 4 5 6 
#
# 1 38.3376 6.2253 23.9900 0.0000 0.0000 0.0000
# 2 6.2253 40.7480 33.3023 0.0000 0.0000 0.0000
# 3 23.9900 33.3023 87.7582 0.0000 0.0000 0.0000
# 4 0.0000 0.0000 0.0000 34.2128 0.0000 0.0000
# 5 0.0000 0.0000 0.0000 0.0000 37.8228 0.0000
# 6 0.0000 0.0000 0.0000 0.0000 0.0000 32.4210
#
#
#
# Elastic Compliance Matrix: (Units=1/GPa)
#
#
# Indices 1 2 3 4 5 6 
#
# 1 0.031761 0.003252 -0.009917 0.000000 0.000000 0.000000
# 2 0.003252 0.035907 -0.014515 0.000000 0.000000 0.000000
# 3 -0.009917 -0.014515 0.019614 0.000000 0.000000 0.000000
# 4 0.000000 0.000000 0.000000 0.029229 0.000000 0.000000
# 5 0.000000 0.000000 0.000000 0.000000 0.026439 0.000000
# 6 0.000000 0.000000 0.000000 0.000000 0.000000 0.030844
#
#
# Mechanical properties :
#
#
# Convention : Reuss Voigt Hill
#
# Bulk Modulus (GPa) = 22.26004 32.65323 27.45663
# Shear Modulus (GPa) = 21.63311 27.77973 24.70642
#
# Velocity S-wave (km/s) = 3.32061 3.76289 3.54865
# Velocity P-wave (km/s) = 5.10371 5.96008 5.54844
#
# Compressibility (1/GPa) = 0.04492356
#
# Stress axis : x y z
#
# Youngs Moduli (GPa) = 31.48482 27.84984 50.98431
#
# Poissons Ratio (x) = -0.09057 0.50559
# Poissons Ratio (y) = -0.10240 0.74003
# Poissons Ratio (z) = 0.31222 0.40424
#
# Static dielectric constant tensor:
#      x y z
#    x 3.720430 0.000000 0.000000 
#    y 0.000000 3.532360 0.000000 
#    z 0.000000 0.000000 3.626880 
# 
# 
# High freq. dielectric constant tensor:
#      x y z
#    x 1.774550 0.000000 0.000000 
#    y 0.000000 1.763050 0.000000 
#    z 0.000000 0.000000 1.778040 
# 
# From -- ./inp_files/10283.got.cif
#   From: 2010.03.12/outbox.cif.g09.slc.cpg/sg62_6_cif.got.tgz:10283.got - 2010.04.10 19:12:36.
