data_PCOD8253239
_publ_section_title
;
Structure prediction by ZEFSAII (Michael W. Deem and Ramdas Pophale) SiO2 
 PCOD8253239
Probable space group: P N M A
;
_chemical_formula_sum "Si O2"
_cell_formula_units_Z 64
_cell_length_a 8.559381
_cell_length_b 17.098259
_cell_length_c 20.719036
_cell_angle_alpha 90.000000
_cell_angle_beta 90.000000
_cell_angle_gamma 90.000000
_cell_volume 3032.241552
_symmetry_space_group_name_H-M "P N M A"
_symmetry_group_IT_number 62
_symmetry_cell_setting 'orthorhombic'
loop_
_space_group_symop_operation_xyz
x,y,z
1/2-x,-y,1/2+z
1/2+x,1/2-y,1/2-z
-x,1/2+y,-z
-x,-y,-z
1/2+x,y,1/2-z
1/2-x,1/2+y,1/2+z
x,1/2-y,z
loop_
_atom_site_type_symbol
_atom_site_label
_atom_site_fract_x
_atom_site_fract_y
_atom_site_fract_z
Si Si1 0.640346 0.915957 0.687462
Si Si2 0.851583 0.556345 0.991222
Si Si3 0.902698 0.941095 0.272885
Si Si4 0.905154 0.160197 0.959028
Si Si5 0.298453 0.568583 0.943957
Si Si6 0.381025 0.433999 0.120222
Si Si7 0.315186 0.661150 0.709579
Si Si8 0.131631 0.658766 0.190675
O O1 0.675121 0.914821 0.612231
O O2 0.757051 0.850920 0.717203
O O3 0.459240 0.895633 0.695907
O O4 0.677921 0.999506 0.721439
O O5 0.715156 0.524205 0.039029
O O6 0.922234 0.640513 0.011155
O O7 0.778640 0.552632 0.919865
O O8 0.000000 0.500000 0.000000
O O9 0.808916 0.864467 0.295506
O O10 0.049290 0.902321 0.238400
O O11 0.938076 0.991466 0.337796
O O12 0.872090 0.250000 0.971477
O O13 0.911970 0.140258 0.883196
O O14 0.759699 0.115876 0.992856
O O15 0.475767 0.590703 0.926096
O O16 0.336679 0.362293 0.167040
O O17 0.364315 0.750000 0.696666
O O18 0.102155 0.750000 0.207376
#
# Coordination Sequence:
#
# PCOD8253239 Si02
#       8
#     8   8   8   8   8   8   8   8
#     4  11  22  37  61  89 119 166 211 251 316 371
#     4  10  20  37  60  86 117 157 203 250 301 366
#     4  11  21  40  62  87 121 153 200 263 306 368
#     4  10  23  41  62  89 126 167 207 252 312 383
#     4  11  22  38  59  87 120 158 205 256 307 369
#     4  11  23  38  63  93 120 162 210 254 318 375
#     4  11  23  39  58  88 126 161 205 259 306 372
#     4  11  23  40  63  91 120 158 202 253 319 374
#
# _framework density 21.106498999999999
#
# number of rings (size 3 to 8) (size 9 to 14) (size 15 to 20)
#    0.000    1.250    0.000    8.625    0.000    3.000 
#    0.000    0.000    0.000    3.750    0.000    0.000 
#    0.000    0.000    0.000    0.000    0.000    0.000 
#
# Total GULP energy -793131.134142 kJ/mol
# GULP energy per Si atom -12392.673971 kJ/mol
# Density = 2.105846 g / cm^3
# Si number density = 21.106499 Si / 1000 Ang^3
#
#
#
# Elastic Constant Matrix: (Units=GPa)
#
#
# Indices 1 2 3 4 5 6 
#
# 1 66.2679 32.3523 31.4917 0.0000 0.0000 0.0000
# 2 32.3523 102.0125 46.6135 0.0000 0.0000 0.0000
# 3 31.4917 46.6135 99.6363 0.0000 0.0000 0.0000
# 4 0.0000 0.0000 0.0000 28.1256 0.0000 0.0000
# 5 0.0000 0.0000 0.0000 0.0000 44.6504 0.0000
# 6 0.0000 0.0000 0.0000 0.0000 0.0000 26.3276
#
#
#
# Elastic Compliance Matrix: (Units=1/GPa)
#
#
# Indices 1 2 3 4 5 6 
#
# 1 0.019068 -0.004189 -0.004067 0.000000 0.000000 0.000000
# 2 -0.004189 0.013388 -0.004940 0.000000 0.000000 0.000000
# 3 -0.004067 -0.004940 0.013633 0.000000 0.000000 0.000000
# 4 0.000000 0.000000 0.000000 0.035555 0.000000 0.000000
# 5 0.000000 0.000000 0.000000 0.000000 0.022396 0.000000
# 6 0.000000 0.000000 0.000000 0.000000 0.000000 0.037983
#
#
# Mechanical properties :
#
#
# Convention : Reuss Voigt Hill
#
# Bulk Modulus (GPa) = 50.76605 54.31462 52.54033
# Shear Modulus (GPa) = 28.57467 30.31799 29.44633
#
# Velocity S-wave (km/s) = 3.68344 3.79414 3.73920
# Velocity P-wave (km/s) = 6.49576 6.70697 6.60221
#
# Compressibility (1/GPa) = 0.01969821
#
# Stress axis : x y z
#
# Youngs Moduli (GPa) = 52.44388 74.69240 73.35210
#
# Poissons Ratio (x) = 0.31287 0.29833
# Poissons Ratio (y) = 0.21968 0.36233
# Poissons Ratio (z) = 0.21329 0.36895
#
# Static dielectric constant tensor:
#      x y z
#    x 3.781450 0.000000 0.000000 
#    y 0.000000 3.867810 0.000000 
#    z 0.000000 0.000000 4.003810 
# 
# 
# High freq. dielectric constant tensor:
#      x y z
#    x 1.825070 0.000000 0.000000 
#    y 0.000000 1.814150 0.000000 
#    z 0.000000 0.000000 1.838680 
# 
# From -- ./inp_files/26158.got.cif
#   From: 2010.03.12/outbox.cif.g09.slc.cpg/sg62_14_cif.got.tgz:26158.got - 2010.04.10 19:12:36.
