data_PCOD8253616
_publ_section_title
;
Structure prediction by ZEFSAII (Michael W. Deem and Ramdas Pophale) SiO2 
 PCOD8253616
Probable space group: P N M A
;
_chemical_formula_sum "Si O2"
_cell_formula_units_Z 40
_cell_length_a 5.007334
_cell_length_b 24.985023
_cell_length_c 14.504965
_cell_angle_alpha 90.000000
_cell_angle_beta 90.000000
_cell_angle_gamma 90.000000
_cell_volume 1814.692313
_symmetry_space_group_name_H-M "P N M A"
_symmetry_group_IT_number 62
_symmetry_cell_setting 'orthorhombic'
loop_
_space_group_symop_operation_xyz
x,y,z
1/2-x,-y,1/2+z
1/2+x,1/2-y,1/2-z
-x,1/2+y,-z
-x,-y,-z
1/2+x,y,1/2-z
1/2-x,1/2+y,1/2+z
x,1/2-y,z
loop_
_atom_site_type_symbol
_atom_site_label
_atom_site_fract_x
_atom_site_fract_y
_atom_site_fract_z
Si Si1 0.771108 0.371248 0.188239
Si Si2 0.106743 0.942983 0.466248
Si Si3 0.295442 0.992672 0.804988
Si Si4 0.406125 0.124136 0.506179
Si Si5 0.513456 0.813256 0.309616
O O1 0.493216 0.355929 0.236118
O O2 0.760716 0.433441 0.154611
O O3 0.825582 0.343337 0.088637
O O4 0.264599 0.957988 0.372284
O O5 0.342667 0.914145 0.524063
O O6 0.853372 0.905232 0.453585
O O7 0.000000 0.000000 0.500000
O O8 0.609609 0.998297 0.783748
O O9 0.503449 0.163384 0.586962
O O10 0.266650 0.833156 0.248330
O O11 0.513571 0.750000 0.322678
#
# Coordination Sequence:
#
# PCOD8253616 Si02
#       5
#     8   8   8   8   8
#     4  10  21  36  55  79 114 157 202 236 283 352
#     4  12  24  36  53  84 125 158 205 255 305 350
#     4  10  21  34  50  71 108 159 201 238 287 347
#     4  12  24  38  64  87 119 165 207 255 313 378
#     4  10  23  45  70  96 126 158 203 268 335 388
#
# _framework density 22.042303
#
# number of rings (size 3 to 8) (size 9 to 14) (size 15 to 20)
#    0.000    1.200    2.000    4.200    5.600    4.800 
#    0.000    0.000    0.000    1.200    0.000    0.000 
#    0.000    0.000    0.000    0.000    0.000    0.000 
#
# Total GULP energy -495630.904417 kJ/mol
# GULP energy per Si atom -12390.772610 kJ/mol
# Density = 2.199213 g / cm^3
# Si number density = 22.042303 Si / 1000 Ang^3
#
#
#
# Elastic Constant Matrix: (Units=GPa)
#
#
# Indices 1 2 3 4 5 6 
#
# 1 143.6804 20.9653 32.8354 0.0000 0.0000 0.0000
# 2 20.9653 24.6161 28.5185 0.0000 0.0000 0.0000
# 3 32.8354 28.5185 133.7187 0.0000 0.0000 0.0000
# 4 0.0000 0.0000 0.0000 22.7807 0.0000 0.0000
# 5 0.0000 0.0000 0.0000 0.0000 28.2685 0.0000
# 6 0.0000 0.0000 0.0000 0.0000 0.0000 11.7310
#
#
#
# Elastic Compliance Matrix: (Units=1/GPa)
#
#
# Indices 1 2 3 4 5 6 
#
# 1 0.007994 -0.006022 -0.000679 0.000000 0.000000 0.000000
# 2 -0.006022 0.058492 -0.010996 0.000000 0.000000 0.000000
# 3 -0.000679 -0.010996 0.009990 0.000000 0.000000 0.000000
# 4 0.000000 0.000000 0.000000 0.043897 0.000000 0.000000
# 5 0.000000 0.000000 0.000000 0.000000 0.035375 0.000000
# 6 0.000000 0.000000 0.000000 0.000000 0.000000 0.085244
#
#
# Mechanical properties :
#
#
# Convention : Reuss Voigt Hill
#
# Bulk Modulus (GPa) = 24.34115 51.85039 38.09577
# Shear Modulus (GPa) = 17.23665 27.20242 22.21954
#
# Velocity S-wave (km/s) = 2.79943 3.51679 3.17841
# Velocity P-wave (km/s) = 4.63853 6.32966 5.54890
#
# Compressibility (1/GPa) = 0.04108269
#
# Stress axis : x y z
#
# Youngs Moduli (GPa) = 125.09889 17.09636 100.09861
#
# Poissons Ratio (x) = 0.10295 0.06792
# Poissons Ratio (y) = 0.75335 1.10068
# Poissons Ratio (z) = 0.08489 0.18799
#
# Static dielectric constant tensor:
#      x y z
#    x 4.148870 0.000000 0.000000 
#    y 0.000000 3.518450 0.000000 
#    z 0.000000 0.000000 4.476190 
# 
# 
# High freq. dielectric constant tensor:
#      x y z
#    x 1.892210 0.000000 0.000000 
#    y 0.000000 1.805940 0.000000 
#    z 0.000000 0.000000 1.881620 
# 
# From -- ./inp_files/16168.got.cif
#   From: 2010.03.12/outbox.cif.g09.slc.cpg/sg62_9_cif.got.tgz:16168.got - 2010.04.10 19:12:36.
