data_PCOD8253220
_publ_section_title
;
Structure prediction by ZEFSAII (Michael W. Deem and Ramdas Pophale) SiO2 
 PCOD8253220
Probable space group: P N M A
;
_chemical_formula_sum "Si O2"
_cell_formula_units_Z 48
_cell_length_a 30.754624
_cell_length_b 8.986078
_cell_length_c 9.093790
_cell_angle_alpha 90.000000
_cell_angle_beta 90.000000
_cell_angle_gamma 90.000000
_cell_volume 2513.191179
_symmetry_space_group_name_H-M "P N M A"
_symmetry_group_IT_number 62
_symmetry_cell_setting 'orthorhombic'
loop_
_space_group_symop_operation_xyz
x,y,z
1/2-x,-y,1/2+z
1/2+x,1/2-y,1/2-z
-x,1/2+y,-z
-x,-y,-z
1/2+x,y,1/2-z
1/2-x,1/2+y,1/2+z
x,1/2-y,z
loop_
_atom_site_type_symbol
_atom_site_label
_atom_site_fract_x
_atom_site_fract_y
_atom_site_fract_z
Si Si1 0.960412 0.420530 0.422507
Si Si2 0.627136 0.423616 0.915605
Si Si3 0.789775 0.577515 0.605197
Si Si4 0.128269 0.074878 0.921020
Si Si5 0.794282 0.077053 0.911357
Si Si6 0.460162 0.078518 0.422953
O O1 0.960331 0.250000 0.470545
O O2 0.915009 0.490822 0.475566
O O3 0.966136 0.441930 0.249821
O O4 0.000000 0.500000 0.500000
O O5 0.616888 0.250000 0.925770
O O6 0.638016 0.469038 0.747851
O O7 0.667484 0.470304 0.015771
O O8 0.791971 0.750000 0.652355
O O9 0.748930 0.545014 0.502557
O O10 0.785454 0.473791 0.745972
O O11 0.123420 0.250000 0.942111
O O12 0.084062 0.998833 0.976603
O O13 0.166903 0.017697 0.021655
O O14 0.806798 0.250000 0.913685
O O15 0.458600 0.250000 0.469888
O O16 0.500000 0.000000 0.500000
#
# Coordination Sequence:
#
# PCOD8253220 Si02
#       6
#     8   8   8   8   8   8
#     4  10  21  36  56  82 111 144 183 227 275 327
#     4   9  19  37  59  81 108 144 185 227 274 328
#     4  10  22  39  58  82 113 147 183 226 275 328
#     4  10  20  37  60  83 111 148 186 229 281 331
#     4  11  23  38  58  85 114 146 186 229 274 329
#     4  10  21  37  57  83 113 147 188 232 279 331
#
# _framework density 19.099222000000001
#
# number of rings (size 3 to 8) (size 9 to 14) (size 15 to 20)
#    0.000    2.000    0.000    3.000    0.000    7.333 
#    0.000    1.667    0.000    0.000    0.000    0.000 
#    0.000    0.000    0.000    0.000    0.000    0.000 
#
# Total GULP energy -595447.479880 kJ/mol
# GULP energy per Si atom -12405.155831 kJ/mol
# Density = 1.905575 g / cm^3
# Si number density = 19.099222 Si / 1000 Ang^3
#
#
#
# Elastic Constant Matrix: (Units=GPa)
#
#
# Indices 1 2 3 4 5 6 
#
# 1 158.8629 72.5895 57.0828 0.0000 0.0000 0.0000
# 2 72.5895 103.4038 46.4085 0.0000 0.0000 0.0000
# 3 57.0828 46.4085 75.7129 0.0000 0.0000 0.0000
# 4 0.0000 0.0000 0.0000 33.0489 0.0000 0.0000
# 5 0.0000 0.0000 0.0000 0.0000 39.5390 0.0000
# 6 0.0000 0.0000 0.0000 0.0000 0.0000 37.5356
#
#
#
# Elastic Compliance Matrix: (Units=1/GPa)
#
#
# Indices 1 2 3 4 5 6 
#
# 1 0.010313 -0.005173 -0.004604 0.000000 0.000000 0.000000
# 2 -0.005173 0.015936 -0.005868 0.000000 0.000000 0.000000
# 3 -0.004604 -0.005868 0.020276 0.000000 0.000000 0.000000
# 4 0.000000 0.000000 0.000000 0.030258 0.000000 0.000000
# 5 0.000000 0.000000 0.000000 0.000000 0.025291 0.000000
# 6 0.000000 0.000000 0.000000 0.000000 0.000000 0.026641
#
#
# Mechanical properties :
#
#
# Convention : Reuss Voigt Hill
#
# Bulk Modulus (GPa) = 65.64216 76.68234 71.16225
# Shear Modulus (GPa) = 30.28752 32.81795 31.55274
#
# Velocity S-wave (km/s) = 3.98653 4.14972 4.06894
# Velocity P-wave (km/s) = 7.45879 7.94964 7.70812
#
# Compressibility (1/GPa) = 0.01523411
#
# Stress axis : x y z
#
# Youngs Moduli (GPa) = 96.96479 62.75138 49.31982
#
# Poissons Ratio (x) = 0.32463 0.22709
# Poissons Ratio (y) = 0.50162 0.28939
# Poissons Ratio (z) = 0.44647 0.36820
#
# Static dielectric constant tensor:
#      x y z
#    x 3.640700 0.000000 0.000000 
#    y 0.000000 3.637430 0.000000 
#    z 0.000000 0.000000 3.438120 
# 
# 
# High freq. dielectric constant tensor:
#      x y z
#    x 1.758740 0.000000 0.000000 
#    y 0.000000 1.752320 0.000000 
#    z 0.000000 0.000000 1.738640 
# 
# From -- ./inp_files/10219.got.cif
#   From: 2010.03.12/outbox.cif.g09.slc.cpg/sg62_6_cif.got.tgz:10219.got - 2010.04.10 19:12:36.
