data_PCOD8253604
_publ_section_title
;
Structure prediction by ZEFSAII (Michael W. Deem and Ramdas Pophale) SiO2 
 PCOD8253604
Probable space group: P N M A
;
_chemical_formula_sum "Si O2"
_cell_formula_units_Z 56
_cell_length_a 14.354664
_cell_length_b 14.383843
_cell_length_c 12.151584
_cell_angle_alpha 90.000000
_cell_angle_beta 90.000000
_cell_angle_gamma 90.000000
_cell_volume 2509.001141
_symmetry_space_group_name_H-M "P N M A"
_symmetry_group_IT_number 62
_symmetry_cell_setting 'orthorhombic'
loop_
_space_group_symop_operation_xyz
x,y,z
1/2-x,-y,1/2+z
1/2+x,1/2-y,1/2-z
-x,1/2+y,-z
-x,-y,-z
1/2+x,y,1/2-z
1/2-x,1/2+y,1/2+z
x,1/2-y,z
loop_
_atom_site_type_symbol
_atom_site_label
_atom_site_fract_x
_atom_site_fract_y
_atom_site_fract_z
Si Si1 0.474394 0.355125 0.224256
Si Si2 0.974583 0.106662 0.030136
Si Si3 0.133976 0.849101 0.516601
Si Si4 0.443197 0.040597 0.823884
Si Si5 0.180333 0.581247 0.117458
Si Si6 0.636697 0.139976 0.770344
Si Si7 0.169480 0.104413 0.974845
O O1 0.514762 0.250000 0.219746
O O2 0.439824 0.381530 0.345744
O O3 0.385568 0.368284 0.144975
O O4 0.551380 0.428559 0.182823
O O5 0.892587 0.146581 0.951521
O O6 0.074259 0.157329 0.012681
O O7 0.000000 0.000000 0.000000
O O8 0.086944 0.750000 0.481689
O O9 0.094514 0.932968 0.444014
O O10 0.243507 0.831854 0.503278
O O11 0.366654 0.069115 0.735542
O O12 0.541733 0.091337 0.808091
O O13 0.282267 0.624787 0.137670
O O14 0.188303 0.490659 0.041266
O O15 0.621396 0.250000 0.753570
O O16 0.665821 0.089630 0.656860
#
# Coordination Sequence:
#
# PCOD8253604 Si02
#       7
#     8   8   8   8   8   8   8
#     4  11  24  43  68 101 135 183 239 287 349 422
#     4  10  20  43  68  97 139 184 231 282 350 413
#     4  11  25  43  68 102 140 185 234 281 348 420
#     4  12  22  47  69  96 142 187 223 296 354 410
#     4  11  23  42  68 101 137 180 233 287 355 406
#     4  12  26  42  69 107 141 184 244 291 347 423
#     4  11  21  40  67 100 135 179 232 279 339 418
#
# _framework density 22.319638999999999
#
# number of rings (size 3 to 8) (size 9 to 14) (size 15 to 20)
#    0.000    0.857    5.714    3.000    0.000    2.286 
#    0.000    1.429    0.000    1.714    0.000    0.000 
#    0.000    0.000    0.000    0.000    0.000    0.000 
#
# Total GULP energy -693842.645688 kJ/mol
# GULP energy per Si atom -12390.047244 kJ/mol
# Density = 2.226884 g / cm^3
# Si number density = 22.319639 Si / 1000 Ang^3
#
#
#
# Elastic Constant Matrix: (Units=GPa)
#
#
# Indices 1 2 3 4 5 6 
#
# 1 114.7837 32.7575 51.8674 0.0000 0.0000 0.0000
# 2 32.7575 108.2041 43.5894 0.0000 0.0000 0.0000
# 3 51.8674 43.5894 154.7818 0.0000 0.0000 0.0000
# 4 0.0000 0.0000 0.0000 8.6614 0.0000 0.0000
# 5 0.0000 0.0000 0.0000 0.0000 28.8596 0.0000
# 6 0.0000 0.0000 0.0000 0.0000 0.0000 9.8297
#
#
#
# Elastic Compliance Matrix: (Units=1/GPa)
#
#
# Indices 1 2 3 4 5 6 
#
# 1 0.010642 -0.002014 -0.002999 0.000000 0.000000 0.000000
# 2 -0.002014 0.010805 -0.002368 0.000000 0.000000 0.000000
# 3 -0.002999 -0.002368 0.008133 0.000000 0.000000 0.000000
# 4 0.000000 0.000000 0.000000 0.115455 0.000000 0.000000
# 5 0.000000 0.000000 0.000000 0.000000 0.034651 0.000000
# 6 0.000000 0.000000 0.000000 0.000000 0.000000 0.101732
#
#
# Mechanical properties :
#
#
# Convention : Reuss Voigt Hill
#
# Bulk Modulus (GPa) = 67.48457 70.46647 68.97552
# Shear Modulus (GPa) = 16.60477 26.10716 21.35597
#
# Velocity S-wave (km/s) = 2.73051 3.42379 3.09661
# Velocity P-wave (km/s) = 6.34366 6.87531 6.61483
#
# Compressibility (1/GPa) = 0.01481820
#
# Stress axis : x y z
#
# Youngs Moduli (GPa) = 93.96861 92.54620 122.96146
#
# Poissons Ratio (x) = 0.18635 0.36876
# Poissons Ratio (y) = 0.18921 0.29121
# Poissons Ratio (z) = 0.28181 0.21917
#
# Static dielectric constant tensor:
#      x y z
#    x 4.773450 0.000000 0.000000 
#    y 0.000000 4.089070 0.000000 
#    z 0.000000 0.000000 4.140700 
# 
# 
# High freq. dielectric constant tensor:
#      x y z
#    x 1.878840 0.000000 0.000000 
#    y 0.000000 1.872000 0.000000 
#    z 0.000000 0.000000 1.888010 
# 
# From -- ./inp_files/13389.got.cif
#   From: 2010.03.12/outbox.cif.g09.slc.cpg/sg62_7_cif.got.tgz:13389.got - 2010.04.10 19:12:36.
