data_PCOD8253168
_publ_section_title
;
Structure prediction by ZEFSAII (Michael W. Deem and Ramdas Pophale) SiO2 
 PCOD8253168
Probable space group: P N M A
;
_chemical_formula_sum "Si O2"
_cell_formula_units_Z 40
_cell_length_a 17.878487
_cell_length_b 8.339381
_cell_length_c 13.600717
_cell_angle_alpha 90.000000
_cell_angle_beta 90.000000
_cell_angle_gamma 90.000000
_cell_volume 2027.805903
_symmetry_space_group_name_H-M "P N M A"
_symmetry_group_IT_number 62
_symmetry_cell_setting 'orthorhombic'
loop_
_space_group_symop_operation_xyz
x,y,z
1/2-x,-y,1/2+z
1/2+x,1/2-y,1/2-z
-x,1/2+y,-z
-x,-y,-z
1/2+x,y,1/2-z
1/2-x,1/2+y,1/2+z
x,1/2-y,z
loop_
_atom_site_type_symbol
_atom_site_label
_atom_site_fract_x
_atom_site_fract_y
_atom_site_fract_z
Si Si1 0.463285 0.563795 0.097998
Si Si2 0.876050 0.439152 0.120829
Si Si3 0.971731 0.563420 0.787384
Si Si4 0.162633 0.563484 0.092716
Si Si5 0.187830 0.563173 0.676350
O O1 0.443641 0.750000 0.088533
O O2 0.521595 0.535526 0.186611
O O3 0.387661 0.464330 0.115409
O O4 0.500000 0.500000 0.000000
O O5 0.870007 0.250000 0.117982
O O6 0.824675 0.499505 0.211606
O O7 0.962140 0.491907 0.138352
O O8 0.847031 0.509548 0.017325
O O9 0.980185 0.750000 0.761557
O O10 0.891839 0.531051 0.834840
O O11 0.141465 0.750000 0.094603
O O12 0.246928 0.539844 0.127707
O O13 0.209077 0.750000 0.673207
#
# Coordination Sequence:
#
# PCOD8253168 Si02
#       5
#     8   8   8   8   8
#     4  11  22  39  61  85 112 148 189 233 281 338
#     4   8  18  36  57  77 107 146 186 230 279 328
#     4  10  20  37  58  83 112 147 187 231 281 339
#     4  11  21  35  56  85 114 147 190 237 284 336
#     4  10  21  39  57  80 113 150 189 235 285 335
#
# _framework density 19.725753000000001
#
# number of rings (size 3 to 8) (size 9 to 14) (size 15 to 20)
#    0.000    2.000    0.000    5.400    0.000    1.600 
#    0.000   17.000    0.000    0.000    0.000    0.000 
#    0.000    0.000    0.000    0.000    0.000    0.000 
#
# Total GULP energy -496088.896062 kJ/mol
# GULP energy per Si atom -12402.222402 kJ/mol
# Density = 1.968086 g / cm^3
# Si number density = 19.725753 Si / 1000 Ang^3
#
#
#
# Elastic Constant Matrix: (Units=GPa)
#
#
# Indices 1 2 3 4 5 6 
#
# 1 99.6481 3.2016 73.2189 0.0000 0.0000 0.0000
# 2 3.2016 55.9457 12.9297 0.0000 0.0000 0.0000
# 3 73.2189 12.9297 139.8006 0.0000 0.0000 0.0000
# 4 0.0000 0.0000 0.0000 25.7544 0.0000 0.0000
# 5 0.0000 0.0000 0.0000 0.0000 31.1602 0.0000
# 6 0.0000 0.0000 0.0000 0.0000 0.0000 32.9809
#
#
#
# Elastic Compliance Matrix: (Units=1/GPa)
#
#
# Indices 1 2 3 4 5 6 
#
# 1 0.016375 0.001068 -0.008675 0.000000 0.000000 0.000000
# 2 0.001068 0.018335 -0.002255 0.000000 0.000000 0.000000
# 3 -0.008675 -0.002255 0.011905 0.000000 0.000000 0.000000
# 4 0.000000 0.000000 0.000000 0.038828 0.000000 0.000000
# 5 0.000000 0.000000 0.000000 0.000000 0.032092 0.000000
# 6 0.000000 0.000000 0.000000 0.000000 0.000000 0.030321
#
#
# Mechanical properties :
#
#
# Convention : Reuss Voigt Hill
#
# Bulk Modulus (GPa) = 37.18802 52.67719 44.93261
# Shear Modulus (GPa) = 28.32157 31.71539 30.01848
#
# Velocity S-wave (km/s) = 3.79326 4.01411 3.90525
# Velocity P-wave (km/s) = 6.17078 6.94599 6.56983
#
# Compressibility (1/GPa) = 0.02689038
#
# Stress axis : x y z
#
# Youngs Moduli (GPa) = 61.06772 54.54191 83.99775
#
# Poissons Ratio (x) = -0.05824 0.72869
# Poissons Ratio (y) = -0.06521 0.18941
# Poissons Ratio (z) = 0.52977 0.12299
#
# Static dielectric constant tensor:
#      x y z
#    x 3.439840 0.000000 0.000000 
#    y 0.000000 3.470380 0.000000 
#    z 0.000000 0.000000 3.926380 
# 
# 
# High freq. dielectric constant tensor:
#      x y z
#    x 1.763940 0.000000 0.000000 
#    y 0.000000 1.761170 0.000000 
#    z 0.000000 0.000000 1.777820 
# 
# From -- ./inp_files/13858.got.cif
#   From: 2010.03.12/outbox.cif.g09.slc.cpg/sg62_7_cif.got.tgz:13858.got - 2010.04.10 19:12:36.
