data_PCOD8253642
_publ_section_title
;
Structure prediction by ZEFSAII (Michael W. Deem and Ramdas Pophale) SiO2 
 PCOD8253642
Probable space group: P N M A
;
_chemical_formula_sum "Si O2"
_cell_formula_units_Z 64
_cell_length_a 15.248328
_cell_length_b 9.528644
_cell_length_c 23.375081
_cell_angle_alpha 90.000000
_cell_angle_beta 90.000000
_cell_angle_gamma 90.000000
_cell_volume 3396.303177
_symmetry_space_group_name_H-M "P N M A"
_symmetry_group_IT_number 62
_symmetry_cell_setting 'orthorhombic'
loop_
_space_group_symop_operation_xyz
x,y,z
1/2-x,-y,1/2+z
1/2+x,1/2-y,1/2-z
-x,1/2+y,-z
-x,-y,-z
1/2+x,y,1/2-z
1/2-x,1/2+y,1/2+z
x,1/2-y,z
loop_
_atom_site_type_symbol
_atom_site_label
_atom_site_fract_x
_atom_site_fract_y
_atom_site_fract_z
Si Si1 0.911077 0.916977 0.489821
Si Si2 0.988424 0.093877 0.287642
Si Si3 0.806478 0.091209 0.802369
Si Si4 0.809898 0.913623 0.694274
Si Si5 0.870314 0.905648 0.363605
Si Si6 0.964798 0.908970 0.837742
Si Si7 0.441110 0.414097 0.455556
Si Si8 0.253309 0.583644 0.929840
O O1 0.926328 0.750000 0.496348
O O2 0.879805 0.963618 0.427309
O O3 0.835145 0.971177 0.532764
O O4 0.000000 0.000000 0.500000
O O5 0.962524 0.250000 0.306116
O O6 0.086214 0.060574 0.308955
O O7 0.977513 0.074183 0.219530
O O8 0.921764 0.992626 0.317379
O O9 0.832419 0.250000 0.784416
O O10 0.731553 0.092710 0.849494
O O11 0.773466 0.006129 0.746604
O O12 0.885960 0.017978 0.835246
O O13 0.788953 0.750000 0.706201
O O14 0.765747 0.967817 0.635590
O O15 0.909653 0.750000 0.360418
O O16 0.926971 0.750000 0.840529
O O17 0.024853 0.942851 0.891751
O O18 0.500000 0.500000 0.500000
O O19 0.447243 0.250000 0.471590
O O20 0.339842 0.467830 0.456120
O O21 0.253550 0.750000 0.929875
#
# Coordination Sequence:
#
# PCOD8253642 Si02
#       8
#     8   8   8   8   8   8   8   8
#     4  10  21  39  59  82 112 148 187 228 275 332
#     4   9  18  33  56  84 110 140 180 226 273 327
#     4  10  21  35  54  82 112 147 182 221 279 338
#     4   9  18  35  58  83 108 141 185 229 275 328
#     4  10  22  35  52  80 113 145 180 221 273 337
#     4   9  20  38  57  81 110 143 188 232 275 330
#     4  10  22  39  60  84 111 148 193 240 287 338
#     4   9  19  36  62  85 109 150 194 231 277 338
#
# _framework density 18.844017999999998
#
# number of rings (size 3 to 8) (size 9 to 14) (size 15 to 20)
#    0.000    2.500    0.000    1.875    3.500    5.000 
#    0.000    1.875    0.000    0.000    0.000    0.000 
#    0.000    0.000    0.000    0.000    0.000    0.000 
#
# Total GULP energy -793494.930213 kJ/mol
# GULP energy per Si atom -12398.358285 kJ/mol
# Density = 1.880113 g / cm^3
# Si number density = 18.844018 Si / 1000 Ang^3
#
#
#
# Elastic Constant Matrix: (Units=GPa)
#
#
# Indices 1 2 3 4 5 6 
#
# 1 109.8336 47.0243 68.4421 0.0000 0.0000 0.0000
# 2 47.0243 70.8290 45.1078 0.0000 0.0000 0.0000
# 3 68.4421 45.1078 116.3589 0.0000 0.0000 0.0000
# 4 0.0000 0.0000 0.0000 21.1734 0.0000 0.0000
# 5 0.0000 0.0000 0.0000 0.0000 33.1282 0.0000
# 6 0.0000 0.0000 0.0000 0.0000 0.0000 30.9595
#
#
#
# Elastic Compliance Matrix: (Units=1/GPa)
#
#
# Indices 1 2 3 4 5 6 
#
# 1 0.016206 -0.006226 -0.007119 0.000000 0.000000 0.000000
# 2 -0.006226 0.021139 -0.004533 0.000000 0.000000 0.000000
# 3 -0.007119 -0.004533 0.014539 0.000000 0.000000 0.000000
# 4 0.000000 0.000000 0.000000 0.047229 0.000000 0.000000
# 5 0.000000 0.000000 0.000000 0.000000 0.030186 0.000000
# 6 0.000000 0.000000 0.000000 0.000000 0.000000 0.032300
#
#
# Mechanical properties :
#
#
# Convention : Reuss Voigt Hill
#
# Bulk Modulus (GPa) = 62.00158 68.68556 65.34357
# Shear Modulus (GPa) = 24.66338 26.14871 25.40605
#
# Velocity S-wave (km/s) = 3.62168 3.72915 3.67581
# Velocity P-wave (km/s) = 7.10371 7.42096 7.26407
#
# Compressibility (1/GPa) = 0.01612862
#
# Stress axis : x y z
#
# Youngs Moduli (GPa) = 61.70397 47.30704 68.78237
#
# Poissons Ratio (x) = 0.29453 0.48967
# Poissons Ratio (y) = 0.38416 0.31176
# Poissons Ratio (z) = 0.43927 0.21442
#
# Static dielectric constant tensor:
#      x y z
#    x 3.515230 0.000000 0.000000 
#    y 0.000000 3.390270 0.000000 
#    z 0.000000 0.000000 3.664260 
# 
# 
# High freq. dielectric constant tensor:
#      x y z
#    x 1.731580 0.000000 0.000000 
#    y 0.000000 1.714620 0.000000 
#    z 0.000000 0.000000 1.742330 
# 
# From -- ./inp_files/29828.got.cif
#   From: 2010.03.12/outbox.cif.g09.slc.cpg/sg62_15_cif.got.tgz:29828.got - 2010.04.10 19:12:36.
