data_PCOD8253899
_publ_section_title
;
Structure prediction by ZEFSAII (Michael W. Deem and Ramdas Pophale) SiO2 
 PCOD8253899
Probable space group: P N M A
;
_chemical_formula_sum "Si O2"
_cell_formula_units_Z 56
_cell_length_a 14.955834
_cell_length_b 14.910758
_cell_length_c 11.640254
_cell_angle_alpha 90.000000
_cell_angle_beta 90.000000
_cell_angle_gamma 90.000000
_cell_volume 2595.809485
_symmetry_space_group_name_H-M "P N M A"
_symmetry_group_IT_number 62
_symmetry_cell_setting 'orthorhombic'
loop_
_space_group_symop_operation_xyz
x,y,z
1/2-x,-y,1/2+z
1/2+x,1/2-y,1/2-z
-x,1/2+y,-z
-x,-y,-z
1/2+x,y,1/2-z
1/2-x,1/2+y,1/2+z
x,1/2-y,z
loop_
_atom_site_type_symbol
_atom_site_label
_atom_site_fract_x
_atom_site_fract_y
_atom_site_fract_z
Si Si1 0.574866 0.150292 0.402973
Si Si2 0.570477 0.911631 0.758025
Si Si3 0.224795 0.146305 0.272849
Si Si4 0.684312 0.505001 0.054202
Si Si5 0.460640 0.349510 0.996088
Si Si6 0.675278 0.151595 0.618078
Si Si7 0.879994 0.909293 0.351275
O O1 0.545517 0.250000 0.371573
O O2 0.492150 0.094133 0.354024
O O3 0.672948 0.130526 0.347339
O O4 0.585706 0.137649 0.540777
O O5 0.670773 0.876680 0.736928
O O6 0.565726 0.016951 0.780414
O O7 0.529411 0.858492 0.866530
O O8 0.215495 0.250000 0.314132
O O9 0.175703 0.078774 0.360267
O O10 0.597540 0.569410 0.056423
O O11 0.765927 0.566559 0.088085
O O12 0.695517 0.461965 0.926572
O O13 0.421026 0.250000 0.968979
O O14 0.557947 0.355134 0.939142
O O15 0.716362 0.250000 0.585306
O O16 0.659814 0.156470 0.755091
#
# Coordination Sequence:
#
# PCOD8253899 Si02
#       7
#     8   8   8   8   8   8   8
#     4  10  21  37  62  92 125 168 214 262 327 388
#     4  11  21  40  65  97 127 168 218 281 331 390
#     4  11  22  39  65  97 130 168 223 280 328 389
#     4  11  23  42  63  93 128 172 220 272 330 392
#     4  11  22  39  67  98 129 169 220 276 334 396
#     4  11  24  42  63  91 132 177 215 261 327 404
#     4  11  23  41  62  94 130 168 218 271 331 395
#
# _framework density 21.573232999999998
#
# number of rings (size 3 to 8) (size 9 to 14) (size 15 to 20)
#    0.000    1.143    1.429    7.286    0.000    4.000 
#    0.000    0.000    0.000    3.429    0.000    0.000 
#    0.000    0.000    0.000    0.000    0.000    0.000 
#
# Total GULP energy -693910.158749 kJ/mol
# GULP energy per Si atom -12391.252835 kJ/mol
# Density = 2.152413 g / cm^3
# Si number density = 21.573233 Si / 1000 Ang^3
#
#
#
# Elastic Constant Matrix: (Units=GPa)
#
#
# Indices 1 2 3 4 5 6 
#
# 1 68.8881 11.9158 28.6231 0.0000 0.0000 0.0000
# 2 11.9158 124.7258 37.7759 0.0000 0.0000 0.0000
# 3 28.6231 37.7759 113.5293 0.0000 0.0000 0.0000
# 4 0.0000 0.0000 0.0000 32.1438 0.0000 0.0000
# 5 0.0000 0.0000 0.0000 0.0000 35.4778 0.0000
# 6 0.0000 0.0000 0.0000 0.0000 0.0000 22.5382
#
#
#
# Elastic Compliance Matrix: (Units=1/GPa)
#
#
# Indices 1 2 3 4 5 6 
#
# 1 0.016228 -0.000346 -0.003976 0.000000 0.000000 0.000000
# 2 -0.000346 0.008924 -0.002882 0.000000 0.000000 0.000000
# 3 -0.003976 -0.002882 0.010770 0.000000 0.000000 0.000000
# 4 0.000000 0.000000 0.000000 0.031110 0.000000 0.000000
# 5 0.000000 0.000000 0.000000 0.000000 0.028187 0.000000
# 6 0.000000 0.000000 0.000000 0.000000 0.000000 0.044369
#
#
# Mechanical properties :
#
#
# Convention : Reuss Voigt Hill
#
# Bulk Modulus (GPa) = 46.48388 51.53031 49.00709
# Shear Modulus (GPa) = 31.02365 33.28718 32.15541
#
# Velocity S-wave (km/s) = 3.79629 3.93235 3.86492
# Velocity P-wave (km/s) = 6.38824 6.67502 6.53320
#
# Compressibility (1/GPa) = 0.02151284
#
# Stress axis : x y z
#
# Youngs Moduli (GPa) = 61.62066 112.06348 92.85254
#
# Poissons Ratio (x) = 0.03878 0.36921
# Poissons Ratio (y) = 0.02133 0.26760
# Poissons Ratio (z) = 0.24502 0.32296
#
# Static dielectric constant tensor:
#      x y z
#    x 3.575510 0.000000 0.000000 
#    y 0.000000 4.120230 0.000000 
#    z 0.000000 0.000000 4.037470 
# 
# 
# High freq. dielectric constant tensor:
#      x y z
#    x 1.821170 0.000000 0.000000 
#    y 0.000000 1.865890 0.000000 
#    z 0.000000 0.000000 1.845680 
# 
# From -- ./inp_files/13414.got.cif
#   From: 2010.03.12/outbox.cif.g09.slc.cpg/sg62_7_cif.got.tgz:13414.got - 2010.04.10 19:12:36.
