data_PCOD8253752
_publ_section_title
;
Structure prediction by ZEFSAII (Michael W. Deem and Ramdas Pophale) SiO2 
 PCOD8253752
Probable space group: P N M A
;
_chemical_formula_sum "Si O2"
_cell_formula_units_Z 56
_cell_length_a 14.551464
_cell_length_b 9.156243
_cell_length_c 21.493186
_cell_angle_alpha 90.000000
_cell_angle_beta 90.000000
_cell_angle_gamma 90.000000
_cell_volume 2863.682043
_symmetry_space_group_name_H-M "P N M A"
_symmetry_group_IT_number 62
_symmetry_cell_setting 'orthorhombic'
loop_
_space_group_symop_operation_xyz
x,y,z
1/2-x,-y,1/2+z
1/2+x,1/2-y,1/2-z
-x,1/2+y,-z
-x,-y,-z
1/2+x,y,1/2-z
1/2-x,1/2+y,1/2+z
x,1/2-y,z
loop_
_atom_site_type_symbol
_atom_site_label
_atom_site_fract_x
_atom_site_fract_y
_atom_site_fract_z
Si Si1 0.691873 0.915741 0.721025
Si Si2 0.926302 0.922340 0.456848
Si Si3 0.607006 0.080835 0.259808
Si Si4 0.779369 0.078171 0.994711
Si Si5 0.083807 0.579710 0.111551
Si Si6 0.875336 0.579851 0.104721
Si Si7 0.442528 0.082354 0.171256
O O1 0.674532 0.750000 0.697910
O O2 0.799171 0.952397 0.723554
O O3 0.651214 0.935836 0.790096
O O4 0.642086 0.025503 0.674513
O O5 0.942274 0.750000 0.459309
O O6 0.825000 0.965101 0.480140
O O7 0.938722 0.976049 0.386892
O O8 0.000000 0.000000 0.500000
O O9 0.596488 0.250000 0.276796
O O10 0.526094 0.029550 0.214529
O O11 0.604284 0.995446 0.323689
O O12 0.791629 0.250000 0.003488
O O13 0.845019 0.019337 0.939691
O O14 0.807088 0.002464 0.058695
O O15 0.098987 0.750000 0.122484
O O16 0.981032 0.546070 0.087464
O O17 0.853362 0.750000 0.101192
O O18 0.456589 0.250000 0.149278
#
# Coordination Sequence:
#
# PCOD8253752 Si02
#       7
#     8   8   8   8   8   8   8
#     4  10  21  38  60  87 121 159 197 243 296 354
#     4  11  25  43  64  88 119 159 204 252 302 355
#     4  10  21  36  60  89 117 155 197 237 291 353
#     4  10  23  42  62  84 117 162 201 242 300 360
#     4  10  21  39  61  90 123 154 194 245 300 356
#     4  11  23  37  59  92 122 152 197 250 299 353
#     4  10  21  39  61  88 121 156 197 242 292 353
#
# _framework density 19.555243000000001
#
# number of rings (size 3 to 8) (size 9 to 14) (size 15 to 20)
#    0.000    1.714    1.429    2.143    2.000    4.000 
#    0.000    0.000    0.000    0.000    0.000    0.000 
#    0.000    0.000    0.000    0.000    0.000    0.000 
#
# Total GULP energy -694695.836380 kJ/mol
# GULP energy per Si atom -12405.282792 kJ/mol
# Density = 1.951073 g / cm^3
# Si number density = 19.555243 Si / 1000 Ang^3
#
#
#
# Elastic Constant Matrix: (Units=GPa)
#
#
# Indices 1 2 3 4 5 6 
#
# 1 109.4335 38.6509 43.6010 0.0000 0.0000 0.0000
# 2 38.6509 49.1929 43.7803 0.0000 0.0000 0.0000
# 3 43.6010 43.7803 109.9380 0.0000 0.0000 0.0000
# 4 0.0000 0.0000 0.0000 42.1295 0.0000 0.0000
# 5 0.0000 0.0000 0.0000 0.0000 24.1633 0.0000
# 6 0.0000 0.0000 0.0000 0.0000 0.0000 27.0350
#
#
#
# Elastic Compliance Matrix: (Units=1/GPa)
#
#
# Indices 1 2 3 4 5 6 
#
# 1 0.012842 -0.008608 -0.001665 0.000000 0.000000 0.000000
# 2 -0.008608 0.037258 -0.011423 0.000000 0.000000 0.000000
# 3 -0.001665 -0.011423 0.014305 0.000000 0.000000 0.000000
# 4 0.000000 0.000000 0.000000 0.023736 0.000000 0.000000
# 5 0.000000 0.000000 0.000000 0.000000 0.041385 0.000000
# 6 0.000000 0.000000 0.000000 0.000000 0.000000 0.036989
#
#
# Mechanical properties :
#
#
# Convention : Reuss Voigt Hill
#
# Bulk Modulus (GPa) = 47.59062 57.84764 52.71913
# Shear Modulus (GPa) = 23.05092 28.16773 25.60932
#
# Velocity S-wave (km/s) = 3.43703 3.79940 3.62275
# Velocity P-wave (km/s) = 6.33563 6.99236 6.67208
#
# Compressibility (1/GPa) = 0.02101254
#
# Stress axis : x y z
#
# Youngs Moduli (GPa) = 77.87229 26.84019 69.90357
#
# Poissons Ratio (x) = 0.23103 0.11639
# Poissons Ratio (y) = 0.67030 0.79852
# Poissons Ratio (z) = 0.12966 0.30660
#
# Static dielectric constant tensor:
#      x y z
#    x 3.894130 0.000000 0.000000 
#    y 0.000000 3.528880 0.000000 
#    z 0.000000 0.000000 3.490900 
# 
# 
# High freq. dielectric constant tensor:
#      x y z
#    x 1.779570 0.000000 0.000000 
#    y 0.000000 1.756290 0.000000 
#    z 0.000000 0.000000 1.765370 
# 
# From -- ./inp_files/27089.got.cif
#   From: 2010.03.12/outbox.cif.g09.slc.cpg/sg62_14_cif.got.tgz:27089.got - 2010.04.10 19:12:36.
