data_PCOD8253612
_publ_section_title
;
Structure prediction by ZEFSAII (Michael W. Deem and Ramdas Pophale) SiO2 
 PCOD8253612
Probable space group: P N M A
;
_chemical_formula_sum "Si O2"
_cell_formula_units_Z 64
_cell_length_a 9.326943
_cell_length_b 21.031103
_cell_length_c 18.510176
_cell_angle_alpha 90.000000
_cell_angle_beta 90.000000
_cell_angle_gamma 90.000000
_cell_volume 3630.880212
_symmetry_space_group_name_H-M "P N M A"
_symmetry_group_IT_number 62
_symmetry_cell_setting 'orthorhombic'
loop_
_space_group_symop_operation_xyz
x,y,z
1/2-x,-y,1/2+z
1/2+x,1/2-y,1/2-z
-x,1/2+y,-z
-x,-y,-z
1/2+x,y,1/2-z
1/2-x,1/2+y,1/2+z
x,1/2-y,z
loop_
_atom_site_type_symbol
_atom_site_label
_atom_site_fract_x
_atom_site_fract_y
_atom_site_fract_z
Si Si1 0.547347 0.482734 0.312925
Si Si2 0.147385 0.477880 0.034185
Si Si3 0.779244 0.982335 0.670879
Si Si4 0.502692 0.627978 0.310940
Si Si5 0.261394 0.889185 0.408875
Si Si6 0.483636 0.678064 0.051893
Si Si7 0.189266 0.179581 0.692316
Si Si8 0.111735 0.054834 0.479685
O O1 0.627543 0.453872 0.383516
O O2 0.382755 0.459760 0.312527
O O3 0.625714 0.462742 0.239606
O O4 0.561448 0.557719 0.321534
O O5 0.214496 0.420651 0.987204
O O6 0.250999 0.539465 0.029956
O O7 0.000000 0.500000 0.000000
O O8 0.845412 0.944355 0.604044
O O9 0.781621 0.057350 0.651032
O O10 0.405917 0.645775 0.381159
O O11 0.639490 0.672815 0.302813
O O12 0.399520 0.630438 0.241001
O O13 0.137423 0.836715 0.412134
O O14 0.486753 0.750000 0.019816
O O15 0.358110 0.671311 0.110068
O O16 0.450682 0.625227 0.991701
O O17 0.151438 0.250000 0.720705
O O18 0.000000 0.000000 0.500000
#
# Coordination Sequence:
#
# PCOD8253612 Si02
#       8
#     8   8   8   8   8   8   8   8
#     4  11  21  32  53  83 113 142 179 234 287 337
#     4  11  19  37  56  85 116 148 182 235 287 337
#     4  10  21  33  51  84 112 142 184 226 286 333
#     4  11  20  33  52  71 110 149 193 230 276 320
#     4  10  21  36  53  80 110 153 188 230 283 334
#     4  11  23  38  55  80 110 149 192 233 277 339
#     4  11  23  34  49  72 106 154 197 230 269 321
#     4  11  21  36  61  82 113 149 191 229 286 331
#
# _framework density 17.626580000000001
#
# number of rings (size 3 to 8) (size 9 to 14) (size 15 to 20)
#    0.000    1.250    6.250    4.125    1.750    2.000 
#    0.000    0.000    0.000    0.000    0.000    3.500 
#    0.000    0.000    0.000    0.000    0.000    0.000 
#
# Total GULP energy -793443.431457 kJ/mol
# GULP energy per Si atom -12397.553617 kJ/mol
# Density = 1.758646 g / cm^3
# Si number density = 17.626580 Si / 1000 Ang^3
#
#
#
# Elastic Constant Matrix: (Units=GPa)
#
#
# Indices 1 2 3 4 5 6 
#
# 1 118.9091 30.4573 54.3943 0.0000 0.0000 0.0000
# 2 30.4573 67.7782 26.2421 0.0000 0.0000 0.0000
# 3 54.3943 26.2421 124.2400 0.0000 0.0000 0.0000
# 4 0.0000 0.0000 0.0000 18.7032 0.0000 0.0000
# 5 0.0000 0.0000 0.0000 0.0000 38.7329 0.0000
# 6 0.0000 0.0000 0.0000 0.0000 0.0000 16.1616
#
#
#
# Elastic Compliance Matrix: (Units=1/GPa)
#
#
# Indices 1 2 3 4 5 6 
#
# 1 0.011197 -0.003412 -0.004181 0.000000 0.000000 0.000000
# 2 -0.003412 0.017108 -0.002120 0.000000 0.000000 0.000000
# 3 -0.004181 -0.002120 0.010327 0.000000 0.000000 0.000000
# 4 0.000000 0.000000 0.000000 0.053467 0.000000 0.000000
# 5 0.000000 0.000000 0.000000 0.000000 0.025818 0.000000
# 6 0.000000 0.000000 0.000000 0.000000 0.000000 0.061875
#
#
# Mechanical properties :
#
#
# Convention : Reuss Voigt Hill
#
# Bulk Modulus (GPa) = 52.06885 59.23496 55.65191
# Shear Modulus (GPa) = 24.31673 28.04178 26.17925
#
# Velocity S-wave (km/s) = 3.71826 3.99291 3.85803
# Velocity P-wave (km/s) = 6.93095 7.41190 7.17545
#
# Compressibility (1/GPa) = 0.01920534
#
# Stress axis : x y z
#
# Youngs Moduli (GPa) = 89.31327 58.45184 96.83121
#
# Poissons Ratio (x) = 0.19947 0.40487
# Poissons Ratio (y) = 0.30478 0.20524
# Poissons Ratio (z) = 0.37344 0.12389
#
# Static dielectric constant tensor:
#      x y z
#    x 3.519900 0.000000 0.000000 
#    y 0.000000 2.986090 0.000000 
#    z 0.000000 0.000000 3.375410 
# 
# 
# High freq. dielectric constant tensor:
#      x y z
#    x 1.707520 0.000000 0.000000 
#    y 0.000000 1.633350 0.000000 
#    z 0.000000 0.000000 1.674860 
# 
# From -- ./inp_files/22560.got.cif
#   From: 2010.03.12/outbox.cif.g09.slc.cpg/sg62_12_cif.got.tgz:22560.got - 2010.04.10 19:12:36.
