data_PCOD8253819
_publ_section_title
;
Structure prediction by ZEFSAII (Michael W. Deem and Ramdas Pophale) SiO2 
 PCOD8253819
Probable space group: P N M A
;
_chemical_formula_sum "Si O2"
_cell_formula_units_Z 48
_cell_length_a 23.814097
_cell_length_b 8.619002
_cell_length_c 12.016253
_cell_angle_alpha 90.000000
_cell_angle_beta 90.000000
_cell_angle_gamma 90.000000
_cell_volume 2466.380985
_symmetry_space_group_name_H-M "P N M A"
_symmetry_group_IT_number 62
_symmetry_cell_setting 'orthorhombic'
loop_
_space_group_symop_operation_xyz
x,y,z
1/2-x,-y,1/2+z
1/2+x,1/2-y,1/2-z
-x,1/2+y,-z
-x,-y,-z
1/2+x,y,1/2-z
1/2-x,1/2+y,1/2+z
x,1/2-y,z
loop_
_atom_site_type_symbol
_atom_site_label
_atom_site_fract_x
_atom_site_fract_y
_atom_site_fract_z
Si Si1 0.212151 0.568098 0.833528
Si Si2 0.170916 0.567606 0.403543
Si Si3 0.890954 0.067441 0.018650
Si Si4 0.646794 0.431951 0.861362
Si Si5 0.582005 0.565810 0.275780
Si Si6 0.043186 0.432580 0.787282
O O1 0.207585 0.750000 0.808100
O O2 0.273505 0.526052 0.874503
O O3 0.169068 0.517520 0.930813
O O4 0.197746 0.474268 0.721386
O O5 0.181812 0.750000 0.389027
O O6 0.152152 0.531623 0.527979
O O7 0.122247 0.504842 0.321783
O O8 0.897451 0.250000 0.015485
O O9 0.941401 0.003300 0.093518
O O10 0.896145 0.999235 0.894046
O O11 0.649231 0.250000 0.888912
O O12 0.587802 0.483602 0.806418
O O13 0.583222 0.750000 0.277799
O O14 0.518528 0.507257 0.252320
O O15 0.044193 0.250000 0.802270
#
# Coordination Sequence:
#
# PCOD8253819 Si02
#       6
#     8   8   8   8   8   8
#     4  10  21  37  58  83 111 145 188 235 283 340
#     4  11  23  37  56  82 113 152 191 232 281 334
#     4   9  18  34  57  83 111 144 179 227 286 335
#     4  10  21  38  58  80 111 148 187 233 283 333
#     4   9  19  35  55  82 114 147 183 226 282 335
#     4   9  18  35  58  82 110 146 186 228 275 333
#
# _framework density 19.461714000000001
#
# number of rings (size 3 to 8) (size 9 to 14) (size 15 to 20)
#    0.000    2.333    0.000    2.000    2.333    2.000 
#    0.000    3.333    0.000    0.000    0.000    0.000 
#    0.000    0.000    0.000    0.000    0.000    0.000 
#
# Total GULP energy -595282.592717 kJ/mol
# GULP energy per Si atom -12401.720682 kJ/mol
# Density = 1.941742 g / cm^3
# Si number density = 19.461714 Si / 1000 Ang^3
#
#
#
# Elastic Constant Matrix: (Units=GPa)
#
#
# Indices 1 2 3 4 5 6 
#
# 1 137.1564 12.4078 68.0582 0.0000 0.0000 0.0000
# 2 12.4078 23.6742 9.9954 0.0000 0.0000 0.0000
# 3 68.0582 9.9954 133.6604 0.0000 0.0000 0.0000
# 4 0.0000 0.0000 0.0000 26.8580 0.0000 0.0000
# 5 0.0000 0.0000 0.0000 0.0000 24.9765 0.0000
# 6 0.0000 0.0000 0.0000 0.0000 0.0000 23.1317
#
#
#
# Elastic Compliance Matrix: (Units=1/GPa)
#
#
# Indices 1 2 3 4 5 6 
#
# 1 0.009983 -0.003187 -0.004845 0.000000 0.000000 0.000000
# 2 -0.003187 0.044634 -0.001715 0.000000 0.000000 0.000000
# 3 -0.004845 -0.001715 0.010077 0.000000 0.000000 0.000000
# 4 0.000000 0.000000 0.000000 0.037233 0.000000 0.000000
# 5 0.000000 0.000000 0.000000 0.000000 0.040038 0.000000
# 6 0.000000 0.000000 0.000000 0.000000 0.000000 0.043231
#
#
# Mechanical properties :
#
#
# Convention : Reuss Voigt Hill
#
# Bulk Modulus (GPa) = 22.12353 52.82375 37.47364
# Shear Modulus (GPa) = 22.75240 28.59523 25.67381
#
# Velocity S-wave (km/s) = 3.42290 3.83731 3.63601
# Velocity P-wave (km/s) = 5.19750 6.84358 6.07654
#
# Compressibility (1/GPa) = 0.04520073
#
# Stress axis : x y z
#
# Youngs Moduli (GPa) = 100.16601 22.40421 99.23599
#
# Poissons Ratio (x) = 0.07140 0.48081
# Poissons Ratio (y) = 0.31920 0.17021
# Poissons Ratio (z) = 0.48532 0.03843
#
# Static dielectric constant tensor:
#      x y z
#    x 3.834270 0.000000 0.000000 
#    y 0.000000 3.323070 0.000000 
#    z 0.000000 0.000000 3.741600 
# 
# 
# High freq. dielectric constant tensor:
#      x y z
#    x 1.766470 0.000000 0.000000 
#    y 0.000000 1.741850 0.000000 
#    z 0.000000 0.000000 1.761410 
# 
# From -- ./inp_files/15147.got.cif
#   From: 2010.03.12/outbox.cif.g09.slc.cpg/sg62_8_cif.got.tgz:15147.got - 2010.04.10 19:12:36.
