data_PCOD8253769
_publ_section_title
;
Structure prediction by ZEFSAII (Michael W. Deem and Ramdas Pophale) SiO2 
 PCOD8253769
Probable space group: P N M A
;
_chemical_formula_sum "Si O2"
_cell_formula_units_Z 64
_cell_length_a 19.768312
_cell_length_b 9.009643
_cell_length_c 20.012712
_cell_angle_alpha 90.000000
_cell_angle_beta 90.000000
_cell_angle_gamma 90.000000
_cell_volume 3564.372753
_symmetry_space_group_name_H-M "P N M A"
_symmetry_group_IT_number 62
_symmetry_cell_setting 'orthorhombic'
loop_
_space_group_symop_operation_xyz
x,y,z
1/2-x,-y,1/2+z
1/2+x,1/2-y,1/2-z
-x,1/2+y,-z
-x,-y,-z
1/2+x,y,1/2-z
1/2-x,1/2+y,1/2+z
x,1/2-y,z
loop_
_atom_site_type_symbol
_atom_site_label
_atom_site_fract_x
_atom_site_fract_y
_atom_site_fract_z
Si Si1 0.684131 0.424021 0.574813
Si Si2 0.422346 0.075015 0.675971
Si Si3 0.081732 0.919663 0.326949
Si Si4 0.576670 0.419484 0.826512
Si Si5 0.571692 0.425947 0.675918
Si Si6 0.667567 0.576525 0.931982
Si Si7 0.178367 0.419686 0.077655
Si Si8 0.675100 0.074661 0.069863
O O1 0.697809 0.250000 0.586398
O O2 0.626218 0.488702 0.623496
O O3 0.660297 0.453896 0.499233
O O4 0.752699 0.509650 0.591436
O O5 0.425735 0.250000 0.670608
O O6 0.401763 0.030537 0.751203
O O7 0.497032 0.009480 0.659032
O O8 0.367563 0.018980 0.624243
O O9 0.105159 0.750000 0.339440
O O10 0.002414 0.934667 0.341481
O O11 0.120655 0.031495 0.374714
O O12 0.600414 0.250000 0.838198
O O13 0.592975 0.470805 0.750929
O O14 0.616660 0.529196 0.874446
O O15 0.568479 0.250000 0.670791
O O16 0.659747 0.750000 0.947508
O O17 0.743648 0.539632 0.908637
O O18 0.649841 0.489304 0.999366
O O19 0.163487 0.250000 0.095441
O O20 0.680438 0.250000 0.064334
#
# Coordination Sequence:
#
# PCOD8253769 Si02
#       8
#     8   8   8   8   8   8   8   8
#     4   9  18  35  55  74 103 139 169 204 256 306
#     4   9  18  33  54  77 101 134 174 210 245 296
#     4   9  19  36  54  74 103 136 168 205 254 305
#     4   9  18  34  56  79 101 129 171 215 248 293
#     4   8  16  33  55  77 102 134 171 209 251 300
#     4  10  21  37  54  73 103 138 168 204 256 309
#     4   9  19  33  49  73 105 138 168 205 254 301
#     4  11  22  35  53  77 102 130 171 215 250 295
#
# _framework density 17.955473999999999
#
# number of rings (size 3 to 8) (size 9 to 14) (size 15 to 20)
#    0.000    2.750    0.000    3.750    0.000    5.500 
#    0.000    6.875    0.000    0.000    0.000    0.000 
#    0.000    0.000    0.000    0.000    0.000    0.000 
#
# Total GULP energy -793583.837573 kJ/mol
# GULP energy per Si atom -12399.747462 kJ/mol
# Density = 1.791461 g / cm^3
# Si number density = 17.955474 Si / 1000 Ang^3
#
#
#
# Elastic Constant Matrix: (Units=GPa)
#
#
# Indices 1 2 3 4 5 6 
#
# 1 88.3406 38.2165 75.4151 0.0000 0.0000 0.0000
# 2 38.2165 59.3515 41.2530 0.0000 0.0000 0.0000
# 3 75.4151 41.2530 114.0796 0.0000 0.0000 0.0000
# 4 0.0000 0.0000 0.0000 29.6186 0.0000 0.0000
# 5 0.0000 0.0000 0.0000 0.0000 32.1932 0.0000
# 6 0.0000 0.0000 0.0000 0.0000 0.0000 28.0528
#
#
#
# Elastic Compliance Matrix: (Units=1/GPa)
#
#
# Indices 1 2 3 4 5 6 
#
# 1 0.027941 -0.006883 -0.015982 0.000000 0.000000 0.000000
# 2 -0.006883 0.024201 -0.004201 0.000000 0.000000 0.000000
# 3 -0.015982 -0.004201 0.020851 0.000000 0.000000 0.000000
# 4 0.000000 0.000000 0.000000 0.033763 0.000000 0.000000
# 5 0.000000 0.000000 0.000000 0.000000 0.031062 0.000000
# 6 0.000000 0.000000 0.000000 0.000000 0.000000 0.035647
#
#
# Mechanical properties :
#
#
# Convention : Reuss Voigt Hill
#
# Bulk Modulus (GPa) = 53.02296 63.50457 58.26377
# Shear Modulus (GPa) = 21.37811 25.09872 23.23842
#
# Velocity S-wave (km/s) = 3.45428 3.74281 3.60144
# Velocity P-wave (km/s) = 6.74565 7.35682 7.05785
#
# Compressibility (1/GPa) = 0.01885975
#
# Stress axis : x y z
#
# Youngs Moduli (GPa) = 35.78949 41.32092 47.96017
#
# Poissons Ratio (x) = 0.28440 0.76651
# Poissons Ratio (y) = 0.24633 0.20150
# Poissons Ratio (z) = 0.57200 0.17361
#
# Static dielectric constant tensor:
#      x y z
#    x 3.452090 0.000000 0.000000 
#    y 0.000000 3.100160 0.000000 
#    z 0.000000 0.000000 3.430930 
# 
# 
# High freq. dielectric constant tensor:
#      x y z
#    x 1.697250 0.000000 0.000000 
#    y 0.000000 1.678010 0.000000 
#    z 0.000000 0.000000 1.700020 
# 
# From -- ./inp_files/27734.got.cif
#   From: 2010.03.12/outbox.cif.g09.slc.cpg/sg62_14_cif.got.tgz:27734.got - 2010.04.10 19:12:36.
