data_PCOD8253268
_publ_section_title
;
Structure prediction by ZEFSAII (Michael W. Deem and Ramdas Pophale) SiO2 
 PCOD8253268
Probable space group: P N M A
;
_chemical_formula_sum "Si O2"
_cell_formula_units_Z 48
_cell_length_a 23.876136
_cell_length_b 8.462778
_cell_length_c 11.793512
_cell_angle_alpha 90.000000
_cell_angle_beta 90.000000
_cell_angle_gamma 90.000000
_cell_volume 2382.978619
_symmetry_space_group_name_H-M "P N M A"
_symmetry_group_IT_number 62
_symmetry_cell_setting 'orthorhombic'
loop_
_space_group_symop_operation_xyz
x,y,z
1/2-x,-y,1/2+z
1/2+x,1/2-y,1/2-z
-x,1/2+y,-z
-x,-y,-z
1/2+x,y,1/2-z
1/2-x,1/2+y,1/2+z
x,1/2-y,z
loop_
_atom_site_type_symbol
_atom_site_label
_atom_site_fract_x
_atom_site_fract_y
_atom_site_fract_z
Si Si1 0.957883 0.564079 0.754815
Si Si2 0.286893 0.566083 0.661693
Si Si3 0.422646 0.563380 0.280088
Si Si4 0.170494 0.432541 0.599858
Si Si5 0.606337 0.063481 0.473218
Si Si6 0.355004 0.067761 0.861248
O O1 0.949298 0.750000 0.741912
O O2 0.919415 0.480199 0.660618
O O3 0.021538 0.516969 0.732366
O O4 0.938887 0.505170 0.880154
O O5 0.271466 0.750000 0.650053
O O6 0.232348 0.460080 0.647542
O O7 0.331499 0.511991 0.565750
O O8 0.313534 0.537031 0.784948
O O9 0.431858 0.750000 0.285971
O O10 0.372520 0.516086 0.197398
O O11 0.408307 0.490919 0.404192
O O12 0.162648 0.250000 0.567192
O O13 0.159441 0.540383 0.491672
O O14 0.604440 0.250000 0.481989
O O15 0.345623 0.250000 0.831084
#
# Coordination Sequence:
#
# PCOD8253268 Si02
#       6
#     8   8   8   8   8   8
#     4  10  20  37  61  88 119 152 196 248 299 355
#     4  10  21  39  63  89 120 154 196 249 301 357
#     4  10  21  37  58  86 121 156 195 239 294 359
#     4  11  24  39  58  88 122 159 201 246 296 359
#     4   8  17  35  59  87 117 153 189 238 297 351
#     4  11  23  41  63  84 115 159 203 246 300 356
#
# _framework density 20.142859000000001
#
# number of rings (size 3 to 8) (size 9 to 14) (size 15 to 20)
#    0.000    2.000    0.000    4.500    2.333    2.000 
#    0.000    4.167    0.000    0.000    0.000    0.000 
#    0.000    0.000    0.000    0.000    0.000    0.000 
#
# Total GULP energy -595388.507902 kJ/mol
# GULP energy per Si atom -12403.927248 kJ/mol
# Density = 2.009701 g / cm^3
# Si number density = 20.142859 Si / 1000 Ang^3
#
#
#
# Elastic Constant Matrix: (Units=GPa)
#
#
# Indices 1 2 3 4 5 6 
#
# 1 139.7591 18.6596 37.1770 0.0000 0.0000 0.0000
# 2 18.6596 50.2134 15.6386 0.0000 0.0000 0.0000
# 3 37.1770 15.6386 76.1657 0.0000 0.0000 0.0000
# 4 0.0000 0.0000 0.0000 24.2237 0.0000 0.0000
# 5 0.0000 0.0000 0.0000 0.0000 21.7299 0.0000
# 6 0.0000 0.0000 0.0000 0.0000 0.0000 31.3910
#
#
#
# Elastic Compliance Matrix: (Units=1/GPa)
#
#
# Indices 1 2 3 4 5 6 
#
# 1 0.008402 -0.001971 -0.003696 0.000000 0.000000 0.000000
# 2 -0.001971 0.021738 -0.003501 0.000000 0.000000 0.000000
# 3 -0.003696 -0.003501 0.015652 0.000000 0.000000 0.000000
# 4 0.000000 0.000000 0.000000 0.041282 0.000000 0.000000
# 5 0.000000 0.000000 0.000000 0.000000 0.046020 0.000000
# 6 0.000000 0.000000 0.000000 0.000000 0.000000 0.031856
#
#
# Mechanical properties :
#
#
# Convention : Reuss Voigt Hill
#
# Bulk Modulus (GPa) = 36.42328 45.45428 40.93878
# Shear Modulus (GPa) = 25.98245 28.44647 27.21446
#
# Velocity S-wave (km/s) = 3.59543 3.76205 3.67968
# Velocity P-wave (km/s) = 5.94625 6.44093 6.19853
#
# Compressibility (1/GPa) = 0.02745497
#
# Stress axis : x y z
#
# Youngs Moduli (GPa) = 119.02613 46.00271 63.88849
#
# Poissons Ratio (x) = 0.09067 0.23614
# Poissons Ratio (y) = 0.23459 0.22369
# Poissons Ratio (z) = 0.43994 0.16107
#
# Static dielectric constant tensor:
#      x y z
#    x 3.671140 0.000000 0.000000 
#    y 0.000000 3.439190 0.000000 
#    z 0.000000 0.000000 3.782230 
# 
# 
# High freq. dielectric constant tensor:
#      x y z
#    x 1.793730 0.000000 0.000000 
#    y 0.000000 1.775070 0.000000 
#    z 0.000000 0.000000 1.785140 
# 
# From -- ./inp_files/15107.got.cif
#   From: 2010.03.12/outbox.cif.g09.slc.cpg/sg62_8_cif.got.tgz:15107.got - 2010.04.10 19:12:36.
