data_PCOD8253558
_publ_section_title
;
Structure prediction by ZEFSAII (Michael W. Deem and Ramdas Pophale) SiO2 
 PCOD8253558
Probable space group: P N M A
;
_chemical_formula_sum "Si O2"
_cell_formula_units_Z 48
_cell_length_a 27.199184
_cell_length_b 8.780775
_cell_length_c 10.022646
_cell_angle_alpha 90.000000
_cell_angle_beta 90.000000
_cell_angle_gamma 90.000000
_cell_volume 2393.707691
_symmetry_space_group_name_H-M "P N M A"
_symmetry_group_IT_number 62
_symmetry_cell_setting 'orthorhombic'
loop_
_space_group_symop_operation_xyz
x,y,z
1/2-x,-y,1/2+z
1/2+x,1/2-y,1/2-z
-x,1/2+y,-z
-x,-y,-z
1/2+x,y,1/2-z
1/2-x,1/2+y,1/2+z
x,1/2-y,z
loop_
_atom_site_type_symbol
_atom_site_label
_atom_site_fract_x
_atom_site_fract_y
_atom_site_fract_z
Si Si1 0.037810 0.069160 0.744398
Si Si2 0.427164 0.070105 0.751645
Si Si3 0.713972 0.073381 0.617935
Si Si4 0.894195 0.571594 0.017637
Si Si5 0.291010 0.427705 0.109393
Si Si6 0.109514 0.429742 0.516170
O O1 0.038377 0.250000 0.744959
O O2 0.065181 0.011537 0.877578
O O3 0.066118 0.010033 0.613047
O O4 0.982624 0.003093 0.743164
O O5 0.428360 0.250000 0.760180
O O6 0.400452 0.020351 0.617707
O O7 0.395498 0.007682 0.873524
O O8 0.718819 0.250000 0.656169
O O9 0.658749 0.032490 0.576749
O O10 0.749479 0.029199 0.497011
O O11 0.729442 0.972939 0.745205
O O12 0.899839 0.750000 0.987542
O O13 0.304089 0.250000 0.104588
O O14 0.338958 0.526722 0.080921
O O15 0.107024 0.250000 0.498278
#
# Coordination Sequence:
#
# PCOD8253558 Si02
#       6
#     8   8   8   8   8   8
#     4   9  19  38  63  86 117 158 206 250 298 357
#     4  11  23  37  57  93 126 154 200 258 299 349
#     4  10  23  43  65  89 121 159 198 242 298 362
#     4  10  20  40  63  86 119 162 202 240 297 371
#     4  11  24  41  64  96 123 153 199 252 300 351
#     4  11  22  41  64  86 119 167 203 242 302 363
#
# _framework density 20.052575000000001
#
# number of rings (size 3 to 8) (size 9 to 14) (size 15 to 20)
#    0.000    1.667    1.667    2.500    2.333    2.000 
#    0.000    3.333    0.000    0.000    0.000    0.000 
#    0.000    0.000    0.000    0.000    0.000    0.000 
#
# Total GULP energy -595464.668955 kJ/mol
# GULP energy per Si atom -12405.513937 kJ/mol
# Density = 2.000693 g / cm^3
# Si number density = 20.052575 Si / 1000 Ang^3
#
#
#
# Elastic Constant Matrix: (Units=GPa)
#
#
# Indices 1 2 3 4 5 6 
#
# 1 78.4493 24.6953 34.2688 0.0000 0.0000 0.0000
# 2 24.6953 52.0857 45.4882 0.0000 0.0000 0.0000
# 3 34.2688 45.4882 151.6852 0.0000 0.0000 0.0000
# 4 0.0000 0.0000 0.0000 28.4424 0.0000 0.0000
# 5 0.0000 0.0000 0.0000 0.0000 37.1588 0.0000
# 6 0.0000 0.0000 0.0000 0.0000 0.0000 26.3634
#
#
#
# Elastic Compliance Matrix: (Units=1/GPa)
#
#
# Indices 1 2 3 4 5 6 
#
# 1 0.015314 -0.005744 -0.001737 0.000000 0.000000 0.000000
# 2 -0.005744 0.028166 -0.007149 0.000000 0.000000 0.000000
# 3 -0.001737 -0.007149 0.009129 0.000000 0.000000 0.000000
# 4 0.000000 0.000000 0.000000 0.035159 0.000000 0.000000
# 5 0.000000 0.000000 0.000000 0.000000 0.026912 0.000000
# 6 0.000000 0.000000 0.000000 0.000000 0.000000 0.037931
#
#
# Mechanical properties :
#
#
# Convention : Reuss Voigt Hill
#
# Bulk Modulus (GPa) = 42.82817 54.56940 48.69878
# Shear Modulus (GPa) = 26.36396 30.24412 28.30404
#
# Velocity S-wave (km/s) = 3.62987 3.88782 3.76106
# Velocity P-wave (km/s) = 6.24278 6.88664 6.57260
#
# Compressibility (1/GPa) = 0.02334912
#
# Stress axis : x y z
#
# Youngs Moduli (GPa) = 65.29955 35.50420 109.54158
#
# Poissons Ratio (x) = 0.20392 0.19031
# Poissons Ratio (y) = 0.37505 0.78310
# Poissons Ratio (z) = 0.11345 0.25382
#
# Static dielectric constant tensor:
#      x y z
#    x 3.792310 0.000000 0.000000 
#    y 0.000000 3.415850 0.000000 
#    z 0.000000 0.000000 3.783020 
# 
# 
# High freq. dielectric constant tensor:
#      x y z
#    x 1.790600 0.000000 0.000000 
#    y 0.000000 1.766180 0.000000 
#    z 0.000000 0.000000 1.799910 
# 
# From -- ./inp_files/10144.got.cif
#   From: 2010.03.12/outbox.cif.g09.slc.cpg/sg62_6_cif.got.tgz:10144.got - 2010.04.10 19:12:36.
