data_PCOD8253371
_publ_section_title
;
Structure prediction by ZEFSAII (Michael W. Deem and Ramdas Pophale) SiO2 
 PCOD8253371
Probable space group: P N M A
;
_chemical_formula_sum "Si O2"
_cell_formula_units_Z 64
_cell_length_a 18.536419
_cell_length_b 9.308984
_cell_length_c 18.971603
_cell_angle_alpha 90.000000
_cell_angle_beta 90.000000
_cell_angle_gamma 90.000000
_cell_volume 3273.649279
_symmetry_space_group_name_H-M "P N M A"
_symmetry_group_IT_number 62
_symmetry_cell_setting 'orthorhombic'
loop_
_space_group_symop_operation_xyz
x,y,z
1/2-x,-y,1/2+z
1/2+x,1/2-y,1/2-z
-x,1/2+y,-z
-x,-y,-z
1/2+x,y,1/2-z
1/2-x,1/2+y,1/2+z
x,1/2-y,z
loop_
_atom_site_type_symbol
_atom_site_label
_atom_site_fract_x
_atom_site_fract_y
_atom_site_fract_z
Si Si1 0.859417 0.917137 0.684093
Si Si2 0.797325 0.914224 0.532821
Si Si3 0.477208 0.086265 0.192809
Si Si4 0.155154 0.086825 0.948730
Si Si5 0.942746 0.413622 0.148943
Si Si6 0.288966 0.078969 0.691869
Si Si7 0.358561 0.584310 0.117575
Si Si8 0.597849 0.085379 0.400823
O O1 0.850192 0.750000 0.704242
O O2 0.843631 0.945550 0.602336
O O3 0.940810 0.971130 0.698638
O O4 0.804220 0.008766 0.731901
O O5 0.769643 0.750000 0.531117
O O6 0.845354 0.947641 0.464622
O O7 0.730094 0.018406 0.529583
O O8 0.479734 0.250000 0.166875
O O9 0.438199 0.070546 0.267510
O O10 0.431181 0.999288 0.136416
O O11 0.168911 0.250000 0.926347
O O12 0.121524 0.007709 0.881903
O O13 0.101796 0.075041 0.015039
O O14 0.931120 0.250000 0.124630
O O15 0.019379 0.470635 0.121293
O O16 0.298061 0.250000 0.696174
O O17 0.209137 0.035142 0.665653
O O18 0.344195 0.017827 0.634571
O O19 0.374061 0.750000 0.131309
O O20 0.609889 0.250000 0.374680
#
# Coordination Sequence:
#
# PCOD8253371 Si02
#       8
#     8   8   8   8   8   8   8   8
#     4  10  22  42  65  87 116 155 203 245 288 353
#     4  10  22  42  64  85 116 160 198 241 299 351
#     4  10  22  40  62  88 115 154 202 245 290 348
#     4  11  23  36  57  90 123 154 196 248 294 346
#     4  10  21  38  58  83 120 160 199 239 289 355
#     4  11  22  37  61  90 121 154 191 242 296 347
#     4  10  23  41  60  88 123 155 193 244 299 351
#     4  10  20  38  61  85 118 160 199 238 287 352
#
# _framework density 19.550048
#
# number of rings (size 3 to 8) (size 9 to 14) (size 15 to 20)
#    0.000    1.750    2.500    1.125    1.750    4.500 
#    0.000    0.000    0.000    0.000    0.000    0.000 
#    0.000    0.000    0.000    0.000    0.000    0.000 
#
# Total GULP energy -793875.128150 kJ/mol
# GULP energy per Si atom -12404.298877 kJ/mol
# Density = 1.950555 g / cm^3
# Si number density = 19.550048 Si / 1000 Ang^3
#
#
#
# Elastic Constant Matrix: (Units=GPa)
#
#
# Indices 1 2 3 4 5 6 
#
# 1 37.6186 24.5139 26.6371 0.0000 0.0000 0.0000
# 2 24.5139 70.4754 36.3805 0.0000 0.0000 0.0000
# 3 26.6371 36.3805 103.3362 0.0000 0.0000 0.0000
# 4 0.0000 0.0000 0.0000 31.1167 0.0000 0.0000
# 5 0.0000 0.0000 0.0000 0.0000 35.4936 0.0000
# 6 0.0000 0.0000 0.0000 0.0000 0.0000 31.3200
#
#
#
# Elastic Compliance Matrix: (Units=1/GPa)
#
#
# Indices 1 2 3 4 5 6 
#
# 1 0.037342 -0.009801 -0.006175 0.000000 0.000000 0.000000
# 2 -0.009801 0.019913 -0.004484 0.000000 0.000000 0.000000
# 3 -0.006175 -0.004484 0.012848 0.000000 0.000000 0.000000
# 4 0.000000 0.000000 0.000000 0.032137 0.000000 0.000000
# 5 0.000000 0.000000 0.000000 0.000000 0.028174 0.000000
# 6 0.000000 0.000000 0.000000 0.000000 0.000000 0.031928
#
#
# Mechanical properties :
#
#
# Convention : Reuss Voigt Hill
#
# Bulk Modulus (GPa) = 34.26774 42.94367 38.60571
# Shear Modulus (GPa) = 23.47517 27.84599 25.66058
#
# Velocity S-wave (km/s) = 3.46898 3.77814 3.62686
# Velocity P-wave (km/s) = 5.79753 6.40673 6.10973
#
# Compressibility (1/GPa) = 0.02918197
#
# Stress axis : x y z
#
# Youngs Moduli (GPa) = 26.77949 50.21747 77.83539
#
# Poissons Ratio (x) = 0.49219 0.48064
# Poissons Ratio (y) = 0.26247 0.34903
# Poissons Ratio (z) = 0.16537 0.22519
#
# Static dielectric constant tensor:
#      x y z
#    x 3.514260 0.000000 0.000000 
#    y 0.000000 3.525490 0.000000 
#    z 0.000000 0.000000 3.630120 
# 
# 
# High freq. dielectric constant tensor:
#      x y z
#    x 1.758920 0.000000 0.000000 
#    y 0.000000 1.755710 0.000000 
#    z 0.000000 0.000000 1.771420 
# 
# From -- ./inp_files/27618.got.cif
#   From: 2010.03.12/outbox.cif.g09.slc.cpg/sg62_14_cif.got.tgz:27618.got - 2010.04.10 19:12:36.
