data_PCOD8253705
_publ_section_title
;
Structure prediction by ZEFSAII (Michael W. Deem and Ramdas Pophale) SiO2 
 PCOD8253705
Probable space group: P N M A
;
_chemical_formula_sum "Si O2"
_cell_formula_units_Z 48
_cell_length_a 11.870709
_cell_length_b 9.146331
_cell_length_c 23.511594
_cell_angle_alpha 90.000000
_cell_angle_beta 90.000000
_cell_angle_gamma 90.000000
_cell_volume 2552.734493
_symmetry_space_group_name_H-M "P N M A"
_symmetry_group_IT_number 62
_symmetry_cell_setting 'orthorhombic'
loop_
_space_group_symop_operation_xyz
x,y,z
1/2-x,-y,1/2+z
1/2+x,1/2-y,1/2-z
-x,1/2+y,-z
-x,-y,-z
1/2+x,y,1/2-z
1/2-x,1/2+y,1/2+z
x,1/2-y,z
loop_
_atom_site_type_symbol
_atom_site_label
_atom_site_fract_x
_atom_site_fract_y
_atom_site_fract_z
Si Si1 0.287525 0.078548 0.047721
Si Si2 0.788473 0.418866 0.580219
Si Si3 0.339271 0.078667 0.644587
Si Si4 0.902574 0.917559 0.167579
Si Si5 0.165948 0.921727 0.720796
Si Si6 0.999289 0.082664 0.378689
O O1 0.258135 0.250000 0.052855
O O2 0.413379 0.047408 0.070131
O O3 0.197643 0.989995 0.084745
O O4 0.279500 0.017846 0.983587
O O5 0.818902 0.250000 0.576028
O O6 0.670878 0.447786 0.611486
O O7 0.888471 0.489864 0.615942
O O8 0.312132 0.250000 0.644453
O O9 0.470346 0.045309 0.651687
O O10 0.275588 0.004029 0.697257
O O11 0.889491 0.750000 0.188106
O O12 0.859800 0.024653 0.216328
O O13 0.192544 0.750000 0.720882
O O14 0.059147 0.957801 0.681013
O O15 0.036280 0.250000 0.379877
#
# Coordination Sequence:
#
# PCOD8253705 Si02
#       6
#     8   8   8   8   8   8
#     4   9  19  37  58  82 114 149 186 230 280 332
#     4  10  21  36  56  83 115 149 186 230 279 332
#     4  10  21  38  59  82 111 147 188 230 278 338
#     4  10  23  39  55  82 115 149 188 232 282 334
#     4  10  22  39  59  82 111 146 188 236 284 334
#     4   9  19  35  55  83 112 142 185 234 281 332
#
# _framework density 18.803364999999999
#
# number of rings (size 3 to 8) (size 9 to 14) (size 15 to 20)
#    0.000    2.333    0.000    2.500    2.333    6.667 
#    0.000    0.000    0.000    0.000    0.000    0.000 
#    0.000    0.000    0.000    0.000    0.000    0.000 
#
# Total GULP energy -595376.816611 kJ/mol
# GULP energy per Si atom -12403.683679 kJ/mol
# Density = 1.876057 g / cm^3
# Si number density = 18.803365 Si / 1000 Ang^3
#
#
#
# Elastic Constant Matrix: (Units=GPa)
#
#
# Indices 1 2 3 4 5 6 
#
# 1 117.5171 47.6769 31.5135 0.0000 0.0000 0.0000
# 2 47.6769 66.3588 26.2486 0.0000 0.0000 0.0000
# 3 31.5135 26.2486 72.2586 0.0000 0.0000 0.0000
# 4 0.0000 0.0000 0.0000 32.2564 0.0000 0.0000
# 5 0.0000 0.0000 0.0000 0.0000 19.4632 0.0000
# 6 0.0000 0.0000 0.0000 0.0000 0.0000 22.9683
#
#
#
# Elastic Compliance Matrix: (Units=1/GPa)
#
#
# Indices 1 2 3 4 5 6 
#
# 1 0.012395 -0.007903 -0.002535 0.000000 0.000000 0.000000
# 2 -0.007903 0.022637 -0.004776 0.000000 0.000000 0.000000
# 3 -0.002535 -0.004776 0.016680 0.000000 0.000000 0.000000
# 4 0.000000 0.000000 0.000000 0.031002 0.000000 0.000000
# 5 0.000000 0.000000 0.000000 0.000000 0.051379 0.000000
# 6 0.000000 0.000000 0.000000 0.000000 0.000000 0.043538
#
#
# Mechanical properties :
#
#
# Convention : Reuss Voigt Hill
#
# Bulk Modulus (GPa) = 46.98520 51.89027 49.43774
# Shear Modulus (GPa) = 23.23907 24.98393 24.11150
#
# Velocity S-wave (km/s) = 3.51935 3.64908 3.58480
# Velocity P-wave (km/s) = 6.44642 6.73874 6.59420
#
# Compressibility (1/GPa) = 0.02128330
#
# Stress axis : x y z
#
# Youngs Moduli (GPa) = 80.67448 44.17543 59.95253
#
# Poissons Ratio (x) = 0.34912 0.15199
# Poissons Ratio (y) = 0.63757 0.28636
# Poissons Ratio (z) = 0.20452 0.21100
#
# Static dielectric constant tensor:
#      x y z
#    x 3.377940 0.000000 0.000000 
#    y 0.000000 3.428970 0.000000 
#    z 0.000000 0.000000 3.568010 
# 
# 
# High freq. dielectric constant tensor:
#      x y z
#    x 1.730460 0.000000 0.000000 
#    y 0.000000 1.730400 0.000000 
#    z 0.000000 0.000000 1.736420 
# 
# From -- ./inp_files/29244.got.cif
#   From: 2010.03.12/outbox.cif.g09.slc.cpg/sg62_15_cif.got.tgz:29244.got - 2010.04.10 19:12:36.
