data_PCOD8253469
_publ_section_title
;
Structure prediction by ZEFSAII (Michael W. Deem and Ramdas Pophale) SiO2 
 PCOD8253469
Probable space group: P N M A
;
_chemical_formula_sum "Si O2"
_cell_formula_units_Z 32
_cell_length_a 15.648585
_cell_length_b 10.216119
_cell_length_c 10.014173
_cell_angle_alpha 90.000000
_cell_angle_beta 90.000000
_cell_angle_gamma 90.000000
_cell_volume 1600.943872
_symmetry_space_group_name_H-M "P N M A"
_symmetry_group_IT_number 62
_symmetry_cell_setting 'orthorhombic'
loop_
_space_group_symop_operation_xyz
x,y,z
1/2-x,-y,1/2+z
1/2+x,1/2-y,1/2-z
-x,1/2+y,-z
-x,-y,-z
1/2+x,y,1/2-z
1/2-x,1/2+y,1/2+z
x,1/2-y,z
loop_
_atom_site_type_symbol
_atom_site_label
_atom_site_fract_x
_atom_site_fract_y
_atom_site_fract_z
Si Si1 0.861258 0.997378 0.053889
Si Si2 0.533055 0.021927 0.296345
Si Si3 0.996081 0.250000 0.688857
Si Si4 0.314580 0.750000 0.301840
Si Si5 0.255125 0.250000 0.519095
Si Si6 0.934078 0.750000 0.593833
O O1 0.934874 0.036757 0.158522
O O2 0.801346 0.880743 0.109818
O O3 0.802919 0.122236 0.031746
O O4 0.903937 0.945323 0.917874
O O5 0.549178 0.120925 0.177639
O O6 0.553918 0.876653 0.242702
O O7 0.089586 0.250000 0.749925
O O8 0.999466 0.250000 0.528783
O O9 0.248008 0.750000 0.180033
O O10 0.161738 0.250000 0.457767
#
# Coordination Sequence:
#
# PCOD8253469 Si02
#       6
#     8   8   4   4   4   4
#     4  10  21  40  63  86 115 161 208 250 295 356
#     4  10  20  38  66  87 113 158 211 245 290 360
#     4   9  19  37  59  88 119 149 191 253 296 344
#     4   9  21  39  57  84 122 151 197 256 297 353
#     4  11  24  37  57  87 128 160 193 252 312 358
#     4  11  22  35  57  93 125 154 193 247 307 359
#
# _framework density 19.988208
#
# number of rings (size 3 to 8) (size 9 to 14) (size 15 to 20)
#    0.000    2.000    0.000    3.000    3.500    4.000 
#    0.000    0.000    0.000    0.000    0.000    0.000 
#    0.000    0.000    0.000    0.000    0.000    0.000 
#
# Total GULP energy -396912.110543 kJ/mol
# GULP energy per Si atom -12403.503454 kJ/mol
# Density = 1.994271 g / cm^3
# Si number density = 19.988208 Si / 1000 Ang^3
#
#
#
# Elastic Constant Matrix: (Units=GPa)
#
#
# Indices 1 2 3 4 5 6 
#
# 1 58.5100 43.9897 41.8463 0.0000 0.0000 0.0000
# 2 43.9897 181.6832 82.0074 0.0000 0.0000 0.0000
# 3 41.8463 82.0074 135.7955 0.0000 0.0000 0.0000
# 4 0.0000 0.0000 0.0000 16.6101 0.0000 0.0000
# 5 0.0000 0.0000 0.0000 0.0000 18.7948 0.0000
# 6 0.0000 0.0000 0.0000 0.0000 0.0000 -25.2320
#
#
#
# Elastic Compliance Matrix: (Units=1/GPa)
#
#
# Indices 1 2 3 4 5 6 
#
# 1 0.023276 -0.003297 -0.005182 0.000000 0.000000 0.000000
# 2 -0.003297 0.008034 -0.003836 0.000000 0.000000 0.000000
# 3 -0.005182 -0.003836 0.011277 0.000000 0.000000 0.000000
# 4 0.000000 0.000000 0.000000 0.060204 0.000000 0.000000
# 5 0.000000 0.000000 0.000000 0.000000 0.053206 0.000000
# 6 0.000000 0.000000 0.000000 0.000000 0.000000 -0.039632
#
#
# Mechanical properties :
#
#
# Convention : Reuss Voigt Hill
#
# Bulk Modulus (GPa) = 55.68435 79.07507 67.37971
# Shear Modulus (GPa) = 34.01859 15.91094 24.96476
#
# Velocity S-wave (km/s) = 4.12992 2.82444 3.53792
# Velocity P-wave (km/s) = 7.11764 7.09107 7.10437
#
# Compressibility (1/GPa) = 0.01795837
#
# Stress axis : x y z
#
# Youngs Moduli (GPa) = 42.96353 124.47732 88.67515
#
# Poissons Ratio (x) = 0.41036 0.45948
# Poissons Ratio (y) = 0.14164 0.34012
# Poissons Ratio (z) = 0.22262 0.47745
#
# Static dielectric constant tensor:
#      x y z
#    x 3.423350 0.000000 0.000000 
#    y 0.000000 3.946100 0.000000 
#    z 0.000000 0.000000 3.861760 
# 
# 
# High freq. dielectric constant tensor:
#      x y z
#    x 1.760700 0.000000 0.000000 
#    y 0.000000 1.794540 0.000000 
#    z 0.000000 0.000000 1.791480 
# 
# From -- ./inp_files/5815.got.cif
#   From: 2010.03.12/outbox.cif.g09.slc.cpg/sg62_3_cif.got.tgz:5815.got - 2010.04.10 19:12:36.
